# generated using pymatgen
data_La8Si15Pt
_symmetry_space_group_name_H-M   'P 1'
_cell_length_a   8.28327800
_cell_length_b   8.28327871
_cell_length_c   8.73113400
_cell_angle_alpha   90.00000000
_cell_angle_beta   90.00000000
_cell_angle_gamma   119.99999715
_symmetry_Int_Tables_number   1
_chemical_formula_structural   La8Si15Pt
_chemical_formula_sum   'La8 Si15 Pt1'
_cell_volume   518.80697908
_cell_formula_units_Z   1
loop_
 _symmetry_equiv_pos_site_id
 _symmetry_equiv_pos_as_xyz
  1  'x, y, z'
loop_
 _atom_site_type_symbol
 _atom_site_label
 _atom_site_symmetry_multiplicity
 _atom_site_fract_x
 _atom_site_fract_y
 _atom_site_fract_z
 _atom_site_occupancy
  La  La0  1  0.498464  0.501536  0.754493  1
  La  La1  1  0.498492  0.501508  0.245290  1
  La  La2  1  0.003072  0.501536  0.754493  1
  La  La3  1  0.003015  0.501508  0.245290  1
  La  La4  1  0.498464  0.996928  0.754493  1
  La  La5  1  0.498492  0.996985  0.245290  1
  La  La6  1  0.000000  0.000000  0.751947  1
  La  La7  1  0.000000  0.000000  0.248296  1
  Si  Si8  1  0.666667  0.333333  0.999854  1
  Si  Si9  1  0.333333  0.666667  0.999914  1
  Si  Si10  1  0.333333  0.666667  0.499884  1
  Si  Si11  1  0.833834  0.166166  0.000103  1
  Si  Si12  1  0.167075  0.832925  0.000049  1
  Si  Si13  1  0.332331  0.166166  0.000103  1
  Si  Si14  1  0.164439  0.835561  0.500108  1
  Si  Si15  1  0.665850  0.832925  0.000049  1
  Si  Si16  1  0.832594  0.167406  0.500104  1
  Si  Si17  1  0.833834  0.667669  0.000103  1
  Si  Si18  1  0.671120  0.835561  0.500108  1
  Si  Si19  1  0.167075  0.334150  0.000049  1
  Si  Si20  1  0.334813  0.167406  0.500104  1
  Si  Si21  1  0.164439  0.328880  0.500108  1
  Si  Si22  1  0.832594  0.665187  0.500104  1
  Pt  Pt23  1  0.666667  0.333333  0.499662  1
