# generated using pymatgen
data_PaCu2Ir3S8
_symmetry_space_group_name_H-M   'P 1'
_cell_length_a   6.97305937
_cell_length_b   6.97305968
_cell_length_c   6.97305918
_cell_angle_alpha   63.35465844
_cell_angle_beta   63.35465891
_cell_angle_gamma   63.35465622
_symmetry_Int_Tables_number   1
_chemical_formula_structural   PaCu2Ir3S8
_chemical_formula_sum   'Pa1 Cu2 Ir3 S8'
_cell_volume   257.55379814
_cell_formula_units_Z   1
loop_
 _symmetry_equiv_pos_site_id
 _symmetry_equiv_pos_as_xyz
  1  'x, y, z'
loop_
 _atom_site_type_symbol
 _atom_site_label
 _atom_site_symmetry_multiplicity
 _atom_site_fract_x
 _atom_site_fract_y
 _atom_site_fract_z
 _atom_site_occupancy
  Pa  Pa0  1  0.625000  0.625000  0.625000  1
  Cu  Cu1  1  0.000829  0.000829  0.000829  1
  Cu  Cu2  1  0.249171  0.249171  0.249171  1
  Ir  Ir3  1  0.625000  0.625000  0.125000  1
  Ir  Ir4  1  0.125000  0.625000  0.625000  1
  Ir  Ir5  1  0.625000  0.125000  0.625000  1
  S  S6  1  0.363886  0.363886  0.860974  1
  S  S7  1  0.387177  0.387177  0.387177  1
  S  S8  1  0.862823  0.862823  0.862823  1
  S  S9  1  0.886114  0.886114  0.389026  1
  S  S10  1  0.363886  0.860974  0.363886  1
  S  S11  1  0.860974  0.363886  0.363886  1
  S  S12  1  0.389026  0.886114  0.886114  1
  S  S13  1  0.886114  0.389026  0.886114  1
