# generated using pymatgen
data_Ta4Be3Mo2As
_symmetry_space_group_name_H-M   'P 1'
_cell_length_a   6.47416298
_cell_length_b   6.47416278
_cell_length_c   3.38332400
_cell_angle_alpha   90.00000000
_cell_angle_beta   90.00000000
_cell_angle_gamma   89.80215120
_symmetry_Int_Tables_number   1
_chemical_formula_structural   Ta4Be3Mo2As
_chemical_formula_sum   'Ta4 Be3 Mo2 As1'
_cell_volume   141.81045266
_cell_formula_units_Z   1
loop_
 _symmetry_equiv_pos_site_id
 _symmetry_equiv_pos_as_xyz
  1  'x, y, z'
loop_
 _atom_site_type_symbol
 _atom_site_label
 _atom_site_symmetry_multiplicity
 _atom_site_fract_x
 _atom_site_fract_y
 _atom_site_fract_z
 _atom_site_occupancy
  Ta  Ta0  1  0.677336  0.177336  0.500000  1
  Ta  Ta1  1  0.336839  0.836839  0.500000  1
  Ta  Ta2  1  0.177469  0.304557  0.500000  1
  Ta  Ta3  1  0.804557  0.677469  0.500000  1
  Be  Be4  1  0.873393  0.373393  0.000000  1
  Be  Be5  1  0.619677  0.886441  0.000000  1
  Be  Be6  1  0.386441  0.119677  0.000000  1
  Mo  Mo7  1  0.506562  0.498884  0.000000  1
  Mo  Mo8  1  0.998884  0.006562  0.000000  1
  As  As9  1  0.118842  0.618842  0.000000  1
