# generated using pymatgen
data_Ag2Bi2PtRh3O14
_symmetry_space_group_name_H-M   'P 1'
_cell_length_a   7.24649717
_cell_length_b   7.10766507
_cell_length_c   7.24649762
_cell_angle_alpha   60.83283870
_cell_angle_beta   61.69376248
_cell_angle_gamma   60.83285492
_symmetry_Int_Tables_number   1
_chemical_formula_structural   Ag2Bi2PtRh3O14
_chemical_formula_sum   'Ag2 Bi2 Pt1 Rh3 O14'
_cell_volume   270.52949779
_cell_formula_units_Z   1
loop_
 _symmetry_equiv_pos_site_id
 _symmetry_equiv_pos_as_xyz
  1  'x, y, z'
loop_
 _atom_site_type_symbol
 _atom_site_label
 _atom_site_symmetry_multiplicity
 _atom_site_fract_x
 _atom_site_fract_y
 _atom_site_fract_z
 _atom_site_occupancy
  Ag  Ag0  1  0.125000  0.125000  0.125000  1
  Ag  Ag1  1  0.125000  0.625000  0.125000  1
  Bi  Bi2  1  0.625000  0.125000  0.125000  1
  Bi  Bi3  1  0.125000  0.125000  0.625000  1
  Pt  Pt4  1  0.625000  0.625000  0.625000  1
  Rh  Rh5  1  0.625000  0.625000  0.125000  1
  Rh  Rh6  1  0.125000  0.625000  0.625000  1
  Rh  Rh7  1  0.625000  0.125000  0.625000  1
  O  O8  1  0.241736  0.258117  0.241736  1
  O  O9  1  0.303980  0.696333  0.303980  1
  O  O10  1  0.952299  0.957340  0.551728  1
  O  O11  1  0.538643  0.961608  0.538643  1
  O  O12  1  0.701443  0.713098  0.294916  1
  O  O13  1  0.955084  0.536902  0.548557  1
  O  O14  1  0.711357  0.288392  0.711357  1
  O  O15  1  0.297701  0.292660  0.698272  1
  O  O16  1  0.698272  0.292660  0.297701  1
  O  O17  1  0.294916  0.713098  0.701443  1
  O  O18  1  0.946020  0.553667  0.946020  1
  O  O19  1  0.548557  0.536902  0.955084  1
  O  O20  1  0.008264  0.991883  0.008264  1
  O  O21  1  0.551728  0.957340  0.952299  1
