# generated using pymatgen
data_Sb8Pd9Rh2
_symmetry_space_group_name_H-M   'P 1'
_cell_length_a   7.80053361
_cell_length_b   7.79325356
_cell_length_c   12.59122163
_cell_angle_alpha   98.79385831
_cell_angle_beta   98.74309011
_cell_angle_gamma   90.04666996
_symmetry_Int_Tables_number   1
_chemical_formula_structural   Sb8Pd9Rh2
_chemical_formula_sum   'Sb16 Pd18 Rh4'
_cell_volume   747.42510129
_cell_formula_units_Z   2
loop_
 _symmetry_equiv_pos_site_id
 _symmetry_equiv_pos_as_xyz
  1  'x, y, z'
loop_
 _atom_site_type_symbol
 _atom_site_label
 _atom_site_symmetry_multiplicity
 _atom_site_fract_x
 _atom_site_fract_y
 _atom_site_fract_z
 _atom_site_occupancy
  Sb  Sb0  1  0.253383  0.378037  0.005571  1
  Sb  Sb1  1  0.748712  0.130198  0.013806  1
  Sb  Sb2  1  0.062503  0.442492  0.245314  1
  Sb  Sb3  1  0.560715  0.429348  0.245829  1
  Sb  Sb4  1  0.064090  0.930352  0.246643  1
  Sb  Sb5  1  0.560668  0.945045  0.247481  1
  Sb  Sb6  1  0.869577  0.246739  0.485833  1
  Sb  Sb7  1  0.622589  0.747483  0.496619  1
  Sb  Sb8  1  0.377837  0.252482  0.502560  1
  Sb  Sb9  1  0.129747  0.752905  0.512893  1
  Sb  Sb10  1  0.437104  0.060468  0.749446  1
  Sb  Sb11  1  0.938095  0.062072  0.750815  1
  Sb  Sb12  1  0.437253  0.563697  0.750949  1
  Sb  Sb13  1  0.939776  0.563649  0.752086  1
  Sb  Sb14  1  0.248531  0.871781  0.991758  1
  Sb  Sb15  1  0.753603  0.622611  0.998989  1
  Pd  Pd16  1  0.078230  0.144262  0.092483  1
  Pd  Pd17  1  0.460029  0.654072  0.095614  1
  Pd  Pd18  1  0.798837  0.678127  0.214417  1
  Pd  Pd19  1  0.317874  0.197571  0.286918  1
  Pd  Pd20  1  0.345963  0.541727  0.404001  1
  Pd  Pd21  1  0.857218  0.917278  0.408235  1
  Pd  Pd22  1  0.347634  0.913172  0.405427  1
  Pd  Pd23  1  0.857783  0.537830  0.408676  1
  Pd  Pd24  1  0.143136  0.461819  0.591614  1
  Pd  Pd25  1  0.652221  0.086649  0.593967  1
  Pd  Pd26  1  0.144022  0.083116  0.591810  1
  Pd  Pd27  1  0.654251  0.458316  0.595479  1
  Pd  Pd28  1  0.678122  0.802525  0.713619  1
  Pd  Pd29  1  0.198071  0.322563  0.787599  1
  Pd  Pd30  1  0.541464  0.348526  0.905380  1
  Pd  Pd31  1  0.919624  0.857427  0.909024  1
  Pd  Pd32  1  0.915256  0.346135  0.907038  1
  Pd  Pd33  1  0.536791  0.854669  0.909166  1
  Rh  Rh34  1  0.463025  0.143980  0.090390  1
  Rh  Rh35  1  0.082769  0.651067  0.092688  1
  Rh  Rh36  1  0.815997  0.187900  0.251031  1
  Rh  Rh37  1  0.187493  0.811906  0.748831  1
