# generated using pymatgen
data_Hf6Co15Si7Ru
_symmetry_space_group_name_H-M   'P 1'
_cell_length_a   8.04126154
_cell_length_b   8.04126053
_cell_length_c   8.06943468
_cell_angle_alpha   60.11543416
_cell_angle_beta   60.11543443
_cell_angle_gamma   60.00000260
_symmetry_Int_Tables_number   1
_chemical_formula_structural   Hf6Co15Si7Ru
_chemical_formula_sum   'Hf6 Co15 Si7 Ru1'
_cell_volume   369.60002723
_cell_formula_units_Z   1
loop_
 _symmetry_equiv_pos_site_id
 _symmetry_equiv_pos_as_xyz
  1  'x, y, z'
loop_
 _atom_site_type_symbol
 _atom_site_label
 _atom_site_symmetry_multiplicity
 _atom_site_fract_x
 _atom_site_fract_y
 _atom_site_fract_z
 _atom_site_occupancy
  Hf  Hf0  1  0.204962  0.796585  0.793493  1
  Hf  Hf1  1  0.797046  0.797046  0.204252  1
  Hf  Hf2  1  0.797046  0.201654  0.204252  1
  Hf  Hf3  1  0.204962  0.204962  0.793493  1
  Hf  Hf4  1  0.796585  0.204962  0.793493  1
  Hf  Hf5  1  0.201654  0.797046  0.204252  1
  Co  Co6  1  0.171406  0.484743  0.172445  1
  Co  Co7  1  0.860136  0.377810  0.384242  1
  Co  Co8  1  0.507459  0.832882  0.826775  1
  Co  Co9  1  0.484743  0.171406  0.172445  1
  Co  Co10  1  0.829169  0.829169  0.512491  1
  Co  Co11  1  0.171706  0.171706  0.484883  1
  Co  Co12  1  0.140172  0.620190  0.619448  1
  Co  Co13  1  0.171406  0.171406  0.172445  1
  Co  Co14  1  0.379590  0.379590  0.861230  1
  Co  Co15  1  0.620190  0.620190  0.619448  1
  Co  Co16  1  0.377810  0.860136  0.384242  1
  Co  Co17  1  0.377810  0.377810  0.384242  1
  Co  Co18  1  0.832882  0.832882  0.826775  1
  Co  Co19  1  0.620190  0.140172  0.619448  1
  Co  Co20  1  0.832882  0.507459  0.826775  1
  Si  Si21  1  0.500754  0.000248  0.498751  1
  Si  Si22  1  0.500217  0.500217  0.995422  1
  Si  Si23  1  0.496049  0.496049  0.511853  1
  Si  Si24  1  0.000248  0.000248  0.498751  1
  Si  Si25  1  0.004142  0.500217  0.995422  1
  Si  Si26  1  0.000248  0.500754  0.498751  1
  Si  Si27  1  0.500217  0.004142  0.995422  1
  Ru  Ru28  1  0.618316  0.618316  0.145052  1
