# generated using pymatgen
data_Ba4Cu2O7
_symmetry_space_group_name_H-M   'P 1'
_cell_length_a   5.80960200
_cell_length_b   7.10816523
_cell_length_c   11.51115581
_cell_angle_alpha   66.08893074
_cell_angle_beta   90.00000000
_cell_angle_gamma   90.00000000
_symmetry_Int_Tables_number   1
_chemical_formula_structural   Ba4Cu2O7
_chemical_formula_sum   'Ba8 Cu4 O14'
_cell_volume   434.56273836
_cell_formula_units_Z   2
loop_
 _symmetry_equiv_pos_site_id
 _symmetry_equiv_pos_as_xyz
  1  'x, y, z'
loop_
 _atom_site_type_symbol
 _atom_site_label
 _atom_site_symmetry_multiplicity
 _atom_site_fract_x
 _atom_site_fract_y
 _atom_site_fract_z
 _atom_site_occupancy
  Ba  Ba0  1  0.759722  0.286656  0.560755  1
  Ba  Ba1  1  0.734943  0.713158  0.204490  1
  Ba  Ba2  1  0.740278  0.286656  0.060755  1
  Ba  Ba3  1  0.234943  0.286842  0.295510  1
  Ba  Ba4  1  0.240278  0.713344  0.439245  1
  Ba  Ba5  1  0.765057  0.713158  0.704490  1
  Ba  Ba6  1  0.265057  0.286842  0.795510  1
  Ba  Ba7  1  0.259722  0.713344  0.939245  1
  Cu  Cu8  1  0.754323  0.999351  0.383625  1
  Cu  Cu9  1  0.245677  0.000649  0.616375  1
  Cu  Cu10  1  0.745677  0.999351  0.883625  1
  Cu  Cu11  1  0.254323  0.000649  0.116375  1
  O  O12  1  0.738449  0.295720  0.314134  1
  O  O13  1  0.742619  0.703873  0.461666  1
  O  O14  1  0.518247  0.999881  0.276448  1
  O  O15  1  0.000000  0.000000  0.500000  1
  O  O16  1  0.500000  0.000000  0.000000  1
  O  O17  1  0.018247  0.000119  0.223552  1
  O  O18  1  0.257381  0.296127  0.538334  1
  O  O19  1  0.481753  0.000119  0.723552  1
  O  O20  1  0.238449  0.704280  0.185866  1
  O  O21  1  0.757381  0.703873  0.961666  1
  O  O22  1  0.761551  0.295720  0.814134  1
  O  O23  1  0.242619  0.296127  0.038334  1
  O  O24  1  0.261551  0.704280  0.685866  1
  O  O25  1  0.981753  0.999881  0.776448  1
