# generated using pymatgen
data_Ho3Th(GaPd2)4
_symmetry_space_group_name_H-M   'P 1'
_cell_length_a   5.66743510
_cell_length_b   7.18412300
_cell_length_c   7.39515130
_cell_angle_alpha   90.00000000
_cell_angle_beta   89.66726385
_cell_angle_gamma   90.00000000
_symmetry_Int_Tables_number   1
_chemical_formula_structural   Ho3Th(GaPd2)4
_chemical_formula_sum   'Ho3 Th1 Ga4 Pd8'
_cell_volume   301.09258137
_cell_formula_units_Z   1
loop_
 _symmetry_equiv_pos_site_id
 _symmetry_equiv_pos_as_xyz
  1  'x, y, z'
loop_
 _atom_site_type_symbol
 _atom_site_label
 _atom_site_symmetry_multiplicity
 _atom_site_fract_x
 _atom_site_fract_y
 _atom_site_fract_z
 _atom_site_occupancy
  Ho  Ho0  1  0.148963  0.750000  0.529244  1
  Ho  Ho1  1  0.652370  0.250000  0.968625  1
  Ho  Ho2  1  0.851580  0.250000  0.467885  1
  Th  Th3  1  0.352451  0.750000  0.033488  1
  Ga  Ga4  1  0.649818  0.750000  0.391803  1
  Ga  Ga5  1  0.854763  0.750000  0.877924  1
  Ga  Ga6  1  0.354337  0.250000  0.616812  1
  Ga  Ga7  1  0.145289  0.250000  0.115858  1
  Pd  Pd8  1  0.911322  0.552234  0.183435  1
  Pd  Pd9  1  0.584522  0.949762  0.683870  1
  Pd  Pd10  1  0.085565  0.051740  0.815979  1
  Pd  Pd11  1  0.413806  0.448647  0.315897  1
  Pd  Pd12  1  0.085565  0.448260  0.815979  1
  Pd  Pd13  1  0.413806  0.051353  0.315897  1
  Pd  Pd14  1  0.911322  0.947766  0.183435  1
  Pd  Pd15  1  0.584522  0.550238  0.683870  1
