# generated using pymatgen
data_Er7Lu3TlSn5
_symmetry_space_group_name_H-M   'P 1'
_cell_length_a   8.86066500
_cell_length_b   8.86172316
_cell_length_c   6.46896000
_cell_angle_alpha   89.99981250
_cell_angle_beta   89.99956676
_cell_angle_gamma   119.95992012
_symmetry_Int_Tables_number   1
_chemical_formula_structural   Er7Lu3TlSn5
_chemical_formula_sum   'Er7 Lu3 Tl1 Sn5'
_cell_volume   440.07312841
_cell_formula_units_Z   1
loop_
 _symmetry_equiv_pos_site_id
 _symmetry_equiv_pos_as_xyz
  1  'x, y, z'
loop_
 _atom_site_type_symbol
 _atom_site_label
 _atom_site_symmetry_multiplicity
 _atom_site_fract_x
 _atom_site_fract_y
 _atom_site_fract_z
 _atom_site_occupancy
  Er  Er0  1  0.666333  0.333141  0.999114  1
  Er  Er1  1  0.761184  0.761311  0.749761  1
  Er  Er2  1  0.238910  0.001223  0.749832  1
  Er  Er3  1  0.001494  0.239104  0.749822  1
  Er  Er4  1  0.238140  0.238130  0.250233  1
  Er  Er5  1  0.761316  0.999680  0.250239  1
  Er  Er6  1  0.999851  0.761403  0.250203  1
  Lu  Lu7  1  0.333408  0.666285  0.999145  1
  Lu  Lu8  1  0.333377  0.666511  0.500872  1
  Lu  Lu9  1  0.666336  0.333325  0.500887  1
  Tl  Tl10  1  0.395538  0.396352  0.748934  1
  Sn  Sn11  1  0.603933  0.999304  0.748858  1
  Sn  Sn12  1  0.000750  0.604756  0.748945  1
  Sn  Sn13  1  0.604225  0.605085  0.251096  1
  Sn  Sn14  1  0.395258  0.998391  0.251054  1
  Sn  Sn15  1  0.999945  0.396000  0.251006  1
