# generated using pymatgen
data_NaAu2(SO4)4
_symmetry_space_group_name_H-M   'P 1'
_cell_length_a   6.66667374
_cell_length_b   6.66667376
_cell_length_c   8.92394486
_cell_angle_alpha   74.53399696
_cell_angle_beta   74.53400038
_cell_angle_gamma   87.49447028
_symmetry_Int_Tables_number   1
_chemical_formula_structural   NaAu2(SO4)4
_chemical_formula_sum   'Na1 Au2 S4 O16'
_cell_volume   368.25625201
_cell_formula_units_Z   1
loop_
 _symmetry_equiv_pos_site_id
 _symmetry_equiv_pos_as_xyz
  1  'x, y, z'
loop_
 _atom_site_type_symbol
 _atom_site_label
 _atom_site_symmetry_multiplicity
 _atom_site_fract_x
 _atom_site_fract_y
 _atom_site_fract_z
 _atom_site_occupancy
  Na  Na0  1  0.000000  0.000000  0.000000  1
  Au  Au1  1  0.000000  0.000000  0.500000  1
  Au  Au2  1  0.500000  0.500000  0.500000  1
  S  S3  1  0.084188  0.587165  0.736661  1
  S  S4  1  0.587165  0.084188  0.736661  1
  S  S5  1  0.915812  0.412835  0.263339  1
  S  S6  1  0.412835  0.915812  0.263339  1
  O  O7  1  0.325021  0.630583  0.670247  1
  O  O8  1  0.630583  0.325021  0.670247  1
  O  O9  1  0.674979  0.369417  0.329753  1
  O  O10  1  0.369417  0.674979  0.329753  1
  O  O11  1  0.019610  0.699640  0.857844  1
  O  O12  1  0.699640  0.019610  0.857844  1
  O  O13  1  0.980390  0.300360  0.142156  1
  O  O14  1  0.300360  0.980390  0.142156  1
  O  O15  1  0.992957  0.685762  0.589648  1
  O  O16  1  0.685762  0.992957  0.589648  1
  O  O17  1  0.007043  0.314238  0.410352  1
  O  O18  1  0.314238  0.007043  0.410352  1
  O  O19  1  0.035296  0.367583  0.777214  1
  O  O20  1  0.367583  0.035296  0.777214  1
  O  O21  1  0.964704  0.632417  0.222786  1
  O  O22  1  0.632417  0.964704  0.222786  1
