# generated using pymatgen
data_Y3Pa(Al3Ir)6
_symmetry_space_group_name_H-M   'P 1'
_cell_length_a   7.57406421
_cell_length_b   7.57076006
_cell_length_c   9.44625100
_cell_angle_alpha   90.00000000
_cell_angle_beta   90.00000000
_cell_angle_gamma   119.59684233
_symmetry_Int_Tables_number   1
_chemical_formula_structural   Y3Pa(Al3Ir)6
_chemical_formula_sum   'Y3 Pa1 Al18 Ir6'
_cell_volume   470.98664847
_cell_formula_units_Z   1
loop_
 _symmetry_equiv_pos_site_id
 _symmetry_equiv_pos_as_xyz
  1  'x, y, z'
loop_
 _atom_site_type_symbol
 _atom_site_label
 _atom_site_symmetry_multiplicity
 _atom_site_fract_x
 _atom_site_fract_y
 _atom_site_fract_z
 _atom_site_occupancy
  Y  Y0  1  0.005129  0.329500  0.750000  1
  Y  Y1  1  0.671528  0.994859  0.250000  1
  Y  Y2  1  0.329671  0.004666  0.750000  1
  Pa  Pa3  1  0.995842  0.670958  0.250000  1
  Al  Al4  1  0.131153  0.130151  0.250000  1
  Al  Al5  1  0.872939  0.874039  0.750000  1
  Al  Al6  1  0.000774  0.332282  0.074652  1
  Al  Al7  1  0.999042  0.664910  0.922312  1
  Al  Al8  1  0.999042  0.664910  0.577688  1
  Al  Al9  1  0.337921  0.003657  0.425296  1
  Al  Al10  1  0.000774  0.332282  0.425348  1
  Al  Al11  1  0.665296  0.999766  0.575111  1
  Al  Al12  1  0.665296  0.999766  0.924889  1
  Al  Al13  1  0.337921  0.003657  0.074704  1
  Al  Al14  1  0.332922  0.333059  0.554010  1
  Al  Al15  1  0.663590  0.665988  0.447935  1
  Al  Al16  1  0.663590  0.665988  0.052065  1
  Al  Al17  1  0.332922  0.333059  0.945990  1
  Al  Al18  1  0.338976  0.546282  0.250000  1
  Al  Al19  1  0.659845  0.450307  0.750000  1
  Al  Al20  1  0.546350  0.341275  0.250000  1
  Al  Al21  1  0.451151  0.660786  0.750000  1
  Ir  Ir22  1  0.673854  0.330391  0.002183  1
  Ir  Ir23  1  0.326120  0.671820  0.002231  1
  Ir  Ir24  1  0.326120  0.671820  0.497769  1
  Ir  Ir25  1  0.673854  0.330391  0.497817  1
  Ir  Ir26  1  0.999189  0.996716  0.003106  1
  Ir  Ir27  1  0.999189  0.996716  0.496894  1
