# generated using pymatgen
data_CaPr6IrCl12
_symmetry_space_group_name_H-M   'P 1'
_cell_length_a   9.26671365
_cell_length_b   9.40623689
_cell_length_c   9.40287109
_cell_angle_alpha   107.39887260
_cell_angle_beta   107.24194592
_cell_angle_gamma   107.16402937
_symmetry_Int_Tables_number   1
_chemical_formula_structural   CaPr6IrCl12
_chemical_formula_sum   'Ca1 Pr6 Ir1 Cl12'
_cell_volume   677.51131251
_cell_formula_units_Z   1
loop_
 _symmetry_equiv_pos_site_id
 _symmetry_equiv_pos_as_xyz
  1  'x, y, z'
loop_
 _atom_site_type_symbol
 _atom_site_label
 _atom_site_symmetry_multiplicity
 _atom_site_fract_x
 _atom_site_fract_y
 _atom_site_fract_z
 _atom_site_occupancy
  Ca  Ca0  1  0.500000  0.500000  0.500000  1
  Pr  Pr1  1  0.117648  0.326422  0.024468  1
  Pr  Pr2  1  0.318293  0.024179  0.113470  1
  Pr  Pr3  1  0.024544  0.117446  0.327185  1
  Pr  Pr4  1  0.975457  0.882554  0.672816  1
  Pr  Pr5  1  0.681707  0.975822  0.886530  1
  Pr  Pr6  1  0.882352  0.673578  0.975532  1
  Ir  Ir7  1  0.000000  0.000000  0.000000  1
  Cl  Cl8  1  0.209753  0.685579  0.070344  1
  Cl  Cl9  1  0.458029  0.374909  0.176910  1
  Cl  Cl10  1  0.683985  0.070021  0.208278  1
  Cl  Cl11  1  0.929001  0.791441  0.314457  1
  Cl  Cl12  1  0.174158  0.456176  0.373937  1
  Cl  Cl13  1  0.375629  0.176818  0.456686  1
  Cl  Cl14  1  0.624371  0.823182  0.543315  1
  Cl  Cl15  1  0.825843  0.543824  0.626063  1
  Cl  Cl16  1  0.071000  0.208559  0.685544  1
  Cl  Cl17  1  0.316016  0.929980  0.791722  1
  Cl  Cl18  1  0.541971  0.625091  0.823091  1
  Cl  Cl19  1  0.790247  0.314421  0.929656  1
