# generated using pymatgen
data_Ce2NiB2RuN2
_symmetry_space_group_name_H-M   'P 1'
_cell_length_a   3.68929900
_cell_length_b   3.68929900
_cell_length_c   7.47865700
_cell_angle_alpha   90.00000000
_cell_angle_beta   90.00000000
_cell_angle_gamma   90.00000000
_symmetry_Int_Tables_number   1
_chemical_formula_structural   Ce2NiB2RuN2
_chemical_formula_sum   'Ce2 Ni1 B2 Ru1 N2'
_cell_volume   101.79145532
_cell_formula_units_Z   1
loop_
 _symmetry_equiv_pos_site_id
 _symmetry_equiv_pos_as_xyz
  1  'x, y, z'
loop_
 _atom_site_type_symbol
 _atom_site_label
 _atom_site_symmetry_multiplicity
 _atom_site_fract_x
 _atom_site_fract_y
 _atom_site_fract_z
 _atom_site_occupancy
  Ce  Ce0  1  0.500000  0.000000  0.170734  1
  Ce  Ce1  1  0.000000  0.500000  0.829266  1
  Ni  Ni2  1  0.500000  0.500000  0.500000  1
  B  B3  1  0.000000  0.500000  0.348155  1
  B  B4  1  0.500000  0.000000  0.651845  1
  Ru  Ru5  1  0.000000  0.000000  0.500000  1
  N  N6  1  0.000000  0.500000  0.148598  1
  N  N7  1  0.500000  0.000000  0.851402  1
