# generated using pymatgen
data_Gd3HoEr2Ta2O14
_symmetry_space_group_name_H-M   'P 1'
_cell_length_a   6.49910649
_cell_length_b   6.48387006
_cell_length_c   7.51840691
_cell_angle_alpha   89.94746970
_cell_angle_beta   89.96534463
_cell_angle_gamma   108.84516573
_symmetry_Int_Tables_number   1
_chemical_formula_structural   Gd3HoEr2Ta2O14
_chemical_formula_sum   'Gd3 Ho1 Er2 Ta2 O14'
_cell_volume   299.83740268
_cell_formula_units_Z   1
loop_
 _symmetry_equiv_pos_site_id
 _symmetry_equiv_pos_as_xyz
  1  'x, y, z'
loop_
 _atom_site_type_symbol
 _atom_site_label
 _atom_site_symmetry_multiplicity
 _atom_site_fract_x
 _atom_site_fract_y
 _atom_site_fract_z
 _atom_site_occupancy
  Gd  Gd0  1  0.533514  0.999445  0.755573  1
  Gd  Gd1  1  0.526642  0.524614  0.498499  1
  Gd  Gd2  1  0.472138  0.472328  0.001689  1
  Ho  Ho3  1  0.999061  0.466364  0.744659  1
  Er  Er4  1  0.464443  0.999543  0.255999  1
  Er  Er5  1  0.000663  0.534660  0.244180  1
  Ta  Ta6  1  0.002104  0.002902  0.498300  1
  Ta  Ta7  1  0.996825  0.997484  0.001852  1
  O  O8  1  0.068391  0.929229  0.250015  1
  O  O9  1  0.052133  0.312086  0.457991  1
  O  O10  1  0.075710  0.325959  0.028661  1
  O  O11  1  0.357048  0.641773  0.249642  1
  O  O12  1  0.364391  0.626145  0.749357  1
  O  O13  1  0.327081  0.081363  0.978035  1
  O  O14  1  0.314726  0.061098  0.534110  1
  O  O15  1  0.689637  0.945629  0.045140  1
  O  O16  1  0.675716  0.921884  0.468237  1
  O  O17  1  0.633256  0.367837  0.249918  1
  O  O18  1  0.641426  0.362631  0.750657  1
  O  O19  1  0.922833  0.673967  0.527064  1
  O  O20  1  0.944238  0.687301  0.960458  1
  O  O21  1  0.938026  0.065760  0.749967  1
