# generated using pymatgen
data_Yb6GaSi23Ru8
_symmetry_space_group_name_H-M   'P 1'
_cell_length_a   10.19396075
_cell_length_b   10.19396015
_cell_length_c   8.16156539
_cell_angle_alpha   89.98588507
_cell_angle_beta   89.98587943
_cell_angle_gamma   132.78578963
_symmetry_Int_Tables_number   1
_chemical_formula_structural   Yb6GaSi23Ru8
_chemical_formula_sum   'Yb6 Ga1 Si23 Ru8'
_cell_volume   622.43669097
_cell_formula_units_Z   1
loop_
 _symmetry_equiv_pos_site_id
 _symmetry_equiv_pos_as_xyz
  1  'x, y, z'
loop_
 _atom_site_type_symbol
 _atom_site_label
 _atom_site_symmetry_multiplicity
 _atom_site_fract_x
 _atom_site_fract_y
 _atom_site_fract_z
 _atom_site_occupancy
  Yb  Yb0  1  0.999970  0.000030  0.000000  1
  Yb  Yb1  1  0.499206  0.500794  0.500000  1
  Yb  Yb2  1  0.002808  0.502718  0.250580  1
  Yb  Yb3  1  0.997397  0.496988  0.749400  1
  Yb  Yb4  1  0.497282  0.997192  0.749420  1
  Yb  Yb5  1  0.503012  0.002603  0.250600  1
  Ga  Ga6  1  0.707476  0.292524  0.000000  1
  Si  Si7  1  0.293753  0.706247  0.000000  1
  Si  Si8  1  0.794357  0.205643  0.500000  1
  Si  Si9  1  0.205433  0.794567  0.500000  1
  Si  Si10  1  0.333588  0.331967  0.167719  1
  Si  Si11  1  0.668033  0.666412  0.832281  1
  Si  Si12  1  0.167995  0.167078  0.667231  1
  Si  Si13  1  0.832922  0.832005  0.332769  1
  Si  Si14  1  0.847487  0.617937  0.011127  1
  Si  Si15  1  0.153516  0.385906  0.990654  1
  Si  Si16  1  0.653233  0.886623  0.507361  1
  Si  Si17  1  0.113377  0.346767  0.492639  1
  Si  Si18  1  0.346762  0.113471  0.493040  1
  Si  Si19  1  0.886529  0.653238  0.506960  1
  Si  Si20  1  0.382063  0.152513  0.988873  1
  Si  Si21  1  0.614094  0.846484  0.009346  1
  Si  Si22  1  0.894428  0.125313  0.269809  1
  Si  Si23  1  0.107420  0.874674  0.730321  1
  Si  Si24  1  0.602721  0.373443  0.766467  1
  Si  Si25  1  0.626557  0.397279  0.233533  1
  Si  Si26  1  0.392431  0.626590  0.231616  1
  Si  Si27  1  0.373410  0.607569  0.768384  1
  Si  Si28  1  0.874687  0.105572  0.730191  1
  Si  Si29  1  0.125326  0.892580  0.269679  1
  Ru  Ru30  1  0.835965  0.164035  0.000000  1
  Ru  Ru31  1  0.169174  0.830826  0.000000  1
  Ru  Ru32  1  0.669485  0.330515  0.500000  1
  Ru  Ru33  1  0.330090  0.669910  0.500000  1
  Ru  Ru34  1  0.126225  0.125534  0.374890  1
  Ru  Ru35  1  0.874466  0.873775  0.625110  1
  Ru  Ru36  1  0.374389  0.377069  0.875167  1
  Ru  Ru37  1  0.622931  0.625611  0.124833  1
