# generated using pymatgen
data_Hf2CuRh3
_symmetry_space_group_name_H-M   'P 1'
_cell_length_a   7.80107500
_cell_length_b   7.80107464
_cell_length_c   5.44221900
_cell_angle_alpha   90.00000000
_cell_angle_beta   90.00000000
_cell_angle_gamma   119.99999729
_symmetry_Int_Tables_number   1
_chemical_formula_structural   Hf2CuRh3
_chemical_formula_sum   'Hf6 Cu3 Rh9'
_cell_volume   286.82403709
_cell_formula_units_Z   3
loop_
 _symmetry_equiv_pos_site_id
 _symmetry_equiv_pos_as_xyz
  1  'x, y, z'
loop_
 _atom_site_type_symbol
 _atom_site_label
 _atom_site_symmetry_multiplicity
 _atom_site_fract_x
 _atom_site_fract_y
 _atom_site_fract_z
 _atom_site_occupancy
  Hf  Hf0  1  0.000000  0.000000  0.529073  1
  Hf  Hf1  1  0.666666  0.333333  0.529350  1
  Hf  Hf2  1  0.333334  0.666667  0.529350  1
  Hf  Hf3  1  0.333416  0.000000  0.922254  1
  Hf  Hf4  1  0.000000  0.333416  0.922254  1
  Hf  Hf5  1  0.666584  0.666584  0.922254  1
  Cu  Cu6  1  0.668429  0.000000  0.223610  1
  Cu  Cu7  1  0.331570  0.331571  0.223610  1
  Cu  Cu8  1  0.000000  0.668429  0.223610  1
  Rh  Rh9  1  0.000000  0.000000  0.036753  1
  Rh  Rh10  1  0.666666  0.333333  0.037145  1
  Rh  Rh11  1  0.333334  0.666667  0.037145  1
  Rh  Rh12  1  0.333580  0.000000  0.414814  1
  Rh  Rh13  1  0.000000  0.333580  0.414814  1
  Rh  Rh14  1  0.666421  0.666420  0.414814  1
  Rh  Rh15  1  0.666544  0.000000  0.725668  1
  Rh  Rh16  1  0.333457  0.333457  0.725668  1
  Rh  Rh17  1  0.000000  0.666543  0.725668  1
