# generated using pymatgen
data_BaCa2Pd9
_symmetry_space_group_name_H-M   'P 1'
_cell_length_a   9.45512308
_cell_length_b   9.45512197
_cell_length_c   9.45512300
_cell_angle_alpha   33.62059097
_cell_angle_beta   33.62059008
_cell_angle_gamma   33.62059614
_symmetry_Int_Tables_number   1
_chemical_formula_structural   BaCa2Pd9
_chemical_formula_sum   'Ba1 Ca2 Pd9'
_cell_volume   230.84708525
_cell_formula_units_Z   1
loop_
 _symmetry_equiv_pos_site_id
 _symmetry_equiv_pos_as_xyz
  1  'x, y, z'
loop_
 _atom_site_type_symbol
 _atom_site_label
 _atom_site_symmetry_multiplicity
 _atom_site_fract_x
 _atom_site_fract_y
 _atom_site_fract_z
 _atom_site_occupancy
  Ba  Ba0  1  0.000000  0.000000  0.000000  1
  Ca  Ca1  1  0.140715  0.140715  0.140715  1
  Ca  Ca2  1  0.859285  0.859285  0.859285  1
  Pd  Pd3  1  0.586909  0.586909  0.083212  1
  Pd  Pd4  1  0.332251  0.332251  0.332251  1
  Pd  Pd5  1  0.916788  0.413090  0.413091  1
  Pd  Pd6  1  0.413090  0.916788  0.413091  1
  Pd  Pd7  1  0.500000  0.500000  0.500000  1
  Pd  Pd8  1  0.586910  0.083211  0.586909  1
  Pd  Pd9  1  0.083211  0.586910  0.586909  1
  Pd  Pd10  1  0.667748  0.667748  0.667748  1
  Pd  Pd11  1  0.413091  0.413091  0.916788  1
