# generated using pymatgen
data_K2Mn11CrO24
_symmetry_space_group_name_H-M   'P 1'
_cell_length_a   8.25508477
_cell_length_b   8.25508627
_cell_length_c   9.89817700
_cell_angle_alpha   54.24941326
_cell_angle_beta   54.24940578
_cell_angle_gamma   64.73632979
_symmetry_Int_Tables_number   1
_chemical_formula_structural   K2Mn11CrO24
_chemical_formula_sum   'K2 Mn11 Cr1 O24'
_cell_volume   440.51846120
_cell_formula_units_Z   1
loop_
 _symmetry_equiv_pos_site_id
 _symmetry_equiv_pos_as_xyz
  1  'x, y, z'
loop_
 _atom_site_type_symbol
 _atom_site_label
 _atom_site_symmetry_multiplicity
 _atom_site_fract_x
 _atom_site_fract_y
 _atom_site_fract_z
 _atom_site_occupancy
  K  K0  1  0.717900  0.285698  0.999716  1
  K  K1  1  0.285698  0.717900  0.999716  1
  Mn  Mn2  1  0.004284  0.670399  0.816434  1
  Mn  Mn3  1  0.670399  0.004284  0.816434  1
  Mn  Mn4  1  0.998597  0.331381  0.180625  1
  Mn  Mn5  1  0.664320  0.664320  0.182745  1
  Mn  Mn6  1  0.331381  0.998597  0.180625  1
  Mn  Mn7  1  0.148558  0.148558  0.517898  1
  Mn  Mn8  1  0.480314  0.816474  0.518320  1
  Mn  Mn9  1  0.816474  0.480314  0.518320  1
  Mn  Mn10  1  0.852609  0.852609  0.476161  1
  Mn  Mn11  1  0.186622  0.516250  0.479351  1
  Mn  Mn12  1  0.516250  0.186622  0.479351  1
  Cr  Cr13  1  0.336976  0.336976  0.817016  1
  O  O14  1  0.347079  0.347079  0.606992  1
  O  O15  1  0.013097  0.674057  0.613802  1
  O  O16  1  0.674057  0.013097  0.613802  1
  O  O17  1  0.987258  0.319598  0.388551  1
  O  O18  1  0.649633  0.649633  0.392840  1
  O  O19  1  0.319598  0.987258  0.388551  1
  O  O20  1  0.341187  0.341187  0.354314  1
  O  O21  1  0.012086  0.667656  0.358336  1
  O  O22  1  0.667656  0.012086  0.358336  1
  O  O23  1  0.994256  0.324401  0.638537  1
  O  O24  1  0.659555  0.659555  0.638094  1
  O  O25  1  0.324401  0.994256  0.638537  1
  O  O26  1  0.631714  0.289018  0.721878  1
  O  O27  1  0.289018  0.631714  0.721878  1
  O  O28  1  0.959065  0.959065  0.717082  1
  O  O29  1  0.709045  0.375776  0.277688  1
  O  O30  1  0.375776  0.709045  0.277688  1
  O  O31  1  0.043297  0.043297  0.277032  1
  O  O32  1  0.956722  0.624458  0.062825  1
  O  O33  1  0.624458  0.956722  0.062825  1
  O  O34  1  0.291806  0.291806  0.061869  1
  O  O35  1  0.378170  0.034935  0.948731  1
  O  O36  1  0.034935  0.378170  0.948731  1
  O  O37  1  0.705747  0.705747  0.948369  1
