# generated using pymatgen
data_Cs8FeAu3O4
_symmetry_space_group_name_H-M   'P 1'
_cell_length_a   11.14235900
_cell_length_b   13.81302000
_cell_length_c   14.16475800
_cell_angle_alpha   90.00000000
_cell_angle_beta   90.00000000
_cell_angle_gamma   90.00000000
_symmetry_Int_Tables_number   1
_chemical_formula_structural   Cs8FeAu3O4
_chemical_formula_sum   'Cs32 Fe4 Au12 O16'
_cell_volume   2180.09263044
_cell_formula_units_Z   4
loop_
 _symmetry_equiv_pos_site_id
 _symmetry_equiv_pos_as_xyz
  1  'x, y, z'
loop_
 _atom_site_type_symbol
 _atom_site_label
 _atom_site_symmetry_multiplicity
 _atom_site_fract_x
 _atom_site_fract_y
 _atom_site_fract_z
 _atom_site_occupancy
  Cs  Cs0  1  0.904294  0.957788  0.489055  1
  Cs  Cs1  1  0.846678  0.307365  0.932302  1
  Cs  Cs2  1  0.526006  0.450734  0.014137  1
  Cs  Cs3  1  0.095706  0.457788  0.010945  1
  Cs  Cs4  1  0.346678  0.192635  0.067698  1
  Cs  Cs5  1  0.661107  0.473426  0.739080  1
  Cs  Cs6  1  0.387831  0.234296  0.353619  1
  Cs  Cs7  1  0.733543  0.250929  0.185123  1
  Cs  Cs8  1  0.233543  0.249071  0.814877  1
  Cs  Cs9  1  0.887831  0.265704  0.646381  1
  Cs  Cs10  1  0.838893  0.526574  0.239080  1
  Cs  Cs11  1  0.990369  0.247386  0.366054  1
  Cs  Cs12  1  0.766457  0.749071  0.685123  1
  Cs  Cs13  1  0.812841  0.960710  0.231677  1
  Cs  Cs14  1  0.266457  0.750929  0.314877  1
  Cs  Cs15  1  0.009631  0.747386  0.133946  1
  Cs  Cs16  1  0.153322  0.807365  0.567698  1
  Cs  Cs17  1  0.973994  0.549266  0.514137  1
  Cs  Cs18  1  0.490369  0.252614  0.633946  1
  Cs  Cs19  1  0.026006  0.049266  0.985863  1
  Cs  Cs20  1  0.338893  0.973426  0.760920  1
  Cs  Cs21  1  0.312841  0.539290  0.768323  1
  Cs  Cs22  1  0.687159  0.039290  0.731677  1
  Cs  Cs23  1  0.404294  0.542212  0.510945  1
  Cs  Cs24  1  0.509631  0.752614  0.866054  1
  Cs  Cs25  1  0.187159  0.460710  0.268323  1
  Cs  Cs26  1  0.612169  0.734296  0.146381  1
  Cs  Cs27  1  0.595706  0.042212  0.989055  1
  Cs  Cs28  1  0.161107  0.026574  0.260920  1
  Cs  Cs29  1  0.653322  0.692635  0.432302  1
  Cs  Cs30  1  0.112169  0.765704  0.853619  1
  Cs  Cs31  1  0.473994  0.950734  0.485863  1
  Fe  Fe32  1  0.055925  0.247343  0.139743  1
  Fe  Fe33  1  0.444075  0.752657  0.639743  1
  Fe  Fe34  1  0.944075  0.747343  0.360257  1
  Fe  Fe35  1  0.555925  0.252657  0.860257  1
  Au  Au36  1  0.689846  0.386010  0.443541  1
  Au  Au37  1  0.303472  0.668039  0.046103  1
  Au  Au38  1  0.696528  0.168039  0.453897  1
  Au  Au39  1  0.030619  0.032159  0.710270  1
  Au  Au40  1  0.310154  0.886010  0.056459  1
  Au  Au41  1  0.969381  0.532159  0.789730  1
  Au  Au42  1  0.530619  0.467841  0.289730  1
  Au  Au43  1  0.189846  0.113990  0.556459  1
  Au  Au44  1  0.810154  0.613990  0.943541  1
  Au  Au45  1  0.803472  0.831961  0.953897  1
  Au  Au46  1  0.196528  0.331961  0.546103  1
  Au  Au47  1  0.469381  0.967841  0.210270  1
  O  O48  1  0.808779  0.746011  0.274263  1
  O  O49  1  0.892217  0.747162  0.490838  1
  O  O50  1  0.469175  0.136118  0.832331  1
  O  O51  1  0.191221  0.246011  0.225737  1
  O  O52  1  0.030825  0.863882  0.332331  1
  O  O53  1  0.308779  0.753989  0.725737  1
  O  O54  1  0.043661  0.635718  0.332480  1
  O  O55  1  0.107783  0.247162  0.009162  1
  O  O56  1  0.530825  0.636118  0.667669  1
  O  O57  1  0.956339  0.135718  0.167520  1
  O  O58  1  0.392217  0.752838  0.509162  1
  O  O59  1  0.607783  0.252838  0.990838  1
  O  O60  1  0.691221  0.253989  0.774263  1
  O  O61  1  0.543661  0.864282  0.667520  1
  O  O62  1  0.456339  0.364282  0.832480  1
  O  O63  1  0.969175  0.363882  0.167669  1
