# generated using pymatgen
data_Pr2Nd6Sc12Ga5Si11
_symmetry_space_group_name_H-M   'P 1'
_cell_length_a   7.29376510
_cell_length_b   7.54039477
_cell_length_c   14.43024370
_cell_angle_alpha   89.98651819
_cell_angle_beta   90.09132472
_cell_angle_gamma   90.07346428
_symmetry_Int_Tables_number   1
_chemical_formula_structural   Pr2Nd6Sc12Ga5Si11
_chemical_formula_sum   'Pr2 Nd6 Sc12 Ga5 Si11'
_cell_volume   793.63095985
_cell_formula_units_Z   1
loop_
 _symmetry_equiv_pos_site_id
 _symmetry_equiv_pos_as_xyz
  1  'x, y, z'
loop_
 _atom_site_type_symbol
 _atom_site_label
 _atom_site_symmetry_multiplicity
 _atom_site_fract_x
 _atom_site_fract_y
 _atom_site_fract_z
 _atom_site_occupancy
  Pr  Pr0  1  0.511767  0.327576  0.099850  1
  Pr  Pr1  1  0.010132  0.172075  0.099941  1
  Nd  Nd2  1  0.012958  0.172484  0.400123  1
  Nd  Nd3  1  0.512890  0.327762  0.400226  1
  Nd  Nd4  1  0.489054  0.673520  0.899198  1
  Nd  Nd5  1  0.488343  0.674385  0.598682  1
  Nd  Nd6  1  0.988341  0.825861  0.598530  1
  Nd  Nd7  1  0.987392  0.830105  0.899949  1
  Sc  Sc8  1  0.328798  0.173173  0.625624  1
  Sc  Sc9  1  0.670872  0.823250  0.374488  1
  Sc  Sc10  1  0.663306  0.001647  0.751568  1
  Sc  Sc11  1  0.170706  0.676868  0.374255  1
  Sc  Sc12  1  0.826761  0.323715  0.873840  1
  Sc  Sc13  1  0.828695  0.326037  0.625611  1
  Sc  Sc14  1  0.837629  0.502880  0.251509  1
  Sc  Sc15  1  0.338233  0.996578  0.252186  1
  Sc  Sc16  1  0.332262  0.174787  0.872705  1
  Sc  Sc17  1  0.170456  0.673928  0.127488  1
  Sc  Sc18  1  0.669825  0.826167  0.126554  1
  Sc  Sc19  1  0.162000  0.497367  0.750528  1
  Ga  Ga20  1  0.154863  0.459275  0.538646  1
  Ga  Ga21  1  0.844659  0.542567  0.039420  1
  Ga  Ga22  1  0.344693  0.957706  0.038633  1
  Ga  Ga23  1  0.155935  0.458841  0.959352  1
  Ga  Ga24  1  0.654946  0.040898  0.538715  1
  Si  Si25  1  0.287089  0.880968  0.749661  1
  Si  Si26  1  0.466250  0.623384  0.251283  1
  Si  Si27  1  0.033478  0.123004  0.749366  1
  Si  Si28  1  0.533621  0.378521  0.749242  1
  Si  Si29  1  0.966225  0.877321  0.250783  1
  Si  Si30  1  0.711124  0.118275  0.251485  1
  Si  Si31  1  0.347268  0.961231  0.459822  1
  Si  Si32  1  0.847383  0.538883  0.459845  1
  Si  Si33  1  0.788479  0.618896  0.749473  1
  Si  Si34  1  0.211411  0.381558  0.251285  1
  Si  Si35  1  0.652158  0.038510  0.960135  1
