# generated using pymatgen
data_Dy4Ho3Tm(WO6)4
_symmetry_space_group_name_H-M   'P 1'
_cell_length_a   5.38930917
_cell_length_b   7.69749442
_cell_length_c   11.43213615
_cell_angle_alpha   75.43723536
_cell_angle_beta   90.00127206
_cell_angle_gamma   89.97236827
_symmetry_Int_Tables_number   1
_chemical_formula_structural   Dy4Ho3Tm(WO6)4
_chemical_formula_sum   'Dy4 Ho3 Tm1 W4 O24'
_cell_volume   459.01628167
_cell_formula_units_Z   1
loop_
 _symmetry_equiv_pos_site_id
 _symmetry_equiv_pos_as_xyz
  1  'x, y, z'
loop_
 _atom_site_type_symbol
 _atom_site_label
 _atom_site_symmetry_multiplicity
 _atom_site_fract_x
 _atom_site_fract_y
 _atom_site_fract_z
 _atom_site_occupancy
  Dy  Dy0  1  0.740829  0.000296  0.749563  1
  Dy  Dy1  1  0.259271  0.000338  0.250563  1
  Dy  Dy2  1  0.683886  0.499847  0.749919  1
  Dy  Dy3  1  0.316353  0.499556  0.250414  1
  Ho  Ho4  1  0.183862  0.794553  0.578284  1
  Ho  Ho5  1  0.815784  0.794163  0.078445  1
  Ho  Ho6  1  0.184156  0.205891  0.921422  1
  Tm  Tm7  1  0.816069  0.206464  0.421036  1
  W  W8  1  0.255649  0.723222  0.885775  1
  W  W9  1  0.744412  0.723074  0.385772  1
  W  W10  1  0.255838  0.276510  0.613692  1
  W  W11  1  0.744637  0.276610  0.114623  1
  O  O12  1  0.044912  0.939629  0.896140  1
  O  O13  1  0.534306  0.846024  0.931506  1
  O  O14  1  0.953012  0.941247  0.396280  1
  O  O15  1  0.457939  0.790559  0.727104  1
  O  O16  1  0.465073  0.845368  0.431548  1
  O  O17  1  0.980970  0.711001  0.771473  1
  O  O18  1  0.541851  0.790140  0.227317  1
  O  O19  1  0.850260  0.634366  0.549000  1
  O  O20  1  0.360630  0.489465  0.886006  1
  O  O21  1  0.019284  0.711436  0.271789  1
  O  O22  1  0.360137  0.510102  0.613596  1
  O  O23  1  0.850095  0.365681  0.951178  1
  O  O24  1  0.149895  0.634079  0.049118  1
  O  O25  1  0.641082  0.488598  0.386131  1
  O  O26  1  0.981451  0.288970  0.728429  1
  O  O27  1  0.639265  0.510326  0.114032  1
  O  O28  1  0.147412  0.364794  0.450677  1
  O  O29  1  0.458093  0.209200  0.772455  1
  O  O30  1  0.018475  0.288670  0.229528  1
  O  O31  1  0.536078  0.155164  0.567145  1
  O  O32  1  0.543611  0.209080  0.273953  1
  O  O33  1  0.044534  0.060821  0.603186  1
  O  O34  1  0.465595  0.154259  0.069026  1
  O  O35  1  0.955293  0.060497  0.103873  1
