# generated using pymatgen
data_YTm23Ru14
_symmetry_space_group_name_H-M   'P 1'
_cell_length_a   11.18263782
_cell_length_b   8.29223570
_cell_length_c   11.13387331
_cell_angle_alpha   56.48022498
_cell_angle_beta   89.94821032
_cell_angle_gamma   90.00285792
_symmetry_Int_Tables_number   1
_chemical_formula_structural   YTm23Ru14
_chemical_formula_sum   'Y1 Tm23 Ru14'
_cell_volume   860.73456327
_cell_formula_units_Z   1
loop_
 _symmetry_equiv_pos_site_id
 _symmetry_equiv_pos_as_xyz
  1  'x, y, z'
loop_
 _atom_site_type_symbol
 _atom_site_label
 _atom_site_symmetry_multiplicity
 _atom_site_fract_x
 _atom_site_fract_y
 _atom_site_fract_z
 _atom_site_occupancy
  Y  Y0  1  0.704382  0.241693  0.532800  1
  Tm  Tm1  1  0.205835  0.756377  0.969261  1
  Tm  Tm2  1  0.845360  0.508959  0.655104  1
  Tm  Tm3  1  0.344515  0.491118  0.845011  1
  Tm  Tm4  1  0.155707  0.491365  0.345043  1
  Tm  Tm5  1  0.654940  0.508798  0.154123  1
  Tm  Tm6  1  0.007259  0.853000  0.361589  1
  Tm  Tm7  1  0.506810  0.147924  0.137618  1
  Tm  Tm8  1  0.993735  0.148310  0.637964  1
  Tm  Tm9  1  0.492885  0.851835  0.862510  1
  Tm  Tm10  1  0.794148  0.243250  0.031305  1
  Tm  Tm11  1  0.293896  0.756140  0.469344  1
  Tm  Tm12  1  0.931364  0.778021  0.090276  1
  Tm  Tm13  1  0.429238  0.222325  0.408635  1
  Tm  Tm14  1  0.068882  0.222019  0.909814  1
  Tm  Tm15  1  0.568861  0.777684  0.590042  1
  Tm  Tm16  1  0.301637  0.240170  0.675299  1
  Tm  Tm17  1  0.802364  0.758962  0.825444  1
  Tm  Tm18  1  0.698708  0.760011  0.324856  1
  Tm  Tm19  1  0.198254  0.240353  0.174408  1
  Tm  Tm20  1  0.924995  0.280355  0.293278  1
  Tm  Tm21  1  0.424971  0.720271  0.206623  1
  Tm  Tm22  1  0.075282  0.719767  0.707111  1
  Tm  Tm23  1  0.574439  0.280177  0.794272  1
  Ru  Ru24  1  0.497707  0.502168  0.500233  1
  Ru  Ru25  1  0.000097  0.499899  0.000085  1
  Ru  Ru26  1  0.646597  0.924562  0.033936  1
  Ru  Ru27  1  0.146835  0.075698  0.465546  1
  Ru  Ru28  1  0.353150  0.075371  0.966136  1
  Ru  Ru29  1  0.853763  0.922948  0.534095  1
  Ru  Ru30  1  0.397952  0.483231  0.104296  1
  Ru  Ru31  1  0.899976  0.518489  0.394994  1
  Ru  Ru32  1  0.601838  0.517199  0.895600  1
  Ru  Ru33  1  0.101953  0.483252  0.604456  1
  Ru  Ru34  1  0.821082  0.100392  0.849606  1
  Ru  Ru35  1  0.320699  0.899434  0.651473  1
  Ru  Ru36  1  0.179304  0.899109  0.151370  1
  Ru  Ru37  1  0.680580  0.099366  0.346446  1
