# generated using pymatgen
data_Ba6Er(RhO6)2
_symmetry_space_group_name_H-M   'P 1'
_cell_length_a   9.24427734
_cell_length_b   9.24427795
_cell_length_c   7.42285400
_cell_angle_alpha   68.06565206
_cell_angle_beta   68.06565054
_cell_angle_gamma   36.87355848
_symmetry_Int_Tables_number   1
_chemical_formula_structural   Ba6Er(RhO6)2
_chemical_formula_sum   'Ba6 Er1 Rh2 O12'
_cell_volume   349.88281672
_cell_formula_units_Z   1
loop_
 _symmetry_equiv_pos_site_id
 _symmetry_equiv_pos_as_xyz
  1  'x, y, z'
loop_
 _atom_site_type_symbol
 _atom_site_label
 _atom_site_symmetry_multiplicity
 _atom_site_fract_x
 _atom_site_fract_y
 _atom_site_fract_z
 _atom_site_occupancy
  Ba  Ba0  1  0.216044  0.216044  0.708748  1
  Ba  Ba1  1  0.880359  0.880359  0.711420  1
  Ba  Ba2  1  0.548825  0.548825  0.706296  1
  Ba  Ba3  1  0.783956  0.783956  0.291252  1
  Ba  Ba4  1  0.451175  0.451175  0.293704  1
  Ba  Ba5  1  0.119641  0.119641  0.288580  1
  Er  Er6  1  0.000000  0.000000  0.000000  1
  Rh  Rh7  1  0.669852  0.669852  0.999522  1
  Rh  Rh8  1  0.330148  0.330148  0.000478  1
  O  O9  1  0.281808  0.281808  0.306761  1
  O  O10  1  0.943647  0.943647  0.328544  1
  O  O11  1  0.617152  0.617152  0.304678  1
  O  O12  1  0.718192  0.718192  0.693239  1
  O  O13  1  0.382848  0.382848  0.695322  1
  O  O14  1  0.056353  0.056353  0.671456  1
  O  O15  1  0.000000  0.500000  0.000000  1
  O  O16  1  0.645945  0.175668  0.001109  1
  O  O17  1  0.354055  0.824332  0.998891  1
  O  O18  1  0.500000  0.000000  0.000000  1
  O  O19  1  0.175668  0.645945  0.001109  1
  O  O20  1  0.824332  0.354055  0.998891  1
