# generated using pymatgen
data_Hf2TaNb3C5
_symmetry_space_group_name_H-M   'P 1'
_cell_length_a   5.57011502
_cell_length_b   5.57122505
_cell_length_c   5.53181147
_cell_angle_alpha   80.85866809
_cell_angle_beta   80.70032263
_cell_angle_gamma   120.36129225
_symmetry_Int_Tables_number   1
_chemical_formula_structural   Hf2TaNb3C5
_chemical_formula_sum   'Hf2 Ta1 Nb3 C5'
_cell_volume   140.22140755
_cell_formula_units_Z   1
loop_
 _symmetry_equiv_pos_site_id
 _symmetry_equiv_pos_as_xyz
  1  'x, y, z'
loop_
 _atom_site_type_symbol
 _atom_site_label
 _atom_site_symmetry_multiplicity
 _atom_site_fract_x
 _atom_site_fract_y
 _atom_site_fract_z
 _atom_site_occupancy
  Hf  Hf0  1  0.742945  0.744029  0.741425  1
  Hf  Hf1  1  0.256822  0.256279  0.258127  1
  Ta  Ta2  1  0.086269  0.440726  0.745631  1
  Nb  Nb3  1  0.560622  0.914080  0.253380  1
  Nb  Nb4  1  0.913395  0.559921  0.253894  1
  Nb  Nb5  1  0.440416  0.086859  0.746231  1
  C  C6  1  0.496436  0.499762  0.501490  1
  C  C7  1  0.671041  0.333692  0.998006  1
  C  C8  1  0.330146  0.665720  0.998008  1
  C  C9  1  0.833308  0.170486  0.501938  1
  C  C10  1  0.168600  0.828447  0.501870  1
