# generated using pymatgen
data_U4AlRe5Si6Mo
_symmetry_space_group_name_H-M   'P 1'
_cell_length_a   7.17724605
_cell_length_b   7.17828129
_cell_length_c   7.17724549
_cell_angle_alpha   108.90986300
_cell_angle_beta   108.90824157
_cell_angle_gamma   110.59552059
_symmetry_Int_Tables_number   1
_chemical_formula_structural   U4AlRe5Si6Mo
_chemical_formula_sum   'U4 Al1 Re5 Si6 Mo1'
_cell_volume   284.59017413
_cell_formula_units_Z   1
loop_
 _symmetry_equiv_pos_site_id
 _symmetry_equiv_pos_as_xyz
  1  'x, y, z'
loop_
 _atom_site_type_symbol
 _atom_site_label
 _atom_site_symmetry_multiplicity
 _atom_site_fract_x
 _atom_site_fract_y
 _atom_site_fract_z
 _atom_site_occupancy
  U  U0  1  0.494269  0.505649  0.499611  1
  U  U1  1  0.005203  0.994388  0.499856  1
  U  U2  1  0.494532  0.994388  0.989185  1
  U  U3  1  0.006038  0.505649  0.011380  1
  Al  Al4  1  0.750010  0.249869  0.499859  1
  Re  Re5  1  0.503455  0.250579  0.747125  1
  Re  Re6  1  0.503695  0.756701  0.253005  1
  Re  Re7  1  0.243778  0.496281  0.747092  1
  Re  Re8  1  0.749189  0.496281  0.252502  1
  Re  Re9  1  0.249925  0.750168  0.500244  1
  Si  Si10  1  0.315481  0.315582  0.000102  1
  Si  Si11  1  0.999258  0.306569  0.307311  1
  Si  Si12  1  0.999311  0.691957  0.692646  1
  Si  Si13  1  0.693435  0.000772  0.692741  1
  Si  Si14  1  0.308032  0.000772  0.307337  1
  Si  Si15  1  0.684506  0.684606  0.000100  1
  Mo  Mo16  1  0.999883  0.999788  0.999905  1
