# generated using pymatgen
data_Y2Er2Ir3RhO14
_symmetry_space_group_name_H-M   'P 1'
_cell_length_a   7.22447891
_cell_length_b   7.21886551
_cell_length_c   7.22447788
_cell_angle_alpha   60.03769978
_cell_angle_beta   60.07048360
_cell_angle_gamma   60.03769149
_symmetry_Int_Tables_number   1
_chemical_formula_structural   Y2Er2Ir3RhO14
_chemical_formula_sum   'Y2 Er2 Ir3 Rh1 O14'
_cell_volume   266.71364131
_cell_formula_units_Z   1
loop_
 _symmetry_equiv_pos_site_id
 _symmetry_equiv_pos_as_xyz
  1  'x, y, z'
loop_
 _atom_site_type_symbol
 _atom_site_label
 _atom_site_symmetry_multiplicity
 _atom_site_fract_x
 _atom_site_fract_y
 _atom_site_fract_z
 _atom_site_occupancy
  Y  Y0  1  0.625000  0.125000  0.125000  1
  Y  Y1  1  0.125000  0.125000  0.625000  1
  Er  Er2  1  0.125000  0.625000  0.125000  1
  Er  Er3  1  0.125000  0.125000  0.125000  1
  Ir  Ir4  1  0.125000  0.625000  0.625000  1
  Ir  Ir5  1  0.625000  0.125000  0.625000  1
  Ir  Ir6  1  0.625000  0.625000  0.125000  1
  Rh  Rh7  1  0.625000  0.625000  0.625000  1
  O  O8  1  0.716757  0.712500  0.282852  1
  O  O9  1  0.289090  0.289186  0.716722  1
  O  O10  1  0.713991  0.283572  0.713991  1
  O  O11  1  0.288536  0.715238  0.288536  1
  O  O12  1  0.282852  0.712500  0.716757  1
  O  O13  1  0.716722  0.289186  0.289090  1
  O  O14  1  0.533243  0.537500  0.967148  1
  O  O15  1  0.960910  0.960814  0.533278  1
  O  O16  1  0.536009  0.966428  0.536009  1
  O  O17  1  0.961464  0.534762  0.961464  1
  O  O18  1  0.967148  0.537500  0.533243  1
  O  O19  1  0.533278  0.960814  0.960910  1
  O  O20  1  0.247526  0.251340  0.247526  1
  O  O21  1  0.002474  0.998660  0.002474  1
