# generated using pymatgen
data_Sm4Al18Rh5Au
_symmetry_space_group_name_H-M   'P 1'
_cell_length_a   7.63632796
_cell_length_b   7.63632826
_cell_length_c   9.57165076
_cell_angle_alpha   89.91770415
_cell_angle_beta   89.91769858
_cell_angle_gamma   119.43684838
_symmetry_Int_Tables_number   1
_chemical_formula_structural   Sm4Al18Rh5Au
_chemical_formula_sum   'Sm4 Al18 Rh5 Au1'
_cell_volume   486.09538198
_cell_formula_units_Z   1
loop_
 _symmetry_equiv_pos_site_id
 _symmetry_equiv_pos_as_xyz
  1  'x, y, z'
loop_
 _atom_site_type_symbol
 _atom_site_label
 _atom_site_symmetry_multiplicity
 _atom_site_fract_x
 _atom_site_fract_y
 _atom_site_fract_z
 _atom_site_occupancy
  Sm  Sm0  1  0.995599  0.673255  0.250253  1
  Sm  Sm1  1  0.004401  0.326745  0.749747  1
  Sm  Sm2  1  0.673255  0.995599  0.250253  1
  Sm  Sm3  1  0.326745  0.004401  0.749747  1
  Al  Al4  1  0.135926  0.135926  0.257494  1
  Al  Al5  1  0.864074  0.864074  0.742506  1
  Al  Al6  1  0.002569  0.344469  0.077804  1
  Al  Al7  1  0.997431  0.655531  0.922196  1
  Al  Al8  1  0.999487  0.664333  0.572858  1
  Al  Al9  1  0.335667  0.000513  0.427142  1
  Al  Al10  1  0.000513  0.335667  0.427142  1
  Al  Al11  1  0.664333  0.999487  0.572858  1
  Al  Al12  1  0.655531  0.997431  0.922196  1
  Al  Al13  1  0.344469  0.002569  0.077804  1
  Al  Al14  1  0.333867  0.333867  0.548761  1
  Al  Al15  1  0.666133  0.666133  0.451239  1
  Al  Al16  1  0.657588  0.657588  0.054006  1
  Al  Al17  1  0.342412  0.342412  0.945994  1
  Al  Al18  1  0.339550  0.549602  0.251140  1
  Al  Al19  1  0.660450  0.450398  0.748860  1
  Al  Al20  1  0.549602  0.339550  0.251140  1
  Al  Al21  1  0.450398  0.660450  0.748860  1
  Rh  Rh22  1  0.671312  0.328688  0.000000  1
  Rh  Rh23  1  0.328688  0.671312  0.000000  1
  Rh  Rh24  1  0.328590  0.671410  0.500000  1
  Rh  Rh25  1  0.671410  0.328590  0.500000  1
  Rh  Rh26  1  0.000000  0.000000  0.500000  1
  Au  Au27  1  0.000000  0.000000  0.000000  1
