# generated using pymatgen
data_Yb8Cu4SnPd20
_symmetry_space_group_name_H-M   'P 1'
_cell_length_a   8.24104721
_cell_length_b   8.24662718
_cell_length_c   8.36961600
_cell_angle_alpha   90.00000000
_cell_angle_beta   90.00000000
_cell_angle_gamma   90.06171039
_symmetry_Int_Tables_number   1
_chemical_formula_structural   Yb8Cu4SnPd20
_chemical_formula_sum   'Yb8 Cu4 Sn1 Pd20'
_cell_volume   568.80583674
_cell_formula_units_Z   1
loop_
 _symmetry_equiv_pos_site_id
 _symmetry_equiv_pos_as_xyz
  1  'x, y, z'
loop_
 _atom_site_type_symbol
 _atom_site_label
 _atom_site_symmetry_multiplicity
 _atom_site_fract_x
 _atom_site_fract_y
 _atom_site_fract_z
 _atom_site_occupancy
  Yb  Yb0  1  0.252960  0.250493  0.250830  1
  Yb  Yb1  1  0.749482  0.749313  0.746795  1
  Yb  Yb2  1  0.749482  0.749313  0.253205  1
  Yb  Yb3  1  0.742510  0.251587  0.748574  1
  Yb  Yb4  1  0.252960  0.250493  0.749170  1
  Yb  Yb5  1  0.247091  0.749583  0.254084  1
  Yb  Yb6  1  0.247091  0.749583  0.745916  1
  Yb  Yb7  1  0.742510  0.251587  0.251426  1
  Cu  Cu8  1  0.268726  0.499046  0.000000  1
  Cu  Cu9  1  0.725592  0.498908  0.000000  1
  Cu  Cu10  1  0.999000  0.271831  0.500000  1
  Cu  Cu11  1  0.344300  0.999843  0.000000  1
  Sn  Sn12  1  0.025649  0.992548  0.000000  1
  Pd  Pd13  1  0.497409  0.270617  0.000000  1
  Pd  Pd14  1  0.998064  0.741937  0.500000  1
  Pd  Pd15  1  0.497763  0.729257  0.000000  1
  Pd  Pd16  1  0.497567  0.997351  0.262609  1
  Pd  Pd17  1  0.263305  0.002269  0.500000  1
  Pd  Pd18  1  0.497567  0.997351  0.737391  1
  Pd  Pd19  1  0.729704  0.000983  0.500000  1
  Pd  Pd20  1  0.998769  0.492683  0.274818  1
  Pd  Pd21  1  0.998769  0.492683  0.725182  1
  Pd  Pd22  1  0.252583  0.495863  0.500000  1
  Pd  Pd23  1  0.743102  0.496377  0.500000  1
  Pd  Pd24  1  0.497497  0.256718  0.500000  1
  Pd  Pd25  1  0.497610  0.741599  0.500000  1
  Pd  Pd26  1  0.497235  0.501341  0.249374  1
  Pd  Pd27  1  0.497235  0.501341  0.750626  1
  Pd  Pd28  1  0.704494  0.000383  0.000000  1
  Pd  Pd29  1  0.995800  0.314429  0.000000  1
  Pd  Pd30  1  0.997029  0.671097  0.000000  1
  Pd  Pd31  1  0.995572  0.015795  0.311108  1
  Pd  Pd32  1  0.995572  0.015795  0.688892  1
