# generated using pymatgen
data_Nd3Ni5Sb5Pd
_symmetry_space_group_name_H-M   'P 1'
_cell_length_a   4.32658500
_cell_length_b   9.89508700
_cell_length_c   13.02616300
_cell_angle_alpha   90.00000000
_cell_angle_beta   90.00000000
_cell_angle_gamma   90.00000000
_symmetry_Int_Tables_number   1
_chemical_formula_structural   Nd3Ni5Sb5Pd
_chemical_formula_sum   'Nd6 Ni10 Sb10 Pd2'
_cell_volume   557.67524350
_cell_formula_units_Z   2
loop_
 _symmetry_equiv_pos_site_id
 _symmetry_equiv_pos_as_xyz
  1  'x, y, z'
loop_
 _atom_site_type_symbol
 _atom_site_label
 _atom_site_symmetry_multiplicity
 _atom_site_fract_x
 _atom_site_fract_y
 _atom_site_fract_z
 _atom_site_occupancy
  Nd  Nd0  1  0.000000  0.241067  0.000000  1
  Nd  Nd1  1  0.500000  0.758933  0.500000  1
  Nd  Nd2  1  0.000000  0.244217  0.324677  1
  Nd  Nd3  1  0.500000  0.755783  0.175323  1
  Nd  Nd4  1  0.000000  0.244217  0.675323  1
  Nd  Nd5  1  0.500000  0.755783  0.824677  1
  Ni  Ni6  1  0.000000  0.993238  0.160697  1
  Ni  Ni7  1  0.500000  0.006762  0.339303  1
  Ni  Ni8  1  0.000000  0.993238  0.839303  1
  Ni  Ni9  1  0.500000  0.006762  0.660697  1
  Ni  Ni10  1  0.500000  0.985661  0.000000  1
  Ni  Ni11  1  0.000000  0.014339  0.500000  1
  Ni  Ni12  1  0.000000  0.616912  0.321204  1
  Ni  Ni13  1  0.500000  0.383088  0.178796  1
  Ni  Ni14  1  0.000000  0.616912  0.678796  1
  Ni  Ni15  1  0.500000  0.383088  0.821204  1
  Sb  Sb16  1  0.000000  0.512691  0.138937  1
  Sb  Sb17  1  0.500000  0.487309  0.361063  1
  Sb  Sb18  1  0.000000  0.512691  0.861063  1
  Sb  Sb19  1  0.500000  0.487309  0.638937  1
  Sb  Sb20  1  0.000000  0.871573  0.336007  1
  Sb  Sb21  1  0.500000  0.128427  0.163993  1
  Sb  Sb22  1  0.000000  0.871573  0.663993  1
  Sb  Sb23  1  0.500000  0.128427  0.836007  1
  Sb  Sb24  1  0.000000  0.845054  0.000000  1
  Sb  Sb25  1  0.500000  0.154946  0.500000  1
  Pd  Pd26  1  0.500000  0.512717  0.000000  1
  Pd  Pd27  1  0.000000  0.487283  0.500000  1
