# generated using pymatgen
data_Tb6Y2Ir3WO24
_symmetry_space_group_name_H-M   'P 1'
_cell_length_a   5.30442418
_cell_length_b   9.20080107
_cell_length_c   9.95539912
_cell_angle_alpha   90.07841150
_cell_angle_beta   90.03186097
_cell_angle_gamma   90.08500579
_symmetry_Int_Tables_number   1
_chemical_formula_structural   Tb6Y2Ir3WO24
_chemical_formula_sum   'Tb6 Y2 Ir3 W1 O24'
_cell_volume   485.87170714
_cell_formula_units_Z   1
loop_
 _symmetry_equiv_pos_site_id
 _symmetry_equiv_pos_as_xyz
  1  'x, y, z'
loop_
 _atom_site_type_symbol
 _atom_site_label
 _atom_site_symmetry_multiplicity
 _atom_site_fract_x
 _atom_site_fract_y
 _atom_site_fract_z
 _atom_site_occupancy
  Tb  Tb0  1  0.983667  0.600998  0.534422  1
  Tb  Tb1  1  0.484046  0.896161  0.467310  1
  Tb  Tb2  1  0.020231  0.102154  0.962368  1
  Tb  Tb3  1  0.516562  0.398605  0.034138  1
  Tb  Tb4  1  0.461067  0.781245  0.869615  1
  Tb  Tb5  1  0.960328  0.719138  0.129756  1
  Y  Y6  1  0.040790  0.218168  0.369716  1
  Y  Y7  1  0.540338  0.281820  0.629826  1
  Ir  Ir8  1  0.959288  0.996558  0.647326  1
  Ir  Ir9  1  0.458986  0.503363  0.351876  1
  Ir  Ir10  1  0.041145  0.496388  0.851811  1
  W  W11  1  0.540094  0.004923  0.151308  1
  O  O12  1  0.752920  0.088189  0.502263  1
  O  O13  1  0.252346  0.410575  0.496673  1
  O  O14  1  0.247094  0.588500  0.997328  1
  O  O15  1  0.746240  0.911801  0.004720  1
  O  O16  1  0.233873  0.116172  0.570098  1
  O  O17  1  0.733827  0.383550  0.429796  1
  O  O18  1  0.765598  0.614866  0.930859  1
  O  O19  1  0.268656  0.885905  0.067517  1
  O  O20  1  0.084065  0.844102  0.528154  1
  O  O21  1  0.583863  0.654012  0.473697  1
  O  O22  1  0.914981  0.344412  0.971041  1
  O  O23  1  0.413005  0.157032  0.030706  1
  O  O24  1  0.691981  0.859894  0.264656  1
  O  O25  1  0.187448  0.642820  0.736613  1
  O  O26  1  0.311736  0.357306  0.236785  1
  O  O27  1  0.811944  0.142706  0.762643  1
  O  O28  1  0.328806  0.048324  0.299304  1
  O  O29  1  0.834005  0.446227  0.701730  1
  O  O30  1  0.675289  0.865236  0.682198  1
  O  O31  1  0.167540  0.946493  0.796705  1
  O  O32  1  0.821549  0.137017  0.179355  1
  O  O33  1  0.324819  0.365526  0.817304  1
  O  O34  1  0.176429  0.635368  0.318065  1
  O  O35  1  0.665442  0.554447  0.202314  1
