# generated using pymatgen
data_Hf4Ga3GeMo4
_symmetry_space_group_name_H-M   'P 1'
_cell_length_a   3.53832700
_cell_length_b   7.05048349
_cell_length_c   8.41649923
_cell_angle_alpha   89.72158477
_cell_angle_beta   90.00000000
_cell_angle_gamma   90.00000000
_symmetry_Int_Tables_number   1
_chemical_formula_structural   Hf4Ga3GeMo4
_chemical_formula_sum   'Hf4 Ga3 Ge1 Mo4'
_cell_volume   209.96322113
_cell_formula_units_Z   1
loop_
 _symmetry_equiv_pos_site_id
 _symmetry_equiv_pos_as_xyz
  1  'x, y, z'
loop_
 _atom_site_type_symbol
 _atom_site_label
 _atom_site_symmetry_multiplicity
 _atom_site_fract_x
 _atom_site_fract_y
 _atom_site_fract_z
 _atom_site_occupancy
  Hf  Hf0  1  0.250000  0.552409  0.166963  1
  Hf  Hf1  1  0.250000  0.052501  0.335561  1
  Hf  Hf2  1  0.750000  0.445982  0.835596  1
  Hf  Hf3  1  0.750000  0.948113  0.665344  1
  Ga  Ga4  1  0.250000  0.746760  0.860268  1
  Ga  Ga5  1  0.250000  0.249247  0.639186  1
  Ga  Ga6  1  0.750000  0.251745  0.139667  1
  Ge  Ge7  1  0.750000  0.752421  0.359987  1
  Mo  Mo8  1  0.250000  0.626563  0.557926  1
  Mo  Mo9  1  0.250000  0.123573  0.940146  1
  Mo  Mo10  1  0.750000  0.375494  0.439112  1
  Mo  Mo11  1  0.750000  0.875190  0.060244  1
