# generated using pymatgen
data_Tb15Dy5(Bi2Os)4
_symmetry_space_group_name_H-M   'P 1'
_cell_length_a   7.99434903
_cell_length_b   9.06502915
_cell_length_c   12.53647319
_cell_angle_alpha   90.01895706
_cell_angle_beta   89.99353577
_cell_angle_gamma   90.00824172
_symmetry_Int_Tables_number   1
_chemical_formula_structural   Tb15Dy5(Bi2Os)4
_chemical_formula_sum   'Tb15 Dy5 Bi8 Os4'
_cell_volume   908.50569860
_cell_formula_units_Z   1
loop_
 _symmetry_equiv_pos_site_id
 _symmetry_equiv_pos_as_xyz
  1  'x, y, z'
loop_
 _atom_site_type_symbol
 _atom_site_label
 _atom_site_symmetry_multiplicity
 _atom_site_fract_x
 _atom_site_fract_y
 _atom_site_fract_z
 _atom_site_occupancy
  Tb  Tb0  1  0.841297  0.749916  0.791943  1
  Tb  Tb1  1  0.158626  0.250047  0.208053  1
  Tb  Tb2  1  0.341278  0.250083  0.708100  1
  Tb  Tb3  1  0.658730  0.749921  0.291883  1
  Tb  Tb4  1  0.374671  0.749845  0.692489  1
  Tb  Tb5  1  0.625357  0.250146  0.307484  1
  Tb  Tb6  1  0.874653  0.250082  0.807578  1
  Tb  Tb7  1  0.125226  0.749889  0.192453  1
  Tb  Tb8  1  0.942915  0.749876  0.504487  1
  Tb  Tb9  1  0.057025  0.250117  0.495504  1
  Tb  Tb10  1  0.443015  0.250077  0.995505  1
  Tb  Tb11  1  0.557161  0.749950  0.004522  1
  Tb  Tb12  1  0.674988  0.041830  0.564117  1
  Tb  Tb13  1  0.325029  0.958123  0.435872  1
  Tb  Tb14  1  0.174812  0.958194  0.935942  1
  Dy  Dy15  1  0.325641  0.541821  0.435987  1
  Dy  Dy16  1  0.825434  0.041877  0.064077  1
  Dy  Dy17  1  0.674390  0.458229  0.564000  1
  Dy  Dy18  1  0.825644  0.458165  0.064009  1
  Dy  Dy19  1  0.174416  0.541798  0.935975  1
  Bi  Bi20  1  0.568209  0.493544  0.827773  1
  Bi  Bi21  1  0.431785  0.506442  0.172231  1
  Bi  Bi22  1  0.068202  0.506445  0.672236  1
  Bi  Bi23  1  0.431814  0.993548  0.172207  1
  Bi  Bi24  1  0.931808  0.493547  0.327767  1
  Bi  Bi25  1  0.568318  0.006473  0.827757  1
  Bi  Bi26  1  0.931646  0.006480  0.327689  1
  Bi  Bi27  1  0.068331  0.993529  0.672263  1
  Os  Os28  1  0.575424  0.749665  0.510682  1
  Os  Os29  1  0.424578  0.250341  0.489338  1
  Os  Os30  1  0.075108  0.250158  0.989396  1
  Os  Os31  1  0.924470  0.749843  0.010679  1
