# generated using pymatgen
data_U2NbI15
_symmetry_space_group_name_H-M   'P 1'
_cell_length_a   16.07742894
_cell_length_b   16.08616420
_cell_length_c   7.52961420
_cell_angle_alpha   89.77231680
_cell_angle_beta   89.76679096
_cell_angle_gamma   86.28298424
_symmetry_Int_Tables_number   1
_chemical_formula_structural   U2NbI15
_chemical_formula_sum   'U4 Nb2 I30'
_cell_volume   1943.21422839
_cell_formula_units_Z   2
loop_
 _symmetry_equiv_pos_site_id
 _symmetry_equiv_pos_as_xyz
  1  'x, y, z'
loop_
 _atom_site_type_symbol
 _atom_site_label
 _atom_site_symmetry_multiplicity
 _atom_site_fract_x
 _atom_site_fract_y
 _atom_site_fract_z
 _atom_site_occupancy
  U  U0  1  0.433537  0.232724  0.474821  1
  U  U1  1  0.771626  0.561860  0.525013  1
  U  U2  1  0.560828  0.772621  0.525098  1
  U  U3  1  0.100341  0.899951  0.000113  1
  Nb  Nb4  1  0.224733  0.441777  0.475264  1
  Nb  Nb5  1  0.891463  0.108496  0.000342  1
  I  I6  1  0.530413  0.334606  0.244580  1
  I  I7  1  0.668724  0.467217  0.753819  1
  I  I8  1  0.467000  0.668073  0.754095  1
  I  I9  1  0.332193  0.518867  0.261434  1
  I  I10  1  0.575021  0.199546  0.703341  1
  I  I11  1  0.804150  0.421264  0.295561  1
  I  I12  1  0.868429  0.235937  0.776291  1
  I  I13  1  0.764010  0.132169  0.223558  1
  I  I14  1  0.133579  0.758953  0.231268  1
  I  I15  1  0.240616  0.866497  0.768597  1
  I  I16  1  0.000023  0.185704  0.208850  1
  I  I17  1  0.814627  0.000554  0.791074  1
  I  I18  1  0.998313  0.802541  0.775748  1
  I  I19  1  0.197146  0.001881  0.224054  1
  I  I20  1  0.046660  0.054078  0.784549  1
  I  I21  1  0.946013  0.954093  0.215946  1
  I  I22  1  0.278829  0.286620  0.262171  1
  I  I23  1  0.718479  0.718380  0.743276  1
  I  I24  1  0.096957  0.464808  0.253869  1
  I  I25  1  0.530342  0.912249  0.756334  1
  I  I26  1  0.912180  0.529628  0.754695  1
  I  I27  1  0.466622  0.092196  0.245820  1
  I  I28  1  0.147180  0.333719  0.688351  1
  I  I29  1  0.665645  0.866218  0.296162  1
  I  I30  1  0.866191  0.665124  0.296762  1
  I  I31  1  0.331588  0.136600  0.704795  1
  I  I32  1  0.379426  0.387568  0.687583  1
  I  I33  1  0.615106  0.614999  0.306832  1
  I  I34  1  0.200966  0.569412  0.695978  1
  I  I35  1  0.421037  0.803073  0.293952  1
