# generated using pymatgen
data_Pa6Sb8IrRh5
_symmetry_space_group_name_H-M   'P 1'
_cell_length_a   8.35329979
_cell_length_b   8.35329877
_cell_length_c   8.35319750
_cell_angle_alpha   109.51129712
_cell_angle_beta   109.51927725
_cell_angle_gamma   109.38360175
_symmetry_Int_Tables_number   1
_chemical_formula_structural   Pa6Sb8IrRh5
_chemical_formula_sum   'Pa6 Sb8 Ir1 Rh5'
_cell_volume   448.68712883
_cell_formula_units_Z   1
loop_
 _symmetry_equiv_pos_site_id
 _symmetry_equiv_pos_as_xyz
  1  'x, y, z'
loop_
 _atom_site_type_symbol
 _atom_site_label
 _atom_site_symmetry_multiplicity
 _atom_site_fract_x
 _atom_site_fract_y
 _atom_site_fract_z
 _atom_site_occupancy
  Pa  Pa0  1  0.874684  0.249807  0.124512  1
  Pa  Pa1  1  0.625295  0.750172  0.375488  1
  Pa  Pa2  1  0.249822  0.125321  0.875123  1
  Pa  Pa3  1  0.750198  0.374699  0.624877  1
  Pa  Pa4  1  0.124999  0.874999  0.250000  1
  Pa  Pa5  1  0.374995  0.624995  0.750000  1
  Sb  Sb6  1  0.673925  0.500166  0.999978  1
  Sb  Sb7  1  0.498254  0.998697  0.673247  1
  Sb  Sb8  1  0.000188  0.673947  0.500022  1
  Sb  Sb9  1  0.825450  0.825007  0.826753  1
  Sb  Sb10  1  0.499826  0.999835  0.173758  1
  Sb  Sb11  1  0.174975  0.501728  0.000420  1
  Sb  Sb12  1  0.001308  0.174555  0.499580  1
  Sb  Sb13  1  0.326077  0.326068  0.326242  1
  Ir  Ir14  1  0.875019  0.125019  0.750000  1
  Rh  Rh15  1  0.374980  0.249491  0.624975  1
  Rh  Rh16  1  0.124516  0.750005  0.875025  1
  Rh  Rh17  1  0.249991  0.625038  0.374530  1
  Rh  Rh18  1  0.750508  0.875461  0.125470  1
  Rh  Rh19  1  0.624991  0.374991  0.250000  1
