# generated using pymatgen
data_BaSc2(FeH6)2
_symmetry_space_group_name_H-M   'P 1'
_cell_length_a   4.62127500
_cell_length_b   4.62127651
_cell_length_c   8.12861200
_cell_angle_alpha   90.00000000
_cell_angle_beta   90.00000000
_cell_angle_gamma   119.99999637
_symmetry_Int_Tables_number   1
_chemical_formula_structural   BaSc2(FeH6)2
_chemical_formula_sum   'Ba1 Sc2 Fe2 H12'
_cell_volume   150.33870651
_cell_formula_units_Z   1
loop_
 _symmetry_equiv_pos_site_id
 _symmetry_equiv_pos_as_xyz
  1  'x, y, z'
loop_
 _atom_site_type_symbol
 _atom_site_label
 _atom_site_symmetry_multiplicity
 _atom_site_fract_x
 _atom_site_fract_y
 _atom_site_fract_z
 _atom_site_occupancy
  Ba  Ba0  1  0.000000  0.000000  0.000000  1
  Sc  Sc1  1  0.666667  0.333333  0.375769  1
  Sc  Sc2  1  0.333333  0.666667  0.624231  1
  Fe  Fe3  1  0.666667  0.333333  0.707280  1
  Fe  Fe4  1  0.333333  0.666667  0.292720  1
  H  H5  1  0.166803  0.833197  0.395164  1
  H  H6  1  0.666395  0.833197  0.395164  1
  H  H7  1  0.166803  0.333605  0.395164  1
  H  H8  1  0.833197  0.166803  0.604836  1
  H  H9  1  0.333605  0.166803  0.604836  1
  H  H10  1  0.833197  0.666395  0.604836  1
  H  H11  1  0.507118  0.014235  0.823888  1
  H  H12  1  0.507118  0.492882  0.823888  1
  H  H13  1  0.985765  0.492882  0.823888  1
  H  H14  1  0.492882  0.985765  0.176112  1
  H  H15  1  0.492882  0.507118  0.176112  1
  H  H16  1  0.014235  0.507118  0.176112  1
