# generated using pymatgen
data_PrMgScCu9
_symmetry_space_group_name_H-M   'P 1'
_cell_length_a   5.07310100
_cell_length_b   5.07310045
_cell_length_c   16.22500400
_cell_angle_alpha   90.00000000
_cell_angle_beta   90.00000000
_cell_angle_gamma   119.99999704
_symmetry_Int_Tables_number   1
_chemical_formula_structural   PrMgScCu9
_chemical_formula_sum   'Pr2 Mg2 Sc2 Cu18'
_cell_volume   361.62831510
_cell_formula_units_Z   2
loop_
 _symmetry_equiv_pos_site_id
 _symmetry_equiv_pos_as_xyz
  1  'x, y, z'
loop_
 _atom_site_type_symbol
 _atom_site_label
 _atom_site_symmetry_multiplicity
 _atom_site_fract_x
 _atom_site_fract_y
 _atom_site_fract_z
 _atom_site_occupancy
  Pr  Pr0  1  0.666667  0.333333  0.241870  1
  Pr  Pr1  1  0.333333  0.666667  0.741870  1
  Mg  Mg2  1  0.666667  0.333333  0.032916  1
  Mg  Mg3  1  0.333333  0.666667  0.532916  1
  Sc  Sc4  1  0.666667  0.333333  0.470643  1
  Sc  Sc5  1  0.333333  0.666667  0.970643  1
  Cu  Cu6  1  0.333333  0.666667  0.250616  1
  Cu  Cu7  1  0.666667  0.333333  0.750616  1
  Cu  Cu8  1  0.168791  0.831209  0.378365  1
  Cu  Cu9  1  0.168791  0.337582  0.378365  1
  Cu  Cu10  1  0.000000  0.000000  0.752136  1
  Cu  Cu11  1  0.000000  0.000000  0.252136  1
  Cu  Cu12  1  0.000000  0.000000  0.000661  1
  Cu  Cu13  1  0.000000  0.000000  0.500661  1
  Cu  Cu14  1  0.167499  0.334997  0.122021  1
  Cu  Cu15  1  0.832501  0.167499  0.622021  1
  Cu  Cu16  1  0.334997  0.167499  0.622021  1
  Cu  Cu17  1  0.665003  0.832501  0.122021  1
  Cu  Cu18  1  0.167499  0.832501  0.122021  1
  Cu  Cu19  1  0.831209  0.662418  0.878365  1
  Cu  Cu20  1  0.831209  0.168791  0.878365  1
  Cu  Cu21  1  0.832501  0.665003  0.622021  1
  Cu  Cu22  1  0.337582  0.168791  0.878365  1
  Cu  Cu23  1  0.662418  0.831209  0.378365  1
