# generated using pymatgen
data_CaPr6CoI12
_symmetry_space_group_name_H-M   'P 1'
_cell_length_a   10.06855193
_cell_length_b   10.06855161
_cell_length_c   10.06855181
_cell_angle_alpha   107.22815920
_cell_angle_beta   107.22815284
_cell_angle_gamma   107.22815322
_symmetry_Int_Tables_number   1
_chemical_formula_structural   CaPr6CoI12
_chemical_formula_sum   'Ca1 Pr6 Co1 I12'
_cell_volume   844.70800190
_cell_formula_units_Z   1
loop_
 _symmetry_equiv_pos_site_id
 _symmetry_equiv_pos_as_xyz
  1  'x, y, z'
loop_
 _atom_site_type_symbol
 _atom_site_label
 _atom_site_symmetry_multiplicity
 _atom_site_fract_x
 _atom_site_fract_y
 _atom_site_fract_z
 _atom_site_occupancy
  Ca  Ca0  1  0.500000  0.500000  0.500000  1
  Pr  Pr1  1  0.975161  0.902539  0.699971  1
  Pr  Pr2  1  0.024839  0.097461  0.300029  1
  Pr  Pr3  1  0.097461  0.300029  0.024839  1
  Pr  Pr4  1  0.300029  0.024839  0.097461  1
  Pr  Pr5  1  0.902539  0.699971  0.975161  1
  Pr  Pr6  1  0.699971  0.975161  0.902539  1
  Co  Co7  1  0.000000  0.000000  0.000000  1
  I  I8  1  0.537590  0.616029  0.840911  1
  I  I9  1  0.462410  0.383971  0.159089  1
  I  I10  1  0.318297  0.926190  0.773030  1
  I  I11  1  0.383971  0.159089  0.462410  1
  I  I12  1  0.926190  0.773030  0.318297  1
  I  I13  1  0.681703  0.073810  0.226970  1
  I  I14  1  0.073810  0.226970  0.681703  1
  I  I15  1  0.773030  0.318297  0.926190  1
  I  I16  1  0.226970  0.681703  0.073810  1
  I  I17  1  0.840911  0.537590  0.616029  1
  I  I18  1  0.159089  0.462410  0.383971  1
  I  I19  1  0.616029  0.840911  0.537590  1
