# generated using pymatgen
data_Rb5V(MoH9)3
_symmetry_space_group_name_H-M   'P 1'
_cell_length_a   9.65398484
_cell_length_b   9.30601454
_cell_length_c   5.46624300
_cell_angle_alpha   90.00000000
_cell_angle_beta   90.00000000
_cell_angle_gamma   118.81467954
_symmetry_Int_Tables_number   1
_chemical_formula_structural   Rb5V(MoH9)3
_chemical_formula_sum   'Rb5 V1 Mo3 H27'
_cell_volume   430.28301836
_cell_formula_units_Z   1
loop_
 _symmetry_equiv_pos_site_id
 _symmetry_equiv_pos_as_xyz
  1  'x, y, z'
loop_
 _atom_site_type_symbol
 _atom_site_label
 _atom_site_symmetry_multiplicity
 _atom_site_fract_x
 _atom_site_fract_y
 _atom_site_fract_z
 _atom_site_occupancy
  Rb  Rb0  1  0.735404  0.763862  0.500000  1
  Rb  Rb1  1  0.264596  0.028457  0.500000  1
  Rb  Rb2  1  0.000000  0.635661  0.000000  1
  Rb  Rb3  1  0.432422  0.391726  0.000000  1
  Rb  Rb4  1  0.567578  0.959304  0.000000  1
  V  V5  1  0.000000  0.279481  0.500000  1
  Mo  Mo6  1  0.730019  0.324016  0.500000  1
  Mo  Mo7  1  0.269981  0.593998  0.500000  1
  Mo  Mo8  1  0.000000  0.068098  0.000000  1
  H  H9  1  0.895485  0.346025  0.696907  1
  H  H10  1  0.716391  0.406458  0.770947  1
  H  H11  1  0.575772  0.189075  0.684784  1
  H  H12  1  0.104515  0.450541  0.303093  1
  H  H13  1  0.575772  0.189075  0.315216  1
  H  H14  1  0.895485  0.346025  0.303093  1
  H  H15  1  0.716391  0.406458  0.229053  1
  H  H16  1  0.283609  0.690068  0.770947  1
  H  H17  1  0.424228  0.613304  0.684784  1
  H  H18  1  0.183059  0.073944  0.000000  1
  H  H19  1  0.816941  0.890885  0.000000  1
  H  H20  1  0.000000  0.253321  0.000000  1
  H  H21  1  0.882879  0.078773  0.247442  1
  H  H22  1  0.117121  0.195894  0.752558  1
  H  H23  1  0.000000  0.926712  0.785370  1
  H  H24  1  0.000000  0.926712  0.214630  1
  H  H25  1  0.117121  0.195894  0.247442  1
  H  H26  1  0.882879  0.078773  0.752558  1
  H  H27  1  0.165125  0.701042  0.500000  1
  H  H28  1  0.420340  0.799150  0.500000  1
  H  H29  1  0.226212  0.377417  0.500000  1
  H  H30  1  0.579660  0.378811  0.500000  1
  H  H31  1  0.834875  0.535918  0.500000  1
  H  H32  1  0.773788  0.151205  0.500000  1
  H  H33  1  0.104515  0.450541  0.696907  1
  H  H34  1  0.283609  0.690068  0.229053  1
  H  H35  1  0.424228  0.613304  0.315216  1
