# generated using pymatgen
data_Cs4K8Li4Si15Ge
_symmetry_space_group_name_H-M   'P 1'
_cell_length_a   7.89510958
_cell_length_b   9.85902300
_cell_length_c   12.69219592
_cell_angle_alpha   90.00000000
_cell_angle_beta   90.04370310
_cell_angle_gamma   90.00000000
_symmetry_Int_Tables_number   1
_chemical_formula_structural   Cs4K8Li4Si15Ge
_chemical_formula_sum   'Cs4 K8 Li4 Si15 Ge1'
_cell_volume   987.93570771
_cell_formula_units_Z   1
loop_
 _symmetry_equiv_pos_site_id
 _symmetry_equiv_pos_as_xyz
  1  'x, y, z'
loop_
 _atom_site_type_symbol
 _atom_site_label
 _atom_site_symmetry_multiplicity
 _atom_site_fract_x
 _atom_site_fract_y
 _atom_site_fract_z
 _atom_site_occupancy
  Cs  Cs0  1  0.645900  0.250000  0.394273  1
  Cs  Cs1  1  0.145910  0.250000  0.105710  1
  Cs  Cs2  1  0.354008  0.750000  0.605483  1
  Cs  Cs3  1  0.854230  0.750000  0.894378  1
  K  K4  1  0.660517  0.442570  0.689603  1
  K  K5  1  0.160246  0.057640  0.810351  1
  K  K6  1  0.339547  0.942698  0.310467  1
  K  K7  1  0.839491  0.557332  0.189640  1
  K  K8  1  0.339547  0.557302  0.310467  1
  K  K9  1  0.839491  0.942668  0.189640  1
  K  K10  1  0.660517  0.057430  0.689603  1
  K  K11  1  0.160246  0.442360  0.810351  1
  Li  Li12  1  0.500089  0.499723  0.000239  1
  Li  Li13  1  0.999994  0.000006  0.500006  1
  Li  Li14  1  0.500089  0.000277  0.000239  1
  Li  Li15  1  0.999994  0.499994  0.500006  1
  Si  Si16  1  0.862226  0.750000  0.588017  1
  Si  Si17  1  0.637912  0.250000  0.087873  1
  Si  Si18  1  0.137776  0.250000  0.412073  1
  Si  Si19  1  0.721755  0.629278  0.444075  1
  Si  Si20  1  0.221266  0.870602  0.057724  1
  Si  Si21  1  0.278246  0.129272  0.555981  1
  Si  Si22  1  0.778198  0.370734  0.944069  1
  Si  Si23  1  0.012711  0.250000  0.588955  1
  Si  Si24  1  0.512596  0.250000  0.910962  1
  Si  Si25  1  0.987279  0.750000  0.411098  1
  Si  Si26  1  0.486742  0.750000  0.090829  1
  Si  Si27  1  0.221266  0.629398  0.057724  1
  Si  Si28  1  0.721755  0.870722  0.444075  1
  Si  Si29  1  0.778198  0.129266  0.944069  1
  Si  Si30  1  0.278246  0.370728  0.555981  1
  Ge  Ge31  1  0.364012  0.750000  0.906035  1
