# generated using pymatgen
data_Lu2Fe10Co2P7
_symmetry_space_group_name_H-M   'P 1'
_cell_length_a   3.60908000
_cell_length_b   8.92178451
_cell_length_c   8.93556714
_cell_angle_alpha   119.96371496
_cell_angle_beta   90.00000000
_cell_angle_gamma   90.00000000
_symmetry_Int_Tables_number   1
_chemical_formula_structural   Lu2Fe10Co2P7
_chemical_formula_sum   'Lu2 Fe10 Co2 P7'
_cell_volume   249.26406219
_cell_formula_units_Z   1
loop_
 _symmetry_equiv_pos_site_id
 _symmetry_equiv_pos_as_xyz
  1  'x, y, z'
loop_
 _atom_site_type_symbol
 _atom_site_label
 _atom_site_symmetry_multiplicity
 _atom_site_fract_x
 _atom_site_fract_y
 _atom_site_fract_z
 _atom_site_occupancy
  Lu  Lu0  1  0.000000  0.665999  0.332446  1
  Lu  Lu1  1  0.500000  0.333673  0.666559  1
  Fe  Fe2  1  0.000000  0.571644  0.630153  1
  Fe  Fe3  1  0.000000  0.880366  0.726067  1
  Fe  Fe4  1  0.000000  0.273709  0.154865  1
  Fe  Fe5  1  0.000000  0.844101  0.119213  1
  Fe  Fe6  1  0.500000  0.950781  0.563841  1
  Fe  Fe7  1  0.500000  0.435507  0.386616  1
  Fe  Fe8  1  0.500000  0.611321  0.047832  1
  Fe  Fe9  1  0.500000  0.123145  0.900926  1
  Fe  Fe10  1  0.500000  0.098590  0.223324  1
  Fe  Fe11  1  0.500000  0.783107  0.879978  1
  Co  Co12  1  0.000000  0.368954  0.938500  1
  Co  Co13  1  0.000000  0.061304  0.430674  1
  P  P14  1  0.000000  0.111642  0.701687  1
  P  P15  1  0.000000  0.299402  0.410858  1
  P  P16  1  0.000000  0.590127  0.886460  1
  P  P17  1  0.500000  0.712012  0.596582  1
  P  P18  1  0.500000  0.402823  0.116830  1
  P  P19  1  0.500000  0.882100  0.286201  1
  P  P20  1  0.000000  0.999694  0.000388  1
