# generated using pymatgen
data_Ti5(Re7Tc5)2
_symmetry_space_group_name_H-M   'P 1'
_cell_length_a   8.34882416
_cell_length_b   8.34882351
_cell_length_c   8.34640309
_cell_angle_alpha   109.49469904
_cell_angle_beta   109.49469981
_cell_angle_gamma   109.49320674
_symmetry_Int_Tables_number   1
_chemical_formula_structural   Ti5(Re7Tc5)2
_chemical_formula_sum   'Ti5 Re14 Tc10'
_cell_volume   447.46388140
_cell_formula_units_Z   1
loop_
 _symmetry_equiv_pos_site_id
 _symmetry_equiv_pos_as_xyz
  1  'x, y, z'
loop_
 _atom_site_type_symbol
 _atom_site_label
 _atom_site_symmetry_multiplicity
 _atom_site_fract_x
 _atom_site_fract_y
 _atom_site_fract_z
 _atom_site_occupancy
  Ti  Ti0  1  0.999253  0.999253  0.999632  1
  Ti  Ti1  1  0.630427  0.999791  0.000038  1
  Ti  Ti2  1  0.999791  0.630427  0.000038  1
  Ti  Ti3  1  0.999546  0.999546  0.630227  1
  Ti  Ti4  1  0.368973  0.368973  0.367594  1
  Re  Re5  1  0.280189  0.599493  0.599616  1
  Re  Re6  1  0.599493  0.280189  0.599616  1
  Re  Re7  1  0.375363  0.193444  0.999975  1
  Re  Re8  1  0.180535  0.807008  0.806763  1
  Re  Re9  1  0.375260  0.001045  0.193925  1
  Re  Re10  1  0.193444  0.375363  0.999975  1
  Re  Re11  1  0.001045  0.375260  0.193925  1
  Re  Re12  1  0.807008  0.180535  0.806763  1
  Re  Re13  1  0.806537  0.806537  0.182156  1
  Re  Re14  1  0.000709  0.193640  0.375591  1
  Re  Re15  1  0.193640  0.000709  0.375591  1
  Re  Re16  1  0.624493  0.624493  0.817982  1
  Re  Re17  1  0.816460  0.624080  0.623808  1
  Re  Re18  1  0.624080  0.816460  0.623808  1
  Tc  Tc19  1  0.401201  0.683005  0.000598  1
  Tc  Tc20  1  0.719347  0.318078  0.317199  1
  Tc  Tc21  1  0.401330  0.000693  0.682429  1
  Tc  Tc22  1  0.683005  0.401201  0.000598  1
  Tc  Tc23  1  0.000693  0.401330  0.682429  1
  Tc  Tc24  1  0.318078  0.719347  0.317199  1
  Tc  Tc25  1  0.318309  0.318309  0.720256  1
  Tc  Tc26  1  0.000857  0.681991  0.401080  1
  Tc  Tc27  1  0.681991  0.000857  0.401080  1
  Tc  Tc28  1  0.598944  0.598944  0.280108  1
