# generated using pymatgen
data_Ca2Co5B3C
_symmetry_space_group_name_H-M   'P 1'
_cell_length_a   7.04121196
_cell_length_b   5.78605272
_cell_length_c   5.36060512
_cell_angle_alpha   77.72621786
_cell_angle_beta   53.56324161
_cell_angle_gamma   48.18978721
_symmetry_Int_Tables_number   1
_chemical_formula_structural   Ca2Co5B3C
_chemical_formula_sum   'Ca2 Co5 B3 C1'
_cell_volume   124.68716448
_cell_formula_units_Z   1
loop_
 _symmetry_equiv_pos_site_id
 _symmetry_equiv_pos_as_xyz
  1  'x, y, z'
loop_
 _atom_site_type_symbol
 _atom_site_label
 _atom_site_symmetry_multiplicity
 _atom_site_fract_x
 _atom_site_fract_y
 _atom_site_fract_z
 _atom_site_occupancy
  Ca  Ca0  1  0.852248  0.851058  0.148943  1
  Ca  Ca1  1  0.144493  0.144763  0.855238  1
  Co  Co2  1  0.499125  0.504095  0.004266  1
  Co  Co3  1  0.254517  0.240530  0.249707  1
  Co  Co4  1  0.007488  0.995734  0.495905  1
  Co  Co5  1  0.501613  0.511694  0.488308  1
  Co  Co6  1  0.744751  0.750294  0.759472  1
  B  B7  1  0.208355  0.527367  0.472635  1
  B  B8  1  0.789415  0.466741  0.533261  1
  B  B9  1  0.533219  0.215225  0.784776  1
  C  C10  1  0.464763  0.792506  0.207495  1
