# generated using pymatgen
data_Yb3PrIr3RhO14
_symmetry_space_group_name_H-M   'P 1'
_cell_length_a   7.22830124
_cell_length_b   7.30521596
_cell_length_c   7.24284900
_cell_angle_alpha   60.28200815
_cell_angle_beta   59.93339643
_cell_angle_gamma   60.20263246
_symmetry_Int_Tables_number   1
_chemical_formula_structural   Yb3PrIr3RhO14
_chemical_formula_sum   'Yb3 Pr1 Ir3 Rh1 O14'
_cell_volume   271.28367366
_cell_formula_units_Z   1
loop_
 _symmetry_equiv_pos_site_id
 _symmetry_equiv_pos_as_xyz
  1  'x, y, z'
loop_
 _atom_site_type_symbol
 _atom_site_label
 _atom_site_symmetry_multiplicity
 _atom_site_fract_x
 _atom_site_fract_y
 _atom_site_fract_z
 _atom_site_occupancy
  Yb  Yb0  1  0.125000  0.125000  0.625000  1
  Yb  Yb1  1  0.125000  0.125000  0.125000  1
  Yb  Yb2  1  0.625000  0.125000  0.125000  1
  Pr  Pr3  1  0.125000  0.625000  0.125000  1
  Ir  Ir4  1  0.625000  0.625000  0.625000  1
  Ir  Ir5  1  0.625000  0.125000  0.625000  1
  Ir  Ir6  1  0.625000  0.625000  0.125000  1
  Rh  Rh7  1  0.125000  0.625000  0.625000  1
  O  O8  1  0.952304  0.540221  0.549605  1
  O  O9  1  0.300163  0.294156  0.702840  1
  O  O10  1  0.952304  0.540221  0.957868  1
  O  O11  1  0.694643  0.301395  0.300147  1
  O  O12  1  0.553618  0.540864  0.952758  1
  O  O13  1  0.555357  0.948605  0.546185  1
  O  O14  1  0.555357  0.948605  0.949853  1
  O  O15  1  0.252082  0.244928  0.251494  1
  O  O16  1  0.297696  0.709779  0.700395  1
  O  O17  1  0.694643  0.301395  0.703815  1
  O  O18  1  0.997918  0.005072  0.998506  1
  O  O19  1  0.949837  0.955844  0.547160  1
  O  O20  1  0.297696  0.709779  0.292132  1
  O  O21  1  0.696382  0.709136  0.297242  1
