# generated using pymatgen
data_Co4Si2MoW5C
_symmetry_space_group_name_H-M   'P 1'
_cell_length_a   7.73112840
_cell_length_b   7.73112773
_cell_length_c   7.72944207
_cell_angle_alpha   60.01948826
_cell_angle_beta   60.01948749
_cell_angle_gamma   60.02730055
_symmetry_Int_Tables_number   1
_chemical_formula_structural   Co4Si2MoW5C
_chemical_formula_sum   'Co8 Si4 Mo2 W10 C2'
_cell_volume   326.84084445
_cell_formula_units_Z   2
loop_
 _symmetry_equiv_pos_site_id
 _symmetry_equiv_pos_as_xyz
  1  'x, y, z'
loop_
 _atom_site_type_symbol
 _atom_site_label
 _atom_site_symmetry_multiplicity
 _atom_site_fract_x
 _atom_site_fract_y
 _atom_site_fract_z
 _atom_site_occupancy
  Co  Co0  1  0.418013  0.418013  0.745475  1
  Co  Co1  1  0.419195  0.744964  0.418767  1
  Co  Co2  1  0.744964  0.419195  0.418767  1
  Co  Co3  1  0.417774  0.417774  0.419970  1
  Co  Co4  1  0.830477  0.830477  0.505965  1
  Co  Co5  1  0.832568  0.505689  0.830001  1
  Co  Co6  1  0.505689  0.832568  0.830001  1
  Co  Co7  1  0.831294  0.831294  0.832075  1
  Si  Si8  1  0.624131  0.624131  0.125703  1
  Si  Si9  1  0.625702  0.125720  0.623735  1
  Si  Si10  1  0.125720  0.625702  0.623735  1
  Si  Si11  1  0.624445  0.624445  0.625322  1
  Mo  Mo12  1  0.196396  0.803713  0.196703  1
  Mo  Mo13  1  0.803713  0.196396  0.196703  1
  W  W14  1  0.053162  0.053162  0.447006  1
  W  W15  1  0.446781  0.053496  0.446796  1
  W  W16  1  0.053496  0.446781  0.446796  1
  W  W17  1  0.446844  0.446844  0.053694  1
  W  W18  1  0.052794  0.446947  0.053413  1
  W  W19  1  0.446947  0.052794  0.053413  1
  W  W20  1  0.196261  0.196261  0.804208  1
  W  W21  1  0.802716  0.197223  0.803214  1
  W  W22  1  0.197223  0.802716  0.803214  1
  W  W23  1  0.803720  0.803720  0.196641  1
  C  C24  1  0.249995  0.249995  0.249791  1
  C  C25  1  0.999982  0.999982  0.998893  1
