# generated using pymatgen
data_TmCo2(PRu)3
_symmetry_space_group_name_H-M   'P 1'
_cell_length_a   3.75836500
_cell_length_b   10.58680200
_cell_length_c   12.07372900
_cell_angle_alpha   90.00000000
_cell_angle_beta   90.00000000
_cell_angle_gamma   90.00000000
_symmetry_Int_Tables_number   1
_chemical_formula_structural   TmCo2(PRu)3
_chemical_formula_sum   'Tm4 Co8 P12 Ru12'
_cell_volume   480.40240124
_cell_formula_units_Z   4
loop_
 _symmetry_equiv_pos_site_id
 _symmetry_equiv_pos_as_xyz
  1  'x, y, z'
loop_
 _atom_site_type_symbol
 _atom_site_label
 _atom_site_symmetry_multiplicity
 _atom_site_fract_x
 _atom_site_fract_y
 _atom_site_fract_z
 _atom_site_occupancy
  Tm  Tm0  1  0.250000  0.584272  0.706543  1
  Tm  Tm1  1  0.250000  0.915728  0.206543  1
  Tm  Tm2  1  0.750000  0.415728  0.293457  1
  Tm  Tm3  1  0.750000  0.084272  0.793457  1
  Co  Co4  1  0.250000  0.888138  0.696025  1
  Co  Co5  1  0.250000  0.611862  0.196025  1
  Co  Co6  1  0.750000  0.111862  0.303975  1
  Co  Co7  1  0.750000  0.388138  0.803975  1
  Co  Co8  1  0.250000  0.463029  0.934855  1
  Co  Co9  1  0.250000  0.036971  0.434855  1
  Co  Co10  1  0.750000  0.536971  0.065145  1
  Co  Co11  1  0.750000  0.963029  0.565145  1
  P  P12  1  0.250000  0.425657  0.113369  1
  P  P13  1  0.250000  0.074343  0.613369  1
  P  P14  1  0.750000  0.574343  0.886631  1
  P  P15  1  0.750000  0.925657  0.386631  1
  P  P16  1  0.250000  0.270978  0.871343  1
  P  P17  1  0.250000  0.229022  0.371343  1
  P  P18  1  0.750000  0.729022  0.128657  1
  P  P19  1  0.750000  0.770978  0.628657  1
  P  P20  1  0.250000  0.600238  0.386240  1
  P  P21  1  0.250000  0.899762  0.886240  1
  P  P22  1  0.750000  0.399762  0.613760  1
  P  P23  1  0.750000  0.100238  0.113760  1
  Ru  Ru24  1  0.250000  0.706147  0.986211  1
  Ru  Ru25  1  0.250000  0.793853  0.486211  1
  Ru  Ru26  1  0.750000  0.293853  0.013789  1
  Ru  Ru27  1  0.750000  0.206147  0.513789  1
  Ru  Ru28  1  0.250000  0.405643  0.485072  1
  Ru  Ru29  1  0.250000  0.094357  0.985072  1
  Ru  Ru30  1  0.750000  0.594357  0.514928  1
  Ru  Ru31  1  0.750000  0.905643  0.014928  1
  Ru  Ru32  1  0.250000  0.223911  0.180841  1
  Ru  Ru33  1  0.250000  0.276089  0.680841  1
  Ru  Ru34  1  0.750000  0.776089  0.819159  1
  Ru  Ru35  1  0.750000  0.723911  0.319159  1
