# generated using pymatgen
data_SmEu3ReTc3B16
_symmetry_space_group_name_H-M   'P 1'
_cell_length_a   3.63649300
_cell_length_b   6.06255767
_cell_length_c   11.72754428
_cell_angle_alpha   89.83924228
_cell_angle_beta   90.00000000
_cell_angle_gamma   90.00000000
_symmetry_Int_Tables_number   1
_chemical_formula_structural   SmEu3ReTc3B16
_chemical_formula_sum   'Sm1 Eu3 Re1 Tc3 B16'
_cell_volume   258.54968377
_cell_formula_units_Z   1
loop_
 _symmetry_equiv_pos_site_id
 _symmetry_equiv_pos_as_xyz
  1  'x, y, z'
loop_
 _atom_site_type_symbol
 _atom_site_label
 _atom_site_symmetry_multiplicity
 _atom_site_fract_x
 _atom_site_fract_y
 _atom_site_fract_z
 _atom_site_occupancy
  Sm  Sm0  1  0.500000  0.873604  0.349805  1
  Eu  Eu1  1  0.500000  0.373628  0.150222  1
  Eu  Eu2  1  0.500000  0.626439  0.849158  1
  Eu  Eu3  1  0.500000  0.126764  0.650943  1
  Re  Re4  1  0.500000  0.870623  0.085051  1
  Tc  Tc5  1  0.500000  0.370516  0.415384  1
  Tc  Tc6  1  0.500000  0.630190  0.583680  1
  Tc  Tc7  1  0.500000  0.129264  0.915883  1
  B  B8  1  0.000000  0.112805  0.046383  1
  B  B9  1  0.000000  0.887388  0.953515  1
  B  B10  1  0.000000  0.387102  0.546561  1
  B  B11  1  0.000000  0.611432  0.453636  1
  B  B12  1  0.000000  0.138078  0.468018  1
  B  B13  1  0.000000  0.862004  0.532104  1
  B  B14  1  0.000000  0.361953  0.967592  1
  B  B15  1  0.000000  0.637788  0.032140  1
  B  B16  1  0.000000  0.024555  0.190756  1
  B  B17  1  0.000000  0.976236  0.809200  1
  B  B18  1  0.000000  0.476013  0.690662  1
  B  B19  1  0.000000  0.524231  0.309188  1
  B  B20  1  0.000000  0.218199  0.316106  1
  B  B21  1  0.000000  0.781803  0.683867  1
  B  B22  1  0.000000  0.282292  0.815957  1
  B  B23  1  0.000000  0.717095  0.184191  1
