# generated using pymatgen
data_AcGa3Ni
_symmetry_space_group_name_H-M   'P 1'
_cell_length_a   4.42365893
_cell_length_b   4.42365814
_cell_length_c   6.00924321
_cell_angle_alpha   68.41375102
_cell_angle_beta   68.41374952
_cell_angle_gamma   90.02643934
_symmetry_Int_Tables_number   1
_chemical_formula_structural   AcGa3Ni
_chemical_formula_sum   'Ac1 Ga3 Ni1'
_cell_volume   100.41485372
_cell_formula_units_Z   1
loop_
 _symmetry_equiv_pos_site_id
 _symmetry_equiv_pos_as_xyz
  1  'x, y, z'
loop_
 _atom_site_type_symbol
 _atom_site_label
 _atom_site_symmetry_multiplicity
 _atom_site_fract_x
 _atom_site_fract_y
 _atom_site_fract_z
 _atom_site_occupancy
  Ac  Ac0  1  0.001509  0.001509  0.996982  1
  Ga  Ga1  1  0.755920  0.255920  0.488159  1
  Ga  Ga2  1  0.255920  0.755920  0.488159  1
  Ga  Ga3  1  0.595338  0.595338  0.809322  1
  Ni  Ni4  1  0.360312  0.360312  0.279377  1
