# generated using pymatgen
data_Er3CdSn3Ir2
_symmetry_space_group_name_H-M   'P 1'
_cell_length_a   7.66767900
_cell_length_b   7.66767892
_cell_length_c   3.92007600
_cell_angle_alpha   90.00000000
_cell_angle_beta   90.00000000
_cell_angle_gamma   119.99999602
_symmetry_Int_Tables_number   1
_chemical_formula_structural   Er3CdSn3Ir2
_chemical_formula_sum   'Er3 Cd1 Sn3 Ir2'
_cell_volume   199.59652602
_cell_formula_units_Z   1
loop_
 _symmetry_equiv_pos_site_id
 _symmetry_equiv_pos_as_xyz
  1  'x, y, z'
loop_
 _atom_site_type_symbol
 _atom_site_label
 _atom_site_symmetry_multiplicity
 _atom_site_fract_x
 _atom_site_fract_y
 _atom_site_fract_z
 _atom_site_occupancy
  Er  Er0  1  0.383819  0.410642  0.500000  1
  Er  Er1  1  0.589358  0.973177  0.500000  1
  Er  Er2  1  0.026823  0.616181  0.500000  1
  Cd  Cd3  1  0.666667  0.333333  0.000000  1
  Sn  Sn4  1  0.744149  0.745955  0.000000  1
  Sn  Sn5  1  0.254045  0.998194  0.000000  1
  Sn  Sn6  1  0.001806  0.255851  0.000000  1
  Ir  Ir7  1  0.333333  0.666667  0.000000  1
  Ir  Ir8  1  0.000000  0.000000  0.500000  1
