# generated using pymatgen
data_Dy12ErLu7Sn16
_symmetry_space_group_name_H-M   'P 1'
_cell_length_a   7.97082421
_cell_length_b   8.10918118
_cell_length_c   15.34900613
_cell_angle_alpha   89.99300354
_cell_angle_beta   89.98678992
_cell_angle_gamma   89.97711689
_symmetry_Int_Tables_number   1
_chemical_formula_structural   Dy12ErLu7Sn16
_chemical_formula_sum   'Dy12 Er1 Lu7 Sn16'
_cell_volume   992.11141164
_cell_formula_units_Z   1
loop_
 _symmetry_equiv_pos_site_id
 _symmetry_equiv_pos_as_xyz
  1  'x, y, z'
loop_
 _atom_site_type_symbol
 _atom_site_label
 _atom_site_symmetry_multiplicity
 _atom_site_fract_x
 _atom_site_fract_y
 _atom_site_fract_z
 _atom_site_occupancy
  Dy  Dy0  1  0.633465  0.162637  0.122734  1
  Dy  Dy1  1  0.133485  0.337334  0.377242  1
  Dy  Dy2  1  0.366503  0.837350  0.622690  1
  Dy  Dy3  1  0.866422  0.662707  0.877216  1
  Dy  Dy4  1  0.520466  0.320864  0.903567  1
  Dy  Dy5  1  0.020443  0.179271  0.596399  1
  Dy  Dy6  1  0.479520  0.679214  0.403561  1
  Dy  Dy7  1  0.979604  0.820832  0.096403  1
  Dy  Dy8  1  0.481008  0.678805  0.096154  1
  Dy  Dy9  1  0.980917  0.821102  0.403990  1
  Dy  Dy10  1  0.519066  0.321110  0.595980  1
  Dy  Dy11  1  0.018946  0.178949  0.904033  1
  Er  Er12  1  0.364445  0.838290  0.876636  1
  Lu  Lu13  1  0.864405  0.661586  0.623420  1
  Lu  Lu14  1  0.635655  0.161624  0.376547  1
  Lu  Lu15  1  0.135646  0.338397  0.123518  1
  Lu  Lu16  1  0.196307  0.504162  0.750663  1
  Lu  Lu17  1  0.696640  0.995703  0.749134  1
  Lu  Lu18  1  0.803534  0.495608  0.250790  1
  Lu  Lu19  1  0.303542  0.004411  0.249217  1
  Sn  Sn20  1  0.292461  0.038932  0.041339  1
  Sn  Sn21  1  0.792613  0.461410  0.458986  1
  Sn  Sn22  1  0.707356  0.961446  0.540985  1
  Sn  Sn23  1  0.207044  0.537991  0.959139  1
  Sn  Sn24  1  0.702029  0.962280  0.957166  1
  Sn  Sn25  1  0.201387  0.537863  0.542930  1
  Sn  Sn26  1  0.298624  0.037856  0.457082  1
  Sn  Sn27  1  0.798649  0.462132  0.042934  1
  Sn  Sn28  1  0.562604  0.618417  0.749849  1
  Sn  Sn29  1  0.061963  0.881312  0.749806  1
  Sn  Sn30  1  0.437668  0.381280  0.250036  1
  Sn  Sn31  1  0.937671  0.118718  0.249999  1
  Sn  Sn32  1  0.329770  0.150694  0.750133  1
  Sn  Sn33  1  0.829799  0.349643  0.749726  1
  Sn  Sn34  1  0.670141  0.849637  0.250265  1
  Sn  Sn35  1  0.170202  0.650433  0.249729  1
