# generated using pymatgen
data_K4Al5(SiAu4)3
_symmetry_space_group_name_H-M   'P 1'
_cell_length_a   5.58499290
_cell_length_b   7.03307593
_cell_length_c   13.41643499
_cell_angle_alpha   90.16114805
_cell_angle_beta   90.49908089
_cell_angle_gamma   90.08443659
_symmetry_Int_Tables_number   1
_chemical_formula_structural   K4Al5(SiAu4)3
_chemical_formula_sum   'K4 Al5 Si3 Au12'
_cell_volume   526.97059300
_cell_formula_units_Z   1
loop_
 _symmetry_equiv_pos_site_id
 _symmetry_equiv_pos_as_xyz
  1  'x, y, z'
loop_
 _atom_site_type_symbol
 _atom_site_label
 _atom_site_symmetry_multiplicity
 _atom_site_fract_x
 _atom_site_fract_y
 _atom_site_fract_z
 _atom_site_occupancy
  K  K0  1  0.248569  0.107363  0.075644  1
  K  K1  1  0.251359  0.392221  0.576169  1
  K  K2  1  0.750866  0.892872  0.923130  1
  K  K3  1  0.751604  0.607126  0.424215  1
  Al  Al4  1  0.007706  0.401192  0.846908  1
  Al  Al5  1  0.995596  0.100954  0.341196  1
  Al  Al6  1  0.505002  0.399227  0.840032  1
  Al  Al7  1  0.498165  0.898686  0.657174  1
  Al  Al8  1  0.002762  0.600258  0.159281  1
  Si  Si9  1  0.990626  0.900001  0.653428  1
  Si  Si10  1  0.502584  0.597673  0.156861  1
  Si  Si11  1  0.490126  0.101034  0.345642  1
  Au  Au12  1  0.251102  0.111498  0.787518  1
  Au  Au13  1  0.258348  0.385580  0.288178  1
  Au  Au14  1  0.740477  0.884791  0.210788  1
  Au  Au15  1  0.759401  0.613123  0.709888  1
  Au  Au16  1  0.254988  0.696275  0.788303  1
  Au  Au17  1  0.255473  0.808335  0.287768  1
  Au  Au18  1  0.745382  0.305621  0.213669  1
  Au  Au19  1  0.761331  0.194195  0.712122  1
  Au  Au20  1  0.255204  0.575226  0.000200  1
  Au  Au21  1  0.235578  0.928941  0.500856  1
  Au  Au22  1  0.751515  0.427756  0.002457  1
  Au  Au23  1  0.736236  0.070053  0.498573  1
