# generated using pymatgen
data_NaTbSnI6
_symmetry_space_group_name_H-M   'P 1'
_cell_length_a   8.62917935
_cell_length_b   8.62918074
_cell_length_c   8.62910183
_cell_angle_alpha   54.55328605
_cell_angle_beta   54.55316623
_cell_angle_gamma   54.55323042
_symmetry_Int_Tables_number   1
_chemical_formula_structural   NaTbSnI6
_chemical_formula_sum   'Na1 Tb1 Sn1 I6'
_cell_volume   396.66644936
_cell_formula_units_Z   1
loop_
 _symmetry_equiv_pos_site_id
 _symmetry_equiv_pos_as_xyz
  1  'x, y, z'
loop_
 _atom_site_type_symbol
 _atom_site_label
 _atom_site_symmetry_multiplicity
 _atom_site_fract_x
 _atom_site_fract_y
 _atom_site_fract_z
 _atom_site_occupancy
  Na  Na0  1  0.670064  0.670056  0.670061  1
  Tb  Tb1  1  0.999845  0.999847  0.999847  1
  Sn  Sn2  1  0.330819  0.330819  0.330816  1
  I  I3  1  0.236644  0.604409  0.916636  1
  I  I4  1  0.604403  0.916644  0.236645  1
  I  I5  1  0.916648  0.236640  0.604400  1
  I  I6  1  0.758576  0.391939  0.091072  1
  I  I7  1  0.391932  0.091072  0.758581  1
  I  I8  1  0.091072  0.758574  0.391941  1
