# generated using pymatgen
data_InAg3(Ir2O7)2
_symmetry_space_group_name_H-M   'P 1'
_cell_length_a   7.19779641
_cell_length_b   7.19779724
_cell_length_c   7.22997640
_cell_angle_alpha   60.14712392
_cell_angle_beta   60.14712873
_cell_angle_gamma   60.00000536
_symmetry_Int_Tables_number   1
_chemical_formula_structural   InAg3(Ir2O7)2
_chemical_formula_sum   'In1 Ag3 Ir4 O14'
_cell_volume   265.45033945
_cell_formula_units_Z   1
loop_
 _symmetry_equiv_pos_site_id
 _symmetry_equiv_pos_as_xyz
  1  'x, y, z'
loop_
 _atom_site_type_symbol
 _atom_site_label
 _atom_site_symmetry_multiplicity
 _atom_site_fract_x
 _atom_site_fract_y
 _atom_site_fract_z
 _atom_site_occupancy
  In  In0  1  0.125000  0.125000  0.625000  1
  Ag  Ag1  1  0.625000  0.125000  0.125000  1
  Ag  Ag2  1  0.125000  0.625000  0.125000  1
  Ag  Ag3  1  0.125000  0.125000  0.125000  1
  Ir  Ir4  1  0.125000  0.625000  0.625000  1
  Ir  Ir5  1  0.625000  0.125000  0.625000  1
  Ir  Ir6  1  0.625000  0.625000  0.125000  1
  Ir  Ir7  1  0.625000  0.625000  0.625000  1
  O  O8  1  0.697744  0.697744  0.304654  1
  O  O9  1  0.296591  0.296591  0.687844  1
  O  O10  1  0.718975  0.296591  0.687844  1
  O  O11  1  0.299857  0.697744  0.304654  1
  O  O12  1  0.296591  0.718975  0.687844  1
  O  O13  1  0.697744  0.299857  0.304654  1
  O  O14  1  0.552256  0.552256  0.945346  1
  O  O15  1  0.953409  0.953409  0.562156  1
  O  O16  1  0.531025  0.953409  0.562156  1
  O  O17  1  0.950143  0.552256  0.945346  1
  O  O18  1  0.953409  0.531025  0.562156  1
  O  O19  1  0.552256  0.950143  0.945346  1
  O  O20  1  0.251106  0.251106  0.246680  1
  O  O21  1  0.998894  0.998894  0.003320  1
