# generated using pymatgen
data_Tb8Tc(B8Ru)3
_symmetry_space_group_name_H-M   'P 1'
_cell_length_a   3.69212400
_cell_length_b   9.19367641
_cell_length_c   11.57863827
_cell_angle_alpha   89.90147471
_cell_angle_beta   90.00000000
_cell_angle_gamma   90.00000000
_symmetry_Int_Tables_number   1
_chemical_formula_structural   Tb8Tc(B8Ru)3
_chemical_formula_sum   'Tb8 Tc1 B24 Ru3'
_cell_volume   393.02695458
_cell_formula_units_Z   1
loop_
 _symmetry_equiv_pos_site_id
 _symmetry_equiv_pos_as_xyz
  1  'x, y, z'
loop_
 _atom_site_type_symbol
 _atom_site_label
 _atom_site_symmetry_multiplicity
 _atom_site_fract_x
 _atom_site_fract_y
 _atom_site_fract_z
 _atom_site_occupancy
  Tb  Tb0  1  0.000000  0.325138  0.413083  1
  Tb  Tb1  1  0.000000  0.675746  0.583658  1
  Tb  Tb2  1  0.000000  0.821760  0.088107  1
  Tb  Tb3  1  0.000000  0.175739  0.914717  1
  Tb  Tb4  1  0.000000  0.943454  0.372526  1
  Tb  Tb5  1  0.000000  0.057082  0.628205  1
  Tb  Tb6  1  0.000000  0.444179  0.127973  1
  Tb  Tb7  1  0.000000  0.556865  0.871370  1
  Tc  Tc8  1  0.000000  0.637729  0.321468  1
  B  B9  1  0.500000  0.553071  0.432777  1
  B  B10  1  0.500000  0.446222  0.567884  1
  B  B11  1  0.500000  0.053919  0.067548  1
  B  B12  1  0.500000  0.946030  0.932628  1
  B  B13  1  0.500000  0.747375  0.419418  1
  B  B14  1  0.500000  0.252835  0.580548  1
  B  B15  1  0.500000  0.247345  0.080378  1
  B  B16  1  0.500000  0.752706  0.919495  1
  B  B17  1  0.500000  0.791224  0.266824  1
  B  B18  1  0.500000  0.209375  0.733197  1
  B  B19  1  0.500000  0.290596  0.232533  1
  B  B20  1  0.500000  0.709852  0.766863  1
  B  B21  1  0.500000  0.632490  0.186128  1
  B  B22  1  0.500000  0.367253  0.814253  1
  B  B23  1  0.500000  0.132508  0.313679  1
  B  B24  1  0.500000  0.867884  0.685979  1
  B  B25  1  0.500000  0.984463  0.212759  1
  B  B26  1  0.500000  0.015572  0.787735  1
  B  B27  1  0.500000  0.483659  0.287328  1
  B  B28  1  0.500000  0.515217  0.712664  1
  B  B29  1  0.500000  0.610088  0.029914  1
  B  B30  1  0.500000  0.389448  0.969057  1
  B  B31  1  0.500000  0.110762  0.469644  1
  B  B32  1  0.500000  0.890638  0.530990  1
  Ru  Ru33  1  0.000000  0.361755  0.679122  1
  Ru  Ru34  1  0.000000  0.137752  0.178161  1
  Ru  Ru35  1  0.000000  0.862270  0.821386  1
