# generated using pymatgen
data_Cs6TmBiSe3
_symmetry_space_group_name_H-M   'P 1'
_cell_length_a   11.50720800
_cell_length_b   11.50720711
_cell_length_c   9.31788200
_cell_angle_alpha   90.00000000
_cell_angle_beta   90.00000000
_cell_angle_gamma   119.99999682
_symmetry_Int_Tables_number   1
_chemical_formula_structural   Cs6TmBiSe3
_chemical_formula_sum   'Cs12 Tm2 Bi2 Se6'
_cell_volume   1068.53252169
_cell_formula_units_Z   2
loop_
 _symmetry_equiv_pos_site_id
 _symmetry_equiv_pos_as_xyz
  1  'x, y, z'
loop_
 _atom_site_type_symbol
 _atom_site_label
 _atom_site_symmetry_multiplicity
 _atom_site_fract_x
 _atom_site_fract_y
 _atom_site_fract_z
 _atom_site_occupancy
  Cs  Cs0  1  0.142397  0.857603  0.536487  1
  Cs  Cs1  1  0.284794  0.142397  0.036487  1
  Cs  Cs2  1  0.857603  0.715206  0.036487  1
  Cs  Cs3  1  0.142397  0.284794  0.536487  1
  Cs  Cs4  1  0.715206  0.857603  0.536487  1
  Cs  Cs5  1  0.857603  0.142397  0.036487  1
  Cs  Cs6  1  0.528379  0.471621  0.372839  1
  Cs  Cs7  1  0.056759  0.528379  0.872839  1
  Cs  Cs8  1  0.471621  0.943241  0.872839  1
  Cs  Cs9  1  0.528379  0.056759  0.372839  1
  Cs  Cs10  1  0.943241  0.471621  0.372839  1
  Cs  Cs11  1  0.471621  0.528379  0.872839  1
  Tm  Tm12  1  0.333333  0.666667  0.242580  1
  Tm  Tm13  1  0.666667  0.333333  0.742580  1
  Bi  Bi14  1  0.333333  0.666667  0.566850  1
  Bi  Bi15  1  0.666667  0.333333  0.066850  1
  Se  Se16  1  0.201056  0.798944  0.157431  1
  Se  Se17  1  0.402112  0.201056  0.657431  1
  Se  Se18  1  0.798944  0.597888  0.657431  1
  Se  Se19  1  0.201056  0.402112  0.157431  1
  Se  Se20  1  0.597888  0.798944  0.157431  1
  Se  Se21  1  0.798944  0.201056  0.657431  1
