# generated using pymatgen
data_Pm4Ge3Se
_symmetry_space_group_name_H-M   'P 1'
_cell_length_a   6.02627780
_cell_length_b   6.02665991
_cell_length_c   7.37600861
_cell_angle_alpha   65.66781457
_cell_angle_beta   65.66066394
_cell_angle_gamma   89.80408773
_symmetry_Int_Tables_number   1
_chemical_formula_structural   Pm4Ge3Se
_chemical_formula_sum   'Pm4 Ge3 Se1'
_cell_volume   217.88144210
_cell_formula_units_Z   1
loop_
 _symmetry_equiv_pos_site_id
 _symmetry_equiv_pos_as_xyz
  1  'x, y, z'
loop_
 _atom_site_type_symbol
 _atom_site_label
 _atom_site_symmetry_multiplicity
 _atom_site_fract_x
 _atom_site_fract_y
 _atom_site_fract_z
 _atom_site_occupancy
  Pm  Pm0  1  0.686703  0.882551  0.182751  1
  Pm  Pm1  1  0.435776  0.136189  0.676211  1
  Pm  Pm2  1  0.185400  0.382340  0.182710  1
  Pm  Pm3  1  0.931711  0.630352  0.688769  1
  Ge  Ge4  1  0.931623  0.133549  0.682814  1
  Ge  Ge5  1  0.434566  0.632982  0.682774  1
  Ge  Ge6  1  0.187615  0.882293  0.182481  1
  Se  Se7  1  0.685561  0.382723  0.182426  1
