# generated using pymatgen
data_Tb4Al18CuRh5
_symmetry_space_group_name_H-M   'P 1'
_cell_length_a   7.56434460
_cell_length_b   7.56434442
_cell_length_c   9.45429287
_cell_angle_alpha   90.07880305
_cell_angle_beta   90.07879855
_cell_angle_gamma   119.62564442
_symmetry_Int_Tables_number   1
_chemical_formula_structural   Tb4Al18CuRh5
_chemical_formula_sum   'Tb4 Al18 Cu1 Rh5'
_cell_volume   470.24761276
_cell_formula_units_Z   1
loop_
 _symmetry_equiv_pos_site_id
 _symmetry_equiv_pos_as_xyz
  1  'x, y, z'
loop_
 _atom_site_type_symbol
 _atom_site_label
 _atom_site_symmetry_multiplicity
 _atom_site_fract_x
 _atom_site_fract_y
 _atom_site_fract_z
 _atom_site_occupancy
  Tb  Tb0  1  0.994922  0.671270  0.249767  1
  Tb  Tb1  1  0.005078  0.328730  0.750233  1
  Tb  Tb2  1  0.671270  0.994922  0.249767  1
  Tb  Tb3  1  0.328730  0.005078  0.750233  1
  Al  Al4  1  0.128662  0.128662  0.251380  1
  Al  Al5  1  0.871338  0.871338  0.748620  1
  Al  Al6  1  0.000764  0.337654  0.076292  1
  Al  Al7  1  0.999236  0.662346  0.923708  1
  Al  Al8  1  0.999804  0.665453  0.574080  1
  Al  Al9  1  0.334547  0.000196  0.425920  1
  Al  Al10  1  0.000196  0.334547  0.425920  1
  Al  Al11  1  0.665453  0.999804  0.574080  1
  Al  Al12  1  0.662346  0.999236  0.923708  1
  Al  Al13  1  0.337654  0.000764  0.076292  1
  Al  Al14  1  0.333266  0.333266  0.550428  1
  Al  Al15  1  0.666734  0.666734  0.449572  1
  Al  Al16  1  0.664227  0.664227  0.051408  1
  Al  Al17  1  0.335773  0.335773  0.948592  1
  Al  Al18  1  0.339119  0.548990  0.250219  1
  Al  Al19  1  0.660881  0.451010  0.749781  1
  Al  Al20  1  0.548990  0.339119  0.250219  1
  Al  Al21  1  0.451010  0.660881  0.749781  1
  Cu  Cu22  1  0.000000  0.000000  0.000000  1
  Rh  Rh23  1  0.671918  0.328082  0.000000  1
  Rh  Rh24  1  0.328082  0.671918  0.000000  1
  Rh  Rh25  1  0.328082  0.671918  0.500000  1
  Rh  Rh26  1  0.671918  0.328082  0.500000  1
  Rh  Rh27  1  0.000000  0.000000  0.500000  1
