# generated using pymatgen
data_Rb2NaIn(AsSe2)6
_symmetry_space_group_name_H-M   'P 1'
_cell_length_a   10.01669400
_cell_length_b   10.01669496
_cell_length_c   7.85818100
_cell_angle_alpha   90.00000000
_cell_angle_beta   90.00000000
_cell_angle_gamma   120.00000343
_symmetry_Int_Tables_number   1
_chemical_formula_structural   Rb2NaIn(AsSe2)6
_chemical_formula_sum   'Rb2 Na1 In1 As6 Se12'
_cell_volume   682.81255772
_cell_formula_units_Z   1
loop_
 _symmetry_equiv_pos_site_id
 _symmetry_equiv_pos_as_xyz
  1  'x, y, z'
loop_
 _atom_site_type_symbol
 _atom_site_label
 _atom_site_symmetry_multiplicity
 _atom_site_fract_x
 _atom_site_fract_y
 _atom_site_fract_z
 _atom_site_occupancy
  Rb  Rb0  1  0.333333  0.666667  0.843837  1
  Rb  Rb1  1  0.666667  0.333333  0.156163  1
  Na  Na2  1  0.000000  0.000000  0.000000  1
  In  In3  1  0.000000  0.000000  0.500000  1
  As  As4  1  0.276279  0.831327  0.384174  1
  As  As5  1  0.168673  0.444952  0.384174  1
  As  As6  1  0.555048  0.723721  0.384174  1
  As  As7  1  0.723721  0.168673  0.615826  1
  As  As8  1  0.831327  0.555048  0.615826  1
  As  As9  1  0.444952  0.276279  0.615826  1
  Se  Se10  1  0.232664  0.029480  0.279182  1
  Se  Se11  1  0.970520  0.203185  0.279182  1
  Se  Se12  1  0.796815  0.767336  0.279182  1
  Se  Se13  1  0.767336  0.970520  0.720818  1
  Se  Se14  1  0.029480  0.796815  0.720818  1
  Se  Se15  1  0.203185  0.232664  0.720818  1
  Se  Se16  1  0.514807  0.910957  0.219573  1
  Se  Se17  1  0.089043  0.603851  0.219573  1
  Se  Se18  1  0.396149  0.485193  0.219573  1
  Se  Se19  1  0.485193  0.089043  0.780427  1
  Se  Se20  1  0.910957  0.396149  0.780427  1
  Se  Se21  1  0.603851  0.514807  0.780427  1
