# generated using pymatgen
data_SmYCBr
_symmetry_space_group_name_H-M   'P 1'
_cell_length_a   3.73710000
_cell_length_b   3.73710004
_cell_length_c   14.39361300
_cell_angle_alpha   90.00000000
_cell_angle_beta   90.00000000
_cell_angle_gamma   120.00001739
_symmetry_Int_Tables_number   1
_chemical_formula_structural   SmYCBr
_chemical_formula_sum   'Sm2 Y2 C2 Br2'
_cell_volume   174.08839434
_cell_formula_units_Z   2
loop_
 _symmetry_equiv_pos_site_id
 _symmetry_equiv_pos_as_xyz
  1  'x, y, z'
loop_
 _atom_site_type_symbol
 _atom_site_label
 _atom_site_symmetry_multiplicity
 _atom_site_fract_x
 _atom_site_fract_y
 _atom_site_fract_z
 _atom_site_occupancy
  Sm  Sm0  1  0.666667  0.333333  0.909568  1
  Sm  Sm1  1  0.333333  0.666667  0.409568  1
  Y  Y2  1  0.333333  0.666667  0.090482  1
  Y  Y3  1  0.666667  0.333333  0.590482  1
  C  C4  1  0.000000  0.000000  0.004161  1
  C  C5  1  0.000000  0.000000  0.504161  1
  Br  Br6  1  0.666667  0.333333  0.245789  1
  Br  Br7  1  0.333333  0.666667  0.745789  1
