# generated using pymatgen
data_Ba6Sc2IrO12
_symmetry_space_group_name_H-M   'P 1'
_cell_length_a   9.28553472
_cell_length_b   9.28553559
_cell_length_c   7.38164354
_cell_angle_alpha   67.89502534
_cell_angle_beta   67.89502407
_cell_angle_gamma   36.87789319
_symmetry_Int_Tables_number   1
_chemical_formula_structural   Ba6Sc2IrO12
_chemical_formula_sum   'Ba6 Sc2 Ir1 O12'
_cell_volume   350.60936518
_cell_formula_units_Z   1
loop_
 _symmetry_equiv_pos_site_id
 _symmetry_equiv_pos_as_xyz
  1  'x, y, z'
loop_
 _atom_site_type_symbol
 _atom_site_label
 _atom_site_symmetry_multiplicity
 _atom_site_fract_x
 _atom_site_fract_y
 _atom_site_fract_z
 _atom_site_occupancy
  Ba  Ba0  1  0.877797  0.877797  0.713486  1
  Ba  Ba1  1  0.218390  0.218390  0.707942  1
  Ba  Ba2  1  0.548458  0.548458  0.707048  1
  Ba  Ba3  1  0.451542  0.451542  0.292952  1
  Ba  Ba4  1  0.781610  0.781610  0.292058  1
  Ba  Ba5  1  0.122203  0.122203  0.286514  1
  Sc  Sc6  1  0.669275  0.669275  0.999076  1
  Sc  Sc7  1  0.330725  0.330725  0.000924  1
  Ir  Ir8  1  0.000000  0.000000  0.000000  1
  O  O9  1  0.950984  0.950984  0.296466  1
  O  O10  1  0.283701  0.283701  0.315336  1
  O  O11  1  0.610516  0.610516  0.316808  1
  O  O12  1  0.389484  0.389484  0.683192  1
  O  O13  1  0.716299  0.716299  0.684664  1
  O  O14  1  0.049016  0.049016  0.703534  1
  O  O15  1  0.500000  0.000000  0.000000  1
  O  O16  1  0.842305  0.314342  0.000667  1
  O  O17  1  0.157695  0.685658  0.999333  1
  O  O18  1  0.000000  0.500000  0.000000  1
  O  O19  1  0.314342  0.842305  0.000667  1
  O  O20  1  0.685658  0.157695  0.999333  1
