# generated using pymatgen
data_K2HfWO6
_symmetry_space_group_name_H-M   'P 1'
_cell_length_a   5.74204266
_cell_length_b   5.74204288
_cell_length_c   5.74204400
_cell_angle_alpha   119.99999494
_cell_angle_beta   119.99999622
_cell_angle_gamma   60.00001377
_symmetry_Int_Tables_number   1
_chemical_formula_structural   K2HfWO6
_chemical_formula_sum   'K2 Hf1 W1 O6'
_cell_volume   133.87036212
_cell_formula_units_Z   1
loop_
 _symmetry_equiv_pos_site_id
 _symmetry_equiv_pos_as_xyz
  1  'x, y, z'
loop_
 _atom_site_type_symbol
 _atom_site_label
 _atom_site_symmetry_multiplicity
 _atom_site_fract_x
 _atom_site_fract_y
 _atom_site_fract_z
 _atom_site_occupancy
  K  K0  1  0.749999  0.749999  0.249999  1
  K  K1  1  0.250000  0.250000  0.750002  1
  Hf  Hf2  1  0.500000  0.500000  0.500001  1
  W  W3  1  0.000000  0.000000  0.000000  1
  O  O4  1  0.758430  0.241570  0.241570  1
  O  O5  1  0.241570  0.758430  0.241570  1
  O  O6  1  0.241571  0.241571  0.241571  1
  O  O7  1  0.758430  0.758430  0.758430  1
  O  O8  1  0.758430  0.241570  0.758430  1
  O  O9  1  0.241570  0.758430  0.758430  1
