# generated using pymatgen
data_Dy12InTcNi4
_symmetry_space_group_name_H-M   'P 1'
_cell_length_a   8.31363092
_cell_length_b   8.31362990
_cell_length_c   8.31363092
_cell_angle_alpha   111.40486699
_cell_angle_beta   109.58533981
_cell_angle_gamma   107.44760796
_symmetry_Int_Tables_number   1
_chemical_formula_structural   Dy12InTcNi4
_chemical_formula_sum   'Dy12 In1 Tc1 Ni4'
_cell_volume   441.80622083
_cell_formula_units_Z   1
loop_
 _symmetry_equiv_pos_site_id
 _symmetry_equiv_pos_as_xyz
  1  'x, y, z'
loop_
 _atom_site_type_symbol
 _atom_site_label
 _atom_site_symmetry_multiplicity
 _atom_site_fract_x
 _atom_site_fract_y
 _atom_site_fract_z
 _atom_site_occupancy
  Dy  Dy0  1  0.180635  0.283461  0.464096  1
  Dy  Dy1  1  0.819365  0.716539  0.535904  1
  Dy  Dy2  1  0.180635  0.716539  0.897174  1
  Dy  Dy3  1  0.819365  0.283461  0.102826  1
  Dy  Dy4  1  0.320483  0.624677  0.304194  1
  Dy  Dy5  1  0.679517  0.375323  0.695806  1
  Dy  Dy6  1  0.320483  0.016289  0.695806  1
  Dy  Dy7  1  0.679517  0.983711  0.304194  1
  Dy  Dy8  1  0.411962  0.220235  0.191727  1
  Dy  Dy9  1  0.588038  0.779765  0.808273  1
  Dy  Dy10  1  0.028506  0.220235  0.808273  1
  Dy  Dy11  1  0.971494  0.779765  0.191727  1
  In  In12  1  0.500000  0.500000  0.000000  1
  Tc  Tc13  1  0.000000  0.000000  0.000000  1
  Ni  Ni14  1  0.118339  0.618339  0.500000  1
  Ni  Ni15  1  0.881661  0.381661  0.500000  1
  Ni  Ni16  1  0.362125  0.000000  0.362125  1
  Ni  Ni17  1  0.637875  0.000000  0.637875  1
