# generated using pymatgen
data_Ba2Sc2Sb2OF2
_symmetry_space_group_name_H-M   'P 1'
_cell_length_a   11.34217051
_cell_length_b   4.41595563
_cell_length_c   4.41639401
_cell_angle_alpha   90.00819351
_cell_angle_beta   101.22749289
_cell_angle_gamma   101.22628744
_symmetry_Int_Tables_number   1
_chemical_formula_structural   Ba2Sc2Sb2OF2
_chemical_formula_sum   'Ba2 Sc2 Sb2 O1 F2'
_cell_volume   212.65043777
_cell_formula_units_Z   1
loop_
 _symmetry_equiv_pos_site_id
 _symmetry_equiv_pos_as_xyz
  1  'x, y, z'
loop_
 _atom_site_type_symbol
 _atom_site_label
 _atom_site_symmetry_multiplicity
 _atom_site_fract_x
 _atom_site_fract_y
 _atom_site_fract_z
 _atom_site_occupancy
  Ba  Ba0  1  0.639648  0.319841  0.319840  1
  Ba  Ba1  1  0.360350  0.680152  0.680154  1
  Sc  Sc2  1  0.999998  0.499994  0.000009  1
  Sc  Sc3  1  0.000000  0.999996  0.499974  1
  Sb  Sb4  1  0.186992  0.093528  0.093536  1
  Sb  Sb5  1  0.813012  0.906487  0.906488  1
  O  O6  1  0.999998  0.500002  0.500010  1
  F  F7  1  0.500001  0.750003  0.249985  1
  F  F8  1  0.500000  0.249994  0.750002  1
