# generated using pymatgen
data_Th3ScGa2Os3
_symmetry_space_group_name_H-M   'P 1'
_cell_length_a   7.40422903
_cell_length_b   7.40422850
_cell_length_c   4.09695100
_cell_angle_alpha   90.00000000
_cell_angle_beta   90.00000000
_cell_angle_gamma   121.16623148
_symmetry_Int_Tables_number   1
_chemical_formula_structural   Th3ScGa2Os3
_chemical_formula_sum   'Th3 Sc1 Ga2 Os3'
_cell_volume   192.18807605
_cell_formula_units_Z   1
loop_
 _symmetry_equiv_pos_site_id
 _symmetry_equiv_pos_as_xyz
  1  'x, y, z'
loop_
 _atom_site_type_symbol
 _atom_site_label
 _atom_site_symmetry_multiplicity
 _atom_site_fract_x
 _atom_site_fract_y
 _atom_site_fract_z
 _atom_site_occupancy
  Th  Th0  1  0.398474  0.398474  0.500000  1
  Th  Th1  1  0.575359  0.010121  0.500000  1
  Th  Th2  1  0.010121  0.575359  0.500000  1
  Sc  Sc3  1  0.773381  0.773381  0.000000  1
  Ga  Ga4  1  0.236028  0.991461  0.000000  1
  Ga  Ga5  1  0.991461  0.236028  0.000000  1
  Os  Os6  1  0.666912  0.334990  0.000000  1
  Os  Os7  1  0.334990  0.666912  0.000000  1
  Os  Os8  1  0.013275  0.013275  0.500000  1
