# generated using pymatgen
data_Sr5LaSn8BiAs
_symmetry_space_group_name_H-M   'P 1'
_cell_length_a   8.93736742
_cell_length_b   8.93736788
_cell_length_c   8.93736776
_cell_angle_alpha   119.98347886
_cell_angle_beta   119.98347751
_cell_angle_gamma   90.02862176
_symmetry_Int_Tables_number   1
_chemical_formula_structural   Sr5LaSn8BiAs
_chemical_formula_sum   'Sr5 La1 Sn8 Bi1 As1'
_cell_volume   504.91962433
_cell_formula_units_Z   1
loop_
 _symmetry_equiv_pos_site_id
 _symmetry_equiv_pos_as_xyz
  1  'x, y, z'
loop_
 _atom_site_type_symbol
 _atom_site_label
 _atom_site_symmetry_multiplicity
 _atom_site_fract_x
 _atom_site_fract_y
 _atom_site_fract_z
 _atom_site_occupancy
  Sr  Sr0  1  0.762335  0.762335  0.000000  1
  Sr  Sr1  1  0.153122  0.677861  0.831187  1
  Sr  Sr2  1  0.846677  0.321938  0.168813  1
  Sr  Sr3  1  0.677861  0.846677  0.524739  1
  Sr  Sr4  1  0.321938  0.153122  0.475261  1
  La  La5  1  0.236284  0.236284  0.000000  1
  Sn  Sn6  1  0.828258  0.333614  0.785996  1
  Sn  Sn7  1  0.173252  0.664375  0.213490  1
  Sn  Sn8  1  0.547618  0.042263  0.214004  1
  Sn  Sn9  1  0.333614  0.547618  0.505356  1
  Sn  Sn10  1  0.959761  0.173252  0.508877  1
  Sn  Sn11  1  0.450885  0.959761  0.786510  1
  Sn  Sn12  1  0.664375  0.450885  0.491123  1
  Sn  Sn13  1  0.042263  0.828258  0.494644  1
  Bi  Bi14  1  0.496945  0.496945  0.000000  1
  As  As15  1  0.004812  0.004812  0.000000  1
