# generated using pymatgen
data_La16Sm3DySn16
_symmetry_space_group_name_H-M   'P 1'
_cell_length_a   8.41683544
_cell_length_b   8.57603745
_cell_length_c   16.32017800
_cell_angle_alpha   90.00000000
_cell_angle_beta   90.00000000
_cell_angle_gamma   89.96278267
_symmetry_Int_Tables_number   1
_chemical_formula_structural   La16Sm3DySn16
_chemical_formula_sum   'La16 Sm3 Dy1 Sn16'
_cell_volume   1178.04072673
_cell_formula_units_Z   1
loop_
 _symmetry_equiv_pos_site_id
 _symmetry_equiv_pos_as_xyz
  1  'x, y, z'
loop_
 _atom_site_type_symbol
 _atom_site_label
 _atom_site_symmetry_multiplicity
 _atom_site_fract_x
 _atom_site_fract_y
 _atom_site_fract_z
 _atom_site_occupancy
  La  La0  1  0.368551  0.839289  0.880593  1
  La  La1  1  0.868500  0.660513  0.619579  1
  La  La2  1  0.631078  0.160414  0.380159  1
  La  La3  1  0.131983  0.339302  0.119742  1
  La  La4  1  0.631078  0.160414  0.119841  1
  La  La5  1  0.131983  0.339302  0.380258  1
  La  La6  1  0.368551  0.839289  0.619407  1
  La  La7  1  0.868500  0.660513  0.880421  1
  La  La8  1  0.520450  0.318570  0.901367  1
  La  La9  1  0.020168  0.181638  0.598508  1
  La  La10  1  0.479295  0.681863  0.401262  1
  La  La11  1  0.979992  0.818634  0.098748  1
  La  La12  1  0.479295  0.681863  0.098738  1
  La  La13  1  0.979992  0.818634  0.401252  1
  La  La14  1  0.520450  0.318570  0.598633  1
  La  La15  1  0.020168  0.181638  0.901492  1
  Sm  Sm16  1  0.200193  0.501147  0.750000  1
  Sm  Sm17  1  0.700541  0.998886  0.750000  1
  Sm  Sm18  1  0.799682  0.499323  0.250000  1
  Dy  Dy19  1  0.298410  0.000870  0.250000  1
  Sn  Sn20  1  0.290259  0.032619  0.045662  1
  Sn  Sn21  1  0.790011  0.466670  0.455267  1
  Sn  Sn22  1  0.710024  0.966842  0.544716  1
  Sn  Sn23  1  0.210003  0.533198  0.955368  1
  Sn  Sn24  1  0.710024  0.966842  0.955284  1
  Sn  Sn25  1  0.210003  0.533198  0.544632  1
  Sn  Sn26  1  0.290259  0.032619  0.454338  1
  Sn  Sn27  1  0.790011  0.466670  0.044733  1
  Sn  Sn28  1  0.565951  0.615274  0.750000  1
  Sn  Sn29  1  0.066119  0.884895  0.750000  1
  Sn  Sn30  1  0.433645  0.383798  0.250000  1
  Sn  Sn31  1  0.935405  0.114839  0.250000  1
  Sn  Sn32  1  0.324269  0.146364  0.750000  1
  Sn  Sn33  1  0.824289  0.353298  0.750000  1
  Sn  Sn34  1  0.674960  0.853677  0.250000  1
  Sn  Sn35  1  0.175911  0.648523  0.250000  1
