# generated using pymatgen
data_PrTh2(InPd)3
_symmetry_space_group_name_H-M   'P 1'
_cell_length_a   7.74135042
_cell_length_b   7.67977281
_cell_length_c   4.15354500
_cell_angle_alpha   90.00000000
_cell_angle_beta   90.00000000
_cell_angle_gamma   119.73722234
_symmetry_Int_Tables_number   1
_chemical_formula_structural   PrTh2(InPd)3
_chemical_formula_sum   'Pr1 Th2 In3 Pd3'
_cell_volume   214.41667113
_cell_formula_units_Z   1
loop_
 _symmetry_equiv_pos_site_id
 _symmetry_equiv_pos_as_xyz
  1  'x, y, z'
loop_
 _atom_site_type_symbol
 _atom_site_label
 _atom_site_symmetry_multiplicity
 _atom_site_fract_x
 _atom_site_fract_y
 _atom_site_fract_z
 _atom_site_occupancy
  Pr  Pr0  1  0.000000  0.586583  0.500000  1
  Th  Th1  1  0.415719  0.415084  0.500000  1
  Th  Th2  1  0.584281  0.999365  0.500000  1
  In  In3  1  0.755374  0.750322  0.000000  1
  In  In4  1  0.244626  0.994949  0.000000  1
  In  In5  1  0.000000  0.254062  0.000000  1
  Pd  Pd6  1  0.653620  0.322174  0.000000  1
  Pd  Pd7  1  0.346380  0.668555  0.000000  1
  Pd  Pd8  1  0.000000  0.008905  0.500000  1
