# generated using pymatgen
data_PrSm7GaPd24
_symmetry_space_group_name_H-M   'P 1'
_cell_length_a   8.46597903
_cell_length_b   8.46597903
_cell_length_c   8.46597903
_cell_angle_alpha   89.99300191
_cell_angle_beta   89.99300191
_cell_angle_gamma   89.99300191
_symmetry_Int_Tables_number   1
_chemical_formula_structural   PrSm7GaPd24
_chemical_formula_sum   'Pr1 Sm7 Ga1 Pd24'
_cell_volume   606.78041651
_cell_formula_units_Z   1
loop_
 _symmetry_equiv_pos_site_id
 _symmetry_equiv_pos_as_xyz
  1  'x, y, z'
loop_
 _atom_site_type_symbol
 _atom_site_label
 _atom_site_symmetry_multiplicity
 _atom_site_fract_x
 _atom_site_fract_y
 _atom_site_fract_z
 _atom_site_occupancy
  Pr  Pr0  1  0.251932  0.251932  0.251932  1
  Sm  Sm1  1  0.747898  0.747898  0.747898  1
  Sm  Sm2  1  0.748041  0.748041  0.252054  1
  Sm  Sm3  1  0.748041  0.252054  0.748041  1
  Sm  Sm4  1  0.251987  0.251987  0.747976  1
  Sm  Sm5  1  0.251987  0.747976  0.251987  1
  Sm  Sm6  1  0.252054  0.748041  0.748041  1
  Sm  Sm7  1  0.747976  0.251987  0.251987  1
  Ga  Ga8  1  0.999871  0.999871  0.999871  1
  Pd  Pd9  1  0.260567  0.501074  0.998828  1
  Pd  Pd10  1  0.739414  0.499832  0.000165  1
  Pd  Pd11  1  0.998828  0.260567  0.501074  1
  Pd  Pd12  1  0.501074  0.260567  0.998828  1
  Pd  Pd13  1  0.000165  0.739414  0.499832  1
  Pd  Pd14  1  0.499832  0.739414  0.000165  1
  Pd  Pd15  1  0.501074  0.998828  0.260567  1
  Pd  Pd16  1  0.260567  0.998828  0.501074  1
  Pd  Pd17  1  0.499832  0.000165  0.739414  1
  Pd  Pd18  1  0.739414  0.000165  0.499832  1
  Pd  Pd19  1  0.998828  0.501074  0.260567  1
  Pd  Pd20  1  0.000165  0.499832  0.739414  1
  Pd  Pd21  1  0.253121  0.501216  0.501216  1
  Pd  Pd22  1  0.746895  0.499797  0.499797  1
  Pd  Pd23  1  0.501216  0.253121  0.501216  1
  Pd  Pd24  1  0.499797  0.746895  0.499797  1
  Pd  Pd25  1  0.501216  0.501216  0.253121  1
  Pd  Pd26  1  0.499797  0.499797  0.746895  1
  Pd  Pd27  1  0.293165  0.999005  0.999005  1
  Pd  Pd28  1  0.706996  0.000122  0.000122  1
  Pd  Pd29  1  0.999005  0.293165  0.999005  1
  Pd  Pd30  1  0.000122  0.706996  0.000122  1
  Pd  Pd31  1  0.999005  0.999005  0.293165  1
  Pd  Pd32  1  0.000122  0.000122  0.706996  1
