# generated using pymatgen
data_Y3Er4Lu5CdCo5
_symmetry_space_group_name_H-M   'P 1'
_cell_length_a   8.21906910
_cell_length_b   8.21906825
_cell_length_c   8.20398714
_cell_angle_alpha   111.05872233
_cell_angle_beta   110.07757345
_cell_angle_gamma   107.37788990
_symmetry_Int_Tables_number   1
_chemical_formula_structural   Y3Er4Lu5CdCo5
_chemical_formula_sum   'Y3 Er4 Lu5 Cd1 Co5'
_cell_volume   425.74558443
_cell_formula_units_Z   1
loop_
 _symmetry_equiv_pos_site_id
 _symmetry_equiv_pos_as_xyz
  1  'x, y, z'
loop_
 _atom_site_type_symbol
 _atom_site_label
 _atom_site_symmetry_multiplicity
 _atom_site_fract_x
 _atom_site_fract_y
 _atom_site_fract_z
 _atom_site_occupancy
  Y  Y0  1  0.289428  0.187650  0.477077  1
  Y  Y1  1  0.711890  0.814268  0.526158  1
  Y  Y2  1  0.290051  0.812545  0.102595  1
  Er  Er3  1  0.209172  0.400318  0.188663  1
  Er  Er4  1  0.787619  0.594401  0.808846  1
  Er  Er5  1  0.214445  0.021228  0.808846  1
  Er  Er6  1  0.788344  0.979490  0.188663  1
  Lu  Lu7  1  0.711556  0.185603  0.897159  1
  Lu  Lu8  1  0.623872  0.314272  0.306518  1
  Lu  Lu9  1  0.376695  0.685443  0.691578  1
  Lu  Lu10  1  0.006136  0.314881  0.691578  1
  Lu  Lu11  1  0.992245  0.682646  0.306518  1
  Cd  Cd12  1  0.499950  0.500809  0.000759  1
  Co  Co13  1  0.997879  0.377223  0.375102  1
  Co  Co14  1  0.000354  0.622155  0.622508  1
  Co  Co15  1  0.387461  0.890208  0.505776  1
  Co  Co16  1  0.615568  0.118315  0.505776  1
  Co  Co17  1  0.997336  0.998544  0.995880  1
