# generated using pymatgen
data_SmY(OsO4)2
_symmetry_space_group_name_H-M   'P 1'
_cell_length_a   5.41631081
_cell_length_b   7.75674551
_cell_length_c   7.49457030
_cell_angle_alpha   79.24929977
_cell_angle_beta   91.03317575
_cell_angle_gamma   94.09116475
_symmetry_Int_Tables_number   1
_chemical_formula_structural   SmY(OsO4)2
_chemical_formula_sum   'Sm2 Y2 Os4 O16'
_cell_volume   308.55057185
_cell_formula_units_Z   2
loop_
 _symmetry_equiv_pos_site_id
 _symmetry_equiv_pos_as_xyz
  1  'x, y, z'
loop_
 _atom_site_type_symbol
 _atom_site_label
 _atom_site_symmetry_multiplicity
 _atom_site_fract_x
 _atom_site_fract_y
 _atom_site_fract_z
 _atom_site_occupancy
  Sm  Sm0  1  0.262426  0.118460  0.610849  1
  Sm  Sm1  1  0.737567  0.881537  0.389170  1
  Y  Y2  1  0.193227  0.172430  0.101208  1
  Y  Y3  1  0.806766  0.827515  0.898775  1
  Os  Os4  1  0.245232  0.661806  0.206725  1
  Os  Os5  1  0.754732  0.338184  0.793256  1
  Os  Os6  1  0.715538  0.338113  0.298277  1
  Os  Os7  1  0.284476  0.661944  0.701709  1
  O  O8  1  0.050897  0.470050  0.716566  1
  O  O9  1  0.949056  0.529909  0.283413  1
  O  O10  1  0.623581  0.330492  0.549020  1
  O  O11  1  0.376405  0.669549  0.450946  1
  O  O12  1  0.845317  0.322931  0.053190  1
  O  O13  1  0.154712  0.677051  0.946808  1
  O  O14  1  0.410714  0.442257  0.198656  1
  O  O15  1  0.589337  0.557759  0.801397  1
  O  O16  1  0.055216  0.886342  0.174395  1
  O  O17  1  0.944804  0.113639  0.825625  1
  O  O18  1  0.492115  0.114805  0.319567  1
  O  O19  1  0.507860  0.885189  0.680433  1
  O  O20  1  0.453156  0.202430  0.871215  1
  O  O21  1  0.546865  0.797598  0.128784  1
  O  O22  1  0.975227  0.166149  0.377608  1
  O  O23  1  0.024772  0.833860  0.622409  1
