# generated using pymatgen
data_Tb2Ho(Ga2Ni3)3
_symmetry_space_group_name_H-M   'P 1'
_cell_length_a   4.10540100
_cell_length_b   8.75494455
_cell_length_c   8.75494335
_cell_angle_alpha   59.93321018
_cell_angle_beta   90.00000000
_cell_angle_gamma   90.00000000
_symmetry_Int_Tables_number   1
_chemical_formula_structural   Tb2Ho(Ga2Ni3)3
_chemical_formula_sum   'Tb2 Ho1 Ga6 Ni9'
_cell_volume   272.33300208
_cell_formula_units_Z   1
loop_
 _symmetry_equiv_pos_site_id
 _symmetry_equiv_pos_as_xyz
  1  'x, y, z'
loop_
 _atom_site_type_symbol
 _atom_site_label
 _atom_site_symmetry_multiplicity
 _atom_site_fract_x
 _atom_site_fract_y
 _atom_site_fract_z
 _atom_site_occupancy
  Tb  Tb0  1  0.500000  0.333255  0.333439  1
  Tb  Tb1  1  0.500000  0.666561  0.666745  1
  Ho  Ho2  1  0.000000  0.999756  0.000244  1
  Ga  Ga3  1  0.500000  0.729638  0.270362  1
  Ga  Ga4  1  0.500000  0.270009  0.999981  1
  Ga  Ga5  1  0.500000  0.000019  0.729991  1
  Ga  Ga6  1  0.000000  0.479795  0.520205  1
  Ga  Ga7  1  0.000000  0.520520  0.999581  1
  Ga  Ga8  1  0.000000  0.000419  0.479480  1
  Ni  Ni9  1  0.000000  0.199671  0.172181  1
  Ni  Ni10  1  0.000000  0.172958  0.627437  1
  Ni  Ni11  1  0.000000  0.627182  0.199927  1
  Ni  Ni12  1  0.000000  0.827818  0.800329  1
  Ni  Ni13  1  0.000000  0.372563  0.827042  1
  Ni  Ni14  1  0.000000  0.800073  0.372818  1
  Ni  Ni15  1  0.500000  0.292628  0.707372  1
  Ni  Ni16  1  0.500000  0.707478  0.000444  1
  Ni  Ni17  1  0.500000  0.999556  0.292522  1
