# generated using pymatgen
data_Pr4Al9Ga15Rh2
_symmetry_space_group_name_H-M   'P 1'
_cell_length_a   6.04702948
_cell_length_b   6.04702948
_cell_length_c   15.95116103
_cell_angle_alpha   90.13375199
_cell_angle_beta   90.13375199
_cell_angle_gamma   90.03109216
_symmetry_Int_Tables_number   1
_chemical_formula_structural   Pr4Al9Ga15Rh2
_chemical_formula_sum   'Pr4 Al9 Ga15 Rh2'
_cell_volume   583.27590899
_cell_formula_units_Z   1
loop_
 _symmetry_equiv_pos_site_id
 _symmetry_equiv_pos_as_xyz
  1  'x, y, z'
loop_
 _atom_site_type_symbol
 _atom_site_label
 _atom_site_symmetry_multiplicity
 _atom_site_fract_x
 _atom_site_fract_y
 _atom_site_fract_z
 _atom_site_occupancy
  Pr  Pr0  1  0.751418  0.251418  0.246964  1
  Pr  Pr1  1  0.250628  0.750628  0.247520  1
  Pr  Pr2  1  0.249364  0.749364  0.752438  1
  Pr  Pr3  1  0.749644  0.249644  0.752691  1
  Al  Al4  1  0.499764  0.999764  0.914590  1
  Al  Al5  1  0.000365  0.000010  0.914630  1
  Al  Al6  1  0.500010  0.500365  0.914630  1
  Al  Al7  1  0.999641  0.499641  0.914639  1
  Al  Al8  1  0.500103  0.000103  0.085371  1
  Al  Al9  1  0.999577  0.999920  0.085285  1
  Al  Al10  1  0.499920  0.499577  0.085285  1
  Al  Al11  1  0.000476  0.500476  0.085287  1
  Al  Al12  1  0.583578  0.083578  0.433615  1
  Ga  Ga13  1  0.249874  0.250080  0.187788  1
  Ga  Ga14  1  0.750080  0.749874  0.187788  1
  Ga  Ga15  1  0.749848  0.749693  0.812189  1
  Ga  Ga16  1  0.249693  0.249848  0.812189  1
  Ga  Ga17  1  0.252162  0.249401  0.343816  1
  Ga  Ga18  1  0.749401  0.752162  0.343816  1
  Ga  Ga19  1  0.749783  0.749148  0.656012  1
  Ga  Ga20  1  0.249148  0.249783  0.656012  1
  Ga  Ga21  1  0.081219  0.919713  0.432026  1
  Ga  Ga22  1  0.419713  0.581219  0.432026  1
  Ga  Ga23  1  0.917268  0.417268  0.431635  1
  Ga  Ga24  1  0.418501  0.918501  0.568356  1
  Ga  Ga25  1  0.916984  0.080525  0.567885  1
  Ga  Ga26  1  0.580525  0.416984  0.567885  1
  Ga  Ga27  1  0.081333  0.581333  0.567599  1
  Rh  Rh28  1  0.749918  0.249918  0.000001  1
  Rh  Rh29  1  0.250064  0.750064  0.000033  1
