# generated using pymatgen
data_Nb2TcOsF20
_symmetry_space_group_name_H-M   'P 1'
_cell_length_a   5.78890712
_cell_length_b   7.58733778
_cell_length_c   10.03582443
_cell_angle_alpha   88.19261693
_cell_angle_beta   105.92181368
_cell_angle_gamma   99.27418169
_symmetry_Int_Tables_number   1
_chemical_formula_structural   Nb2TcOsF20
_chemical_formula_sum   'Nb2 Tc1 Os1 F20'
_cell_volume   418.30894209
_cell_formula_units_Z   1
loop_
 _symmetry_equiv_pos_site_id
 _symmetry_equiv_pos_as_xyz
  1  'x, y, z'
loop_
 _atom_site_type_symbol
 _atom_site_label
 _atom_site_symmetry_multiplicity
 _atom_site_fract_x
 _atom_site_fract_y
 _atom_site_fract_z
 _atom_site_occupancy
  Nb  Nb0  1  0.337877  0.382060  0.219970  1
  Nb  Nb1  1  0.661218  0.612824  0.777257  1
  Tc  Tc2  1  0.035171  0.234369  0.685661  1
  Os  Os3  1  0.963753  0.758564  0.314115  1
  F  F4  1  0.026378  0.250791  0.167985  1
  F  F5  1  0.972806  0.746373  0.830488  1
  F  F6  1  0.493517  0.221452  0.155559  1
  F  F7  1  0.504413  0.775311  0.839644  1
  F  F8  1  0.110164  0.245437  0.877965  1
  F  F9  1  0.886191  0.779655  0.118548  1
  F  F10  1  0.965088  0.305521  0.502388  1
  F  F11  1  0.039395  0.719512  0.507311  1
  F  F12  1  0.776877  0.047087  0.661624  1
  F  F13  1  0.229504  0.941883  0.336604  1
  F  F14  1  0.236444  0.073510  0.673731  1
  F  F15  1  0.752438  0.915130  0.325954  1
  F  F16  1  0.322040  0.439519  0.711754  1
  F  F17  1  0.688169  0.553694  0.289751  1
  F  F18  1  0.814346  0.413896  0.699799  1
  F  F19  1  0.178898  0.580432  0.301156  1
  F  F20  1  0.695360  0.455639  0.929909  1
  F  F21  1  0.310580  0.549194  0.075670  1
  F  F22  1  0.575179  0.670294  0.587467  1
  F  F23  1  0.424193  0.327855  0.409692  1
