# generated using pymatgen
data_Li6LuPu2N6
_symmetry_space_group_name_H-M   'P 1'
_cell_length_a   5.94228700
_cell_length_b   5.94228818
_cell_length_c   5.43488000
_cell_angle_alpha   90.00000000
_cell_angle_beta   90.00000000
_cell_angle_gamma   120.00001011
_symmetry_Int_Tables_number   1
_chemical_formula_structural   Li6LuPu2N6
_chemical_formula_sum   'Li6 Lu1 Pu2 N6'
_cell_volume   166.19879875
_cell_formula_units_Z   1
loop_
 _symmetry_equiv_pos_site_id
 _symmetry_equiv_pos_as_xyz
  1  'x, y, z'
loop_
 _atom_site_type_symbol
 _atom_site_label
 _atom_site_symmetry_multiplicity
 _atom_site_fract_x
 _atom_site_fract_y
 _atom_site_fract_z
 _atom_site_occupancy
  Li  Li0  1  0.991456  0.662510  0.609826  1
  Li  Li1  1  0.337490  0.328946  0.609826  1
  Li  Li2  1  0.671054  0.008544  0.609826  1
  Li  Li3  1  0.008544  0.337490  0.390174  1
  Li  Li4  1  0.662510  0.671054  0.390174  1
  Li  Li5  1  0.328946  0.991456  0.390174  1
  Lu  Lu6  1  0.000000  0.000000  0.000000  1
  Pu  Pu7  1  0.333333  0.666667  0.996574  1
  Pu  Pu8  1  0.666667  0.333333  0.003426  1
  N  N9  1  0.000495  0.658551  0.224191  1
  N  N10  1  0.341449  0.341944  0.224191  1
  N  N11  1  0.658056  0.999505  0.224191  1
  N  N12  1  0.999505  0.341449  0.775809  1
  N  N13  1  0.658551  0.658056  0.775809  1
  N  N14  1  0.341944  0.000495  0.775809  1
