# generated using pymatgen
data_Ga4IrRuRh2
_symmetry_space_group_name_H-M   'P 1'
_cell_length_a   6.09788900
_cell_length_b   4.30166900
_cell_length_c   8.58320500
_cell_angle_alpha   90.00000000
_cell_angle_beta   90.00000000
_cell_angle_gamma   90.00000000
_symmetry_Int_Tables_number   1
_chemical_formula_structural   Ga4IrRuRh2
_chemical_formula_sum   'Ga8 Ir2 Ru2 Rh4'
_cell_volume   225.14690933
_cell_formula_units_Z   2
loop_
 _symmetry_equiv_pos_site_id
 _symmetry_equiv_pos_as_xyz
  1  'x, y, z'
loop_
 _atom_site_type_symbol
 _atom_site_label
 _atom_site_symmetry_multiplicity
 _atom_site_fract_x
 _atom_site_fract_y
 _atom_site_fract_z
 _atom_site_occupancy
  Ga  Ga0  1  0.498892  0.750000  0.122688  1
  Ga  Ga1  1  0.001423  0.750000  0.122695  1
  Ga  Ga2  1  0.501423  0.250001  0.377305  1
  Ga  Ga3  1  0.998893  0.250001  0.377312  1
  Ga  Ga4  1  0.998146  0.750000  0.627145  1
  Ga  Ga5  1  0.501550  0.750000  0.627157  1
  Ga  Ga6  1  0.001551  0.250001  0.872844  1
  Ga  Ga7  1  0.498147  0.250001  0.872856  1
  Ir  Ir8  1  0.750195  0.250001  0.126189  1
  Ir  Ir9  1  0.250196  0.750000  0.373810  1
  Ru  Ru10  1  0.749769  0.250001  0.624071  1
  Ru  Ru11  1  0.249770  0.750000  0.875929  1
  Rh  Rh12  1  0.250216  0.250001  0.126871  1
  Rh  Rh13  1  0.750217  0.750000  0.373129  1
  Rh  Rh14  1  0.249806  0.250001  0.623285  1
  Rh  Rh15  1  0.749807  0.750000  0.876715  1
