# generated using pymatgen
data_Tm6Al23SiOs8
_symmetry_space_group_name_H-M   'P 1'
_cell_length_a   8.74912500
_cell_length_b   8.74912517
_cell_length_c   9.61370500
_cell_angle_alpha   90.00000000
_cell_angle_beta   90.00000000
_cell_angle_gamma   119.99999556
_symmetry_Int_Tables_number   1
_chemical_formula_structural   Tm6Al23SiOs8
_chemical_formula_sum   'Tm6 Al23 Si1 Os8'
_cell_volume   637.30994280
_cell_formula_units_Z   1
loop_
 _symmetry_equiv_pos_site_id
 _symmetry_equiv_pos_as_xyz
  1  'x, y, z'
loop_
 _atom_site_type_symbol
 _atom_site_label
 _atom_site_symmetry_multiplicity
 _atom_site_fract_x
 _atom_site_fract_y
 _atom_site_fract_z
 _atom_site_occupancy
  Tm  Tm0  1  0.195918  0.391837  0.249995  1
  Tm  Tm1  1  0.804961  0.609921  0.751031  1
  Tm  Tm2  1  0.608163  0.804082  0.249995  1
  Tm  Tm3  1  0.390079  0.195039  0.751031  1
  Tm  Tm4  1  0.195918  0.804082  0.249995  1
  Tm  Tm5  1  0.804961  0.195039  0.751031  1
  Al  Al6  1  0.666667  0.333333  0.980174  1
  Al  Al7  1  0.666667  0.333333  0.522758  1
  Al  Al8  1  0.333333  0.666667  0.478045  1
  Al  Al9  1  0.163571  0.327143  0.575764  1
  Al  Al10  1  0.836172  0.672343  0.423426  1
  Al  Al11  1  0.672857  0.836429  0.575764  1
  Al  Al12  1  0.836269  0.672538  0.075944  1
  Al  Al13  1  0.327657  0.163828  0.423426  1
  Al  Al14  1  0.164820  0.329641  0.921991  1
  Al  Al15  1  0.163571  0.836429  0.575764  1
  Al  Al16  1  0.327462  0.163731  0.075944  1
  Al  Al17  1  0.836172  0.163828  0.423426  1
  Al  Al18  1  0.670359  0.835180  0.921991  1
  Al  Al19  1  0.836269  0.163731  0.075944  1
  Al  Al20  1  0.164820  0.835180  0.921991  1
  Al  Al21  1  0.561979  0.123958  0.248601  1
  Al  Al22  1  0.437604  0.875209  0.748143  1
  Al  Al23  1  0.876042  0.438021  0.248601  1
  Al  Al24  1  0.124791  0.562396  0.748143  1
  Al  Al25  1  0.561979  0.438021  0.248601  1
  Al  Al26  1  0.437604  0.562396  0.748143  1
  Al  Al27  1  0.000000  0.000000  0.249045  1
  Al  Al28  1  0.000000  0.000000  0.748924  1
  Si  Si29  1  0.333333  0.666667  0.040736  1
  Os  Os30  1  0.495813  0.991626  0.000720  1
  Os  Os31  1  0.008374  0.504187  0.000720  1
  Os  Os32  1  0.500281  0.000563  0.498595  1
  Os  Os33  1  0.495813  0.504187  0.000720  1
  Os  Os34  1  0.999437  0.499719  0.498595  1
  Os  Os35  1  0.500281  0.499719  0.498595  1
  Os  Os36  1  0.000000  0.000000  0.998936  1
  Os  Os37  1  0.000000  0.000000  0.498755  1
