# generated using pymatgen
data_Cs6MnFeS6
_symmetry_space_group_name_H-M   'P 1'
_cell_length_a   10.41331141
_cell_length_b   10.41331137
_cell_length_c   13.34737000
_cell_angle_alpha   90.00000000
_cell_angle_beta   90.00000000
_cell_angle_gamma   137.04931438
_symmetry_Int_Tables_number   1
_chemical_formula_structural   Cs6MnFeS6
_chemical_formula_sum   'Cs12 Mn2 Fe2 S12'
_cell_volume   986.17853740
_cell_formula_units_Z   2
loop_
 _symmetry_equiv_pos_site_id
 _symmetry_equiv_pos_as_xyz
  1  'x, y, z'
loop_
 _atom_site_type_symbol
 _atom_site_label
 _atom_site_symmetry_multiplicity
 _atom_site_fract_x
 _atom_site_fract_y
 _atom_site_fract_z
 _atom_site_occupancy
  Cs  Cs0  1  0.884723  0.880902  0.686408  1
  Cs  Cs1  1  0.119098  0.115277  0.313592  1
  Cs  Cs2  1  0.619098  0.615277  0.186408  1
  Cs  Cs3  1  0.384723  0.380902  0.813592  1
  Cs  Cs4  1  0.157685  0.514138  0.127435  1
  Cs  Cs5  1  0.485862  0.842315  0.872565  1
  Cs  Cs6  1  0.985862  0.342315  0.627435  1
  Cs  Cs7  1  0.657685  0.014138  0.372565  1
  Cs  Cs8  1  0.845333  0.490638  0.876986  1
  Cs  Cs9  1  0.509362  0.154667  0.123014  1
  Cs  Cs10  1  0.009362  0.654667  0.376986  1
  Cs  Cs11  1  0.345333  0.990638  0.623014  1
  Mn  Mn12  1  0.928210  0.071790  0.000000  1
  Mn  Mn13  1  0.428210  0.571790  0.500000  1
  Fe  Fe14  1  0.073485  0.926515  0.000000  1
  Fe  Fe15  1  0.573485  0.426515  0.500000  1
  S  S16  1  0.286535  0.291655  0.555096  1
  S  S17  1  0.708345  0.713465  0.444904  1
  S  S18  1  0.208345  0.213465  0.055096  1
  S  S19  1  0.786535  0.791655  0.944904  1
  S  S20  1  0.721625  0.000842  0.111092  1
  S  S21  1  0.999158  0.278375  0.888908  1
  S  S22  1  0.499158  0.778375  0.611092  1
  S  S23  1  0.221625  0.500842  0.388908  1
  S  S24  1  0.264855  0.984277  0.879169  1
  S  S25  1  0.015723  0.735145  0.120831  1
  S  S26  1  0.515723  0.235145  0.379169  1
  S  S27  1  0.764855  0.484277  0.620831  1
