# generated using pymatgen
data_Er3GaGe2Au3
_symmetry_space_group_name_H-M   'P 1'
_cell_length_a   7.15330500
_cell_length_b   7.15330625
_cell_length_c   4.11529300
_cell_angle_alpha   90.00000000
_cell_angle_beta   90.00000000
_cell_angle_gamma   119.99999887
_symmetry_Int_Tables_number   1
_chemical_formula_structural   Er3GaGe2Au3
_chemical_formula_sum   'Er3 Ga1 Ge2 Au3'
_cell_volume   182.36645634
_cell_formula_units_Z   1
loop_
 _symmetry_equiv_pos_site_id
 _symmetry_equiv_pos_as_xyz
  1  'x, y, z'
loop_
 _atom_site_type_symbol
 _atom_site_label
 _atom_site_symmetry_multiplicity
 _atom_site_fract_x
 _atom_site_fract_y
 _atom_site_fract_z
 _atom_site_occupancy
  Er  Er0  1  0.580755  0.000000  0.000000  1
  Er  Er1  1  0.419245  0.419245  0.000000  1
  Er  Er2  1  0.000000  0.580755  0.000000  1
  Ga  Ga3  1  0.000000  0.000000  0.000000  1
  Ge  Ge4  1  0.666667  0.333333  0.500000  1
  Ge  Ge5  1  0.333333  0.666667  0.500000  1
  Au  Au6  1  0.743629  0.743629  0.500000  1
  Au  Au7  1  0.256371  0.000000  0.500000  1
  Au  Au8  1  0.000000  0.256371  0.500000  1
