# generated using pymatgen
data_YbHo3Tc4F28
_symmetry_space_group_name_H-M   'P 1'
_cell_length_a   5.58735960
_cell_length_b   8.88001029
_cell_length_c   11.99869676
_cell_angle_alpha   62.71548242
_cell_angle_beta   89.97384696
_cell_angle_gamma   89.94685704
_symmetry_Int_Tables_number   1
_chemical_formula_structural   YbHo3Tc4F28
_chemical_formula_sum   'Yb1 Ho3 Tc4 F28'
_cell_volume   529.08964893
_cell_formula_units_Z   1
loop_
 _symmetry_equiv_pos_site_id
 _symmetry_equiv_pos_as_xyz
  1  'x, y, z'
loop_
 _atom_site_type_symbol
 _atom_site_label
 _atom_site_symmetry_multiplicity
 _atom_site_fract_x
 _atom_site_fract_y
 _atom_site_fract_z
 _atom_site_occupancy
  Yb  Yb0  1  0.759481  0.817196  0.765104  1
  Ho  Ho1  1  0.262490  0.178922  0.735444  1
  Ho  Ho2  1  0.240241  0.185540  0.234663  1
  Ho  Ho3  1  0.740593  0.813472  0.265550  1
  Tc  Tc4  1  0.757554  0.274894  0.955516  1
  Tc  Tc5  1  0.256352  0.725052  0.545453  1
  Tc  Tc6  1  0.241049  0.725566  0.043993  1
  Tc  Tc7  1  0.741860  0.272907  0.455753  1
  F  F8  1  0.443954  0.705776  0.922814  1
  F  F9  1  0.945981  0.296549  0.577395  1
  F  F10  1  0.552325  0.292702  0.081062  1
  F  F11  1  0.051515  0.707263  0.418988  1
  F  F12  1  0.448722  0.282300  0.542557  1
  F  F13  1  0.954265  0.718280  0.957786  1
  F  F14  1  0.547199  0.720082  0.452303  1
  F  F15  1  0.049515  0.279100  0.047238  1
  F  F16  1  0.770500  0.516846  0.860753  1
  F  F17  1  0.269506  0.479405  0.640006  1
  F  F18  1  0.231196  0.478586  0.143159  1
  F  F19  1  0.729695  0.520632  0.357371  1
  F  F20  1  0.757114  0.028233  0.053286  1
  F  F21  1  0.257114  0.970643  0.447377  1
  F  F22  1  0.241115  0.970716  0.950776  1
  F  F23  1  0.743179  0.031506  0.548736  1
  F  F24  1  0.977780  0.728286  0.637615  1
  F  F25  1  0.474839  0.271039  0.861912  1
  F  F26  1  0.023715  0.269484  0.358977  1
  F  F27  1  0.521815  0.730391  0.141765  1
  F  F28  1  0.041643  0.745868  0.172886  1
  F  F29  1  0.541744  0.253296  0.327372  1
  F  F30  1  0.959621  0.253555  0.830003  1
  F  F31  1  0.457525  0.744337  0.668394  1
  F  F32  1  0.420570  0.972279  0.232015  1
  F  F33  1  0.920568  0.028039  0.267896  1
  F  F34  1  0.581697  0.036888  0.767569  1
  F  F35  1  0.085965  0.974367  0.730514  1
