# generated using pymatgen
data_Yb20Cd3InAu8
_symmetry_space_group_name_H-M   'P 1'
_cell_length_a   7.94719700
_cell_length_b   7.94719700
_cell_length_c   14.37756900
_cell_angle_alpha   90.00000000
_cell_angle_beta   90.00000000
_cell_angle_gamma   90.00000000
_symmetry_Int_Tables_number   1
_chemical_formula_structural   Yb20Cd3InAu8
_chemical_formula_sum   'Yb20 Cd3 In1 Au8'
_cell_volume   908.05764250
_cell_formula_units_Z   1
loop_
 _symmetry_equiv_pos_site_id
 _symmetry_equiv_pos_as_xyz
  1  'x, y, z'
loop_
 _atom_site_type_symbol
 _atom_site_label
 _atom_site_symmetry_multiplicity
 _atom_site_fract_x
 _atom_site_fract_y
 _atom_site_fract_z
 _atom_site_occupancy
  Yb  Yb0  1  0.000000  0.000000  0.753476  1
  Yb  Yb1  1  0.500000  0.500000  0.247650  1
  Yb  Yb2  1  0.000000  0.000000  0.246524  1
  Yb  Yb3  1  0.500000  0.500000  0.752350  1
  Yb  Yb4  1  0.165884  0.664186  0.109444  1
  Yb  Yb5  1  0.665345  0.164849  0.612147  1
  Yb  Yb6  1  0.834116  0.335814  0.109444  1
  Yb  Yb7  1  0.334655  0.835151  0.612147  1
  Yb  Yb8  1  0.335814  0.165884  0.109444  1
  Yb  Yb9  1  0.835151  0.665345  0.612147  1
  Yb  Yb10  1  0.664186  0.834116  0.109444  1
  Yb  Yb11  1  0.164849  0.334655  0.612147  1
  Yb  Yb12  1  0.335814  0.834116  0.890556  1
  Yb  Yb13  1  0.835151  0.334655  0.387853  1
  Yb  Yb14  1  0.664186  0.165884  0.890556  1
  Yb  Yb15  1  0.164849  0.665345  0.387853  1
  Yb  Yb16  1  0.165884  0.335814  0.890556  1
  Yb  Yb17  1  0.665345  0.835151  0.387853  1
  Yb  Yb18  1  0.834116  0.664186  0.890556  1
  Yb  Yb19  1  0.334655  0.164849  0.387853  1
  Cd  Cd20  1  0.000000  0.000000  0.500000  1
  Cd  Cd21  1  0.000000  0.000000  0.000000  1
  Cd  Cd22  1  0.500000  0.500000  0.500000  1
  In  In23  1  0.500000  0.500000  0.000000  1
  Au  Au24  1  0.634478  0.133280  0.248953  1
  Au  Au25  1  0.133280  0.634478  0.751047  1
  Au  Au26  1  0.866720  0.365522  0.751047  1
  Au  Au27  1  0.365522  0.866720  0.248953  1
  Au  Au28  1  0.365522  0.133280  0.751047  1
  Au  Au29  1  0.866720  0.634478  0.248953  1
  Au  Au30  1  0.133280  0.365522  0.248953  1
  Au  Au31  1  0.634478  0.866720  0.751047  1
