# generated using pymatgen
data_EuP12Ru3Rh
_symmetry_space_group_name_H-M   'P 1'
_cell_length_a   7.00991111
_cell_length_b   7.02264642
_cell_length_c   7.00991145
_cell_angle_alpha   109.50802487
_cell_angle_beta   109.43438710
_cell_angle_gamma   109.50802988
_symmetry_Int_Tables_number   1
_chemical_formula_structural   EuP12Ru3Rh
_chemical_formula_sum   'Eu1 P12 Ru3 Rh1'
_cell_volume   265.52565336
_cell_formula_units_Z   1
loop_
 _symmetry_equiv_pos_site_id
 _symmetry_equiv_pos_as_xyz
  1  'x, y, z'
loop_
 _atom_site_type_symbol
 _atom_site_label
 _atom_site_symmetry_multiplicity
 _atom_site_fract_x
 _atom_site_fract_y
 _atom_site_fract_z
 _atom_site_occupancy
  Eu  Eu0  1  0.000000  0.000000  0.000000  1
  P  P1  1  0.357448  0.213941  0.856987  1
  P  P2  1  0.642552  0.786059  0.143013  1
  P  P3  1  0.639591  0.499713  0.855563  1
  P  P4  1  0.360409  0.500287  0.144437  1
  P  P5  1  0.215972  0.860122  0.360409  1
  P  P6  1  0.784028  0.139878  0.639591  1
  P  P7  1  0.499539  0.856493  0.642552  1
  P  P8  1  0.500461  0.143507  0.357448  1
  P  P9  1  0.855563  0.355850  0.215972  1
  P  P10  1  0.144437  0.644150  0.784028  1
  P  P11  1  0.856987  0.643046  0.499539  1
  P  P12  1  0.143013  0.356954  0.500461  1
  Ru  Ru13  1  0.000000  0.000000  0.500000  1
  Ru  Ru14  1  0.500000  0.000000  0.000000  1
  Ru  Ru15  1  0.500000  0.500000  0.500000  1
  Rh  Rh16  1  0.000000  0.500000  0.000000  1
