# generated using pymatgen
data_Rb2NaTmI6
_symmetry_space_group_name_H-M   'P 1'
_cell_length_a   8.88816000
_cell_length_b   8.40692820
_cell_length_c   14.53894698
_cell_angle_alpha   55.50862106
_cell_angle_beta   90.00000000
_cell_angle_gamma   90.00000000
_symmetry_Int_Tables_number   1
_chemical_formula_structural   Rb2NaTmI6
_chemical_formula_sum   'Rb4 Na2 Tm2 I12'
_cell_volume   895.40759560
_cell_formula_units_Z   2
loop_
 _symmetry_equiv_pos_site_id
 _symmetry_equiv_pos_as_xyz
  1  'x, y, z'
loop_
 _atom_site_type_symbol
 _atom_site_label
 _atom_site_symmetry_multiplicity
 _atom_site_fract_x
 _atom_site_fract_y
 _atom_site_fract_z
 _atom_site_occupancy
  Rb  Rb0  1  0.076577  0.716306  0.752740  1
  Rb  Rb1  1  0.923423  0.283694  0.247260  1
  Rb  Rb2  1  0.576577  0.283694  0.747260  1
  Rb  Rb3  1  0.423423  0.716306  0.252740  1
  Na  Na4  1  0.500000  0.500000  0.000000  1
  Na  Na5  1  0.000000  0.500000  0.500000  1
  Tm  Tm6  1  0.500000  0.000000  0.500000  1
  Tm  Tm7  1  0.000000  0.000000  0.000000  1
  I  I8  1  0.783777  0.764996  0.552450  1
  I  I9  1  0.216223  0.235004  0.447550  1
  I  I10  1  0.283777  0.235004  0.947550  1
  I  I11  1  0.716223  0.764996  0.052450  1
  I  I12  1  0.472404  0.858211  0.741665  1
  I  I13  1  0.527596  0.141789  0.258335  1
  I  I14  1  0.972404  0.141789  0.758335  1
  I  I15  1  0.027596  0.858211  0.241665  1
  I  I16  1  0.310447  0.665876  0.543503  1
  I  I17  1  0.689553  0.334124  0.456497  1
  I  I18  1  0.810447  0.334124  0.956497  1
  I  I19  1  0.189553  0.665876  0.043503  1
