# generated using pymatgen
data_Sr2HoEr(Ge4N7)2
_symmetry_space_group_name_H-M   'P 1'
_cell_length_a   6.29819100
_cell_length_b   6.29819040
_cell_length_c   10.31102400
_cell_angle_alpha   90.00000000
_cell_angle_beta   90.00000000
_cell_angle_gamma   119.99999790
_symmetry_Int_Tables_number   1
_chemical_formula_structural   Sr2HoEr(Ge4N7)2
_chemical_formula_sum   'Sr2 Ho1 Er1 Ge8 N14'
_cell_volume   354.21263707
_cell_formula_units_Z   1
loop_
 _symmetry_equiv_pos_site_id
 _symmetry_equiv_pos_as_xyz
  1  'x, y, z'
loop_
 _atom_site_type_symbol
 _atom_site_label
 _atom_site_symmetry_multiplicity
 _atom_site_fract_x
 _atom_site_fract_y
 _atom_site_fract_z
 _atom_site_occupancy
  Sr  Sr0  1  0.666667  0.333333  0.585518  1
  Sr  Sr1  1  0.333333  0.666667  0.085306  1
  Ho  Ho2  1  0.666667  0.333333  0.950981  1
  Er  Er3  1  0.333333  0.666667  0.450884  1
  Ge  Ge4  1  0.173611  0.347221  0.760390  1
  Ge  Ge5  1  0.826532  0.173468  0.260497  1
  Ge  Ge6  1  0.346933  0.173468  0.260497  1
  Ge  Ge7  1  0.652779  0.826389  0.760390  1
  Ge  Ge8  1  0.173611  0.826389  0.760390  1
  Ge  Ge9  1  0.826532  0.653067  0.260497  1
  Ge  Ge10  1  0.000000  0.000000  0.025253  1
  Ge  Ge11  1  0.000000  0.000000  0.525265  1
  N  N12  1  0.000000  0.000000  0.833343  1
  N  N13  1  0.000000  0.000000  0.333464  1
  N  N14  1  0.840763  0.681526  0.081936  1
  N  N15  1  0.159492  0.840508  0.581743  1
  N  N16  1  0.681015  0.840508  0.581743  1
  N  N17  1  0.318474  0.159237  0.081936  1
  N  N18  1  0.840763  0.159237  0.081936  1
  N  N19  1  0.159492  0.318985  0.581743  1
  N  N20  1  0.495316  0.504684  0.817084  1
  N  N21  1  0.991562  0.495781  0.316891  1
  N  N22  1  0.504219  0.008438  0.316891  1
  N  N23  1  0.495316  0.990630  0.817084  1
  N  N24  1  0.504219  0.495781  0.316891  1
  N  N25  1  0.009370  0.504684  0.817084  1
