# generated using pymatgen
data_Hf14Sc4TiRe7P2
_symmetry_space_group_name_H-M   'P 1'
_cell_length_a   8.61803438
_cell_length_b   8.61803401
_cell_length_c   8.55370610
_cell_angle_alpha   89.98510340
_cell_angle_beta   90.01489614
_cell_angle_gamma   119.95214277
_symmetry_Int_Tables_number   1
_chemical_formula_structural   Hf14Sc4TiRe7P2
_chemical_formula_sum   'Hf14 Sc4 Ti1 Re7 P2'
_cell_volume   550.44077127
_cell_formula_units_Z   1
loop_
 _symmetry_equiv_pos_site_id
 _symmetry_equiv_pos_as_xyz
  1  'x, y, z'
loop_
 _atom_site_type_symbol
 _atom_site_label
 _atom_site_symmetry_multiplicity
 _atom_site_fract_x
 _atom_site_fract_y
 _atom_site_fract_z
 _atom_site_occupancy
  Hf  Hf0  1  0.196567  0.803433  0.452517  1
  Hf  Hf1  1  0.196085  0.392144  0.451453  1
  Hf  Hf2  1  0.607856  0.803915  0.451453  1
  Hf  Hf3  1  0.803724  0.196276  0.548112  1
  Hf  Hf4  1  0.803071  0.606966  0.548399  1
  Hf  Hf5  1  0.393034  0.196929  0.548399  1
  Hf  Hf6  1  0.805527  0.194473  0.951034  1
  Hf  Hf7  1  0.804567  0.609867  0.950608  1
  Hf  Hf8  1  0.390133  0.195433  0.950608  1
  Hf  Hf9  1  0.194974  0.805026  0.049054  1
  Hf  Hf10  1  0.194919  0.389433  0.049876  1
  Hf  Hf11  1  0.610567  0.805081  0.049876  1
  Hf  Hf12  1  0.459310  0.919349  0.751593  1
  Hf  Hf13  1  0.080651  0.540690  0.751593  1
  Sc  Sc14  1  0.541592  0.458408  0.249225  1
  Sc  Sc15  1  0.541271  0.082505  0.248683  1
  Sc  Sc16  1  0.917495  0.458729  0.248683  1
  Sc  Sc17  1  0.457142  0.542858  0.750536  1
  Ti  Ti18  1  0.999932  0.000068  0.497751  1
  Re  Re19  1  0.890213  0.109787  0.251794  1
  Re  Re20  1  0.890178  0.779614  0.251632  1
  Re  Re21  1  0.220386  0.109822  0.251632  1
  Re  Re22  1  0.109807  0.890193  0.748360  1
  Re  Re23  1  0.109361  0.220154  0.747918  1
  Re  Re24  1  0.779846  0.890639  0.747918  1
  Re  Re25  1  0.000098  0.999902  0.000958  1
  P  P26  1  0.333152  0.666848  0.248938  1
  P  P27  1  0.668541  0.331459  0.751395  1
