# generated using pymatgen
data_HoHf3(ZrSn)6
_symmetry_space_group_name_H-M   'P 1'
_cell_length_a   8.60383537
_cell_length_b   8.60432245
_cell_length_c   5.82637808
_cell_angle_alpha   89.98321868
_cell_angle_beta   90.00196628
_cell_angle_gamma   120.88355606
_symmetry_Int_Tables_number   1
_chemical_formula_structural   HoHf3(ZrSn)6
_chemical_formula_sum   'Ho1 Hf3 Zr6 Sn6'
_cell_volume   370.17076976
_cell_formula_units_Z   1
loop_
 _symmetry_equiv_pos_site_id
 _symmetry_equiv_pos_as_xyz
  1  'x, y, z'
loop_
 _atom_site_type_symbol
 _atom_site_label
 _atom_site_symmetry_multiplicity
 _atom_site_fract_x
 _atom_site_fract_y
 _atom_site_fract_z
 _atom_site_occupancy
  Ho  Ho0  1  0.766988  0.766865  0.750368  1
  Hf  Hf1  1  0.333592  0.665415  0.000506  1
  Hf  Hf2  1  0.333410  0.665171  0.499476  1
  Hf  Hf3  1  0.665281  0.333348  0.499626  1
  Zr  Zr4  1  0.251970  0.001790  0.750300  1
  Zr  Zr5  1  0.001605  0.252229  0.750552  1
  Zr  Zr6  1  0.237154  0.236937  0.249671  1
  Zr  Zr7  1  0.748814  0.999182  0.249490  1
  Zr  Zr8  1  0.999318  0.749259  0.249612  1
  Zr  Zr9  1  0.665335  0.333395  0.000748  1
  Sn  Sn10  1  0.391757  0.392576  0.748945  1
  Sn  Sn11  1  0.605258  0.002067  0.748894  1
  Sn  Sn12  1  0.004316  0.606519  0.748863  1
  Sn  Sn13  1  0.604181  0.605182  0.250926  1
  Sn  Sn14  1  0.390715  0.998339  0.251109  1
  Sn  Sn15  1  0.000304  0.391724  0.250913  1
