# generated using pymatgen
data_CsRbCd3I8
_symmetry_space_group_name_H-M   'P 1'
_cell_length_a   11.77369283
_cell_length_b   11.89892180
_cell_length_c   8.22742799
_cell_angle_alpha   85.08247619
_cell_angle_beta   82.69574360
_cell_angle_gamma   142.17657646
_symmetry_Int_Tables_number   1
_chemical_formula_structural   CsRbCd3I8
_chemical_formula_sum   'Cs1 Rb1 Cd3 I8'
_cell_volume   667.44408610
_cell_formula_units_Z   1
loop_
 _symmetry_equiv_pos_site_id
 _symmetry_equiv_pos_as_xyz
  1  'x, y, z'
loop_
 _atom_site_type_symbol
 _atom_site_label
 _atom_site_symmetry_multiplicity
 _atom_site_fract_x
 _atom_site_fract_y
 _atom_site_fract_z
 _atom_site_occupancy
  Cs  Cs0  1  0.907313  0.640723  0.532539  1
  Rb  Rb1  1  0.667349  0.935416  0.528122  1
  Cd  Cd2  1  0.982114  0.986519  0.027301  1
  Cd  Cd3  1  0.936335  0.320614  0.914918  1
  Cd  Cd4  1  0.316708  0.927619  0.911350  1
  I  I5  1  0.647745  0.660307  0.297088  1
  I  I6  1  0.009844  0.013320  0.684179  1
  I  I7  1  0.535835  0.925090  0.026538  1
  I  I8  1  0.919924  0.529416  0.037334  1
  I  I9  1  0.103104  0.474672  0.561458  1
  I  I10  1  0.466613  0.078458  0.556032  1
  I  I11  1  0.306685  0.113634  0.088680  1
  I  I12  1  0.114816  0.308597  0.098813  1
