# generated using pymatgen
data_Sm2Re4Tc13C3
_symmetry_space_group_name_H-M   'P 1'
_cell_length_a   7.02453031
_cell_length_b   7.01772905
_cell_length_c   7.01773010
_cell_angle_alpha   82.70847123
_cell_angle_beta   82.77031006
_cell_angle_gamma   82.77031622
_symmetry_Int_Tables_number   1
_chemical_formula_structural   Sm2Re4Tc13C3
_chemical_formula_sum   'Sm2 Re4 Tc13 C3'
_cell_volume   338.29322287
_cell_formula_units_Z   1
loop_
 _symmetry_equiv_pos_site_id
 _symmetry_equiv_pos_as_xyz
  1  'x, y, z'
loop_
 _atom_site_type_symbol
 _atom_site_label
 _atom_site_symmetry_multiplicity
 _atom_site_fract_x
 _atom_site_fract_y
 _atom_site_fract_z
 _atom_site_occupancy
  Sm  Sm0  1  0.651445  0.652153  0.652247  1
  Sm  Sm1  1  0.348555  0.347753  0.347847  1
  Re  Re2  1  0.000048  0.000226  0.500774  1
  Re  Re3  1  0.500000  0.000048  0.999952  1
  Re  Re4  1  0.999952  0.499226  0.999774  1
  Re  Re5  1  0.000000  0.721721  0.278279  1
  Tc  Tc6  1  0.721754  0.278705  0.999714  1
  Tc  Tc7  1  0.278246  0.000286  0.721295  1
  Tc  Tc8  1  0.000000  0.278604  0.721396  1
  Tc  Tc9  1  0.720937  0.999963  0.278293  1
  Tc  Tc10  1  0.279063  0.721707  0.000037  1
  Tc  Tc11  1  0.349061  0.348717  0.865144  1
  Tc  Tc12  1  0.864865  0.348262  0.348713  1
  Tc  Tc13  1  0.348990  0.865122  0.348782  1
  Tc  Tc14  1  0.651010  0.651218  0.134878  1
  Tc  Tc15  1  0.135135  0.651287  0.651738  1
  Tc  Tc16  1  0.650939  0.134856  0.651283  1
  Tc  Tc17  1  0.902694  0.902759  0.902333  1
  Tc  Tc18  1  0.097306  0.097667  0.097241  1
  C  C19  1  0.500076  0.499675  0.000038  1
  C  C20  1  0.000000  0.500080  0.499920  1
  C  C21  1  0.499924  0.999962  0.500325  1
