# generated using pymatgen
data_BaSm2(H6Ir)2
_symmetry_space_group_name_H-M   'P 1'
_cell_length_a   5.02784500
_cell_length_b   5.02784569
_cell_length_c   8.87057600
_cell_angle_alpha   90.00000000
_cell_angle_beta   90.00000000
_cell_angle_gamma   120.00000206
_symmetry_Int_Tables_number   1
_chemical_formula_structural   BaSm2(H6Ir)2
_chemical_formula_sum   'Ba1 Sm2 H12 Ir2'
_cell_volume   194.19867587
_cell_formula_units_Z   1
loop_
 _symmetry_equiv_pos_site_id
 _symmetry_equiv_pos_as_xyz
  1  'x, y, z'
loop_
 _atom_site_type_symbol
 _atom_site_label
 _atom_site_symmetry_multiplicity
 _atom_site_fract_x
 _atom_site_fract_y
 _atom_site_fract_z
 _atom_site_occupancy
  Ba  Ba0  1  0.000000  0.000000  0.000000  1
  Sm  Sm1  1  0.666667  0.333333  0.368448  1
  Sm  Sm2  1  0.333333  0.666667  0.631552  1
  H  H3  1  0.172003  0.827997  0.377929  1
  H  H4  1  0.655994  0.827997  0.377929  1
  H  H5  1  0.172003  0.344006  0.377929  1
  H  H6  1  0.827997  0.172003  0.622071  1
  H  H7  1  0.344006  0.172003  0.622071  1
  H  H8  1  0.827997  0.655994  0.622071  1
  H  H9  1  0.506347  0.012695  0.844277  1
  H  H10  1  0.506347  0.493653  0.844277  1
  H  H11  1  0.987305  0.493653  0.844277  1
  H  H12  1  0.493653  0.987305  0.155723  1
  H  H13  1  0.493653  0.506347  0.155723  1
  H  H14  1  0.012695  0.506347  0.155723  1
  Ir  Ir15  1  0.666667  0.333333  0.733360  1
  Ir  Ir16  1  0.333333  0.666667  0.266640  1
