# generated using pymatgen
data_Ho20NiBi8Pt3
_symmetry_space_group_name_H-M   'P 1'
_cell_length_a   8.03705443
_cell_length_b   8.99456500
_cell_length_c   12.35115556
_cell_angle_alpha   90.00000000
_cell_angle_beta   90.15633332
_cell_angle_gamma   90.00000000
_symmetry_Int_Tables_number   1
_chemical_formula_structural   Ho20NiBi8Pt3
_chemical_formula_sum   'Ho20 Ni1 Bi8 Pt3'
_cell_volume   892.85934704
_cell_formula_units_Z   1
loop_
 _symmetry_equiv_pos_site_id
 _symmetry_equiv_pos_as_xyz
  1  'x, y, z'
loop_
 _atom_site_type_symbol
 _atom_site_label
 _atom_site_symmetry_multiplicity
 _atom_site_fract_x
 _atom_site_fract_y
 _atom_site_fract_z
 _atom_site_occupancy
  Ho  Ho0  1  0.840914  0.750000  0.796317  1
  Ho  Ho1  1  0.163660  0.250000  0.210271  1
  Ho  Ho2  1  0.337290  0.250000  0.710051  1
  Ho  Ho3  1  0.662677  0.750000  0.290206  1
  Ho  Ho4  1  0.374051  0.750000  0.697461  1
  Ho  Ho5  1  0.626439  0.250000  0.302518  1
  Ho  Ho6  1  0.874364  0.250000  0.803196  1
  Ho  Ho7  1  0.120461  0.750000  0.192033  1
  Ho  Ho8  1  0.948568  0.750000  0.500599  1
  Ho  Ho9  1  0.049218  0.250000  0.500317  1
  Ho  Ho10  1  0.450546  0.250000  0.000706  1
  Ho  Ho11  1  0.550690  0.750000  0.000087  1
  Ho  Ho12  1  0.677932  0.046545  0.567016  1
  Ho  Ho13  1  0.320225  0.953317  0.432535  1
  Ho  Ho14  1  0.178241  0.951789  0.934308  1
  Ho  Ho15  1  0.320225  0.546683  0.432535  1
  Ho  Ho16  1  0.823610  0.041098  0.064614  1
  Ho  Ho17  1  0.677932  0.453455  0.567016  1
  Ho  Ho18  1  0.823610  0.458902  0.064614  1
  Ho  Ho19  1  0.178241  0.548211  0.934308  1
  Ni  Ni20  1  0.925360  0.750000  0.010505  1
  Bi  Bi21  1  0.570019  0.490357  0.827937  1
  Bi  Bi22  1  0.430802  0.510710  0.172324  1
  Bi  Bi23  1  0.068748  0.510278  0.673176  1
  Bi  Bi24  1  0.430802  0.989290  0.172324  1
  Bi  Bi25  1  0.930952  0.490361  0.326847  1
  Bi  Bi26  1  0.570019  0.009643  0.827937  1
  Bi  Bi27  1  0.930952  0.009639  0.326847  1
  Bi  Bi28  1  0.068748  0.989722  0.673176  1
  Pt  Pt29  1  0.575274  0.750000  0.510989  1
  Pt  Pt30  1  0.422443  0.250000  0.488075  1
  Pt  Pt31  1  0.076989  0.250000  0.989157  1
