# generated using pymatgen
data_Hf4Co3Si4Rh
_symmetry_space_group_name_H-M   'P 1'
_cell_length_a   3.85304500
_cell_length_b   6.43517742
_cell_length_c   7.20510540
_cell_angle_alpha   90.38667702
_cell_angle_beta   90.00000000
_cell_angle_gamma   90.00000000
_symmetry_Int_Tables_number   1
_chemical_formula_structural   Hf4Co3Si4Rh
_chemical_formula_sum   'Hf4 Co3 Si4 Rh1'
_cell_volume   178.64672319
_cell_formula_units_Z   1
loop_
 _symmetry_equiv_pos_site_id
 _symmetry_equiv_pos_as_xyz
  1  'x, y, z'
loop_
 _atom_site_type_symbol
 _atom_site_label
 _atom_site_symmetry_multiplicity
 _atom_site_fract_x
 _atom_site_fract_y
 _atom_site_fract_z
 _atom_site_occupancy
  Hf  Hf0  1  0.250000  0.507643  0.187945  1
  Hf  Hf1  1  0.750000  0.485651  0.815720  1
  Hf  Hf2  1  0.250000  0.016218  0.305443  1
  Hf  Hf3  1  0.750000  0.987910  0.693807  1
  Co  Co4  1  0.750000  0.856493  0.067544  1
  Co  Co5  1  0.250000  0.145418  0.933092  1
  Co  Co6  1  0.750000  0.351627  0.432397  1
  Si  Si7  1  0.250000  0.782903  0.899893  1
  Si  Si8  1  0.750000  0.219471  0.108203  1
  Si  Si9  1  0.250000  0.274192  0.610944  1
  Si  Si10  1  0.750000  0.723313  0.377908  1
  Rh  Rh11  1  0.250000  0.649162  0.567105  1
