# generated using pymatgen
data_Pd(ClF5)2
_symmetry_space_group_name_H-M   'P 1'
_cell_length_a   13.75464200
_cell_length_b   4.97236948
_cell_length_c   6.34597700
_cell_angle_alpha   64.59406796
_cell_angle_beta   90.00000000
_cell_angle_gamma   90.00000000
_symmetry_Int_Tables_number   1
_chemical_formula_structural   Pd(ClF5)2
_chemical_formula_sum   'Pd2 Cl4 F20'
_cell_volume   392.04760239
_cell_formula_units_Z   2
loop_
 _symmetry_equiv_pos_site_id
 _symmetry_equiv_pos_as_xyz
  1  'x, y, z'
loop_
 _atom_site_type_symbol
 _atom_site_label
 _atom_site_symmetry_multiplicity
 _atom_site_fract_x
 _atom_site_fract_y
 _atom_site_fract_z
 _atom_site_occupancy
  Pd  Pd0  1  0.000000  0.000000  0.000000  1
  Pd  Pd1  1  0.500000  0.000000  0.500000  1
  Cl  Cl2  1  0.362054  0.681051  0.163650  1
  Cl  Cl3  1  0.862054  0.318949  0.336350  1
  Cl  Cl4  1  0.137946  0.681051  0.663650  1
  Cl  Cl5  1  0.637946  0.318949  0.836350  1
  F  F6  1  0.677938  0.011923  0.050329  1
  F  F7  1  0.177938  0.988077  0.449671  1
  F  F8  1  0.322062  0.988077  0.949671  1
  F  F9  1  0.822062  0.011923  0.550329  1
  F  F10  1  0.714008  0.529953  0.897863  1
  F  F11  1  0.214008  0.470047  0.602137  1
  F  F12  1  0.963035  0.023829  0.289141  1
  F  F13  1  0.463035  0.976171  0.210859  1
  F  F14  1  0.036965  0.976171  0.710859  1
  F  F15  1  0.536965  0.023829  0.789141  1
  F  F16  1  0.897153  0.708406  0.042073  1
  F  F17  1  0.397153  0.291594  0.457927  1
  F  F18  1  0.102847  0.291594  0.957927  1
  F  F19  1  0.602847  0.708406  0.542073  1
  F  F20  1  0.910834  0.315854  0.817808  1
  F  F21  1  0.410834  0.684146  0.682192  1
  F  F22  1  0.089166  0.684146  0.182192  1
  F  F23  1  0.589166  0.315854  0.317808  1
  F  F24  1  0.785992  0.529953  0.397863  1
  F  F25  1  0.285992  0.470047  0.102137  1
