# generated using pymatgen
data_Er16Cd4NiRu3
_symmetry_space_group_name_H-M   'P 1'
_cell_length_a   9.47264311
_cell_length_b   9.57802160
_cell_length_c   9.57802200
_cell_angle_alpha   59.99999861
_cell_angle_beta   59.63131547
_cell_angle_gamma   59.63131918
_symmetry_Int_Tables_number   1
_chemical_formula_structural   Er16Cd4NiRu3
_chemical_formula_sum   'Er16 Cd4 Ni1 Ru3'
_cell_volume   611.03352242
_cell_formula_units_Z   1
loop_
 _symmetry_equiv_pos_site_id
 _symmetry_equiv_pos_as_xyz
  1  'x, y, z'
loop_
 _atom_site_type_symbol
 _atom_site_label
 _atom_site_symmetry_multiplicity
 _atom_site_fract_x
 _atom_site_fract_y
 _atom_site_fract_z
 _atom_site_occupancy
  Er  Er0  1  0.351795  0.345475  0.345475  1
  Er  Er1  1  0.351795  0.345475  0.957255  1
  Er  Er2  1  0.351795  0.957255  0.345475  1
  Er  Er3  1  0.962367  0.345878  0.345878  1
  Er  Er4  1  0.810730  0.188538  0.188538  1
  Er  Er5  1  0.185540  0.812195  0.812195  1
  Er  Er6  1  0.185540  0.812195  0.190071  1
  Er  Er7  1  0.810730  0.188538  0.812194  1
  Er  Er8  1  0.185540  0.190071  0.812195  1
  Er  Er9  1  0.810730  0.812194  0.188538  1
  Er  Er10  1  0.937466  0.561858  0.561858  1
  Er  Er11  1  0.559429  0.936931  0.936931  1
  Er  Er12  1  0.559429  0.936931  0.566709  1
  Er  Er13  1  0.937466  0.561858  0.938818  1
  Er  Er14  1  0.559429  0.566709  0.936931  1
  Er  Er15  1  0.937466  0.938818  0.561858  1
  Cd  Cd16  1  0.578480  0.580427  0.580427  1
  Cd  Cd17  1  0.578480  0.580427  0.260665  1
  Cd  Cd18  1  0.578480  0.260665  0.580427  1
  Cd  Cd19  1  0.256095  0.581301  0.581301  1
  Ni  Ni20  1  0.577324  0.140892  0.140892  1
  Ru  Ru21  1  0.144631  0.139370  0.139370  1
  Ru  Ru22  1  0.144631  0.139370  0.576630  1
  Ru  Ru23  1  0.144631  0.576630  0.139370  1
