# generated using pymatgen
data_Zr4NpUTc6
_symmetry_space_group_name_H-M   'P 1'
_cell_length_a   5.24439312
_cell_length_b   5.24439286
_cell_length_c   8.89958000
_cell_angle_alpha   90.00000000
_cell_angle_beta   90.00000000
_cell_angle_gamma   115.69424703
_symmetry_Int_Tables_number   1
_chemical_formula_structural   Zr4NpUTc6
_chemical_formula_sum   'Zr4 Np1 U1 Tc6'
_cell_volume   220.56818368
_cell_formula_units_Z   1
loop_
 _symmetry_equiv_pos_site_id
 _symmetry_equiv_pos_as_xyz
  1  'x, y, z'
loop_
 _atom_site_type_symbol
 _atom_site_label
 _atom_site_symmetry_multiplicity
 _atom_site_fract_x
 _atom_site_fract_y
 _atom_site_fract_z
 _atom_site_occupancy
  Zr  Zr0  1  0.334162  0.665838  0.437140  1
  Zr  Zr1  1  0.665214  0.334786  0.565056  1
  Zr  Zr2  1  0.665214  0.334786  0.934944  1
  Zr  Zr3  1  0.334162  0.665838  0.062860  1
  Np  Np4  1  0.158083  0.841917  0.750000  1
  U  U5  1  0.844805  0.155195  0.250000  1
  Tc  Tc6  1  0.004915  0.995085  0.509590  1
  Tc  Tc7  1  0.004915  0.995085  0.990410  1
  Tc  Tc8  1  0.838858  0.639304  0.250000  1
  Tc  Tc9  1  0.360696  0.161142  0.250000  1
  Tc  Tc10  1  0.159231  0.370253  0.750000  1
  Tc  Tc11  1  0.629747  0.840769  0.750000  1
