# generated using pymatgen
data_Ti8Al13Ga2Os7
_symmetry_space_group_name_H-M   'P 1'
_cell_length_a   8.67009182
_cell_length_b   8.67229371
_cell_length_c   8.67009168
_cell_angle_alpha   120.15838642
_cell_angle_beta   119.87659793
_cell_angle_gamma   89.96257433
_symmetry_Int_Tables_number   1
_chemical_formula_structural   Ti8Al13Ga2Os7
_chemical_formula_sum   'Ti8 Al13 Ga2 Os7'
_cell_volume   460.86723821
_cell_formula_units_Z   1
loop_
 _symmetry_equiv_pos_site_id
 _symmetry_equiv_pos_as_xyz
  1  'x, y, z'
loop_
 _atom_site_type_symbol
 _atom_site_label
 _atom_site_symmetry_multiplicity
 _atom_site_fract_x
 _atom_site_fract_y
 _atom_site_fract_z
 _atom_site_occupancy
  Ti  Ti0  1  0.792497  0.282852  0.064979  1
  Ti  Ti1  1  0.217873  0.282852  0.490357  1
  Ti  Ti2  1  0.214197  0.714750  0.500553  1
  Ti  Ti3  1  0.217208  0.725570  0.935018  1
  Ti  Ti4  1  0.790552  0.725570  0.508361  1
  Ti  Ti5  1  0.777260  0.279076  0.501815  1
  Ti  Ti6  1  0.379065  0.121594  0.742528  1
  Ti  Ti7  1  0.377837  0.634377  0.256541  1
  Al  Al8  1  0.158215  0.973171  0.814956  1
  Al  Al9  1  0.153748  0.344966  0.806246  1
  Al  Al10  1  0.538719  0.344966  0.191218  1
  Al  Al11  1  0.844395  0.655500  0.811106  1
  Al  Al12  1  0.844382  0.035088  0.190705  1
  Al  Al13  1  0.841395  0.655600  0.184904  1
  Al  Al14  1  0.470696  0.655600  0.814205  1
  Al  Al15  1  0.380073  0.120891  0.257347  1
  Al  Al16  1  0.863546  0.120891  0.740819  1
  Al  Al17  1  0.619262  0.875526  0.256264  1
  Al  Al18  1  0.618838  0.362576  0.743737  1
  Al  Al19  1  0.619519  0.877386  0.741540  1
  Al  Al20  1  0.135845  0.877386  0.257868  1
  Ga  Ga21  1  0.995839  0.496371  0.500533  1
  Ga  Ga22  1  0.156198  0.348337  0.192138  1
  Os  Os23  1  0.999049  0.998092  0.500199  1
  Os  Os24  1  0.497893  0.998092  0.999042  1
  Os  Os25  1  0.498201  0.498463  0.000260  1
  Os  Os26  1  0.501084  0.498104  0.500817  1
  Os  Os27  1  0.997287  0.498104  0.997020  1
  Os  Os28  1  0.000188  0.999588  0.999400  1
  Os  Os29  1  0.499135  0.998659  0.499524  1
