# generated using pymatgen
data_NdFeRuO5
_symmetry_space_group_name_H-M   'P 1'
_cell_length_a   5.69196600
_cell_length_b   7.84349300
_cell_length_c   8.97590400
_cell_angle_alpha   90.00000000
_cell_angle_beta   90.00000000
_cell_angle_gamma   90.00000000
_symmetry_Int_Tables_number   1
_chemical_formula_structural   NdFeRuO5
_chemical_formula_sum   'Nd4 Fe4 Ru4 O20'
_cell_volume   400.72829589
_cell_formula_units_Z   4
loop_
 _symmetry_equiv_pos_site_id
 _symmetry_equiv_pos_as_xyz
  1  'x, y, z'
loop_
 _atom_site_type_symbol
 _atom_site_label
 _atom_site_symmetry_multiplicity
 _atom_site_fract_x
 _atom_site_fract_y
 _atom_site_fract_z
 _atom_site_occupancy
  Nd  Nd0  1  0.000000  0.357545  0.670866  1
  Nd  Nd1  1  0.000000  0.642455  0.329134  1
  Nd  Nd2  1  0.000000  0.857545  0.829134  1
  Nd  Nd3  1  0.000000  0.142455  0.170866  1
  Fe  Fe4  1  0.500000  0.097299  0.857513  1
  Fe  Fe5  1  0.500000  0.902701  0.142487  1
  Fe  Fe6  1  0.500000  0.597299  0.642487  1
  Fe  Fe7  1  0.500000  0.402701  0.357513  1
  Ru  Ru8  1  0.277820  0.500000  0.000000  1
  Ru  Ru9  1  0.722180  0.000000  0.500000  1
  Ru  Ru10  1  0.722180  0.500000  0.000000  1
  Ru  Ru11  1  0.277820  0.000000  0.500000  1
  O  O12  1  0.249508  0.906895  0.289810  1
  O  O13  1  0.249508  0.093105  0.710190  1
  O  O14  1  0.750492  0.406895  0.210190  1
  O  O15  1  0.750492  0.593105  0.789810  1
  O  O16  1  0.750492  0.093105  0.710190  1
  O  O17  1  0.750492  0.906895  0.289810  1
  O  O18  1  0.249508  0.593105  0.789810  1
  O  O19  1  0.249508  0.406895  0.210190  1
  O  O20  1  0.500000  0.327401  0.924785  1
  O  O21  1  0.500000  0.672599  0.075215  1
  O  O22  1  0.500000  0.827401  0.575215  1
  O  O23  1  0.500000  0.172599  0.424785  1
  O  O24  1  0.264457  0.000000  0.000000  1
  O  O25  1  0.735543  0.500000  0.500000  1
  O  O26  1  0.735543  0.000000  0.000000  1
  O  O27  1  0.264457  0.500000  0.500000  1
  O  O28  1  0.000000  0.155306  0.447372  1
  O  O29  1  0.000000  0.844694  0.552628  1
  O  O30  1  0.000000  0.655306  0.052628  1
  O  O31  1  0.000000  0.344694  0.947372  1
