# generated using pymatgen
data_K3Fe(BrO3)6
_symmetry_space_group_name_H-M   'P 1'
_cell_length_a   7.27065945
_cell_length_b   7.24742027
_cell_length_c   10.66133802
_cell_angle_alpha   97.74398920
_cell_angle_beta   110.14109377
_cell_angle_gamma   105.60723323
_symmetry_Int_Tables_number   1
_chemical_formula_structural   K3Fe(BrO3)6
_chemical_formula_sum   'K3 Fe1 Br6 O18'
_cell_volume   491.65804931
_cell_formula_units_Z   1
loop_
 _symmetry_equiv_pos_site_id
 _symmetry_equiv_pos_as_xyz
  1  'x, y, z'
loop_
 _atom_site_type_symbol
 _atom_site_label
 _atom_site_symmetry_multiplicity
 _atom_site_fract_x
 _atom_site_fract_y
 _atom_site_fract_z
 _atom_site_occupancy
  K  K0  1  0.375241  0.551032  0.282041  1
  K  K1  1  0.624759  0.448968  0.717959  1
  K  K2  1  0.000000  0.500000  0.500000  1
  Fe  Fe3  1  0.000000  0.000000  0.000000  1
  Br  Br4  1  0.512567  0.048911  0.190078  1
  Br  Br5  1  0.487433  0.951089  0.809922  1
  Br  Br6  1  0.792120  0.577206  0.109511  1
  Br  Br7  1  0.207880  0.422794  0.890489  1
  Br  Br8  1  0.119535  0.090873  0.363135  1
  Br  Br9  1  0.880465  0.909127  0.636865  1
  O  O10  1  0.623685  0.677295  0.136433  1
  O  O11  1  0.376315  0.322705  0.863567  1
  O  O12  1  0.002764  0.355888  0.738955  1
  O  O13  1  0.997236  0.644112  0.261045  1
  O  O14  1  0.585887  0.295576  0.242044  1
  O  O15  1  0.414113  0.704424  0.757956  1
  O  O16  1  0.067948  0.129416  0.198526  1
  O  O17  1  0.932052  0.870584  0.801474  1
  O  O18  1  0.285464  0.975336  0.039079  1
  O  O19  1  0.714536  0.024664  0.960921  1
  O  O20  1  0.292731  0.313150  0.459380  1
  O  O21  1  0.707269  0.686850  0.540620  1
  O  O22  1  0.903138  0.090023  0.384796  1
  O  O23  1  0.096862  0.909977  0.615204  1
  O  O24  1  0.566057  0.041395  0.694044  1
  O  O25  1  0.433943  0.958605  0.305956  1
  O  O26  1  0.113185  0.297767  0.995785  1
  O  O27  1  0.886815  0.702233  0.004215  1
