# generated using pymatgen
data_Sb16Pb
_symmetry_space_group_name_H-M   'P 1'
_cell_length_a   4.43179115
_cell_length_b   4.43179032
_cell_length_c   30.37028100
_cell_angle_alpha   85.81583219
_cell_angle_beta   85.81583298
_cell_angle_gamma   60.00000219
_symmetry_Int_Tables_number   1
_chemical_formula_structural   Sb16Pb
_chemical_formula_sum   'Sb16 Pb1'
_cell_volume   514.74379812
_cell_formula_units_Z   1
loop_
 _symmetry_equiv_pos_site_id
 _symmetry_equiv_pos_as_xyz
  1  'x, y, z'
loop_
 _atom_site_type_symbol
 _atom_site_label
 _atom_site_symmetry_multiplicity
 _atom_site_fract_x
 _atom_site_fract_y
 _atom_site_fract_z
 _atom_site_occupancy
  Sb  Sb0  1  0.293897  0.293897  0.118311  1
  Sb  Sb1  1  0.706103  0.706103  0.881689  1
  Sb  Sb2  1  0.234684  0.234684  0.295947  1
  Sb  Sb3  1  0.765316  0.765316  0.704053  1
  Sb  Sb4  1  0.471069  0.471069  0.586793  1
  Sb  Sb5  1  0.528931  0.528931  0.413207  1
  Sb  Sb6  1  0.354395  0.354395  0.936814  1
  Sb  Sb7  1  0.645605  0.645605  0.063186  1
  Sb  Sb8  1  0.059754  0.059754  0.820738  1
  Sb  Sb9  1  0.940246  0.940246  0.179262  1
  Sb  Sb10  1  0.411604  0.411604  0.765188  1
  Sb  Sb11  1  0.588396  0.588396  0.234812  1
  Sb  Sb12  1  0.117308  0.117308  0.648076  1
  Sb  Sb13  1  0.882692  0.882692  0.351924  1
  Sb  Sb14  1  0.176879  0.176879  0.469362  1
  Sb  Sb15  1  0.823121  0.823121  0.530638  1
  Pb  Pb16  1  0.000000  0.000000  0.000000  1
