# generated using pymatgen
data_Ho4Er4Sc12Ga7Si9
_symmetry_space_group_name_H-M   'P 1'
_cell_length_a   7.14726962
_cell_length_b   7.39932997
_cell_length_c   14.22958601
_cell_angle_alpha   89.99609409
_cell_angle_beta   89.94381636
_cell_angle_gamma   90.03666306
_symmetry_Int_Tables_number   1
_chemical_formula_structural   Ho4Er4Sc12Ga7Si9
_chemical_formula_sum   'Ho4 Er4 Sc12 Ga7 Si9'
_cell_volume   752.53122777
_cell_formula_units_Z   1
loop_
 _symmetry_equiv_pos_site_id
 _symmetry_equiv_pos_as_xyz
  1  'x, y, z'
loop_
 _atom_site_type_symbol
 _atom_site_label
 _atom_site_symmetry_multiplicity
 _atom_site_fract_x
 _atom_site_fract_y
 _atom_site_fract_z
 _atom_site_occupancy
  Ho  Ho0  1  0.012471  0.174044  0.098682  1
  Ho  Ho1  1  0.989747  0.823604  0.901492  1
  Ho  Ho2  1  0.488362  0.676432  0.901654  1
  Ho  Ho3  1  0.989415  0.823866  0.599479  1
  Er  Er4  1  0.510419  0.322767  0.098883  1
  Er  Er5  1  0.010247  0.175868  0.400398  1
  Er  Er6  1  0.510734  0.323695  0.400393  1
  Er  Er7  1  0.489416  0.676150  0.599460  1
  Sc  Sc8  1  0.163802  0.503129  0.749914  1
  Sc  Sc9  1  0.836879  0.497611  0.249906  1
  Sc  Sc10  1  0.336206  0.003090  0.249006  1
  Sc  Sc11  1  0.663267  0.997267  0.749694  1
  Sc  Sc12  1  0.330186  0.173866  0.625782  1
  Sc  Sc13  1  0.669543  0.826460  0.374024  1
  Sc  Sc14  1  0.169799  0.674065  0.373844  1
  Sc  Sc15  1  0.668245  0.825070  0.126144  1
  Sc  Sc16  1  0.829776  0.326165  0.626032  1
  Sc  Sc17  1  0.329603  0.174339  0.874943  1
  Sc  Sc18  1  0.829058  0.326150  0.874347  1
  Sc  Sc19  1  0.172073  0.675912  0.125108  1
  Ga  Ga20  1  0.161141  0.463850  0.539671  1
  Ga  Ga21  1  0.838933  0.535868  0.460163  1
  Ga  Ga22  1  0.338604  0.963685  0.460316  1
  Ga  Ga23  1  0.838843  0.537329  0.040194  1
  Ga  Ga24  1  0.661247  0.036267  0.539505  1
  Ga  Ga25  1  0.160572  0.463063  0.960589  1
  Ga  Ga26  1  0.659605  0.037040  0.960955  1
  Si  Si27  1  0.032059  0.113322  0.750719  1
  Si  Si28  1  0.967608  0.886017  0.249649  1
  Si  Si29  1  0.467369  0.612991  0.249543  1
  Si  Si30  1  0.532240  0.386338  0.750152  1
  Si  Si31  1  0.284362  0.873926  0.750460  1
  Si  Si32  1  0.715972  0.126416  0.249342  1
  Si  Si33  1  0.215550  0.373169  0.249674  1
  Si  Si34  1  0.784079  0.626506  0.750339  1
  Si  Si35  1  0.342566  0.964658  0.039541  1
