# generated using pymatgen
data_Hf4B8Mo3Ru7
_symmetry_space_group_name_H-M   'P 1'
_cell_length_a   3.09225400
_cell_length_b   8.68594646
_cell_length_c   9.97310676
_cell_angle_alpha   90.47858143
_cell_angle_beta   90.00000000
_cell_angle_gamma   90.00000000
_symmetry_Int_Tables_number   1
_chemical_formula_structural   Hf4B8Mo3Ru7
_chemical_formula_sum   'Hf4 B8 Mo3 Ru7'
_cell_volume   267.85985276
_cell_formula_units_Z   1
loop_
 _symmetry_equiv_pos_site_id
 _symmetry_equiv_pos_as_xyz
  1  'x, y, z'
loop_
 _atom_site_type_symbol
 _atom_site_label
 _atom_site_symmetry_multiplicity
 _atom_site_fract_x
 _atom_site_fract_y
 _atom_site_fract_z
 _atom_site_occupancy
  Hf  Hf0  1  0.500000  0.837530  0.180038  1
  Hf  Hf1  1  0.500000  0.161600  0.822121  1
  Hf  Hf2  1  0.500000  0.660980  0.681468  1
  Hf  Hf3  1  0.500000  0.340188  0.314499  1
  B  B4  1  0.500000  0.965365  0.588009  1
  B  B5  1  0.500000  0.032049  0.412550  1
  B  B6  1  0.500000  0.851231  0.902105  1
  B  B7  1  0.500000  0.150617  0.099580  1
  B  B8  1  0.500000  0.649465  0.399262  1
  B  B9  1  0.500000  0.351044  0.599472  1
  B  B10  1  0.500000  0.465373  0.914059  1
  B  B11  1  0.500000  0.533663  0.084701  1
  Mo  Mo12  1  0.000000  0.663332  0.951060  1
  Mo  Mo13  1  0.000000  0.335571  0.047623  1
  Mo  Mo14  1  0.000000  0.840126  0.453857  1
  Ru  Ru15  1  0.000000  0.165694  0.549281  1
  Ru  Ru16  1  0.000000  0.000013  0.001421  1
  Ru  Ru17  1  0.000000  0.405983  0.758716  1
  Ru  Ru18  1  0.000000  0.591915  0.239062  1
  Ru  Ru19  1  0.000000  0.497228  0.499597  1
  Ru  Ru20  1  0.000000  0.910612  0.738159  1
  Ru  Ru21  1  0.000000  0.090420  0.263361  1
