# generated using pymatgen
data_Dy8Er12Co3NiBi8
_symmetry_space_group_name_H-M   'P 1'
_cell_length_a   7.95560363
_cell_length_b   8.89033000
_cell_length_c   12.33353298
_cell_angle_alpha   90.00000000
_cell_angle_beta   89.97769266
_cell_angle_gamma   90.00000000
_symmetry_Int_Tables_number   1
_chemical_formula_structural   Dy8Er12Co3NiBi8
_chemical_formula_sum   'Dy8 Er12 Co3 Ni1 Bi8'
_cell_volume   872.32533465
_cell_formula_units_Z   1
loop_
 _symmetry_equiv_pos_site_id
 _symmetry_equiv_pos_as_xyz
  1  'x, y, z'
loop_
 _atom_site_type_symbol
 _atom_site_label
 _atom_site_symmetry_multiplicity
 _atom_site_fract_x
 _atom_site_fract_y
 _atom_site_fract_z
 _atom_site_occupancy
  Dy  Dy0  1  0.652551  0.750000  0.699339  1
  Dy  Dy1  1  0.347127  0.250000  0.300304  1
  Dy  Dy2  1  0.155175  0.250000  0.798089  1
  Dy  Dy3  1  0.842818  0.750000  0.204869  1
  Dy  Dy4  1  0.119871  0.750000  0.809077  1
  Dy  Dy5  1  0.882694  0.250000  0.188260  1
  Dy  Dy6  1  0.617398  0.250000  0.689837  1
  Dy  Dy7  1  0.381561  0.750000  0.309906  1
  Er  Er8  1  0.551350  0.750000  0.998008  1
  Er  Er9  1  0.447055  0.250000  0.001521  1
  Er  Er10  1  0.053834  0.250000  0.502852  1
  Er  Er11  1  0.947568  0.750000  0.498338  1
  Er  Er12  1  0.824289  0.455709  0.936217  1
  Er  Er13  1  0.175225  0.535470  0.064349  1
  Er  Er14  1  0.325715  0.537914  0.562737  1
  Er  Er15  1  0.175225  0.964530  0.064349  1
  Er  Er16  1  0.675245  0.462540  0.436711  1
  Er  Er17  1  0.824289  0.044291  0.936217  1
  Er  Er18  1  0.675245  0.037460  0.436711  1
  Er  Er19  1  0.325715  0.962086  0.562737  1
  Co  Co20  1  0.068456  0.250000  0.007584  1
  Co  Co21  1  0.434656  0.250000  0.508522  1
  Co  Co22  1  0.565951  0.750000  0.490816  1
  Ni  Ni23  1  0.931526  0.750000  0.992024  1
  Bi  Bi24  1  0.929999  0.008578  0.672936  1
  Bi  Bi25  1  0.069384  0.991603  0.327633  1
  Bi  Bi26  1  0.429920  0.990457  0.827666  1
  Bi  Bi27  1  0.069384  0.508397  0.327633  1
  Bi  Bi28  1  0.570425  0.009436  0.172079  1
  Bi  Bi29  1  0.929999  0.491422  0.672936  1
  Bi  Bi30  1  0.570425  0.490564  0.172079  1
  Bi  Bi31  1  0.429920  0.509543  0.827666  1
