# generated using pymatgen
data_Pu4ReB16Os3
_symmetry_space_group_name_H-M   'P 1'
_cell_length_a   5.99973316
_cell_length_b   11.61617330
_cell_length_c   3.55039600
_cell_angle_alpha   90.00000000
_cell_angle_beta   90.00000000
_cell_angle_gamma   90.02621005
_symmetry_Int_Tables_number   1
_chemical_formula_structural   Pu4ReB16Os3
_chemical_formula_sum   'Pu4 Re1 B16 Os3'
_cell_volume   247.44106036
_cell_formula_units_Z   1
loop_
 _symmetry_equiv_pos_site_id
 _symmetry_equiv_pos_as_xyz
  1  'x, y, z'
loop_
 _atom_site_type_symbol
 _atom_site_label
 _atom_site_symmetry_multiplicity
 _atom_site_fract_x
 _atom_site_fract_y
 _atom_site_fract_z
 _atom_site_occupancy
  Pu  Pu0  1  0.626987  0.349818  0.000000  1
  Pu  Pu1  1  0.372973  0.649661  0.000000  1
  Pu  Pu2  1  0.127065  0.149922  0.000000  1
  Pu  Pu3  1  0.872887  0.850190  0.000000  1
  Re  Re4  1  0.637513  0.091268  0.000000  1
  B  B5  1  0.787520  0.187244  0.500000  1
  B  B6  1  0.212767  0.813125  0.500000  1
  B  B7  1  0.286691  0.313450  0.500000  1
  B  B8  1  0.712572  0.686976  0.500000  1
  B  B9  1  0.865662  0.030923  0.500000  1
  B  B10  1  0.135707  0.968444  0.500000  1
  B  B11  1  0.364673  0.468768  0.500000  1
  B  B12  1  0.635291  0.531384  0.500000  1
  B  B13  1  0.886130  0.453244  0.500000  1
  B  B14  1  0.113879  0.547115  0.500000  1
  B  B15  1  0.385806  0.046576  0.500000  1
  B  B16  1  0.614651  0.953071  0.500000  1
  B  B17  1  0.973127  0.308421  0.500000  1
  B  B18  1  0.027506  0.691955  0.500000  1
  B  B19  1  0.472501  0.191750  0.500000  1
  B  B20  1  0.527212  0.808276  0.500000  1
  Os  Os21  1  0.361997  0.907329  0.000000  1
  Os  Os22  1  0.137679  0.407976  0.000000  1
  Os  Os23  1  0.861204  0.593115  0.000000  1
