# generated using pymatgen
data_Tm6U2Fe21
_symmetry_space_group_name_H-M   'P 1'
_cell_length_a   8.48516848
_cell_length_b   8.52471006
_cell_length_c   8.48516787
_cell_angle_alpha   59.84572120
_cell_angle_beta   61.12679032
_cell_angle_gamma   59.84571598
_symmetry_Int_Tables_number   1
_chemical_formula_structural   Tm6U2Fe21
_chemical_formula_sum   'Tm6 U2 Fe21'
_cell_volume   436.52927589
_cell_formula_units_Z   1
loop_
 _symmetry_equiv_pos_site_id
 _symmetry_equiv_pos_as_xyz
  1  'x, y, z'
loop_
 _atom_site_type_symbol
 _atom_site_label
 _atom_site_symmetry_multiplicity
 _atom_site_fract_x
 _atom_site_fract_y
 _atom_site_fract_z
 _atom_site_occupancy
  Tm  Tm0  1  0.715288  0.301056  0.284712  1
  Tm  Tm1  1  0.704922  0.295078  0.704922  1
  Tm  Tm2  1  0.715288  0.698944  0.284712  1
  Tm  Tm3  1  0.284712  0.698944  0.715288  1
  Tm  Tm4  1  0.295078  0.704922  0.295078  1
  Tm  Tm5  1  0.284712  0.301056  0.715288  1
  U  U6  1  0.000000  0.000000  0.000000  1
  U  U7  1  0.500000  0.000000  0.500000  1
  Fe  Fe8  1  0.500000  0.000000  0.000000  1
  Fe  Fe9  1  0.500000  0.500000  0.000000  1
  Fe  Fe10  1  0.000000  0.500000  0.500000  1
  Fe  Fe11  1  0.000000  0.500000  0.000000  1
  Fe  Fe12  1  0.000000  0.000000  0.500000  1
  Fe  Fe13  1  0.641249  0.124637  0.109475  1
  Fe  Fe14  1  0.123869  0.629444  0.123869  1
  Fe  Fe15  1  0.109475  0.124637  0.641249  1
  Fe  Fe16  1  0.123869  0.122819  0.123869  1
  Fe  Fe17  1  0.358751  0.875363  0.890525  1
  Fe  Fe18  1  0.876131  0.370556  0.876131  1
  Fe  Fe19  1  0.890525  0.875363  0.358751  1
  Fe  Fe20  1  0.876131  0.877181  0.876131  1
  Fe  Fe21  1  0.026139  0.324540  0.324781  1
  Fe  Fe22  1  0.326705  0.023477  0.326705  1
  Fe  Fe23  1  0.324781  0.324540  0.026139  1
  Fe  Fe24  1  0.326705  0.323112  0.326705  1
  Fe  Fe25  1  0.973861  0.675460  0.675219  1
  Fe  Fe26  1  0.673295  0.976523  0.673295  1
  Fe  Fe27  1  0.675219  0.675460  0.973861  1
  Fe  Fe28  1  0.673295  0.676888  0.673295  1
