# generated using pymatgen
data_NdYSb5
_symmetry_space_group_name_H-M   'P 1'
_cell_length_a   4.28541900
_cell_length_b   13.38866976
_cell_length_c   14.92716996
_cell_angle_alpha   77.73137437
_cell_angle_beta   90.00000000
_cell_angle_gamma   90.00000000
_symmetry_Int_Tables_number   1
_chemical_formula_structural   NdYSb5
_chemical_formula_sum   'Nd4 Y4 Sb20'
_cell_volume   836.90238094
_cell_formula_units_Z   4
loop_
 _symmetry_equiv_pos_site_id
 _symmetry_equiv_pos_as_xyz
  1  'x, y, z'
loop_
 _atom_site_type_symbol
 _atom_site_label
 _atom_site_symmetry_multiplicity
 _atom_site_fract_x
 _atom_site_fract_y
 _atom_site_fract_z
 _atom_site_occupancy
  Nd  Nd0  1  0.250000  0.669310  0.576761  1
  Nd  Nd1  1  0.750000  0.330690  0.423239  1
  Nd  Nd2  1  0.250000  0.949182  0.359080  1
  Nd  Nd3  1  0.750000  0.050818  0.640920  1
  Y  Y4  1  0.250000  0.399980  0.774847  1
  Y  Y5  1  0.750000  0.600020  0.225153  1
  Y  Y6  1  0.250000  0.664047  0.857621  1
  Y  Y7  1  0.750000  0.335953  0.142379  1
  Sb  Sb8  1  0.250000  0.148198  0.783437  1
  Sb  Sb9  1  0.750000  0.851802  0.216563  1
  Sb  Sb10  1  0.250000  0.141832  0.477416  1
  Sb  Sb11  1  0.750000  0.858168  0.522584  1
  Sb  Sb12  1  0.250000  0.152177  0.174502  1
  Sb  Sb13  1  0.750000  0.847823  0.825498  1
  Sb  Sb14  1  0.250000  0.420646  0.976837  1
  Sb  Sb15  1  0.750000  0.579354  0.023163  1
  Sb  Sb16  1  0.750000  0.033112  0.894358  1
  Sb  Sb17  1  0.250000  0.966888  0.105642  1
  Sb  Sb18  1  0.750000  0.139100  0.320371  1
  Sb  Sb19  1  0.250000  0.860900  0.679629  1
  Sb  Sb20  1  0.750000  0.284696  0.938214  1
  Sb  Sb21  1  0.250000  0.715304  0.061786  1
  Sb  Sb22  1  0.750000  0.295567  0.651165  1
  Sb  Sb23  1  0.250000  0.704433  0.348835  1
  Sb  Sb24  1  0.750000  0.577658  0.739435  1
  Sb  Sb25  1  0.250000  0.422342  0.260565  1
  Sb  Sb26  1  0.750000  0.574444  0.441239  1
  Sb  Sb27  1  0.250000  0.425556  0.558761  1
