# generated using pymatgen
data_SrLa4CdAu4
_symmetry_space_group_name_H-M   'P 1'
_cell_length_a   8.46531100
_cell_length_b   8.46531100
_cell_length_c   4.04751600
_cell_angle_alpha   90.00000000
_cell_angle_beta   90.00000000
_cell_angle_gamma   90.00000000
_symmetry_Int_Tables_number   1
_chemical_formula_structural   SrLa4CdAu4
_chemical_formula_sum   'Sr1 La4 Cd1 Au4'
_cell_volume   290.05102868
_cell_formula_units_Z   1
loop_
 _symmetry_equiv_pos_site_id
 _symmetry_equiv_pos_as_xyz
  1  'x, y, z'
loop_
 _atom_site_type_symbol
 _atom_site_label
 _atom_site_symmetry_multiplicity
 _atom_site_fract_x
 _atom_site_fract_y
 _atom_site_fract_z
 _atom_site_occupancy
  Sr  Sr0  1  0.000000  0.000000  0.000000  1
  La  La1  1  0.636845  0.194269  0.500000  1
  La  La2  1  0.363155  0.805731  0.500000  1
  La  La3  1  0.194269  0.363155  0.500000  1
  La  La4  1  0.805731  0.636845  0.500000  1
  Cd  Cd5  1  0.500000  0.500000  0.000000  1
  Au  Au6  1  0.121080  0.636053  0.000000  1
  Au  Au7  1  0.878920  0.363947  0.000000  1
  Au  Au8  1  0.636053  0.878920  0.000000  1
  Au  Au9  1  0.363947  0.121080  0.000000  1
