# generated using pymatgen
data_Tb3Pa3(Sb4Pt3)2
_symmetry_space_group_name_H-M   'P 1'
_cell_length_a   8.46760903
_cell_length_b   8.45375853
_cell_length_c   8.45375867
_cell_angle_alpha   109.48517743
_cell_angle_beta   109.09844741
_cell_angle_gamma   109.76448910
_symmetry_Int_Tables_number   1
_chemical_formula_structural   Tb3Pa3(Sb4Pt3)2
_chemical_formula_sum   'Tb3 Pa3 Sb8 Pt6'
_cell_volume   466.20649456
_cell_formula_units_Z   1
loop_
 _symmetry_equiv_pos_site_id
 _symmetry_equiv_pos_as_xyz
  1  'x, y, z'
loop_
 _atom_site_type_symbol
 _atom_site_label
 _atom_site_symmetry_multiplicity
 _atom_site_fract_x
 _atom_site_fract_y
 _atom_site_fract_z
 _atom_site_occupancy
  Tb  Tb0  1  0.874998  0.249992  0.125601  1
  Tb  Tb1  1  0.625002  0.750604  0.374994  1
  Tb  Tb2  1  0.250000  0.125507  0.875507  1
  Pa  Pa3  1  0.750000  0.373992  0.623992  1
  Pa  Pa4  1  0.123254  0.874277  0.249862  1
  Pa  Pa5  1  0.376746  0.626608  0.751023  1
  Sb  Sb6  1  0.672273  0.498181  0.001710  1
  Sb  Sb7  1  0.498620  0.996991  0.674966  1
  Sb  Sb8  1  0.001380  0.676346  0.498372  1
  Sb  Sb9  1  0.827727  0.829436  0.825908  1
  Sb  Sb10  1  0.498239  0.000162  0.171316  1
  Sb  Sb11  1  0.177146  0.499286  0.001700  1
  Sb  Sb12  1  0.001761  0.173078  0.501923  1
  Sb  Sb13  1  0.322854  0.324555  0.322140  1
  Pt  Pt14  1  0.381993  0.252856  0.620776  1
  Pt  Pt15  1  0.118007  0.738783  0.870863  1
  Pt  Pt16  1  0.250000  0.626191  0.376191  1
  Pt  Pt17  1  0.750000  0.872798  0.122798  1
  Pt  Pt18  1  0.631452  0.378632  0.263177  1
  Pt  Pt19  1  0.868548  0.131725  0.747180  1
