# generated using pymatgen
data_Dy18Ho2Bi3Pb13
_symmetry_space_group_name_H-M   'P 1'
_cell_length_a   8.28267127
_cell_length_b   15.62545464
_cell_length_c   8.30949421
_cell_angle_alpha   90.12286883
_cell_angle_beta   89.94197472
_cell_angle_gamma   89.74423281
_symmetry_Int_Tables_number   1
_chemical_formula_structural   Dy18Ho2Bi3Pb13
_chemical_formula_sum   'Dy18 Ho2 Bi3 Pb13'
_cell_volume   1075.40518002
_cell_formula_units_Z   1
loop_
 _symmetry_equiv_pos_site_id
 _symmetry_equiv_pos_as_xyz
  1  'x, y, z'
loop_
 _atom_site_type_symbol
 _atom_site_label
 _atom_site_symmetry_multiplicity
 _atom_site_fract_x
 _atom_site_fract_y
 _atom_site_fract_z
 _atom_site_occupancy
  Dy  Dy0  1  0.618479  0.621632  0.160608  1
  Dy  Dy1  1  0.115434  0.878066  0.342009  1
  Dy  Dy2  1  0.383463  0.122271  0.842813  1
  Dy  Dy3  1  0.880661  0.378644  0.656786  1
  Dy  Dy4  1  0.376734  0.378861  0.841821  1
  Dy  Dy5  1  0.878594  0.120932  0.659872  1
  Dy  Dy6  1  0.621222  0.879224  0.159013  1
  Dy  Dy7  1  0.121193  0.621524  0.341690  1
  Dy  Dy8  1  0.452086  0.604252  0.666865  1
  Dy  Dy9  1  0.944021  0.892984  0.830846  1
  Dy  Dy10  1  0.555358  0.106832  0.331209  1
  Dy  Dy11  1  0.048908  0.396295  0.174563  1
  Dy  Dy12  1  0.541943  0.397707  0.331582  1
  Dy  Dy13  1  0.040832  0.104358  0.169478  1
  Dy  Dy14  1  0.459611  0.895817  0.670277  1
  Dy  Dy15  1  0.960867  0.602975  0.823591  1
  Dy  Dy16  1  0.787668  0.749391  0.497877  1
  Dy  Dy17  1  0.287478  0.746815  0.001027  1
  Ho  Ho18  1  0.212945  0.252528  0.501955  1
  Ho  Ho19  1  0.712603  0.248537  0.999073  1
  Bi  Bi20  1  0.724650  0.454948  0.974046  1
  Bi  Bi21  1  0.227984  0.045413  0.523579  1
  Bi  Bi22  1  0.271672  0.954584  0.023186  1
  Pb  Pb23  1  0.777567  0.543740  0.471252  1
  Pb  Pb24  1  0.277741  0.543336  0.029833  1
  Pb  Pb25  1  0.778211  0.956125  0.471529  1
  Pb  Pb26  1  0.721199  0.043702  0.971533  1
  Pb  Pb27  1  0.219657  0.456701  0.531453  1
  Pb  Pb28  1  0.425109  0.752444  0.370794  1
  Pb  Pb29  1  0.924979  0.748770  0.127862  1
  Pb  Pb30  1  0.574547  0.251023  0.629405  1
  Pb  Pb31  1  0.074114  0.249223  0.871709  1
  Pb  Pb32  1  0.644213  0.748723  0.847609  1
  Pb  Pb33  1  0.145956  0.751363  0.651942  1
  Pb  Pb34  1  0.355842  0.249702  0.153201  1
  Pb  Pb35  1  0.856454  0.250559  0.348114  1
