# generated using pymatgen
data_Er4MnReOs6
_symmetry_space_group_name_H-M   'P 1'
_cell_length_a   5.27737248
_cell_length_b   5.27737242
_cell_length_c   8.75868914
_cell_angle_alpha   90.25013293
_cell_angle_beta   89.74986857
_cell_angle_gamma   118.58125034
_symmetry_Int_Tables_number   1
_chemical_formula_structural   Er4MnReOs6
_chemical_formula_sum   'Er4 Mn1 Re1 Os6'
_cell_volume   214.20645591
_cell_formula_units_Z   1
loop_
 _symmetry_equiv_pos_site_id
 _symmetry_equiv_pos_as_xyz
  1  'x, y, z'
loop_
 _atom_site_type_symbol
 _atom_site_label
 _atom_site_symmetry_multiplicity
 _atom_site_fract_x
 _atom_site_fract_y
 _atom_site_fract_z
 _atom_site_occupancy
  Er  Er0  1  0.333163  0.666837  0.433506  1
  Er  Er1  1  0.666738  0.333262  0.568911  1
  Er  Er2  1  0.665406  0.334594  0.934121  1
  Er  Er3  1  0.330433  0.669567  0.063851  1
  Mn  Mn4  1  0.999300  0.000700  0.501756  1
  Re  Re5  1  0.832020  0.167980  0.250476  1
  Os  Os6  1  0.995735  0.004265  0.998159  1
  Os  Os7  1  0.830248  0.656593  0.254325  1
  Os  Os8  1  0.343407  0.169752  0.254325  1
  Os  Os9  1  0.173085  0.826915  0.747824  1
  Os  Os10  1  0.169643  0.339177  0.746373  1
  Os  Os11  1  0.660823  0.830357  0.746373  1
