# generated using pymatgen
data_Er10Tl4CuPPb2
_symmetry_space_group_name_H-M   'P 1'
_cell_length_a   9.05329795
_cell_length_b   9.05329842
_cell_length_c   6.71216683
_cell_angle_alpha   89.93052556
_cell_angle_beta   89.93052182
_cell_angle_gamma   119.75164992
_symmetry_Int_Tables_number   1
_chemical_formula_structural   Er10Tl4CuPPb2
_chemical_formula_sum   'Er10 Tl4 Cu1 P1 Pb2'
_cell_volume   477.62512461
_cell_formula_units_Z   1
loop_
 _symmetry_equiv_pos_site_id
 _symmetry_equiv_pos_as_xyz
  1  'x, y, z'
loop_
 _atom_site_type_symbol
 _atom_site_label
 _atom_site_symmetry_multiplicity
 _atom_site_fract_x
 _atom_site_fract_y
 _atom_site_fract_z
 _atom_site_occupancy
  Er  Er0  1  0.246299  0.997351  0.234330  1
  Er  Er1  1  0.753701  0.002649  0.765670  1
  Er  Er2  1  0.997351  0.246299  0.234330  1
  Er  Er3  1  0.002649  0.753701  0.765670  1
  Er  Er4  1  0.754207  0.754207  0.237791  1
  Er  Er5  1  0.245793  0.245793  0.762209  1
  Er  Er6  1  0.331396  0.668604  0.000000  1
  Er  Er7  1  0.668604  0.331396  0.000000  1
  Er  Er8  1  0.669000  0.331000  0.500000  1
  Er  Er9  1  0.331000  0.669000  0.500000  1
  Tl  Tl10  1  0.599327  0.999256  0.248943  1
  Tl  Tl11  1  0.400673  0.000744  0.751057  1
  Tl  Tl12  1  0.999256  0.599327  0.248943  1
  Tl  Tl13  1  0.000744  0.400673  0.751057  1
  Cu  Cu14  1  0.000000  0.000000  0.500000  1
  P  P15  1  0.000000  0.000000  0.000000  1
  Pb  Pb16  1  0.395198  0.395198  0.249634  1
  Pb  Pb17  1  0.604802  0.604802  0.750366  1
