# generated using pymatgen
data_Dy9YAl4(SnC4)2
_symmetry_space_group_name_H-M   'P 1'
_cell_length_a   10.97405208
_cell_length_b   10.97773608
_cell_length_c   3.54277200
_cell_angle_alpha   90.00000000
_cell_angle_beta   90.00000000
_cell_angle_gamma   90.01410484
_symmetry_Int_Tables_number   1
_chemical_formula_structural   Dy9YAl4(SnC4)2
_chemical_formula_sum   'Dy9 Y1 Al4 Sn2 C8'
_cell_volume   426.79860686
_cell_formula_units_Z   1
loop_
 _symmetry_equiv_pos_site_id
 _symmetry_equiv_pos_as_xyz
  1  'x, y, z'
loop_
 _atom_site_type_symbol
 _atom_site_label
 _atom_site_symmetry_multiplicity
 _atom_site_fract_x
 _atom_site_fract_y
 _atom_site_fract_z
 _atom_site_occupancy
  Dy  Dy0  1  0.549845  0.733763  0.500000  1
  Dy  Dy1  1  0.450132  0.266254  0.500000  1
  Dy  Dy2  1  0.049917  0.766132  0.500000  1
  Dy  Dy3  1  0.950201  0.233905  0.500000  1
  Dy  Dy4  1  0.266260  0.549811  0.500000  1
  Dy  Dy5  1  0.733742  0.450084  0.500000  1
  Dy  Dy6  1  0.233834  0.049829  0.500000  1
  Dy  Dy7  1  0.500147  0.000039  0.000000  1
  Dy  Dy8  1  0.999973  0.500064  0.000000  1
  Y  Y9  1  0.766687  0.950040  0.500000  1
  Al  Al10  1  0.703557  0.203871  0.000000  1
  Al  Al11  1  0.296350  0.796275  0.000000  1
  Al  Al12  1  0.203748  0.296306  0.000000  1
  Al  Al13  1  0.796191  0.703464  0.000000  1
  Sn  Sn14  1  0.500028  0.499938  0.000000  1
  Sn  Sn15  1  0.000069  0.000046  0.000000  1
  C  C16  1  0.633311  0.134353  0.500000  1
  C  C17  1  0.366282  0.866328  0.500000  1
  C  C18  1  0.133731  0.366266  0.500000  1
  C  C19  1  0.866375  0.633646  0.500000  1
  C  C20  1  0.162332  0.662302  0.000000  1
  C  C21  1  0.837724  0.337673  0.000000  1
  C  C22  1  0.661954  0.837293  0.000000  1
  C  C23  1  0.337610  0.162316  0.000000  1
