# generated using pymatgen
data_Cs11KAl(FeSe4)3
_symmetry_space_group_name_H-M   'P 1'
_cell_length_a   11.00275190
_cell_length_b   11.00322276
_cell_length_c   14.09409234
_cell_angle_alpha   89.88588894
_cell_angle_beta   89.76577654
_cell_angle_gamma   139.76650462
_symmetry_Int_Tables_number   1
_chemical_formula_structural   Cs11KAl(FeSe4)3
_chemical_formula_sum   'Cs11 K1 Al1 Fe3 Se12'
_cell_volume   1102.06990510
_cell_formula_units_Z   1
loop_
 _symmetry_equiv_pos_site_id
 _symmetry_equiv_pos_as_xyz
  1  'x, y, z'
loop_
 _atom_site_type_symbol
 _atom_site_label
 _atom_site_symmetry_multiplicity
 _atom_site_fract_x
 _atom_site_fract_y
 _atom_site_fract_z
 _atom_site_occupancy
  Cs  Cs0  1  0.139390  0.139509  0.322966  1
  Cs  Cs1  1  0.639615  0.639168  0.173626  1
  Cs  Cs2  1  0.361132  0.360910  0.818513  1
  Cs  Cs3  1  0.166721  0.522425  0.127589  1
  Cs  Cs4  1  0.482650  0.831919  0.874680  1
  Cs  Cs5  1  0.976073  0.330301  0.630519  1
  Cs  Cs6  1  0.668987  0.018297  0.375012  1
  Cs  Cs7  1  0.832915  0.483561  0.875182  1
  Cs  Cs8  1  0.521535  0.165770  0.127301  1
  Cs  Cs9  1  0.018130  0.668461  0.375135  1
  Cs  Cs10  1  0.330966  0.976393  0.630203  1
  K  K11  1  0.842018  0.842430  0.660547  1
  Al  Al12  1  0.925612  0.085048  0.997415  1
  Fe  Fe13  1  0.414562  0.572808  0.503035  1
  Fe  Fe14  1  0.084850  0.925631  0.997643  1
  Fe  Fe15  1  0.572908  0.414664  0.503081  1
  Se  Se16  1  0.275049  0.275059  0.568368  1
  Se  Se17  1  0.702880  0.702688  0.431413  1
  Se  Se18  1  0.209249  0.210216  0.067555  1
  Se  Se19  1  0.810750  0.811728  0.917834  1
  Se  Se20  1  0.713859  0.002079  0.116452  1
  Se  Se21  1  0.003547  0.301033  0.885598  1
  Se  Se22  1  0.502767  0.784662  0.620803  1
  Se  Se23  1  0.210594  0.505265  0.388151  1
  Se  Se24  1  0.299882  0.002148  0.886662  1
  Se  Se25  1  0.003604  0.714472  0.115645  1
  Se  Se26  1  0.505185  0.210393  0.388036  1
  Se  Se27  1  0.784573  0.502965  0.621038  1
