# generated using pymatgen
data_Ho4Er12In4Pd3Rh
_symmetry_space_group_name_H-M   'P 1'
_cell_length_a   9.65004957
_cell_length_b   9.64933787
_cell_length_c   9.65401949
_cell_angle_alpha   59.85066067
_cell_angle_beta   59.87001998
_cell_angle_gamma   59.82071270
_symmetry_Int_Tables_number   1
_chemical_formula_structural   Ho4Er12In4Pd3Rh
_chemical_formula_sum   'Ho4 Er12 In4 Pd3 Rh1'
_cell_volume   633.44771869
_cell_formula_units_Z   1
loop_
 _symmetry_equiv_pos_site_id
 _symmetry_equiv_pos_as_xyz
  1  'x, y, z'
loop_
 _atom_site_type_symbol
 _atom_site_label
 _atom_site_symmetry_multiplicity
 _atom_site_fract_x
 _atom_site_fract_y
 _atom_site_fract_z
 _atom_site_occupancy
  Ho  Ho0  1  0.189911  0.189963  0.809690  1
  Ho  Ho1  1  0.439776  0.062563  0.062638  1
  Ho  Ho2  1  0.436181  0.065125  0.436104  1
  Ho  Ho3  1  0.062598  0.439659  0.062881  1
  Er  Er4  1  0.650471  0.055276  0.650007  1
  Er  Er5  1  0.184377  0.811151  0.811134  1
  Er  Er6  1  0.062285  0.062478  0.439980  1
  Er  Er7  1  0.809796  0.189899  0.190066  1
  Er  Er8  1  0.811185  0.811084  0.184541  1
  Er  Er9  1  0.649866  0.649945  0.055571  1
  Er  Er10  1  0.647492  0.647461  0.647398  1
  Er  Er11  1  0.064887  0.436377  0.436188  1
  Er  Er12  1  0.055354  0.650414  0.649812  1
  Er  Er13  1  0.811231  0.184403  0.811032  1
  Er  Er14  1  0.436330  0.436453  0.064894  1
  Er  Er15  1  0.189838  0.809654  0.190103  1
  In  In16  1  0.416589  0.749673  0.416702  1
  In  In17  1  0.416745  0.416681  0.749687  1
  In  In18  1  0.749891  0.416521  0.416681  1
  In  In19  1  0.415886  0.416005  0.415746  1
  Pd  Pd20  1  0.855411  0.431462  0.855859  1
  Pd  Pd21  1  0.855968  0.855775  0.431058  1
  Pd  Pd22  1  0.431399  0.855371  0.855967  1
  Rh  Rh23  1  0.856533  0.856608  0.856261  1
