# generated using pymatgen
data_Hf6TiZn22S
_symmetry_space_group_name_H-M   'P 1'
_cell_length_a   8.76677487
_cell_length_b   8.76677520
_cell_length_c   8.76677500
_cell_angle_alpha   60.00000455
_cell_angle_beta   60.00000329
_cell_angle_gamma   59.99999691
_symmetry_Int_Tables_number   1
_chemical_formula_structural   Hf6TiZn22S
_chemical_formula_sum   'Hf6 Ti1 Zn22 S1'
_cell_volume   476.43603646
_cell_formula_units_Z   1
loop_
 _symmetry_equiv_pos_site_id
 _symmetry_equiv_pos_as_xyz
  1  'x, y, z'
loop_
 _atom_site_type_symbol
 _atom_site_label
 _atom_site_symmetry_multiplicity
 _atom_site_fract_x
 _atom_site_fract_y
 _atom_site_fract_z
 _atom_site_occupancy
  Hf  Hf0  1  0.703469  0.296531  0.296531  1
  Hf  Hf1  1  0.296531  0.703469  0.703469  1
  Hf  Hf2  1  0.296531  0.703469  0.296531  1
  Hf  Hf3  1  0.703469  0.296531  0.703469  1
  Hf  Hf4  1  0.296531  0.296531  0.703469  1
  Hf  Hf5  1  0.703469  0.703469  0.296531  1
  Ti  Ti6  1  0.000000  0.000000  0.000000  1
  Zn  Zn7  1  0.121281  0.121281  0.121281  1
  Zn  Zn8  1  0.878719  0.878719  0.878719  1
  Zn  Zn9  1  0.121281  0.121281  0.636159  1
  Zn  Zn10  1  0.121281  0.636159  0.121281  1
  Zn  Zn11  1  0.878719  0.878719  0.363841  1
  Zn  Zn12  1  0.878719  0.363841  0.878719  1
  Zn  Zn13  1  0.636159  0.121281  0.121281  1
  Zn  Zn14  1  0.363841  0.878719  0.878719  1
  Zn  Zn15  1  0.500000  0.000000  0.000000  1
  Zn  Zn16  1  0.000000  0.500000  0.500000  1
  Zn  Zn17  1  0.000000  0.500000  0.000000  1
  Zn  Zn18  1  0.500000  0.000000  0.500000  1
  Zn  Zn19  1  0.000000  0.000000  0.500000  1
  Zn  Zn20  1  0.500000  0.500000  0.000000  1
  Zn  Zn21  1  0.333847  0.333847  0.333847  1
  Zn  Zn22  1  0.666153  0.666153  0.666153  1
  Zn  Zn23  1  0.333847  0.333847  0.998461  1
  Zn  Zn24  1  0.333847  0.998461  0.333847  1
  Zn  Zn25  1  0.666153  0.666153  0.001539  1
  Zn  Zn26  1  0.666153  0.001539  0.666153  1
  Zn  Zn27  1  0.998461  0.333847  0.333847  1
  Zn  Zn28  1  0.001539  0.666153  0.666153  1
  S  S29  1  0.500000  0.500000  0.500000  1
