# generated using pymatgen
data_Nd6Al24Ru7Pt
_symmetry_space_group_name_H-M   'P 1'
_cell_length_a   8.91229225
_cell_length_b   8.91229249
_cell_length_c   9.68387474
_cell_angle_alpha   89.83880256
_cell_angle_beta   90.16119804
_cell_angle_gamma   119.80900422
_symmetry_Int_Tables_number   1
_chemical_formula_structural   Nd6Al24Ru7Pt
_chemical_formula_sum   'Nd6 Al24 Ru7 Pt1'
_cell_volume   667.40426707
_cell_formula_units_Z   1
loop_
 _symmetry_equiv_pos_site_id
 _symmetry_equiv_pos_as_xyz
  1  'x, y, z'
loop_
 _atom_site_type_symbol
 _atom_site_label
 _atom_site_symmetry_multiplicity
 _atom_site_fract_x
 _atom_site_fract_y
 _atom_site_fract_z
 _atom_site_occupancy
  Nd  Nd0  1  0.191277  0.384430  0.250451  1
  Nd  Nd1  1  0.808723  0.615570  0.749549  1
  Nd  Nd2  1  0.615570  0.808723  0.250451  1
  Nd  Nd3  1  0.384430  0.191277  0.749549  1
  Nd  Nd4  1  0.193388  0.806612  0.249949  1
  Nd  Nd5  1  0.806612  0.193388  0.750051  1
  Al  Al6  1  0.330978  0.669022  0.011943  1
  Al  Al7  1  0.669022  0.330978  0.988057  1
  Al  Al8  1  0.667033  0.332967  0.510288  1
  Al  Al9  1  0.332967  0.667033  0.489712  1
  Al  Al10  1  0.162289  0.324909  0.577088  1
  Al  Al11  1  0.837711  0.675091  0.422912  1
  Al  Al12  1  0.675091  0.837711  0.577088  1
  Al  Al13  1  0.841500  0.676249  0.076698  1
  Al  Al14  1  0.324909  0.162289  0.422912  1
  Al  Al15  1  0.158500  0.323751  0.923302  1
  Al  Al16  1  0.162799  0.837201  0.576201  1
  Al  Al17  1  0.323751  0.158500  0.076698  1
  Al  Al18  1  0.837201  0.162799  0.423799  1
  Al  Al19  1  0.676249  0.841500  0.923302  1
  Al  Al20  1  0.837439  0.162561  0.076486  1
  Al  Al21  1  0.162561  0.837439  0.923514  1
  Al  Al22  1  0.561823  0.124642  0.249126  1
  Al  Al23  1  0.438177  0.875358  0.750874  1
  Al  Al24  1  0.875358  0.438177  0.249126  1
  Al  Al25  1  0.124642  0.561823  0.750874  1
  Al  Al26  1  0.562995  0.437005  0.252638  1
  Al  Al27  1  0.437005  0.562995  0.747362  1
  Al  Al28  1  0.999767  0.000233  0.250077  1
  Al  Al29  1  0.000233  0.999767  0.749923  1
  Ru  Ru30  1  0.500000  0.000000  0.000000  1
  Ru  Ru31  1  0.000000  0.500000  0.000000  1
  Ru  Ru32  1  0.500000  0.000000  0.500000  1
  Ru  Ru33  1  0.000000  0.500000  0.500000  1
  Ru  Ru34  1  0.500000  0.500000  0.500000  1
  Ru  Ru35  1  0.000000  0.000000  0.000000  1
  Ru  Ru36  1  0.000000  0.000000  0.500000  1
  Pt  Pt37  1  0.500000  0.500000  0.000000  1
