# generated using pymatgen
data_ZnCr(ReO4)4
_symmetry_space_group_name_H-M   'P 1'
_cell_length_a   5.88357120
_cell_length_b   10.11481313
_cell_length_c   6.73594142
_cell_angle_alpha   90.50247911
_cell_angle_beta   88.76267290
_cell_angle_gamma   90.92853929
_symmetry_Int_Tables_number   1
_chemical_formula_structural   ZnCr(ReO4)4
_chemical_formula_sum   'Zn1 Cr1 Re4 O16'
_cell_volume   400.70380038
_cell_formula_units_Z   1
loop_
 _symmetry_equiv_pos_site_id
 _symmetry_equiv_pos_as_xyz
  1  'x, y, z'
loop_
 _atom_site_type_symbol
 _atom_site_label
 _atom_site_symmetry_multiplicity
 _atom_site_fract_x
 _atom_site_fract_y
 _atom_site_fract_z
 _atom_site_occupancy
  Zn  Zn0  1  0.000025  0.999998  0.999977  1
  Cr  Cr1  1  0.499747  0.499889  0.000182  1
  Re  Re2  1  0.006744  0.330420  0.270289  1
  Re  Re3  1  0.498601  0.834785  0.265916  1
  Re  Re4  1  0.501455  0.165227  0.734041  1
  Re  Re5  1  0.993193  0.669571  0.729726  1
  O  O6  1  0.505093  0.164687  0.476579  1
  O  O7  1  0.994571  0.669603  0.472133  1
  O  O8  1  0.005470  0.330408  0.527860  1
  O  O9  1  0.494956  0.835344  0.523376  1
  O  O10  1  0.739700  0.082053  0.819685  1
  O  O11  1  0.232749  0.586506  0.809272  1
  O  O12  1  0.996940  0.166735  0.179178  1
  O  O13  1  0.492426  0.670180  0.178303  1
  O  O14  1  0.253543  0.412650  0.177604  1
  O  O15  1  0.748910  0.914003  0.178092  1
  O  O16  1  0.767264  0.413517  0.190693  1
  O  O17  1  0.260356  0.917963  0.180273  1
  O  O18  1  0.507610  0.329825  0.821693  1
  O  O19  1  0.003104  0.833286  0.820770  1
  O  O20  1  0.251154  0.086017  0.821869  1
  O  O21  1  0.746388  0.587332  0.822490  1
