# generated using pymatgen
data_RbNaSi2Te5
_symmetry_space_group_name_H-M   'P 1'
_cell_length_a   10.76721400
_cell_length_b   10.76721417
_cell_length_c   12.25907200
_cell_angle_alpha   90.00000000
_cell_angle_beta   90.00000000
_cell_angle_gamma   91.39804918
_symmetry_Int_Tables_number   1
_chemical_formula_structural   RbNaSi2Te5
_chemical_formula_sum   'Rb4 Na4 Si8 Te20'
_cell_volume   1420.80668809
_cell_formula_units_Z   4
loop_
 _symmetry_equiv_pos_site_id
 _symmetry_equiv_pos_as_xyz
  1  'x, y, z'
loop_
 _atom_site_type_symbol
 _atom_site_label
 _atom_site_symmetry_multiplicity
 _atom_site_fract_x
 _atom_site_fract_y
 _atom_site_fract_z
 _atom_site_occupancy
  Rb  Rb0  1  0.566803  0.094588  0.750000  1
  Rb  Rb1  1  0.433197  0.905412  0.250000  1
  Rb  Rb2  1  0.905412  0.433197  0.750000  1
  Rb  Rb3  1  0.094588  0.566803  0.250000  1
  Na  Na4  1  0.147339  0.147339  0.500000  1
  Na  Na5  1  0.852661  0.852661  0.000000  1
  Na  Na6  1  0.852661  0.852661  0.500000  1
  Na  Na7  1  0.147339  0.147339  0.000000  1
  Si  Si8  1  0.561167  0.704593  0.750000  1
  Si  Si9  1  0.438833  0.295407  0.250000  1
  Si  Si10  1  0.295407  0.438833  0.750000  1
  Si  Si11  1  0.704593  0.561167  0.250000  1
  Si  Si12  1  0.240418  0.759582  0.912485  1
  Si  Si13  1  0.759582  0.240418  0.412485  1
  Si  Si14  1  0.240418  0.759582  0.587515  1
  Si  Si15  1  0.759582  0.240418  0.087515  1
  Te  Te16  1  0.760464  0.786001  0.250000  1
  Te  Te17  1  0.239536  0.213999  0.750000  1
  Te  Te18  1  0.213999  0.239536  0.250000  1
  Te  Te19  1  0.786001  0.760464  0.750000  1
  Te  Te20  1  0.144952  0.855048  0.074209  1
  Te  Te21  1  0.855048  0.144952  0.574209  1
  Te  Te22  1  0.144952  0.855048  0.425791  1
  Te  Te23  1  0.855048  0.144952  0.925791  1
  Te  Te24  1  0.138637  0.861363  0.750000  1
  Te  Te25  1  0.861363  0.138637  0.250000  1
  Te  Te26  1  0.526382  0.195394  0.078759  1
  Te  Te27  1  0.473618  0.804606  0.578759  1
  Te  Te28  1  0.804606  0.473618  0.421241  1
  Te  Te29  1  0.195394  0.526382  0.921241  1
  Te  Te30  1  0.473618  0.804606  0.921241  1
  Te  Te31  1  0.526382  0.195394  0.421241  1
  Te  Te32  1  0.195394  0.526382  0.578759  1
  Te  Te33  1  0.804606  0.473618  0.078759  1
  Te  Te34  1  0.529585  0.470415  0.750000  1
  Te  Te35  1  0.470415  0.529585  0.250000  1
