# generated using pymatgen
data_Cs2Ge4O7
_symmetry_space_group_name_H-M   'P 1'
_cell_length_a   5.69392900
_cell_length_b   5.69392948
_cell_length_c   9.03237200
_cell_angle_alpha   90.00000000
_cell_angle_beta   90.00000000
_cell_angle_gamma   119.99999142
_symmetry_Int_Tables_number   1
_chemical_formula_structural   Cs2Ge4O7
_chemical_formula_sum   'Cs2 Ge4 O7'
_cell_volume   253.60430190
_cell_formula_units_Z   1
loop_
 _symmetry_equiv_pos_site_id
 _symmetry_equiv_pos_as_xyz
  1  'x, y, z'
loop_
 _atom_site_type_symbol
 _atom_site_label
 _atom_site_symmetry_multiplicity
 _atom_site_fract_x
 _atom_site_fract_y
 _atom_site_fract_z
 _atom_site_occupancy
  Cs  Cs0  1  0.333333  0.666667  0.401969  1
  Cs  Cs1  1  0.666668  0.333334  0.598031  1
  Ge  Ge2  1  0.000000  0.000000  0.194723  1
  Ge  Ge3  1  0.000000  0.000000  0.805277  1
  Ge  Ge4  1  0.666668  0.333334  0.141437  1
  Ge  Ge5  1  0.333333  0.666667  0.858563  1
  O  O6  1  0.000000  0.000000  0.000000  1
  O  O7  1  0.338544  0.168554  0.263720  1
  O  O8  1  0.831445  0.169989  0.263720  1
  O  O9  1  0.830010  0.661454  0.263720  1
  O  O10  1  0.169989  0.338545  0.736280  1
  O  O11  1  0.168555  0.830011  0.736280  1
  O  O12  1  0.661454  0.831445  0.736280  1
