# generated using pymatgen
data_LaS23
_symmetry_space_group_name_H-M   'P 1'
_cell_length_a   5.59544714
_cell_length_b   9.59366147
_cell_length_c   16.29899500
_cell_angle_alpha   82.42591977
_cell_angle_beta   85.98404499
_cell_angle_gamma   91.36398319
_symmetry_Int_Tables_number   1
_chemical_formula_structural   LaS23
_chemical_formula_sum   'La1 S23'
_cell_volume   864.69732289
_cell_formula_units_Z   1
loop_
 _symmetry_equiv_pos_site_id
 _symmetry_equiv_pos_as_xyz
  1  'x, y, z'
loop_
 _atom_site_type_symbol
 _atom_site_label
 _atom_site_symmetry_multiplicity
 _atom_site_fract_x
 _atom_site_fract_y
 _atom_site_fract_z
 _atom_site_occupancy
  La  La0  1  0.627138  0.173742  0.430010  1
  S  S1  1  0.743038  0.905569  0.397713  1
  S  S2  1  0.018587  0.302386  0.099762  1
  S  S3  1  0.781912  0.226746  0.580138  1
  S  S4  1  0.471528  0.878818  0.489702  1
  S  S5  1  0.172137  0.279800  0.983554  1
  S  S6  1  0.815878  0.741705  0.026333  1
  S  S7  1  0.141555  0.199133  0.371701  1
  S  S8  1  0.590407  0.426072  0.302205  1
  S  S9  1  0.854503  0.112691  0.152079  1
  S  S10  1  0.267115  0.875012  0.118757  1
  S  S11  1  0.701991  0.645845  0.632084  1
  S  S12  1  0.306115  0.435949  0.566184  1
  S  S13  1  0.148895  0.901805  0.860810  1
  S  S14  1  0.733568  0.140243  0.886698  1
  S  S15  1  0.063187  0.694480  0.113308  1
  S  S16  1  0.610199  0.851441  0.607608  1
  S  S17  1  0.416903  0.227388  0.595139  1
  S  S18  1  0.968465  0.716016  0.910423  1
  S  S19  1  0.924811  0.323675  0.896208  1
  S  S20  1  0.237978  0.391156  0.305508  1
  S  S21  1  0.108302  0.985603  0.207156  1
  S  S22  1  0.383539  0.531054  0.666834  1
  S  S23  1  0.912248  0.033669  0.800088  1
