# generated using pymatgen
data_LaYb4(ReN3)2
_symmetry_space_group_name_H-M   'P 1'
_cell_length_a   6.00477055
_cell_length_b   6.70461316
_cell_length_c   11.83780200
_cell_angle_alpha   90.00000000
_cell_angle_beta   103.81581262
_cell_angle_gamma   123.93650873
_symmetry_Int_Tables_number   1
_chemical_formula_structural   LaYb4(ReN3)2
_chemical_formula_sum   'La2 Yb8 Re4 N12'
_cell_volume   378.66967918
_cell_formula_units_Z   2
loop_
 _symmetry_equiv_pos_site_id
 _symmetry_equiv_pos_as_xyz
  1  'x, y, z'
loop_
 _atom_site_type_symbol
 _atom_site_label
 _atom_site_symmetry_multiplicity
 _atom_site_fract_x
 _atom_site_fract_y
 _atom_site_fract_z
 _atom_site_occupancy
  La  La0  1  0.000025  0.390316  0.749997  1
  La  La1  1  0.999975  0.609684  0.250003  1
  Yb  Yb2  1  0.105337  0.802213  0.999241  1
  Yb  Yb3  1  0.894696  0.696895  0.500781  1
  Yb  Yb4  1  0.894663  0.197787  0.000759  1
  Yb  Yb5  1  0.105304  0.303105  0.499219  1
  Yb  Yb6  1  0.328232  0.038185  0.731933  1
  Yb  Yb7  1  0.671855  0.709971  0.768087  1
  Yb  Yb8  1  0.671768  0.961815  0.268067  1
  Yb  Yb9  1  0.328145  0.290029  0.231913  1
  Re  Re10  1  0.520788  0.840746  0.530143  1
  Re  Re11  1  0.479216  0.319913  0.969865  1
  Re  Re12  1  0.479212  0.159254  0.469857  1
  Re  Re13  1  0.520784  0.680087  0.030135  1
  N  N14  1  0.894230  0.979246  0.623217  1
  N  N15  1  0.105790  0.084920  0.876807  1
  N  N16  1  0.105770  0.020754  0.376783  1
  N  N17  1  0.894210  0.915080  0.123193  1
  N  N18  1  0.270608  0.669618  0.624601  1
  N  N19  1  0.729533  0.399128  0.875393  1
  N  N20  1  0.729392  0.330382  0.375399  1
  N  N21  1  0.270467  0.600872  0.124607  1
  N  N22  1  0.568590  0.364998  0.607625  1
  N  N23  1  0.431454  0.796440  0.892315  1
  N  N24  1  0.431410  0.635002  0.392375  1
  N  N25  1  0.568546  0.203560  0.107685  1
