# generated using pymatgen
data_Ca2Nd(B3Rh4)2
_symmetry_space_group_name_H-M   'P 1'
_cell_length_a   9.92908477
_cell_length_b   9.06890122
_cell_length_c   5.62794857
_cell_angle_alpha   81.36157345
_cell_angle_beta   64.55604338
_cell_angle_gamma   34.08238698
_symmetry_Int_Tables_number   1
_chemical_formula_structural   Ca2Nd(B3Rh4)2
_chemical_formula_sum   'Ca2 Nd1 B6 Rh8'
_cell_volume   234.31455157
_cell_formula_units_Z   1
loop_
 _symmetry_equiv_pos_site_id
 _symmetry_equiv_pos_as_xyz
  1  'x, y, z'
loop_
 _atom_site_type_symbol
 _atom_site_label
 _atom_site_symmetry_multiplicity
 _atom_site_fract_x
 _atom_site_fract_y
 _atom_site_fract_z
 _atom_site_occupancy
  Ca  Ca0  1  0.314724  0.314724  0.685276  1
  Ca  Ca1  1  0.685276  0.685276  0.314724  1
  Nd  Nd2  1  0.500000  0.500000  0.500000  1
  B  B3  1  0.668971  0.987190  0.012810  1
  B  B4  1  0.987190  0.668971  0.331029  1
  B  B5  1  0.331029  0.012810  0.987190  1
  B  B6  1  0.012810  0.331029  0.668971  1
  B  B7  1  0.167275  0.832725  0.167275  1
  B  B8  1  0.832725  0.167275  0.832725  1
  Rh  Rh9  1  0.585540  0.585540  0.914460  1
  Rh  Rh10  1  0.912864  0.912864  0.087136  1
  Rh  Rh11  1  0.414460  0.414460  0.085540  1
  Rh  Rh12  1  0.085540  0.085540  0.414460  1
  Rh  Rh13  1  0.914460  0.914460  0.585540  1
  Rh  Rh14  1  0.250000  0.250000  0.250000  1
  Rh  Rh15  1  0.087136  0.087136  0.912864  1
  Rh  Rh16  1  0.750000  0.750000  0.750000  1
