# generated using pymatgen
data_KRb3Li4Zn4(P2O7)4
_symmetry_space_group_name_H-M   'P 1'
_cell_length_a   5.15802200
_cell_length_b   10.44247700
_cell_length_c   12.60045100
_cell_angle_alpha   90.00000000
_cell_angle_beta   90.00000000
_cell_angle_gamma   90.00000000
_symmetry_Int_Tables_number   1
_chemical_formula_structural   KRb3Li4Zn4(P2O7)4
_chemical_formula_sum   'K1 Rb3 Li4 Zn4 P8 O28'
_cell_volume   678.69212087
_cell_formula_units_Z   1
loop_
 _symmetry_equiv_pos_site_id
 _symmetry_equiv_pos_as_xyz
  1  'x, y, z'
loop_
 _atom_site_type_symbol
 _atom_site_label
 _atom_site_symmetry_multiplicity
 _atom_site_fract_x
 _atom_site_fract_y
 _atom_site_fract_z
 _atom_site_occupancy
  K  K0  1  0.510955  0.990944  0.500000  1
  Rb  Rb1  1  0.985837  0.765948  0.000000  1
  Rb  Rb2  1  0.508777  0.486258  0.500000  1
  Rb  Rb3  1  0.014181  0.265632  0.000000  1
  Li  Li4  1  0.036738  0.474268  0.249528  1
  Li  Li5  1  0.962288  0.974238  0.249689  1
  Li  Li6  1  0.036738  0.474268  0.750472  1
  Li  Li7  1  0.962288  0.974238  0.750311  1
  Zn  Zn8  1  0.534122  0.272656  0.748944  1
  Zn  Zn9  1  0.534122  0.272656  0.251056  1
  Zn  Zn10  1  0.466173  0.773619  0.251281  1
  Zn  Zn11  1  0.466173  0.773619  0.748719  1
  P  P12  1  0.978381  0.721130  0.382113  1
  P  P13  1  0.019995  0.217968  0.618055  1
  P  P14  1  0.978381  0.721130  0.617887  1
  P  P15  1  0.019995  0.217968  0.381945  1
  P  P16  1  0.533851  0.523514  0.118340  1
  P  P17  1  0.533851  0.523514  0.881660  1
  P  P18  1  0.466091  0.023841  0.881754  1
  P  P19  1  0.466091  0.023841  0.118246  1
  O  O20  1  0.824349  0.510818  0.871407  1
  O  O21  1  0.620073  0.932589  0.808347  1
  O  O22  1  0.317427  0.230214  0.626234  1
  O  O23  1  0.568823  0.162035  0.127371  1
  O  O24  1  0.568823  0.162035  0.872629  1
  O  O25  1  0.918622  0.082882  0.628274  1
  O  O26  1  0.118035  0.816394  0.307228  1
  O  O27  1  0.947295  0.273099  0.500000  1
  O  O28  1  0.918622  0.082882  0.371726  1
  O  O29  1  0.620073  0.932589  0.191653  1
  O  O30  1  0.824349  0.510818  0.128593  1
  O  O31  1  0.317427  0.230214  0.373766  1
  O  O32  1  0.175689  0.011509  0.128925  1
  O  O33  1  0.380303  0.432342  0.807785  1
  O  O34  1  0.070750  0.584642  0.370417  1
  O  O35  1  0.175689  0.011509  0.871075  1
  O  O36  1  0.883195  0.314928  0.692618  1
  O  O37  1  0.445079  0.476022  0.000000  1
  O  O38  1  0.431473  0.661633  0.128004  1
  O  O39  1  0.553524  0.975792  0.000000  1
  O  O40  1  0.118035  0.816394  0.692772  1
  O  O41  1  0.883195  0.314928  0.307382  1
  O  O42  1  0.070750  0.584642  0.629583  1
  O  O43  1  0.431473  0.661633  0.871996  1
  O  O44  1  0.681763  0.737876  0.624711  1
  O  O45  1  0.681763  0.737876  0.375289  1
  O  O46  1  0.058065  0.773916  0.500000  1
  O  O47  1  0.380303  0.432342  0.192215  1
