# generated using pymatgen
data_Pr17Lu3(Bi3Pb5)2
_symmetry_space_group_name_H-M   'P 1'
_cell_length_a   8.48795425
_cell_length_b   16.29171622
_cell_length_c   8.56256900
_cell_angle_alpha   90.12848528
_cell_angle_beta   89.90264790
_cell_angle_gamma   90.01039259
_symmetry_Int_Tables_number   1
_chemical_formula_structural   Pr17Lu3(Bi3Pb5)2
_chemical_formula_sum   'Pr17 Lu3 Bi6 Pb10'
_cell_volume   1184.05595215
_cell_formula_units_Z   1
loop_
 _symmetry_equiv_pos_site_id
 _symmetry_equiv_pos_as_xyz
  1  'x, y, z'
loop_
 _atom_site_type_symbol
 _atom_site_label
 _atom_site_symmetry_multiplicity
 _atom_site_fract_x
 _atom_site_fract_y
 _atom_site_fract_z
 _atom_site_occupancy
  Pr  Pr0  1  0.621248  0.618824  0.158828  1
  Pr  Pr1  1  0.121699  0.880305  0.340389  1
  Pr  Pr2  1  0.380763  0.119736  0.843399  1
  Pr  Pr3  1  0.880991  0.378438  0.657706  1
  Pr  Pr4  1  0.376672  0.380499  0.838961  1
  Pr  Pr5  1  0.876882  0.121284  0.661622  1
  Pr  Pr6  1  0.622969  0.881479  0.156936  1
  Pr  Pr7  1  0.123507  0.619434  0.341905  1
  Pr  Pr8  1  0.454994  0.604387  0.670856  1
  Pr  Pr9  1  0.954915  0.895914  0.828397  1
  Pr  Pr10  1  0.543015  0.105571  0.325561  1
  Pr  Pr11  1  0.042860  0.395677  0.175553  1
  Pr  Pr12  1  0.540171  0.394831  0.329043  1
  Pr  Pr13  1  0.039652  0.103864  0.172195  1
  Pr  Pr14  1  0.460141  0.896748  0.675830  1
  Pr  Pr15  1  0.959991  0.603009  0.823240  1
  Pr  Pr16  1  0.791216  0.750263  0.503130  1
  Lu  Lu17  1  0.289057  0.749616  0.998607  1
  Lu  Lu18  1  0.210345  0.252117  0.498755  1
  Lu  Lu19  1  0.710126  0.247930  0.001463  1
  Bi  Bi20  1  0.724200  0.448746  0.977547  1
  Bi  Bi21  1  0.223485  0.050519  0.523277  1
  Bi  Bi22  1  0.276470  0.949785  0.022801  1
  Bi  Bi23  1  0.776061  0.545332  0.474279  1
  Bi  Bi24  1  0.276972  0.550360  0.022135  1
  Bi  Bi25  1  0.776101  0.954678  0.474324  1
  Pb  Pb26  1  0.723599  0.049084  0.975666  1
  Pb  Pb27  1  0.222896  0.451600  0.524575  1
  Pb  Pb28  1  0.425256  0.750967  0.369604  1
  Pb  Pb29  1  0.929981  0.749056  0.124240  1
  Pb  Pb30  1  0.570422  0.249822  0.627981  1
  Pb  Pb31  1  0.072385  0.250141  0.874026  1
  Pb  Pb32  1  0.647063  0.749200  0.855566  1
  Pb  Pb33  1  0.155858  0.750803  0.652614  1
  Pb  Pb34  1  0.348560  0.250024  0.149940  1
  Pb  Pb35  1  0.849481  0.249957  0.349048  1
