# generated using pymatgen
data_Nd2HoEr(Ir2O7)2
_symmetry_space_group_name_H-M   'P 1'
_cell_length_a   7.31225977
_cell_length_b   7.31727051
_cell_length_c   7.36663900
_cell_angle_alpha   59.77656860
_cell_angle_beta   59.75369338
_cell_angle_gamma   59.53393093
_symmetry_Int_Tables_number   1
_chemical_formula_structural   Nd2HoEr(Ir2O7)2
_chemical_formula_sum   'Nd2 Ho1 Er1 Ir4 O14'
_cell_volume   276.73361256
_cell_formula_units_Z   1
loop_
 _symmetry_equiv_pos_site_id
 _symmetry_equiv_pos_as_xyz
  1  'x, y, z'
loop_
 _atom_site_type_symbol
 _atom_site_label
 _atom_site_symmetry_multiplicity
 _atom_site_fract_x
 _atom_site_fract_y
 _atom_site_fract_z
 _atom_site_occupancy
  Nd  Nd0  1  0.125000  0.125000  0.625000  1
  Nd  Nd1  1  0.125000  0.125000  0.125000  1
  Ho  Ho2  1  0.125000  0.625000  0.125000  1
  Er  Er3  1  0.625000  0.125000  0.125000  1
  Ir  Ir4  1  0.125000  0.625000  0.625000  1
  Ir  Ir5  1  0.625000  0.125000  0.625000  1
  Ir  Ir6  1  0.625000  0.625000  0.125000  1
  Ir  Ir7  1  0.625000  0.625000  0.625000  1
  O  O8  1  0.709848  0.710359  0.289896  1
  O  O9  1  0.289519  0.289476  0.710502  1
  O  O10  1  0.700691  0.289977  0.720223  1
  O  O11  1  0.290161  0.700812  0.289243  1
  O  O12  1  0.290161  0.700812  0.719786  1
  O  O13  1  0.700691  0.289977  0.289110  1
  O  O14  1  0.540152  0.539641  0.960104  1
  O  O15  1  0.960481  0.960524  0.539498  1
  O  O16  1  0.549309  0.960023  0.529777  1
  O  O17  1  0.959839  0.549188  0.960757  1
  O  O18  1  0.959839  0.549188  0.530214  1
  O  O19  1  0.549309  0.960023  0.960890  1
  O  O20  1  0.258648  0.257177  0.242087  1
  O  O21  1  0.991352  0.992823  0.007913  1
