# generated using pymatgen
data_YbAgF34
_symmetry_space_group_name_H-M   'P 1'
_cell_length_a   8.99776615
_cell_length_b   8.51593648
_cell_length_c   9.75832855
_cell_angle_alpha   81.10519045
_cell_angle_beta   90.39801505
_cell_angle_gamma   60.73932007
_symmetry_Int_Tables_number   1
_chemical_formula_structural   YbAgF34
_chemical_formula_sum   'Yb1 Ag1 F34'
_cell_volume   641.51435043
_cell_formula_units_Z   1
loop_
 _symmetry_equiv_pos_site_id
 _symmetry_equiv_pos_as_xyz
  1  'x, y, z'
loop_
 _atom_site_type_symbol
 _atom_site_label
 _atom_site_symmetry_multiplicity
 _atom_site_fract_x
 _atom_site_fract_y
 _atom_site_fract_z
 _atom_site_occupancy
  Yb  Yb0  1  0.039343  0.855104  0.103478  1
  Ag  Ag1  1  0.887401  0.230851  0.773094  1
  F  F2  1  0.610674  0.224540  0.491483  1
  F  F3  1  0.401089  0.778987  0.489590  1
  F  F4  1  0.823373  0.682677  0.737083  1
  F  F5  1  0.143687  0.314826  0.307214  1
  F  F6  1  0.114334  0.689616  0.886170  1
  F  F7  1  0.951565  0.182169  0.163059  1
  F  F8  1  0.552048  0.182094  0.372315  1
  F  F9  1  0.421731  0.819040  0.622708  1
  F  F10  1  0.654356  0.329646  0.700808  1
  F  F11  1  0.287912  0.857721  0.177409  1
  F  F12  1  0.961122  0.043847  0.659550  1
  F  F13  1  0.004964  0.874241  0.360354  1
  F  F14  1  0.916030  0.383181  0.623491  1
  F  F15  1  0.103291  0.686173  0.425303  1
  F  F16  1  0.806594  0.846179  0.654467  1
  F  F17  1  0.141057  0.173188  0.407029  1
  F  F18  1  0.817750  0.417988  0.887032  1
  F  F19  1  0.153888  0.562354  0.160441  1
  F  F20  1  0.228168  0.708155  0.791158  1
  F  F21  1  0.800103  0.235459  0.233952  1
  F  F22  1  0.902945  0.709263  0.099082  1
  F  F23  1  0.130866  0.129842  0.845654  1
  F  F24  1  0.863488  0.066770  0.928791  1
  F  F25  1  0.213593  0.983836  0.028043  1
  F  F26  1  0.485490  0.575717  0.033085  1
  F  F27  1  0.497140  0.408921  0.010006  1
  F  F28  1  0.478159  0.080301  0.847989  1
  F  F29  1  0.601522  0.948811  0.143384  1
  F  F30  1  0.266550  0.295172  0.590930  1
  F  F31  1  0.748223  0.712259  0.417709  1
  F  F32  1  0.277295  0.415268  0.672472  1
  F  F33  1  0.734535  0.592338  0.337938  1
  F  F34  1  0.532328  0.890385  0.862082  1
  F  F35  1  0.447381  0.113082  0.155646  1
