# generated using pymatgen
data_Nd5Co(Si2Ir3)6
_symmetry_space_group_name_H-M   'P 1'
_cell_length_a   12.91326328
_cell_length_b   12.93147537
_cell_length_c   4.00357900
_cell_angle_alpha   90.00000000
_cell_angle_beta   90.00000000
_cell_angle_gamma   120.04666080
_symmetry_Int_Tables_number   1
_chemical_formula_structural   Nd5Co(Si2Ir3)6
_chemical_formula_sum   'Nd5 Co1 Si12 Ir18'
_cell_volume   578.70698741
_cell_formula_units_Z   1
loop_
 _symmetry_equiv_pos_site_id
 _symmetry_equiv_pos_as_xyz
  1  'x, y, z'
loop_
 _atom_site_type_symbol
 _atom_site_label
 _atom_site_symmetry_multiplicity
 _atom_site_fract_x
 _atom_site_fract_y
 _atom_site_fract_z
 _atom_site_occupancy
  Nd  Nd0  1  0.000000  0.813879  0.500000  1
  Nd  Nd1  1  0.184569  0.186401  0.500000  1
  Nd  Nd2  1  0.815431  0.001832  0.500000  1
  Nd  Nd3  1  0.331687  0.664667  0.000000  1
  Nd  Nd4  1  0.668313  0.332980  0.000000  1
  Co  Co5  1  0.000000  0.284999  0.500000  1
  Si  Si6  1  0.000000  0.189085  0.000000  1
  Si  Si7  1  0.817112  0.817595  0.000000  1
  Si  Si8  1  0.182888  0.000482  0.000000  1
  Si  Si9  1  0.519581  0.687821  0.500000  1
  Si  Si10  1  0.311464  0.831683  0.500000  1
  Si  Si11  1  0.160739  0.473779  0.500000  1
  Si  Si12  1  0.480419  0.168240  0.500000  1
  Si  Si13  1  0.688536  0.520219  0.500000  1
  Si  Si14  1  0.839261  0.313040  0.500000  1
  Si  Si15  1  0.000000  0.627942  0.000000  1
  Si  Si16  1  0.369652  0.369847  0.000000  1
  Si  Si17  1  0.630348  0.000195  0.000000  1
  Ir  Ir18  1  0.716093  0.716122  0.500000  1
  Ir  Ir19  1  0.283907  0.000029  0.500000  1
  Ir  Ir20  1  0.622256  0.804928  0.000000  1
  Ir  Ir21  1  0.194712  0.817097  0.000000  1
  Ir  Ir22  1  0.179328  0.376058  0.000000  1
  Ir  Ir23  1  0.377744  0.182671  0.000000  1
  Ir  Ir24  1  0.805288  0.622385  0.000000  1
  Ir  Ir25  1  0.820672  0.196731  0.000000  1
  Ir  Ir26  1  0.512549  0.874809  0.500000  1
  Ir  Ir27  1  0.124970  0.637166  0.500000  1
  Ir  Ir28  1  0.359660  0.486046  0.500000  1
  Ir  Ir29  1  0.487451  0.362259  0.500000  1
  Ir  Ir30  1  0.875030  0.512195  0.500000  1
  Ir  Ir31  1  0.640340  0.126385  0.500000  1
  Ir  Ir32  1  0.000000  0.003398  0.000000  1
  Ir  Ir33  1  0.000000  0.443350  0.000000  1
  Ir  Ir34  1  0.552807  0.553247  0.000000  1
  Ir  Ir35  1  0.447193  0.000440  0.000000  1
