# generated using pymatgen
data_U2Be2C3
_symmetry_space_group_name_H-M   'P 1'
_cell_length_a   3.20390600
_cell_length_b   4.86713100
_cell_length_c   10.55898200
_cell_angle_alpha   90.00000000
_cell_angle_beta   90.00000000
_cell_angle_gamma   90.00000000
_symmetry_Int_Tables_number   1
_chemical_formula_structural   U2Be2C3
_chemical_formula_sum   'U4 Be4 C6'
_cell_volume   164.65497254
_cell_formula_units_Z   2
loop_
 _symmetry_equiv_pos_site_id
 _symmetry_equiv_pos_as_xyz
  1  'x, y, z'
loop_
 _atom_site_type_symbol
 _atom_site_label
 _atom_site_symmetry_multiplicity
 _atom_site_fract_x
 _atom_site_fract_y
 _atom_site_fract_z
 _atom_site_occupancy
  U  U0  1  0.500000  0.810719  0.143350  1
  U  U1  1  0.000000  0.310719  0.356650  1
  U  U2  1  0.000000  0.689281  0.643350  1
  U  U3  1  0.500000  0.189281  0.856650  1
  Be  Be4  1  0.500000  0.798457  0.404995  1
  Be  Be5  1  0.000000  0.298457  0.095005  1
  Be  Be6  1  0.500000  0.201543  0.595005  1
  Be  Be7  1  0.000000  0.701543  0.904995  1
  C  C8  1  0.000000  0.186144  0.686236  1
  C  C9  1  0.500000  0.686144  0.813764  1
  C  C10  1  0.000000  0.813856  0.313764  1
  C  C11  1  0.000000  0.000000  0.000000  1
  C  C12  1  0.500000  0.313856  0.186236  1
  C  C13  1  0.500000  0.500000  0.500000  1
