# generated using pymatgen
data_SrCdBi2O7
_symmetry_space_group_name_H-M   'P 1'
_cell_length_a   7.79425236
_cell_length_b   7.79425234
_cell_length_c   7.79425205
_cell_angle_alpha   119.48191697
_cell_angle_beta   121.26429621
_cell_angle_gamma   89.36197982
_symmetry_Int_Tables_number   1
_chemical_formula_structural   SrCdBi2O7
_chemical_formula_sum   'Sr2 Cd2 Bi4 O14'
_cell_volume   332.80499763
_cell_formula_units_Z   2
loop_
 _symmetry_equiv_pos_site_id
 _symmetry_equiv_pos_as_xyz
  1  'x, y, z'
loop_
 _atom_site_type_symbol
 _atom_site_label
 _atom_site_symmetry_multiplicity
 _atom_site_fract_x
 _atom_site_fract_y
 _atom_site_fract_z
 _atom_site_occupancy
  Sr  Sr0  1  0.000000  0.000000  0.500000  1
  Sr  Sr1  1  0.000000  0.500000  0.000000  1
  Cd  Cd2  1  0.000000  0.000000  0.000000  1
  Cd  Cd3  1  0.500000  0.500000  0.000000  1
  Bi  Bi4  1  0.500000  0.000000  0.000000  1
  Bi  Bi5  1  0.500000  0.500000  0.500000  1
  Bi  Bi6  1  0.500000  0.000000  0.500000  1
  Bi  Bi7  1  0.000000  0.500000  0.500000  1
  O  O8  1  0.429788  0.092851  0.761905  1
  O  O9  1  0.570212  0.332117  0.663062  1
  O  O10  1  0.169055  0.407149  0.336938  1
  O  O11  1  0.830945  0.167883  0.238095  1
  O  O12  1  0.570212  0.907149  0.238095  1
  O  O13  1  0.429788  0.667883  0.336938  1
  O  O14  1  0.830945  0.592851  0.663062  1
  O  O15  1  0.169055  0.832117  0.761905  1
  O  O16  1  0.609063  0.750000  0.859063  1
  O  O17  1  0.390937  0.250000  0.140937  1
  O  O18  1  0.162829  0.910149  0.252681  1
  O  O19  1  0.837171  0.089851  0.747319  1
  O  O20  1  0.842531  0.589851  0.252681  1
  O  O21  1  0.157469  0.410149  0.747319  1
