# generated using pymatgen
data_Dy5P12IrRuRh17
_symmetry_space_group_name_H-M   'P 1'
_cell_length_a   12.65658200
_cell_length_b   12.69253508
_cell_length_c   3.93501500
_cell_angle_alpha   90.00000000
_cell_angle_beta   90.00000000
_cell_angle_gamma   119.90634196
_symmetry_Int_Tables_number   1
_chemical_formula_structural   Dy5P12IrRuRh17
_chemical_formula_sum   'Dy5 P12 Ir1 Ru1 Rh17'
_cell_volume   547.96261609
_cell_formula_units_Z   1
loop_
 _symmetry_equiv_pos_site_id
 _symmetry_equiv_pos_as_xyz
  1  'x, y, z'
loop_
 _atom_site_type_symbol
 _atom_site_label
 _atom_site_symmetry_multiplicity
 _atom_site_fract_x
 _atom_site_fract_y
 _atom_site_fract_z
 _atom_site_occupancy
  Dy  Dy0  1  0.332945  0.666077  0.500000  1
  Dy  Dy1  1  0.666869  0.333923  0.500000  1
  Dy  Dy2  1  0.001915  0.815663  0.000000  1
  Dy  Dy3  1  0.186250  0.184337  0.000000  1
  Dy  Dy4  1  0.813899  0.000000  0.000000  1
  P  P5  1  0.000380  0.636532  0.500000  1
  P  P6  1  0.363849  0.363468  0.500000  1
  P  P7  1  0.636030  0.000000  0.500000  1
  P  P8  1  0.517573  0.685130  0.000000  1
  P  P9  1  0.313758  0.833210  0.000000  1
  P  P10  1  0.167515  0.482315  0.000000  1
  P  P11  1  0.480548  0.166790  0.000000  1
  P  P12  1  0.685200  0.517685  0.000000  1
  P  P13  1  0.832444  0.314870  0.000000  1
  P  P14  1  0.000302  0.180142  0.500000  1
  P  P15  1  0.820160  0.819858  0.500000  1
  P  P16  1  0.182125  0.000000  0.500000  1
  Ir  Ir17  1  0.999878  0.000000  0.500000  1
  Ru  Ru18  1  0.284185  0.000000  0.000000  1
  Rh  Rh19  1  0.509333  0.867755  0.000000  1
  Rh  Rh20  1  0.131287  0.641970  0.000000  1
  Rh  Rh21  1  0.358077  0.490300  0.000000  1
  Rh  Rh22  1  0.489319  0.358030  0.000000  1
  Rh  Rh23  1  0.867778  0.509700  0.000000  1
  Rh  Rh24  1  0.641578  0.132245  0.000000  1
  Rh  Rh25  1  0.998915  0.454886  0.500000  1
  Rh  Rh26  1  0.544029  0.545114  0.500000  1
  Rh  Rh27  1  0.453728  0.000000  0.500000  1
  Rh  Rh28  1  0.000197  0.282489  0.000000  1
  Rh  Rh29  1  0.717707  0.717511  0.000000  1
  Rh  Rh30  1  0.624167  0.804998  0.500000  1
  Rh  Rh31  1  0.196047  0.818995  0.500000  1
  Rh  Rh32  1  0.180682  0.375575  0.500000  1
  Rh  Rh33  1  0.377053  0.181005  0.500000  1
  Rh  Rh34  1  0.805107  0.624425  0.500000  1
  Rh  Rh35  1  0.819170  0.195002  0.500000  1
