# generated using pymatgen
data_Hf18Nb2FeRe6P
_symmetry_space_group_name_H-M   'P 1'
_cell_length_a   8.60626666
_cell_length_b   8.62048476
_cell_length_c   8.61917200
_cell_angle_alpha   90.00000000
_cell_angle_beta   90.00000000
_cell_angle_gamma   120.05465952
_symmetry_Int_Tables_number   1
_chemical_formula_structural   Hf18Nb2FeRe6P
_chemical_formula_sum   'Hf18 Nb2 Fe1 Re6 P1'
_cell_volume   553.48161418
_cell_formula_units_Z   1
loop_
 _symmetry_equiv_pos_site_id
 _symmetry_equiv_pos_as_xyz
  1  'x, y, z'
loop_
 _atom_site_type_symbol
 _atom_site_label
 _atom_site_symmetry_multiplicity
 _atom_site_fract_x
 _atom_site_fract_y
 _atom_site_fract_z
 _atom_site_occupancy
  Hf  Hf0  1  0.196795  0.804224  0.455326  1
  Hf  Hf1  1  0.196795  0.392571  0.455326  1
  Hf  Hf2  1  0.605916  0.802957  0.457597  1
  Hf  Hf3  1  0.799031  0.201741  0.561028  1
  Hf  Hf4  1  0.799031  0.597289  0.561028  1
  Hf  Hf5  1  0.400966  0.200483  0.559396  1
  Hf  Hf6  1  0.799031  0.201741  0.938972  1
  Hf  Hf7  1  0.799031  0.597289  0.938972  1
  Hf  Hf8  1  0.400966  0.200483  0.940604  1
  Hf  Hf9  1  0.196795  0.804224  0.044674  1
  Hf  Hf10  1  0.196795  0.392571  0.044674  1
  Hf  Hf11  1  0.605916  0.802957  0.042403  1
  Hf  Hf12  1  0.530825  0.459867  0.250000  1
  Hf  Hf13  1  0.530825  0.070957  0.250000  1
  Hf  Hf14  1  0.932125  0.466063  0.250000  1
  Hf  Hf15  1  0.458923  0.539697  0.750000  1
  Hf  Hf16  1  0.458923  0.919226  0.750000  1
  Hf  Hf17  1  0.083145  0.541573  0.750000  1
  Nb  Nb18  1  0.891469  0.113837  0.250000  1
  Nb  Nb19  1  0.891469  0.777632  0.250000  1
  Fe  Fe20  1  0.664337  0.332168  0.750000  1
  Re  Re21  1  0.226188  0.113094  0.250000  1
  Re  Re22  1  0.110812  0.889707  0.750000  1
  Re  Re23  1  0.110812  0.221105  0.750000  1
  Re  Re24  1  0.778250  0.889125  0.750000  1
  Re  Re25  1  0.000771  0.000385  0.500702  1
  Re  Re26  1  0.000771  0.000385  0.999298  1
  P  P27  1  0.333291  0.666646  0.250000  1
