# generated using pymatgen
data_Ho3Co7(NiP3)2
_symmetry_space_group_name_H-M   'P 1'
_cell_length_a   3.71830700
_cell_length_b   10.50341100
_cell_length_c   12.21484600
_cell_angle_alpha   90.00000000
_cell_angle_beta   90.00000000
_cell_angle_gamma   90.00000000
_symmetry_Int_Tables_number   1
_chemical_formula_structural   Ho3Co7(NiP3)2
_chemical_formula_sum   'Ho6 Co14 Ni4 P12'
_cell_volume   477.04967022
_cell_formula_units_Z   2
loop_
 _symmetry_equiv_pos_site_id
 _symmetry_equiv_pos_as_xyz
  1  'x, y, z'
loop_
 _atom_site_type_symbol
 _atom_site_label
 _atom_site_symmetry_multiplicity
 _atom_site_fract_x
 _atom_site_fract_y
 _atom_site_fract_z
 _atom_site_occupancy
  Ho  Ho0  1  0.000000  0.500000  0.521191  1
  Ho  Ho1  1  0.500000  0.000000  0.478809  1
  Ho  Ho2  1  0.500000  0.815328  0.205903  1
  Ho  Ho3  1  0.500000  0.184672  0.205903  1
  Ho  Ho4  1  0.000000  0.684672  0.794097  1
  Ho  Ho5  1  0.000000  0.315328  0.794097  1
  Co  Co6  1  0.000000  0.500000  0.984324  1
  Co  Co7  1  0.500000  0.000000  0.015676  1
  Co  Co8  1  0.500000  0.334216  0.995966  1
  Co  Co9  1  0.500000  0.665784  0.995966  1
  Co  Co10  1  0.000000  0.165784  0.004034  1
  Co  Co11  1  0.000000  0.834216  0.004034  1
  Co  Co12  1  0.500000  0.298719  0.430203  1
  Co  Co13  1  0.500000  0.701281  0.430203  1
  Co  Co14  1  0.000000  0.201281  0.569797  1
  Co  Co15  1  0.000000  0.798719  0.569797  1
  Co  Co16  1  0.500000  0.879288  0.710539  1
  Co  Co17  1  0.500000  0.120712  0.710539  1
  Co  Co18  1  0.000000  0.620712  0.289461  1
  Co  Co19  1  0.000000  0.379288  0.289461  1
  Ni  Ni20  1  0.500000  0.500000  0.162075  1
  Ni  Ni21  1  0.000000  0.000000  0.837925  1
  Ni  Ni22  1  0.500000  0.500000  0.702782  1
  Ni  Ni23  1  0.000000  0.000000  0.297218  1
  P  P24  1  0.500000  0.500000  0.882479  1
  P  P25  1  0.000000  0.000000  0.117521  1
  P  P26  1  0.500000  0.500000  0.346627  1
  P  P27  1  0.000000  0.000000  0.653373  1
  P  P28  1  0.500000  0.310216  0.615359  1
  P  P29  1  0.500000  0.689784  0.615359  1
  P  P30  1  0.000000  0.189784  0.384641  1
  P  P31  1  0.000000  0.810216  0.384641  1
  P  P32  1  0.500000  0.846320  0.894761  1
  P  P33  1  0.500000  0.153680  0.894761  1
  P  P34  1  0.000000  0.653680  0.105239  1
  P  P35  1  0.000000  0.346320  0.105239  1
