# generated using pymatgen
data_YbTm(Ni7B2)3
_symmetry_space_group_name_H-M   'P 1'
_cell_length_a   7.49762276
_cell_length_b   7.49762303
_cell_length_c   7.49762400
_cell_angle_alpha   60.00000453
_cell_angle_beta   60.00000336
_cell_angle_gamma   60.00000596
_symmetry_Int_Tables_number   1
_chemical_formula_structural   YbTm(Ni7B2)3
_chemical_formula_sum   'Yb1 Tm1 Ni21 B6'
_cell_volume   298.02719197
_cell_formula_units_Z   1
loop_
 _symmetry_equiv_pos_site_id
 _symmetry_equiv_pos_as_xyz
  1  'x, y, z'
loop_
 _atom_site_type_symbol
 _atom_site_label
 _atom_site_symmetry_multiplicity
 _atom_site_fract_x
 _atom_site_fract_y
 _atom_site_fract_z
 _atom_site_occupancy
  Yb  Yb0  1  0.250000  0.250000  0.250000  1
  Tm  Tm1  1  0.750000  0.750000  0.750000  1
  Ni  Ni2  1  0.000000  0.000000  0.000000  1
  Ni  Ni3  1  0.611760  0.611760  0.164718  1
  Ni  Ni4  1  0.611760  0.164718  0.611760  1
  Ni  Ni5  1  0.164718  0.611760  0.611760  1
  Ni  Ni6  1  0.611760  0.611760  0.611760  1
  Ni  Ni7  1  0.384961  0.384961  0.845118  1
  Ni  Ni8  1  0.384961  0.845118  0.384961  1
  Ni  Ni9  1  0.845118  0.384961  0.384961  1
  Ni  Ni10  1  0.384961  0.384961  0.384961  1
  Ni  Ni11  1  0.000052  0.000052  0.337150  1
  Ni  Ni12  1  0.662745  0.000052  0.337150  1
  Ni  Ni13  1  0.000052  0.662745  0.337150  1
  Ni  Ni14  1  0.662745  0.337150  0.000052  1
  Ni  Ni15  1  0.000052  0.337150  0.000052  1
  Ni  Ni16  1  0.000052  0.337150  0.662745  1
  Ni  Ni17  1  0.337150  0.662745  0.000052  1
  Ni  Ni18  1  0.337150  0.000052  0.662745  1
  Ni  Ni19  1  0.337150  0.000052  0.000052  1
  Ni  Ni20  1  0.000052  0.000052  0.662745  1
  Ni  Ni21  1  0.000052  0.662745  0.000052  1
  Ni  Ni22  1  0.662745  0.000052  0.000052  1
  B  B23  1  0.728989  0.728989  0.271011  1
  B  B24  1  0.271011  0.728989  0.271011  1
  B  B25  1  0.728989  0.271011  0.271011  1
  B  B26  1  0.271011  0.271011  0.728989  1
  B  B27  1  0.728989  0.271011  0.728989  1
  B  B28  1  0.271011  0.728989  0.728989  1
