# generated using pymatgen
data_Ce4ScPb3
_symmetry_space_group_name_H-M   'P 1'
_cell_length_a   9.16507102
_cell_length_b   9.16511368
_cell_length_c   9.16507431
_cell_angle_alpha   96.71367287
_cell_angle_beta   96.75135463
_cell_angle_gamma   139.95395968
_symmetry_Int_Tables_number   1
_chemical_formula_structural   Ce4ScPb3
_chemical_formula_sum   'Ce8 Sc2 Pb6'
_cell_volume   465.38875480
_cell_formula_units_Z   2
loop_
 _symmetry_equiv_pos_site_id
 _symmetry_equiv_pos_as_xyz
  1  'x, y, z'
loop_
 _atom_site_type_symbol
 _atom_site_label
 _atom_site_symmetry_multiplicity
 _atom_site_fract_x
 _atom_site_fract_y
 _atom_site_fract_z
 _atom_site_occupancy
  Ce  Ce0  1  0.098612  0.236698  0.335329  1
  Ce  Ce1  1  0.901388  0.763302  0.664671  1
  Ce  Ce2  1  0.763099  0.098928  0.862039  1
  Ce  Ce3  1  0.401367  0.736698  0.138086  1
  Ce  Ce4  1  0.236901  0.901072  0.137961  1
  Ce  Ce5  1  0.598633  0.263302  0.861914  1
  Ce  Ce6  1  0.736889  0.598928  0.335827  1
  Ce  Ce7  1  0.263111  0.401072  0.664173  1
  Sc  Sc8  1  0.249994  0.750000  0.499994  1
  Sc  Sc9  1  0.750006  0.250000  0.500006  1
  Pb  Pb10  1  0.149459  0.649491  0.798946  1
  Pb  Pb11  1  0.850541  0.350509  0.201054  1
  Pb  Pb12  1  0.350545  0.149491  0.500032  1
  Pb  Pb13  1  0.649455  0.850509  0.499968  1
  Pb  Pb14  1  0.250000  0.250000  0.000000  1
  Pb  Pb15  1  0.750000  0.750000  0.000000  1
