# generated using pymatgen
data_LiNd16Co4Hg3
_symmetry_space_group_name_H-M   'P 1'
_cell_length_a   9.82007878
_cell_length_b   9.80304714
_cell_length_c   9.80304800
_cell_angle_alpha   60.00000386
_cell_angle_beta   60.05735974
_cell_angle_gamma   60.05735191
_symmetry_Int_Tables_number   1
_chemical_formula_structural   LiNd16Co4Hg3
_chemical_formula_sum   'Li1 Nd16 Co4 Hg3'
_cell_volume   667.87958377
_cell_formula_units_Z   1
loop_
 _symmetry_equiv_pos_site_id
 _symmetry_equiv_pos_as_xyz
  1  'x, y, z'
loop_
 _atom_site_type_symbol
 _atom_site_label
 _atom_site_symmetry_multiplicity
 _atom_site_fract_x
 _atom_site_fract_y
 _atom_site_fract_z
 _atom_site_occupancy
  Li  Li0  1  0.201914  0.932695  0.932695  1
  Nd  Nd1  1  0.939169  0.938087  0.561371  1
  Nd  Nd2  1  0.562043  0.937659  0.562639  1
  Nd  Nd3  1  0.562043  0.937659  0.937659  1
  Nd  Nd4  1  0.692077  0.689367  0.309279  1
  Nd  Nd5  1  0.154437  0.154109  0.537344  1
  Nd  Nd6  1  0.314135  0.686495  0.686495  1
  Nd  Nd7  1  0.154437  0.154109  0.154109  1
  Nd  Nd8  1  0.542609  0.152463  0.152463  1
  Nd  Nd9  1  0.314135  0.686495  0.312876  1
  Nd  Nd10  1  0.314135  0.312876  0.686495  1
  Nd  Nd11  1  0.692077  0.309279  0.689367  1
  Nd  Nd12  1  0.939169  0.561371  0.561371  1
  Nd  Nd13  1  0.562043  0.562639  0.937659  1
  Nd  Nd14  1  0.154437  0.537344  0.154109  1
  Nd  Nd15  1  0.692077  0.309279  0.309279  1
  Nd  Nd16  1  0.939169  0.561371  0.938087  1
  Co  Co17  1  0.924098  0.358634  0.358634  1
  Co  Co18  1  0.360758  0.359098  0.921046  1
  Co  Co19  1  0.360758  0.921046  0.359098  1
  Co  Co20  1  0.360758  0.359098  0.359098  1
  Hg  Hg21  1  0.921175  0.914863  0.914863  1
  Hg  Hg22  1  0.921175  0.914863  0.249097  1
  Hg  Hg23  1  0.921175  0.249097  0.914863  1
