# generated using pymatgen
data_Yb5Th3SnPd24
_symmetry_space_group_name_H-M   'P 1'
_cell_length_a   8.43036838
_cell_length_b   8.43036838
_cell_length_c   8.41058430
_cell_angle_alpha   89.92830795
_cell_angle_beta   89.92830795
_cell_angle_gamma   89.95215852
_symmetry_Int_Tables_number   1
_chemical_formula_structural   Yb5Th3SnPd24
_chemical_formula_sum   'Yb5 Th3 Sn1 Pd24'
_cell_volume   597.74842688
_cell_formula_units_Z   1
loop_
 _symmetry_equiv_pos_site_id
 _symmetry_equiv_pos_as_xyz
  1  'x, y, z'
loop_
 _atom_site_type_symbol
 _atom_site_label
 _atom_site_symmetry_multiplicity
 _atom_site_fract_x
 _atom_site_fract_y
 _atom_site_fract_z
 _atom_site_occupancy
  Yb  Yb0  1  0.748763  0.251679  0.749427  1
  Yb  Yb1  1  0.251602  0.251602  0.747723  1
  Yb  Yb2  1  0.250811  0.748153  0.250665  1
  Yb  Yb3  1  0.251679  0.748763  0.749427  1
  Yb  Yb4  1  0.748153  0.250811  0.250665  1
  Th  Th5  1  0.255856  0.255856  0.256737  1
  Th  Th6  1  0.743962  0.743962  0.745083  1
  Th  Th7  1  0.746566  0.746566  0.254404  1
  Sn  Sn8  1  0.001618  0.001618  0.998092  1
  Pd  Pd9  1  0.265608  0.500492  0.999177  1
  Pd  Pd10  1  0.734827  0.499019  0.002282  1
  Pd  Pd11  1  0.997406  0.265746  0.500207  1
  Pd  Pd12  1  0.500492  0.265608  0.999177  1
  Pd  Pd13  1  0.002849  0.734326  0.498976  1
  Pd  Pd14  1  0.499019  0.734827  0.002282  1
  Pd  Pd15  1  0.500392  0.998255  0.264963  1
  Pd  Pd16  1  0.265746  0.997406  0.500207  1
  Pd  Pd17  1  0.499762  0.001133  0.734313  1
  Pd  Pd18  1  0.734326  0.002849  0.498976  1
  Pd  Pd19  1  0.998255  0.500392  0.264963  1
  Pd  Pd20  1  0.001133  0.499762  0.734313  1
  Pd  Pd21  1  0.254679  0.502353  0.501582  1
  Pd  Pd22  1  0.744784  0.496347  0.498499  1
  Pd  Pd23  1  0.502353  0.254679  0.501582  1
  Pd  Pd24  1  0.496347  0.744784  0.498499  1
  Pd  Pd25  1  0.501423  0.501423  0.255164  1
  Pd  Pd26  1  0.498572  0.498572  0.745782  1
  Pd  Pd27  1  0.309785  0.998844  0.998695  1
  Pd  Pd28  1  0.691063  0.002636  0.000309  1
  Pd  Pd29  1  0.998844  0.309785  0.998695  1
  Pd  Pd30  1  0.002636  0.691063  0.000309  1
  Pd  Pd31  1  0.999605  0.999605  0.309571  1
  Pd  Pd32  1  0.001082  0.001082  0.689251  1
