# generated using pymatgen
data_SrLaAl20(IrRu)2
_symmetry_space_group_name_H-M   'P 1'
_cell_length_a   6.92662231
_cell_length_b   6.92166632
_cell_length_c   9.23476400
_cell_angle_alpha   90.00000000
_cell_angle_beta   90.00000000
_cell_angle_gamma   96.91887719
_symmetry_Int_Tables_number   1
_chemical_formula_structural   SrLaAl20(IrRu)2
_chemical_formula_sum   'Sr1 La1 Al20 Ir2 Ru2'
_cell_volume   439.52515548
_cell_formula_units_Z   1
loop_
 _symmetry_equiv_pos_site_id
 _symmetry_equiv_pos_as_xyz
  1  'x, y, z'
loop_
 _atom_site_type_symbol
 _atom_site_label
 _atom_site_symmetry_multiplicity
 _atom_site_fract_x
 _atom_site_fract_y
 _atom_site_fract_z
 _atom_site_occupancy
  Sr  Sr0  1  0.877784  0.121270  0.750000  1
  La  La1  1  0.124351  0.878633  0.250000  1
  Al  Al2  1  0.619936  0.376729  0.547554  1
  Al  Al3  1  0.380302  0.622641  0.445964  1
  Al  Al4  1  0.380302  0.622641  0.054036  1
  Al  Al5  1  0.619936  0.376729  0.952446  1
  Al  Al6  1  0.227602  0.226293  0.499531  1
  Al  Al7  1  0.770627  0.775542  0.500561  1
  Al  Al8  1  0.770627  0.775542  0.999439  1
  Al  Al9  1  0.227602  0.226293  0.000469  1
  Al  Al10  1  0.839030  0.158732  0.102228  1
  Al  Al11  1  0.164223  0.837755  0.897507  1
  Al  Al12  1  0.164223  0.837755  0.602493  1
  Al  Al13  1  0.839030  0.158732  0.397772  1
  Al  Al14  1  0.857144  0.589854  0.750000  1
  Al  Al15  1  0.140769  0.409292  0.250000  1
  Al  Al16  1  0.412241  0.141398  0.750000  1
  Al  Al17  1  0.589008  0.861290  0.250000  1
  Al  Al18  1  0.224223  0.480879  0.750000  1
  Al  Al19  1  0.775278  0.517450  0.250000  1
  Al  Al20  1  0.519564  0.777647  0.750000  1
  Al  Al21  1  0.482235  0.223024  0.250000  1
  Ir  Ir22  1  0.999398  0.502075  0.499385  1
  Ir  Ir23  1  0.999398  0.502075  0.000615  1
  Ru  Ru24  1  0.497583  0.999866  0.000636  1
  Ru  Ru25  1  0.497583  0.999866  0.499364  1
