# generated using pymatgen
data_NdTi2(NbSn)4
_symmetry_space_group_name_H-M   'P 1'
_cell_length_a   8.54001188
_cell_length_b   8.26563303
_cell_length_c   8.54001255
_cell_angle_alpha   40.38822335
_cell_angle_beta   40.76526506
_cell_angle_gamma   40.38821652
_symmetry_Int_Tables_number   1
_chemical_formula_structural   NdTi2(NbSn)4
_chemical_formula_sum   'Nd1 Ti2 Nb4 Sn4'
_cell_volume   229.44124599
_cell_formula_units_Z   1
loop_
 _symmetry_equiv_pos_site_id
 _symmetry_equiv_pos_as_xyz
  1  'x, y, z'
loop_
 _atom_site_type_symbol
 _atom_site_label
 _atom_site_symmetry_multiplicity
 _atom_site_fract_x
 _atom_site_fract_y
 _atom_site_fract_z
 _atom_site_occupancy
  Nd  Nd0  1  0.993144  0.000000  0.006856  1
  Ti  Ti1  1  0.105119  0.622432  0.584514  1
  Ti  Ti2  1  0.415487  0.377568  0.894882  1
  Nb  Nb3  1  0.585820  0.620368  0.108463  1
  Nb  Nb4  1  0.891536  0.379633  0.414181  1
  Nb  Nb5  1  0.413429  0.846060  0.406670  1
  Nb  Nb6  1  0.593330  0.153940  0.586572  1
  Sn  Sn7  1  0.122728  0.151338  0.111265  1
  Sn  Sn8  1  0.330965  0.323258  0.340292  1
  Sn  Sn9  1  0.659708  0.676742  0.669035  1
  Sn  Sn10  1  0.888735  0.848662  0.877272  1
