# generated using pymatgen
data_Be7Al3ReNi
_symmetry_space_group_name_H-M   'P 1'
_cell_length_a   4.40990600
_cell_length_b   4.40990546
_cell_length_c   7.26257800
_cell_angle_alpha   90.00000000
_cell_angle_beta   90.00000000
_cell_angle_gamma   120.00000406
_symmetry_Int_Tables_number   1
_chemical_formula_structural   Be7Al3ReNi
_chemical_formula_sum   'Be7 Al3 Re1 Ni1'
_cell_volume   122.31508883
_cell_formula_units_Z   1
loop_
 _symmetry_equiv_pos_site_id
 _symmetry_equiv_pos_as_xyz
  1  'x, y, z'
loop_
 _atom_site_type_symbol
 _atom_site_label
 _atom_site_symmetry_multiplicity
 _atom_site_fract_x
 _atom_site_fract_y
 _atom_site_fract_z
 _atom_site_occupancy
  Be  Be0  1  0.000000  0.000000  0.495566  1
  Be  Be1  1  0.834871  0.669742  0.256756  1
  Be  Be2  1  0.168445  0.831555  0.741166  1
  Be  Be3  1  0.663110  0.831555  0.741166  1
  Be  Be4  1  0.330258  0.165129  0.256756  1
  Be  Be5  1  0.834871  0.165129  0.256756  1
  Be  Be6  1  0.168445  0.336890  0.741166  1
  Al  Al7  1  0.333333  0.666667  0.081404  1
  Al  Al8  1  0.666667  0.333333  0.544591  1
  Al  Al9  1  0.666667  0.333333  0.943530  1
  Re  Re10  1  0.333333  0.666667  0.450846  1
  Ni  Ni11  1  0.000000  0.000000  0.990297  1
