# generated using pymatgen
data_Cs4TlIn3P12(HO10)4
_symmetry_space_group_name_H-M   'P 1'
_cell_length_a   9.10081600
_cell_length_b   9.67247076
_cell_length_c   12.33402700
_cell_angle_alpha   68.68708595
_cell_angle_beta   90.00045329
_cell_angle_gamma   89.99881417
_symmetry_Int_Tables_number   1
_chemical_formula_structural   Cs4TlIn3P12(HO10)4
_chemical_formula_sum   'Cs4 Tl1 In3 P12 H4 O40'
_cell_volume   1011.47809822
_cell_formula_units_Z   1
loop_
 _symmetry_equiv_pos_site_id
 _symmetry_equiv_pos_as_xyz
  1  'x, y, z'
loop_
 _atom_site_type_symbol
 _atom_site_label
 _atom_site_symmetry_multiplicity
 _atom_site_fract_x
 _atom_site_fract_y
 _atom_site_fract_z
 _atom_site_occupancy
  Cs  Cs0  1  0.563691  0.250086  0.499796  1
  Cs  Cs1  1  0.063628  0.249878  0.000345  1
  Cs  Cs2  1  0.436502  0.750137  0.499663  1
  Cs  Cs3  1  0.936247  0.749875  0.000183  1
  Tl  Tl4  1  0.749969  0.500026  0.750004  1
  In  In5  1  0.749962  0.000095  0.249931  1
  In  In6  1  0.250060  0.499889  0.250057  1
  In  In7  1  0.250014  0.999975  0.750050  1
  P  P8  1  0.118115  0.249810  0.499539  1
  P  P9  1  0.617266  0.248850  0.001750  1
  P  P10  1  0.882744  0.751220  0.498220  1
  P  P11  1  0.381887  0.750132  0.000499  1
  P  P12  1  0.936590  0.190511  0.712455  1
  P  P13  1  0.434289  0.192670  0.213349  1
  P  P14  1  0.935025  0.306677  0.287295  1
  P  P15  1  0.432793  0.305968  0.787706  1
  P  P16  1  0.065621  0.807258  0.286612  1
  P  P17  1  0.563432  0.809522  0.787552  1
  P  P18  1  0.067171  0.694090  0.712281  1
  P  P19  1  0.565010  0.693308  0.212714  1
  H  H20  1  0.249739  0.999671  0.250165  1
  H  H21  1  0.750108  0.000130  0.749920  1
  H  H22  1  0.750025  0.499962  0.250023  1
  H  H23  1  0.249938  0.500107  0.749947  1
  O  O24  1  0.011719  0.209293  0.412424  1
  O  O25  1  0.513367  0.211288  0.911578  1
  O  O26  1  0.011902  0.289909  0.587418  1
  O  O27  1  0.509808  0.289266  0.087986  1
  O  O28  1  0.986658  0.788787  0.588388  1
  O  O29  1  0.488308  0.790672  0.087587  1
  O  O30  1  0.990281  0.710785  0.412014  1
  O  O31  1  0.488053  0.710074  0.912578  1
  O  O32  1  0.813789  0.103742  0.679931  1
  O  O33  1  0.312625  0.104748  0.181000  1
  O  O34  1  0.813080  0.394910  0.319282  1
  O  O35  1  0.311764  0.394633  0.820148  1
  O  O36  1  0.187319  0.895251  0.318998  1
  O  O37  1  0.686241  0.896240  0.820056  1
  O  O38  1  0.188215  0.605424  0.679823  1
  O  O39  1  0.686946  0.605051  0.180747  1
  O  O40  1  0.885768  0.301505  0.765369  1
  O  O41  1  0.380356  0.307198  0.261611  1
  O  O42  1  0.880885  0.192434  0.238748  1
  O  O43  1  0.378157  0.190531  0.741081  1
  O  O44  1  0.119706  0.692753  0.238416  1
  O  O45  1  0.614175  0.698521  0.734599  1
  O  O46  1  0.121823  0.809495  0.758920  1
  O  O47  1  0.619168  0.807569  0.261241  1
  O  O48  1  0.206148  0.388388  0.435266  1
  O  O49  1  0.707795  0.387079  0.941927  1
  O  O50  1  0.206647  0.111806  0.563978  1
  O  O51  1  0.703945  0.109031  0.065345  1
  O  O52  1  0.792268  0.612971  0.558062  1
  O  O53  1  0.293851  0.611571  0.064801  1
  O  O54  1  0.796091  0.891020  0.434565  1
  O  O55  1  0.293331  0.888143  0.936084  1
  O  O56  1  0.053796  0.404748  0.207137  1
  O  O57  1  0.548195  0.403466  0.702909  1
  O  O58  1  0.054518  0.091377  0.792492  1
  O  O59  1  0.553465  0.095144  0.293386  1
  O  O60  1  0.951784  0.596574  0.797061  1
  O  O61  1  0.446232  0.595253  0.292886  1
  O  O62  1  0.946522  0.904855  0.206591  1
  O  O63  1  0.445478  0.908651  0.707515  1
