# generated using pymatgen
data_Yb2HoEr(Ga2Ag)4
_symmetry_space_group_name_H-M   'P 1'
_cell_length_a   4.34353300
_cell_length_b   6.95694586
_cell_length_c   10.32995118
_cell_angle_alpha   90.69739884
_cell_angle_beta   90.00000000
_cell_angle_gamma   90.00000000
_symmetry_Int_Tables_number   1
_chemical_formula_structural   Yb2HoEr(Ga2Ag)4
_chemical_formula_sum   'Yb2 Ho1 Er1 Ga8 Ag4'
_cell_volume   312.12448980
_cell_formula_units_Z   1
loop_
 _symmetry_equiv_pos_site_id
 _symmetry_equiv_pos_as_xyz
  1  'x, y, z'
loop_
 _atom_site_type_symbol
 _atom_site_label
 _atom_site_symmetry_multiplicity
 _atom_site_fract_x
 _atom_site_fract_y
 _atom_site_fract_z
 _atom_site_occupancy
  Yb  Yb0  1  0.750000  0.724010  0.328081  1
  Yb  Yb1  1  0.250000  0.275979  0.671894  1
  Ho  Ho2  1  0.250000  0.776887  0.828268  1
  Er  Er3  1  0.750000  0.223160  0.171707  1
  Ga  Ga4  1  0.250000  0.702390  0.535249  1
  Ga  Ga5  1  0.750000  0.297549  0.464681  1
  Ga  Ga6  1  0.750000  0.796978  0.035444  1
  Ga  Ga7  1  0.250000  0.203087  0.964644  1
  Ga  Ga8  1  0.250000  0.928393  0.151225  1
  Ga  Ga9  1  0.750000  0.071785  0.848807  1
  Ga  Ga10  1  0.750000  0.572502  0.652394  1
  Ga  Ga11  1  0.250000  0.427434  0.347544  1
  Ag  Ag12  1  0.250000  0.542464  0.099091  1
  Ag  Ag13  1  0.750000  0.457378  0.900989  1
  Ag  Ag14  1  0.750000  0.959501  0.598880  1
  Ag  Ag15  1  0.250000  0.040504  0.401100  1
