# generated using pymatgen
data_Sc4B4IrRh9Pb2
_symmetry_space_group_name_H-M   'P 1'
_cell_length_a   9.46195211
_cell_length_b   9.46195211
_cell_length_c   3.25316400
_cell_angle_alpha   90.00000000
_cell_angle_beta   90.00000000
_cell_angle_gamma   90.01745162
_symmetry_Int_Tables_number   1
_chemical_formula_structural   Sc4B4IrRh9Pb2
_chemical_formula_sum   'Sc4 B4 Ir1 Rh9 Pb2'
_cell_volume   291.25100240
_cell_formula_units_Z   1
loop_
 _symmetry_equiv_pos_site_id
 _symmetry_equiv_pos_as_xyz
  1  'x, y, z'
loop_
 _atom_site_type_symbol
 _atom_site_label
 _atom_site_symmetry_multiplicity
 _atom_site_fract_x
 _atom_site_fract_y
 _atom_site_fract_z
 _atom_site_occupancy
  Sc  Sc0  1  0.826386  0.326386  0.000000  1
  Sc  Sc1  1  0.325389  0.174611  0.000000  1
  Sc  Sc2  1  0.674611  0.825389  0.000000  1
  Sc  Sc3  1  0.173614  0.673614  0.000000  1
  B  B4  1  0.620411  0.120411  0.000000  1
  B  B5  1  0.121262  0.378738  0.000000  1
  B  B6  1  0.878738  0.621262  0.000000  1
  B  B7  1  0.379589  0.879589  0.000000  1
  Ir  Ir8  1  0.500000  0.000000  0.500000  1
  Rh  Rh9  1  0.072287  0.226129  0.500000  1
  Rh  Rh10  1  0.224970  0.927239  0.500000  1
  Rh  Rh11  1  0.775030  0.072761  0.500000  1
  Rh  Rh12  1  0.927713  0.773871  0.500000  1
  Rh  Rh13  1  0.427239  0.724970  0.500000  1
  Rh  Rh14  1  0.572761  0.275030  0.500000  1
  Rh  Rh15  1  0.726129  0.572287  0.500000  1
  Rh  Rh16  1  0.273871  0.427713  0.500000  1
  Rh  Rh17  1  0.000000  0.500000  0.500000  1
  Pb  Pb18  1  0.000000  0.000000  0.000000  1
  Pb  Pb19  1  0.500000  0.500000  0.000000  1
