# generated using pymatgen
data_Er4ReCl4
_symmetry_space_group_name_H-M   'P 1'
_cell_length_a   8.54549490
_cell_length_b   8.54549547
_cell_length_c   6.39181100
_cell_angle_alpha   90.04720845
_cell_angle_beta   90.04720846
_cell_angle_gamma   89.57724702
_symmetry_Int_Tables_number   1
_chemical_formula_structural   Er4ReCl4
_chemical_formula_sum   'Er8 Re2 Cl8'
_cell_volume   466.75209715
_cell_formula_units_Z   2
loop_
 _symmetry_equiv_pos_site_id
 _symmetry_equiv_pos_as_xyz
  1  'x, y, z'
loop_
 _atom_site_type_symbol
 _atom_site_label
 _atom_site_symmetry_multiplicity
 _atom_site_fract_x
 _atom_site_fract_y
 _atom_site_fract_z
 _atom_site_occupancy
  Er  Er0  1  0.104831  0.742607  0.985994  1
  Er  Er1  1  0.257393  0.895169  0.514006  1
  Er  Er2  1  0.895169  0.257393  0.014006  1
  Er  Er3  1  0.742607  0.104831  0.485994  1
  Er  Er4  1  0.744646  0.896825  0.003809  1
  Er  Er5  1  0.103175  0.255354  0.496191  1
  Er  Er6  1  0.255354  0.103175  0.996191  1
  Er  Er7  1  0.896825  0.744646  0.503809  1
  Re  Re8  1  0.006892  0.993108  0.250000  1
  Re  Re9  1  0.993108  0.006892  0.750000  1
  Cl  Cl10  1  0.418890  0.820004  0.917504  1
  Cl  Cl11  1  0.179996  0.581110  0.582496  1
  Cl  Cl12  1  0.581110  0.179996  0.082496  1
  Cl  Cl13  1  0.820004  0.418890  0.417504  1
  Cl  Cl14  1  0.817262  0.583127  0.915374  1
  Cl  Cl15  1  0.416873  0.182738  0.584626  1
  Cl  Cl16  1  0.182738  0.416873  0.084626  1
  Cl  Cl17  1  0.583127  0.817262  0.415374  1
