# generated using pymatgen
data_Nd2Er3Pb4
_symmetry_space_group_name_H-M   'P 1'
_cell_length_a   8.27213700
_cell_length_b   8.36480300
_cell_length_c   15.74667900
_cell_angle_alpha   90.00000000
_cell_angle_beta   90.00000000
_cell_angle_gamma   90.00000000
_symmetry_Int_Tables_number   1
_chemical_formula_structural   Nd2Er3Pb4
_chemical_formula_sum   'Nd8 Er12 Pb16'
_cell_volume   1089.58824729
_cell_formula_units_Z   4
loop_
 _symmetry_equiv_pos_site_id
 _symmetry_equiv_pos_as_xyz
  1  'x, y, z'
loop_
 _atom_site_type_symbol
 _atom_site_label
 _atom_site_symmetry_multiplicity
 _atom_site_fract_x
 _atom_site_fract_y
 _atom_site_fract_z
 _atom_site_occupancy
  Nd  Nd0  1  0.469511  0.678720  0.599720  1
  Nd  Nd1  1  0.969511  0.821280  0.900280  1
  Nd  Nd2  1  0.530489  0.321280  0.099720  1
  Nd  Nd3  1  0.030489  0.178720  0.400280  1
  Nd  Nd4  1  0.530489  0.321280  0.400280  1
  Nd  Nd5  1  0.030489  0.178720  0.099720  1
  Nd  Nd6  1  0.469511  0.678720  0.900280  1
  Nd  Nd7  1  0.969511  0.821280  0.599720  1
  Er  Er8  1  0.626030  0.160569  0.620738  1
  Er  Er9  1  0.126030  0.339431  0.879262  1
  Er  Er10  1  0.373970  0.839431  0.120738  1
  Er  Er11  1  0.873970  0.660569  0.379262  1
  Er  Er12  1  0.373970  0.839431  0.379262  1
  Er  Er13  1  0.873970  0.660569  0.120738  1
  Er  Er14  1  0.626030  0.160569  0.879262  1
  Er  Er15  1  0.126030  0.339431  0.620738  1
  Er  Er16  1  0.794233  0.494166  0.750000  1
  Er  Er17  1  0.294233  0.005834  0.750000  1
  Er  Er18  1  0.205767  0.505834  0.250000  1
  Er  Er19  1  0.705767  0.994166  0.250000  1
  Pb  Pb20  1  0.713725  0.964631  0.456551  1
  Pb  Pb21  1  0.213725  0.535369  0.043449  1
  Pb  Pb22  1  0.286275  0.035369  0.956551  1
  Pb  Pb23  1  0.786275  0.464631  0.543449  1
  Pb  Pb24  1  0.286275  0.035369  0.543449  1
  Pb  Pb25  1  0.786275  0.464631  0.956551  1
  Pb  Pb26  1  0.713725  0.964631  0.043449  1
  Pb  Pb27  1  0.213725  0.535369  0.456551  1
  Pb  Pb28  1  0.430172  0.371211  0.750000  1
  Pb  Pb29  1  0.930172  0.128789  0.750000  1
  Pb  Pb30  1  0.569828  0.628789  0.250000  1
  Pb  Pb31  1  0.069828  0.871211  0.250000  1
  Pb  Pb32  1  0.660383  0.852772  0.750000  1
  Pb  Pb33  1  0.160383  0.647228  0.750000  1
  Pb  Pb34  1  0.339617  0.147228  0.250000  1
  Pb  Pb35  1  0.839617  0.352772  0.250000  1
