# generated using pymatgen
data_Sc5Ti3(Co4P3)4
_symmetry_space_group_name_H-M   'P 1'
_cell_length_a   11.97744000
_cell_length_b   11.97744060
_cell_length_c   3.59695000
_cell_angle_alpha   90.00000000
_cell_angle_beta   90.00000000
_cell_angle_gamma   119.99999836
_symmetry_Int_Tables_number   1
_chemical_formula_structural   Sc5Ti3(Co4P3)4
_chemical_formula_sum   'Sc5 Ti3 Co16 P12'
_cell_volume   446.88221329
_cell_formula_units_Z   1
loop_
 _symmetry_equiv_pos_site_id
 _symmetry_equiv_pos_as_xyz
  1  'x, y, z'
loop_
 _atom_site_type_symbol
 _atom_site_label
 _atom_site_symmetry_multiplicity
 _atom_site_fract_x
 _atom_site_fract_y
 _atom_site_fract_z
 _atom_site_occupancy
  Sc  Sc0  1  0.666667  0.333333  0.000000  1
  Sc  Sc1  1  0.333333  0.666667  0.000000  1
  Sc  Sc2  1  0.816620  0.816620  0.500000  1
  Sc  Sc3  1  0.183380  0.000000  0.500000  1
  Sc  Sc4  1  0.000000  0.183380  0.500000  1
  Ti  Ti5  1  0.442791  0.442791  0.000000  1
  Ti  Ti6  1  0.557209  0.000000  0.000000  1
  Ti  Ti7  1  0.000000  0.557209  0.000000  1
  Co  Co8  1  0.196629  0.373860  0.000000  1
  Co  Co9  1  0.177230  0.803371  0.000000  1
  Co  Co10  1  0.822770  0.626140  0.000000  1
  Co  Co11  1  0.803371  0.177230  0.000000  1
  Co  Co12  1  0.373860  0.196629  0.000000  1
  Co  Co13  1  0.126067  0.481336  0.500000  1
  Co  Co14  1  0.355270  0.873933  0.500000  1
  Co  Co15  1  0.518664  0.644730  0.500000  1
  Co  Co16  1  0.644730  0.518664  0.500000  1
  Co  Co17  1  0.873933  0.355270  0.500000  1
  Co  Co18  1  0.481336  0.126067  0.500000  1
  Co  Co19  1  0.000000  0.000000  0.000000  1
  Co  Co20  1  0.719413  0.000000  0.500000  1
  Co  Co21  1  0.000000  0.719413  0.500000  1
  Co  Co22  1  0.626140  0.822770  0.000000  1
  Co  Co23  1  0.280587  0.280587  0.500000  1
  P  P24  1  0.647226  0.647226  0.000000  1
  P  P25  1  0.352774  0.000000  0.000000  1
  P  P26  1  0.000000  0.352774  0.000000  1
  P  P27  1  0.483732  0.313677  0.500000  1
  P  P28  1  0.686323  0.170054  0.500000  1
  P  P29  1  0.829946  0.516268  0.500000  1
  P  P30  1  0.516268  0.829946  0.500000  1
  P  P31  1  0.170054  0.686323  0.500000  1
  P  P32  1  0.823601  0.000000  0.000000  1
  P  P33  1  0.000000  0.823601  0.000000  1
  P  P34  1  0.313677  0.483732  0.500000  1
  P  P35  1  0.176399  0.176399  0.000000  1
