# generated using pymatgen
data_Li4Tb3NdSi8
_symmetry_space_group_name_H-M   'P 1'
_cell_length_a   3.83574900
_cell_length_b   7.63495603
_cell_length_c   10.29227023
_cell_angle_alpha   89.84500341
_cell_angle_beta   90.00000000
_cell_angle_gamma   90.00000000
_symmetry_Int_Tables_number   1
_chemical_formula_structural   Li4Tb3NdSi8
_chemical_formula_sum   'Li4 Tb3 Nd1 Si8'
_cell_volume   301.41600690
_cell_formula_units_Z   1
loop_
 _symmetry_equiv_pos_site_id
 _symmetry_equiv_pos_as_xyz
  1  'x, y, z'
loop_
 _atom_site_type_symbol
 _atom_site_label
 _atom_site_symmetry_multiplicity
 _atom_site_fract_x
 _atom_site_fract_y
 _atom_site_fract_z
 _atom_site_occupancy
  Li  Li0  1  0.250000  0.990877  0.391842  1
  Li  Li1  1  0.250000  0.490620  0.107332  1
  Li  Li2  1  0.750000  0.009459  0.609036  1
  Li  Li3  1  0.750000  0.509755  0.891852  1
  Tb  Tb4  1  0.250000  0.138383  0.864105  1
  Tb  Tb5  1  0.250000  0.639493  0.636486  1
  Tb  Tb6  1  0.750000  0.861203  0.135208  1
  Nd  Nd7  1  0.750000  0.358181  0.363904  1
  Si  Si8  1  0.250000  0.229438  0.574084  1
  Si  Si9  1  0.250000  0.731904  0.930674  1
  Si  Si10  1  0.750000  0.771418  0.431122  1
  Si  Si11  1  0.750000  0.265941  0.065818  1
  Si  Si12  1  0.250000  0.662857  0.320052  1
  Si  Si13  1  0.250000  0.154877  0.175669  1
  Si  Si14  1  0.750000  0.342465  0.681842  1
  Si  Si15  1  0.750000  0.843128  0.820971  1
