# generated using pymatgen
data_CsTa3InBr9
_symmetry_space_group_name_H-M   'P 1'
_cell_length_a   10.63044275
_cell_length_b   10.59962756
_cell_length_c   10.47531326
_cell_angle_alpha   77.00211562
_cell_angle_beta   76.40606414
_cell_angle_gamma   116.38306733
_symmetry_Int_Tables_number   1
_chemical_formula_structural   CsTa3InBr9
_chemical_formula_sum   'Cs2 Ta6 In2 Br18'
_cell_volume   951.42134989
_cell_formula_units_Z   2
loop_
 _symmetry_equiv_pos_site_id
 _symmetry_equiv_pos_as_xyz
  1  'x, y, z'
loop_
 _atom_site_type_symbol
 _atom_site_label
 _atom_site_symmetry_multiplicity
 _atom_site_fract_x
 _atom_site_fract_y
 _atom_site_fract_z
 _atom_site_occupancy
  Cs  Cs0  1  0.951021  0.263318  0.677624  1
  Cs  Cs1  1  0.048979  0.736682  0.322376  1
  Ta  Ta2  1  0.604048  0.612186  0.118646  1
  Ta  Ta3  1  0.395952  0.387814  0.881354  1
  Ta  Ta4  1  0.461727  0.298345  0.132902  1
  Ta  Ta5  1  0.538273  0.701655  0.867098  1
  Ta  Ta6  1  0.708285  0.547007  0.869910  1
  Ta  Ta7  1  0.291715  0.452993  0.130090  1
  In  In8  1  0.725874  0.046638  0.334139  1
  In  In9  1  0.274126  0.953362  0.665861  1
  Br  Br10  1  0.708070  0.303661  0.001566  1
  Br  Br11  1  0.291930  0.696339  0.998434  1
  Br  Br12  1  0.408360  0.017109  0.325232  1
  Br  Br13  1  0.591640  0.982891  0.674768  1
  Br  Br14  1  0.998245  0.616613  0.690024  1
  Br  Br15  1  0.001755  0.383387  0.309976  1
  Br  Br16  1  0.323604  0.109296  0.018283  1
  Br  Br17  1  0.676396  0.890704  0.981717  1
  Br  Br18  1  0.887011  0.693388  0.987700  1
  Br  Br19  1  0.112989  0.306612  0.012300  1
  Br  Br20  1  0.743966  0.768446  0.279531  1
  Br  Br21  1  0.256034  0.231554  0.720469  1
  Br  Br22  1  0.808383  0.812191  0.674559  1
  Br  Br23  1  0.191617  0.187809  0.325441  1
  Br  Br24  1  0.582168  0.388410  0.310122  1
  Br  Br25  1  0.417832  0.611590  0.689878  1
  Br  Br26  1  0.630431  0.421534  0.690337  1
  Br  Br27  1  0.369569  0.578466  0.309663  1
