# generated using pymatgen
data_Tb2DyAuO6
_symmetry_space_group_name_H-M   'P 1'
_cell_length_a   3.62625099
_cell_length_b   5.58816058
_cell_length_c   7.10343302
_cell_angle_alpha   89.88572876
_cell_angle_beta   102.49091217
_cell_angle_gamma   91.18533202
_symmetry_Int_Tables_number   1
_chemical_formula_structural   Tb2DyAuO6
_chemical_formula_sum   'Tb2 Dy1 Au1 O6'
_cell_volume   140.50683822
_cell_formula_units_Z   1
loop_
 _symmetry_equiv_pos_site_id
 _symmetry_equiv_pos_as_xyz
  1  'x, y, z'
loop_
 _atom_site_type_symbol
 _atom_site_label
 _atom_site_symmetry_multiplicity
 _atom_site_fract_x
 _atom_site_fract_y
 _atom_site_fract_z
 _atom_site_occupancy
  Tb  Tb0  1  0.610782  0.530147  0.763178  1
  Tb  Tb1  1  0.389218  0.469853  0.236822  1
  Dy  Dy2  1  0.000000  0.000000  0.500000  1
  Au  Au3  1  0.000000  0.000000  0.000000  1
  O  O4  1  0.838221  0.685023  0.108801  1
  O  O5  1  0.161779  0.314977  0.891199  1
  O  O6  1  0.521199  0.254981  0.527812  1
  O  O7  1  0.478801  0.745019  0.472188  1
  O  O8  1  0.125378  0.798011  0.786151  1
  O  O9  1  0.874622  0.201989  0.213849  1
