# generated using pymatgen
data_Er3Lu7Cd3Pt
_symmetry_space_group_name_H-M   'P 1'
_cell_length_a   9.57594300
_cell_length_b   9.57594420
_cell_length_c   9.63414700
_cell_angle_alpha   90.00000000
_cell_angle_beta   90.00000000
_cell_angle_gamma   119.99999931
_symmetry_Int_Tables_number   1
_chemical_formula_structural   Er3Lu7Cd3Pt
_chemical_formula_sum   'Er6 Lu14 Cd6 Pt2'
_cell_volume   765.08037548
_cell_formula_units_Z   2
loop_
 _symmetry_equiv_pos_site_id
 _symmetry_equiv_pos_as_xyz
  1  'x, y, z'
loop_
 _atom_site_type_symbol
 _atom_site_label
 _atom_site_symmetry_multiplicity
 _atom_site_fract_x
 _atom_site_fract_y
 _atom_site_fract_z
 _atom_site_occupancy
  Er  Er0  1  0.541733  0.458267  0.250000  1
  Er  Er1  1  0.541733  0.083466  0.250000  1
  Er  Er2  1  0.916534  0.458267  0.250000  1
  Er  Er3  1  0.458267  0.541733  0.750000  1
  Er  Er4  1  0.458267  0.916534  0.750000  1
  Er  Er5  1  0.083466  0.541733  0.750000  1
  Lu  Lu6  1  0.000000  0.000000  0.500000  1
  Lu  Lu7  1  0.000000  0.000000  0.000000  1
  Lu  Lu8  1  0.208462  0.791538  0.441675  1
  Lu  Lu9  1  0.208462  0.416926  0.441675  1
  Lu  Lu10  1  0.583074  0.791538  0.441675  1
  Lu  Lu11  1  0.791538  0.208462  0.558325  1
  Lu  Lu12  1  0.791538  0.583074  0.558325  1
  Lu  Lu13  1  0.416926  0.208462  0.558325  1
  Lu  Lu14  1  0.791538  0.208462  0.941675  1
  Lu  Lu15  1  0.791538  0.583074  0.941675  1
  Lu  Lu16  1  0.416926  0.208462  0.941675  1
  Lu  Lu17  1  0.208462  0.791538  0.058325  1
  Lu  Lu18  1  0.208462  0.416926  0.058325  1
  Lu  Lu19  1  0.583074  0.791538  0.058325  1
  Cd  Cd20  1  0.885662  0.114338  0.250000  1
  Cd  Cd21  1  0.885662  0.771326  0.250000  1
  Cd  Cd22  1  0.228674  0.114338  0.250000  1
  Cd  Cd23  1  0.114338  0.885662  0.750000  1
  Cd  Cd24  1  0.114338  0.228674  0.750000  1
  Cd  Cd25  1  0.771326  0.885662  0.750000  1
  Pt  Pt26  1  0.333333  0.666667  0.250000  1
  Pt  Pt27  1  0.666667  0.333333  0.750000  1
