# generated using pymatgen
data_Er9LuGaSb5
_symmetry_space_group_name_H-M   'P 1'
_cell_length_a   8.81515910
_cell_length_b   8.81227693
_cell_length_c   6.31519919
_cell_angle_alpha   90.02838948
_cell_angle_beta   89.98310777
_cell_angle_gamma   120.00713875
_symmetry_Int_Tables_number   1
_chemical_formula_structural   Er9LuGaSb5
_chemical_formula_sum   'Er9 Lu1 Ga1 Sb5'
_cell_volume   424.81972905
_cell_formula_units_Z   1
loop_
 _symmetry_equiv_pos_site_id
 _symmetry_equiv_pos_as_xyz
  1  'x, y, z'
loop_
 _atom_site_type_symbol
 _atom_site_label
 _atom_site_symmetry_multiplicity
 _atom_site_fract_x
 _atom_site_fract_y
 _atom_site_fract_z
 _atom_site_occupancy
  Er  Er0  1  0.011078  0.764754  0.749998  1
  Er  Er1  1  0.999364  0.243286  0.250114  1
  Er  Er2  1  0.756175  0.756658  0.250019  1
  Er  Er3  1  0.751059  0.999978  0.749981  1
  Er  Er4  1  0.246240  0.235213  0.749822  1
  Er  Er5  1  0.244148  0.999895  0.250251  1
  Er  Er6  1  0.659590  0.324409  0.998498  1
  Er  Er7  1  0.659797  0.324810  0.501433  1
  Er  Er8  1  0.335079  0.675542  0.998391  1
  Lu  Lu9  1  0.335030  0.675704  0.501784  1
  Ga  Ga10  1  0.393093  0.999237  0.749250  1
  Sb  Sb11  1  0.389529  0.393499  0.250498  1
  Sb  Sb12  1  0.997404  0.607205  0.250445  1
  Sb  Sb13  1  0.002707  0.390782  0.749356  1
  Sb  Sb14  1  0.611173  0.609750  0.749485  1
  Sb  Sb15  1  0.608534  0.999278  0.250674  1
