# generated using pymatgen
data_LiPr2GaPt2
_symmetry_space_group_name_H-M   'P 1'
_cell_length_a   4.38683800
_cell_length_b   7.14590800
_cell_length_c   8.20030400
_cell_angle_alpha   90.00000000
_cell_angle_beta   90.00000000
_cell_angle_gamma   90.00000000
_symmetry_Int_Tables_number   1
_chemical_formula_structural   LiPr2GaPt2
_chemical_formula_sum   'Li2 Pr4 Ga2 Pt4'
_cell_volume   257.06264400
_cell_formula_units_Z   2
loop_
 _symmetry_equiv_pos_site_id
 _symmetry_equiv_pos_as_xyz
  1  'x, y, z'
loop_
 _atom_site_type_symbol
 _atom_site_label
 _atom_site_symmetry_multiplicity
 _atom_site_fract_x
 _atom_site_fract_y
 _atom_site_fract_z
 _atom_site_occupancy
  Li  Li0  1  0.250000  0.141204  0.066990  1
  Li  Li1  1  0.250000  0.641204  0.433010  1
  Pr  Pr2  1  0.250000  0.031035  0.690204  1
  Pr  Pr3  1  0.250000  0.531035  0.809796  1
  Pr  Pr4  1  0.750000  0.972073  0.309071  1
  Pr  Pr5  1  0.750000  0.472073  0.190929  1
  Ga  Ga6  1  0.750000  0.857578  0.935986  1
  Ga  Ga7  1  0.750000  0.357578  0.564014  1
  Pt  Pt8  1  0.250000  0.267353  0.397154  1
  Pt  Pt9  1  0.250000  0.767353  0.102846  1
  Pt  Pt10  1  0.750000  0.730758  0.611884  1
  Pt  Pt11  1  0.750000  0.230758  0.888116  1
