# generated using pymatgen
data_YbYEr4(Si3Ru)8
_symmetry_space_group_name_H-M   'P 1'
_cell_length_a   10.12140426
_cell_length_b   10.12140409
_cell_length_c   8.12370003
_cell_angle_alpha   89.92742510
_cell_angle_beta   90.07257246
_cell_angle_gamma   132.66406015
_symmetry_Int_Tables_number   1
_chemical_formula_structural   YbYEr4(Si3Ru)8
_chemical_formula_sum   'Yb1 Y1 Er4 Si24 Ru8'
_cell_volume   611.96008225
_cell_formula_units_Z   1
loop_
 _symmetry_equiv_pos_site_id
 _symmetry_equiv_pos_as_xyz
  1  'x, y, z'
loop_
 _atom_site_type_symbol
 _atom_site_label
 _atom_site_symmetry_multiplicity
 _atom_site_fract_x
 _atom_site_fract_y
 _atom_site_fract_z
 _atom_site_occupancy
  Yb  Yb0  1  0.497991  0.997991  0.250000  1
  Y  Y1  1  0.001449  0.501449  0.750000  1
  Er  Er2  1  0.502552  0.002552  0.750000  1
  Er  Er3  1  0.997427  0.497427  0.250000  1
  Er  Er4  1  0.499768  0.499678  0.499597  1
  Er  Er5  1  0.999678  0.999768  0.000403  1
  Si  Si6  1  0.388478  0.155068  0.003180  1
  Si  Si7  1  0.655068  0.888478  0.496820  1
  Si  Si8  1  0.111795  0.344798  0.505224  1
  Si  Si9  1  0.844798  0.611795  0.994776  1
  Si  Si10  1  0.611739  0.845723  0.994028  1
  Si  Si11  1  0.345723  0.111739  0.505972  1
  Si  Si12  1  0.888059  0.655324  0.494601  1
  Si  Si13  1  0.155324  0.388059  0.005399  1
  Si  Si14  1  0.613707  0.379278  0.228368  1
  Si  Si15  1  0.879278  0.113707  0.271632  1
  Si  Si16  1  0.888364  0.121757  0.727875  1
  Si  Si17  1  0.621757  0.388364  0.772125  1
  Si  Si18  1  0.388452  0.621878  0.771460  1
  Si  Si19  1  0.121878  0.888452  0.728540  1
  Si  Si20  1  0.704593  0.293957  0.001069  1
  Si  Si21  1  0.793957  0.204593  0.498931  1
  Si  Si22  1  0.295449  0.705948  0.000137  1
  Si  Si23  1  0.205948  0.795449  0.499863  1
  Si  Si24  1  0.166248  0.167517  0.332987  1
  Si  Si25  1  0.667517  0.666248  0.167013  1
  Si  Si26  1  0.332789  0.331671  0.833137  1
  Si  Si27  1  0.831671  0.832789  0.666863  1
  Si  Si28  1  0.376694  0.610972  0.228333  1
  Si  Si29  1  0.110972  0.876694  0.271667  1
  Ru  Ru30  1  0.626068  0.626835  0.872928  1
  Ru  Ru31  1  0.126835  0.126068  0.627072  1
  Ru  Ru32  1  0.873193  0.873199  0.372617  1
  Ru  Ru33  1  0.373199  0.373193  0.127383  1
  Ru  Ru34  1  0.329785  0.669116  0.500523  1
  Ru  Ru35  1  0.169116  0.829785  0.999477  1
  Ru  Ru36  1  0.670772  0.331905  0.501390  1
  Ru  Ru37  1  0.831905  0.170772  0.998610  1
