# generated using pymatgen
data_MnCo3P4
_symmetry_space_group_name_H-M   'P 1'
_cell_length_a   3.23297800
_cell_length_b   5.05915289
_cell_length_c   5.62972715
_cell_angle_alpha   90.21071847
_cell_angle_beta   90.00000000
_cell_angle_gamma   90.00000000
_symmetry_Int_Tables_number   1
_chemical_formula_structural   MnCo3P4
_chemical_formula_sum   'Mn1 Co3 P4'
_cell_volume   92.07992638
_cell_formula_units_Z   1
loop_
 _symmetry_equiv_pos_site_id
 _symmetry_equiv_pos_as_xyz
  1  'x, y, z'
loop_
 _atom_site_type_symbol
 _atom_site_label
 _atom_site_symmetry_multiplicity
 _atom_site_fract_x
 _atom_site_fract_y
 _atom_site_fract_z
 _atom_site_occupancy
  Mn  Mn0  1  0.250000  0.502086  0.696690  1
  Co  Co1  1  0.750000  0.500874  0.297724  1
  Co  Co2  1  0.250000  0.001376  0.801851  1
  Co  Co3  1  0.750000  0.999916  0.203281  1
  P  P4  1  0.250000  0.686737  0.076287  1
  P  P5  1  0.750000  0.308221  0.922354  1
  P  P6  1  0.250000  0.194603  0.420085  1
  P  P7  1  0.750000  0.806187  0.581728  1
