# generated using pymatgen
data_Te5As4Se
_symmetry_space_group_name_H-M   'P 1'
_cell_length_a   7.68823047
_cell_length_b   7.68822975
_cell_length_c   10.01336149
_cell_angle_alpha   84.91478051
_cell_angle_beta   84.91478173
_cell_angle_gamma   30.36162517
_symmetry_Int_Tables_number   1
_chemical_formula_structural   Te5As4Se
_chemical_formula_sum   'Te5 As4 Se1'
_cell_volume   297.90415764
_cell_formula_units_Z   1
loop_
 _symmetry_equiv_pos_site_id
 _symmetry_equiv_pos_as_xyz
  1  'x, y, z'
loop_
 _atom_site_type_symbol
 _atom_site_label
 _atom_site_symmetry_multiplicity
 _atom_site_fract_x
 _atom_site_fract_y
 _atom_site_fract_z
 _atom_site_occupancy
  Te  Te0  1  0.036521  0.036521  0.712107  1
  Te  Te1  1  0.960739  0.960739  0.284106  1
  Te  Te2  1  0.778993  0.778993  0.670108  1
  Te  Te3  1  0.217655  0.217655  0.341651  1
  Te  Te4  1  0.371453  0.371453  0.966647  1
  As  As5  1  0.203029  0.203029  0.863204  1
  As  As6  1  0.790750  0.790750  0.136661  1
  As  As7  1  0.620755  0.620755  0.558691  1
  As  As8  1  0.378480  0.378480  0.438557  1
  Se  Se9  1  0.641625  0.641625  0.028268  1
