# generated using pymatgen
data_Zr3Tc3As2P
_symmetry_space_group_name_H-M   'P 1'
_cell_length_a   3.58179800
_cell_length_b   6.91661981
_cell_length_c   6.91662028
_cell_angle_alpha   59.99572012
_cell_angle_beta   90.00000000
_cell_angle_gamma   90.00000000
_symmetry_Int_Tables_number   1
_chemical_formula_structural   Zr3Tc3As2P
_chemical_formula_sum   'Zr3 Tc3 As2 P1'
_cell_volume   148.38869924
_cell_formula_units_Z   1
loop_
 _symmetry_equiv_pos_site_id
 _symmetry_equiv_pos_as_xyz
  1  'x, y, z'
loop_
 _atom_site_type_symbol
 _atom_site_label
 _atom_site_symmetry_multiplicity
 _atom_site_fract_x
 _atom_site_fract_y
 _atom_site_fract_z
 _atom_site_occupancy
  Zr  Zr0  1  0.500000  0.598994  0.401006  1
  Zr  Zr1  1  0.500000  0.400891  0.999964  1
  Zr  Zr2  1  0.500000  0.000036  0.599109  1
  Tc  Tc3  1  0.000000  0.239120  0.760880  1
  Tc  Tc4  1  0.000000  0.760859  0.000054  1
  Tc  Tc5  1  0.000000  0.999946  0.239141  1
  As  As6  1  0.000000  0.333315  0.333273  1
  As  As7  1  0.000000  0.666727  0.666685  1
  P  P8  1  0.500000  0.000012  0.999988  1
