# generated using pymatgen
data_La9Pr7(HgPt)4
_symmetry_space_group_name_H-M   'P 1'
_cell_length_a   10.13825605
_cell_length_b   10.13825563
_cell_length_c   10.11732100
_cell_angle_alpha   60.06828008
_cell_angle_beta   60.06828146
_cell_angle_gamma   60.29863790
_symmetry_Int_Tables_number   1
_chemical_formula_structural   La9Pr7(HgPt)4
_chemical_formula_sum   'La9 Pr7 Hg4 Pt4'
_cell_volume   737.72943089
_cell_formula_units_Z   1
loop_
 _symmetry_equiv_pos_site_id
 _symmetry_equiv_pos_as_xyz
  1  'x, y, z'
loop_
 _atom_site_type_symbol
 _atom_site_label
 _atom_site_symmetry_multiplicity
 _atom_site_fract_x
 _atom_site_fract_y
 _atom_site_fract_z
 _atom_site_occupancy
  La  La0  1  0.351004  0.351004  0.350572  1
  La  La1  1  0.351004  0.351004  0.947421  1
  La  La2  1  0.352790  0.945830  0.350690  1
  La  La3  1  0.945830  0.352790  0.350690  1
  La  La4  1  0.806837  0.192615  0.193387  1
  La  La5  1  0.192615  0.806837  0.807161  1
  La  La6  1  0.192615  0.806837  0.193387  1
  La  La7  1  0.806837  0.192615  0.807161  1
  La  La8  1  0.193074  0.193074  0.806926  1
  Pr  Pr9  1  0.805311  0.805311  0.194689  1
  Pr  Pr10  1  0.935636  0.564774  0.565109  1
  Pr  Pr11  1  0.564774  0.935636  0.934481  1
  Pr  Pr12  1  0.564774  0.935636  0.565109  1
  Pr  Pr13  1  0.935636  0.564774  0.934481  1
  Pr  Pr14  1  0.564373  0.564373  0.935627  1
  Pr  Pr15  1  0.934971  0.934971  0.565029  1
  Hg  Hg16  1  0.585645  0.585645  0.584472  1
  Hg  Hg17  1  0.585645  0.585645  0.244238  1
  Hg  Hg18  1  0.585362  0.244587  0.585025  1
  Hg  Hg19  1  0.244587  0.585362  0.585025  1
  Pt  Pt20  1  0.142592  0.142592  0.143544  1
  Pt  Pt21  1  0.142592  0.142592  0.571271  1
  Pt  Pt22  1  0.144009  0.571489  0.142251  1
  Pt  Pt23  1  0.571489  0.144009  0.142251  1
