# generated using pymatgen
data_Sc8CoSi16Tc11
_symmetry_space_group_name_H-M   'P 1'
_cell_length_a   6.60074974
_cell_length_b   6.62758103
_cell_length_c   12.34133218
_cell_angle_alpha   90.11127958
_cell_angle_beta   89.74890939
_cell_angle_gamma   90.02466763
_symmetry_Int_Tables_number   1
_chemical_formula_structural   Sc8CoSi16Tc11
_chemical_formula_sum   'Sc8 Co1 Si16 Tc11'
_cell_volume   539.89005523
_cell_formula_units_Z   1
loop_
 _symmetry_equiv_pos_site_id
 _symmetry_equiv_pos_as_xyz
  1  'x, y, z'
loop_
 _atom_site_type_symbol
 _atom_site_label
 _atom_site_symmetry_multiplicity
 _atom_site_fract_x
 _atom_site_fract_y
 _atom_site_fract_z
 _atom_site_occupancy
  Sc  Sc0  1  0.001503  0.662194  0.031458  1
  Sc  Sc1  1  0.839511  0.504671  0.280150  1
  Sc  Sc2  1  0.160591  0.496636  0.781741  1
  Sc  Sc3  1  0.508733  0.847145  0.716534  1
  Sc  Sc4  1  0.486161  0.157930  0.219751  1
  Sc  Sc5  1  0.993427  0.346855  0.533335  1
  Sc  Sc6  1  0.657940  0.009015  0.967691  1
  Sc  Sc7  1  0.339828  0.998851  0.472881  1
  Co  Co8  1  0.802704  0.026877  0.364173  1
  Si  Si9  1  0.280048  0.971936  0.063489  1
  Si  Si10  1  0.526306  0.785509  0.318786  1
  Si  Si11  1  0.478629  0.228108  0.810169  1
  Si  Si12  1  0.773383  0.525556  0.689624  1
  Si  Si13  1  0.211840  0.466800  0.184815  1
  Si  Si14  1  0.737349  0.018989  0.555184  1
  Si  Si15  1  0.976305  0.278617  0.936981  1
  Si  Si16  1  0.022484  0.732275  0.435382  1
  Si  Si17  1  0.693642  0.377124  0.069558  1
  Si  Si18  1  0.105447  0.187375  0.320326  1
  Si  Si19  1  0.880457  0.807811  0.818604  1
  Si  Si20  1  0.197488  0.122725  0.681814  1
  Si  Si21  1  0.803214  0.881708  0.187363  1
  Si  Si22  1  0.308357  0.616491  0.564661  1
  Si  Si23  1  0.380650  0.694448  0.934468  1
  Si  Si24  1  0.629292  0.298402  0.427651  1
  Tc  Tc25  1  0.332614  0.332397  0.999946  1
  Tc  Tc26  1  0.162877  0.833044  0.256593  1
  Tc  Tc27  1  0.834778  0.170763  0.750555  1
  Tc  Tc28  1  0.667737  0.667588  0.497319  1
  Tc  Tc29  1  0.979611  0.180263  0.130578  1
  Tc  Tc30  1  0.324095  0.471025  0.375132  1
  Tc  Tc31  1  0.687907  0.522823  0.885493  1
  Tc  Tc32  1  0.488938  0.308449  0.610720  1
  Tc  Tc33  1  0.513332  0.675770  0.126898  1
  Tc  Tc34  1  0.024698  0.814030  0.632097  1
  Tc  Tc35  1  0.188125  0.979797  0.868077  1
