# generated using pymatgen
data_AcLaTe6
_symmetry_space_group_name_H-M   'P 1'
_cell_length_a   14.15886793
_cell_length_b   14.15886732
_cell_length_c   4.39289900
_cell_angle_alpha   90.00000000
_cell_angle_beta   90.00000000
_cell_angle_gamma   161.52270254
_symmetry_Int_Tables_number   1
_chemical_formula_structural   AcLaTe6
_chemical_formula_sum   'Ac1 La1 Te6'
_cell_volume   279.10657532
_cell_formula_units_Z   1
loop_
 _symmetry_equiv_pos_site_id
 _symmetry_equiv_pos_as_xyz
  1  'x, y, z'
loop_
 _atom_site_type_symbol
 _atom_site_label
 _atom_site_symmetry_multiplicity
 _atom_site_fract_x
 _atom_site_fract_y
 _atom_site_fract_z
 _atom_site_occupancy
  Ac  Ac0  1  0.171869  0.828131  0.250000  1
  La  La1  1  0.829215  0.170785  0.750000  1
  Te  Te2  1  0.922769  0.077231  0.250000  1
  Te  Te3  1  0.073770  0.926230  0.750000  1
  Te  Te4  1  0.572789  0.427211  0.250000  1
  Te  Te5  1  0.424243  0.575757  0.750000  1
  Te  Te6  1  0.296652  0.703348  0.250000  1
  Te  Te7  1  0.708692  0.291308  0.750000  1
