# generated using pymatgen
data_Mn2ZnSbRh4
_symmetry_space_group_name_H-M   'P 1'
_cell_length_a   7.59521582
_cell_length_b   7.59521587
_cell_length_c   7.59521649
_cell_angle_alpha   33.51270923
_cell_angle_beta   33.51270580
_cell_angle_gamma   33.51270595
_symmetry_Int_Tables_number   1
_chemical_formula_structural   Mn2ZnSbRh4
_chemical_formula_sum   'Mn2 Zn1 Sb1 Rh4'
_cell_volume   118.96013742
_cell_formula_units_Z   1
loop_
 _symmetry_equiv_pos_site_id
 _symmetry_equiv_pos_as_xyz
  1  'x, y, z'
loop_
 _atom_site_type_symbol
 _atom_site_label
 _atom_site_symmetry_multiplicity
 _atom_site_fract_x
 _atom_site_fract_y
 _atom_site_fract_z
 _atom_site_occupancy
  Mn  Mn0  1  0.254978  0.254978  0.254978  1
  Mn  Mn1  1  0.745022  0.745022  0.745022  1
  Zn  Zn2  1  0.000000  0.000000  0.000000  1
  Sb  Sb3  1  0.500000  0.500000  0.500000  1
  Rh  Rh4  1  0.624903  0.624903  0.624903  1
  Rh  Rh5  1  0.125033  0.125033  0.125033  1
  Rh  Rh6  1  0.874967  0.874967  0.874967  1
  Rh  Rh7  1  0.375097  0.375097  0.375097  1
