# generated using pymatgen
data_Gd2NpTc3
_symmetry_space_group_name_H-M   'P 1'
_cell_length_a   5.32559901
_cell_length_b   5.32559965
_cell_length_c   5.32560122
_cell_angle_alpha   65.68960393
_cell_angle_beta   65.68960002
_cell_angle_gamma   65.68960113
_symmetry_Int_Tables_number   1
_chemical_formula_structural   Gd2NpTc3
_chemical_formula_sum   'Gd2 Np1 Tc3'
_cell_volume   119.99290485
_cell_formula_units_Z   1
loop_
 _symmetry_equiv_pos_site_id
 _symmetry_equiv_pos_as_xyz
  1  'x, y, z'
loop_
 _atom_site_type_symbol
 _atom_site_label
 _atom_site_symmetry_multiplicity
 _atom_site_fract_x
 _atom_site_fract_y
 _atom_site_fract_z
 _atom_site_occupancy
  Gd  Gd0  1  0.625505  0.625505  0.625505  1
  Gd  Gd1  1  0.374495  0.374495  0.374495  1
  Np  Np2  1  0.000000  0.000000  0.000000  1
  Tc  Tc3  1  0.000000  0.500000  0.000000  1
  Tc  Tc4  1  0.500000  0.000000  0.000000  1
  Tc  Tc5  1  0.000000  0.000000  0.500000  1
