# generated using pymatgen
data_Hf4MnSi4IrPt2
_symmetry_space_group_name_H-M   'P 1'
_cell_length_a   3.94221600
_cell_length_b   6.48151449
_cell_length_c   7.45219708
_cell_angle_alpha   89.16154888
_cell_angle_beta   90.00000000
_cell_angle_gamma   90.00000000
_symmetry_Int_Tables_number   1
_chemical_formula_structural   Hf4MnSi4IrPt2
_chemical_formula_sum   'Hf4 Mn1 Si4 Ir1 Pt2'
_cell_volume   190.39465033
_cell_formula_units_Z   1
loop_
 _symmetry_equiv_pos_site_id
 _symmetry_equiv_pos_as_xyz
  1  'x, y, z'
loop_
 _atom_site_type_symbol
 _atom_site_label
 _atom_site_symmetry_multiplicity
 _atom_site_fract_x
 _atom_site_fract_y
 _atom_site_fract_z
 _atom_site_occupancy
  Hf  Hf0  1  0.250000  0.984422  0.314144  1
  Hf  Hf1  1  0.250000  0.473445  0.178500  1
  Hf  Hf2  1  0.750000  0.024706  0.682403  1
  Hf  Hf3  1  0.750000  0.513207  0.824322  1
  Mn  Mn4  1  0.750000  0.156169  0.059916  1
  Si  Si5  1  0.250000  0.734015  0.624835  1
  Si  Si6  1  0.250000  0.218546  0.893613  1
  Si  Si7  1  0.750000  0.266413  0.366030  1
  Si  Si8  1  0.750000  0.782976  0.115086  1
  Ir  Ir9  1  0.250000  0.845604  0.938772  1
  Pt  Pt10  1  0.250000  0.347231  0.569667  1
  Pt  Pt11  1  0.750000  0.653264  0.432712  1
