# generated using pymatgen
data_Tb3PrSe6
_symmetry_space_group_name_H-M   'P 1'
_cell_length_a   4.17264100
_cell_length_b   11.68740450
_cell_length_c   11.97237438
_cell_angle_alpha   71.01160905
_cell_angle_beta   90.00000000
_cell_angle_gamma   90.00000000
_symmetry_Int_Tables_number   1
_chemical_formula_structural   Tb3PrSe6
_chemical_formula_sum   'Tb6 Pr2 Se12'
_cell_volume   552.08982063
_cell_formula_units_Z   2
loop_
 _symmetry_equiv_pos_site_id
 _symmetry_equiv_pos_as_xyz
  1  'x, y, z'
loop_
 _atom_site_type_symbol
 _atom_site_label
 _atom_site_symmetry_multiplicity
 _atom_site_fract_x
 _atom_site_fract_y
 _atom_site_fract_z
 _atom_site_occupancy
  Tb  Tb0  1  0.750000  0.181110  0.998521  1
  Tb  Tb1  1  0.250000  0.818890  0.001479  1
  Tb  Tb2  1  0.750000  0.939426  0.667135  1
  Tb  Tb3  1  0.250000  0.060574  0.332865  1
  Tb  Tb4  1  0.750000  0.659540  0.414904  1
  Tb  Tb5  1  0.250000  0.340460  0.585096  1
  Pr  Pr6  1  0.750000  0.548225  0.805302  1
  Pr  Pr7  1  0.250000  0.451775  0.194698  1
  Se  Se8  1  0.750000  0.980124  0.887310  1
  Se  Se9  1  0.250000  0.019876  0.112690  1
  Se  Se10  1  0.750000  0.304231  0.749801  1
  Se  Se11  1  0.250000  0.695769  0.250199  1
  Se  Se12  1  0.750000  0.893798  0.440984  1
  Se  Se13  1  0.250000  0.106202  0.559016  1
  Se  Se14  1  0.750000  0.417058  0.404174  1
  Se  Se15  1  0.250000  0.582942  0.595826  1
  Se  Se16  1  0.750000  0.237672  0.227330  1
  Se  Se17  1  0.250000  0.762328  0.772670  1
  Se  Se18  1  0.750000  0.616897  0.035639  1
  Se  Se19  1  0.250000  0.383103  0.964361  1
