# generated using pymatgen
data_Sc(Ga3Pt)3
_symmetry_space_group_name_H-M   'P 1'
_cell_length_a   10.41984774
_cell_length_b   10.41984765
_cell_length_c   10.41984872
_cell_angle_alpha   42.30290829
_cell_angle_beta   42.30290817
_cell_angle_gamma   42.30290780
_symmetry_Int_Tables_number   1
_chemical_formula_structural   Sc(Ga3Pt)3
_chemical_formula_sum   'Sc2 Ga18 Pt6'
_cell_volume   463.85847092
_cell_formula_units_Z   2
loop_
 _symmetry_equiv_pos_site_id
 _symmetry_equiv_pos_as_xyz
  1  'x, y, z'
loop_
 _atom_site_type_symbol
 _atom_site_label
 _atom_site_symmetry_multiplicity
 _atom_site_fract_x
 _atom_site_fract_y
 _atom_site_fract_z
 _atom_site_occupancy
  Sc  Sc0  1  0.166949  0.166949  0.166949  1
  Sc  Sc1  1  0.833051  0.833051  0.833051  1
  Ga  Ga2  1  0.107189  0.441767  0.776479  1
  Ga  Ga3  1  0.441767  0.776479  0.107189  1
  Ga  Ga4  1  0.558233  0.892811  0.223521  1
  Ga  Ga5  1  0.950478  0.950478  0.950478  1
  Ga  Ga6  1  0.049522  0.049522  0.049522  1
  Ga  Ga7  1  0.292642  0.707358  0.500000  1
  Ga  Ga8  1  0.892811  0.223521  0.558233  1
  Ga  Ga9  1  0.384558  0.384558  0.384558  1
  Ga  Ga10  1  0.500000  0.292642  0.707358  1
  Ga  Ga11  1  0.223521  0.558233  0.892811  1
  Ga  Ga12  1  0.715532  0.715532  0.715532  1
  Ga  Ga13  1  0.615442  0.615442  0.615442  1
  Ga  Ga14  1  0.334247  0.000000  0.665753  1
  Ga  Ga15  1  0.707358  0.500000  0.292642  1
  Ga  Ga16  1  0.665753  0.334247  0.000000  1
  Ga  Ga17  1  0.284468  0.284468  0.284468  1
  Ga  Ga18  1  0.000000  0.665753  0.334247  1
  Ga  Ga19  1  0.776479  0.107189  0.441767  1
  Pt  Pt20  1  0.418896  0.078678  0.759830  1
  Pt  Pt21  1  0.581104  0.240170  0.921322  1
  Pt  Pt22  1  0.078678  0.759830  0.418896  1
  Pt  Pt23  1  0.759830  0.418896  0.078678  1
  Pt  Pt24  1  0.921322  0.581104  0.240170  1
  Pt  Pt25  1  0.240170  0.921322  0.581104  1
