# generated using pymatgen
data_Nb12Fe9Re3N4
_symmetry_space_group_name_H-M   'P 1'
_cell_length_a   8.11407953
_cell_length_b   8.11407865
_cell_length_c   8.11407913
_cell_angle_alpha   59.98307959
_cell_angle_beta   59.98308242
_cell_angle_gamma   59.98307905
_symmetry_Int_Tables_number   1
_chemical_formula_structural   Nb12Fe9Re3N4
_chemical_formula_sum   'Nb12 Fe9 Re3 N4'
_cell_volume   377.60354638
_cell_formula_units_Z   1
loop_
 _symmetry_equiv_pos_site_id
 _symmetry_equiv_pos_as_xyz
  1  'x, y, z'
loop_
 _atom_site_type_symbol
 _atom_site_label
 _atom_site_symmetry_multiplicity
 _atom_site_fract_x
 _atom_site_fract_y
 _atom_site_fract_z
 _atom_site_occupancy
  Nb  Nb0  1  0.803842  0.803842  0.199120  1
  Nb  Nb1  1  0.193608  0.193608  0.806159  1
  Nb  Nb2  1  0.803842  0.199120  0.803842  1
  Nb  Nb3  1  0.193608  0.806159  0.193608  1
  Nb  Nb4  1  0.199120  0.803842  0.803842  1
  Nb  Nb5  1  0.806159  0.193608  0.193608  1
  Nb  Nb6  1  0.446158  0.446158  0.050880  1
  Nb  Nb7  1  0.056392  0.056392  0.443841  1
  Nb  Nb8  1  0.446158  0.050880  0.446158  1
  Nb  Nb9  1  0.056392  0.443841  0.056392  1
  Nb  Nb10  1  0.050880  0.446158  0.446158  1
  Nb  Nb11  1  0.443841  0.056392  0.056392  1
  Fe  Fe12  1  0.625000  0.625000  0.625000  1
  Fe  Fe13  1  0.727993  0.427877  0.427877  1
  Fe  Fe14  1  0.427877  0.727993  0.427877  1
  Fe  Fe15  1  0.427877  0.427877  0.727993  1
  Fe  Fe16  1  0.421940  0.421940  0.421940  1
  Fe  Fe17  1  0.522007  0.822123  0.822123  1
  Fe  Fe18  1  0.822123  0.522007  0.822123  1
  Fe  Fe19  1  0.822123  0.822123  0.522007  1
  Fe  Fe20  1  0.828060  0.828060  0.828060  1
  Re  Re21  1  0.125000  0.625000  0.625000  1
  Re  Re22  1  0.625000  0.125000  0.625000  1
  Re  Re23  1  0.625000  0.625000  0.125000  1
  N  N24  1  0.625000  0.125000  0.125000  1
  N  N25  1  0.125000  0.625000  0.125000  1
  N  N26  1  0.125000  0.125000  0.625000  1
  N  N27  1  0.125000  0.125000  0.125000  1
