# generated using pymatgen
data_Pr8Si15Hg
_symmetry_space_group_name_H-M   'P 1'
_cell_length_a   8.32694900
_cell_length_b   8.32694980
_cell_length_c   8.53752100
_cell_angle_alpha   90.00000000
_cell_angle_beta   90.00000000
_cell_angle_gamma   120.00000081
_symmetry_Int_Tables_number   1
_chemical_formula_structural   Pr8Si15Hg
_chemical_formula_sum   'Pr8 Si15 Hg1'
_cell_volume   512.66570261
_cell_formula_units_Z   1
loop_
 _symmetry_equiv_pos_site_id
 _symmetry_equiv_pos_as_xyz
  1  'x, y, z'
loop_
 _atom_site_type_symbol
 _atom_site_label
 _atom_site_symmetry_multiplicity
 _atom_site_fract_x
 _atom_site_fract_y
 _atom_site_fract_z
 _atom_site_occupancy
  Pr  Pr0  1  0.495748  0.504252  0.741741  1
  Pr  Pr1  1  0.496506  0.503494  0.257901  1
  Pr  Pr2  1  0.008504  0.504252  0.741741  1
  Pr  Pr3  1  0.006988  0.503494  0.257901  1
  Pr  Pr4  1  0.495748  0.991496  0.741741  1
  Pr  Pr5  1  0.496506  0.993012  0.257901  1
  Pr  Pr6  1  0.000000  0.000000  0.748854  1
  Pr  Pr7  1  0.000000  0.000000  0.252013  1
  Si  Si8  1  0.840938  0.159062  0.001942  1
  Si  Si9  1  0.167872  0.832128  0.999070  1
  Si  Si10  1  0.318124  0.159062  0.001942  1
  Si  Si11  1  0.167206  0.832794  0.499517  1
  Si  Si12  1  0.664257  0.832128  0.999070  1
  Si  Si13  1  0.832350  0.167650  0.500607  1
  Si  Si14  1  0.840938  0.681876  0.001942  1
  Si  Si15  1  0.665587  0.832794  0.499517  1
  Si  Si16  1  0.167872  0.335743  0.999070  1
  Si  Si17  1  0.335298  0.167650  0.500607  1
  Si  Si18  1  0.167206  0.334413  0.499517  1
  Si  Si19  1  0.832350  0.664702  0.500607  1
  Si  Si20  1  0.333333  0.666667  0.001090  1
  Si  Si21  1  0.333333  0.666667  0.499003  1
  Si  Si22  1  0.666667  0.333333  0.500595  1
  Hg  Hg23  1  0.666667  0.333333  0.996109  1
