# generated using pymatgen
data_HfZr2TlC2
_symmetry_space_group_name_H-M   'P 1'
_cell_length_a   3.35903300
_cell_length_b   3.35903419
_cell_length_c   20.42078200
_cell_angle_alpha   90.00000000
_cell_angle_beta   90.00000000
_cell_angle_gamma   119.99999809
_symmetry_Int_Tables_number   1
_chemical_formula_structural   HfZr2TlC2
_chemical_formula_sum   'Hf2 Zr4 Tl2 C4'
_cell_volume   199.54079788
_cell_formula_units_Z   2
loop_
 _symmetry_equiv_pos_site_id
 _symmetry_equiv_pos_as_xyz
  1  'x, y, z'
loop_
 _atom_site_type_symbol
 _atom_site_label
 _atom_site_symmetry_multiplicity
 _atom_site_fract_x
 _atom_site_fract_y
 _atom_site_fract_z
 _atom_site_occupancy
  Hf  Hf0  1  0.000000  0.000000  0.000000  1
  Hf  Hf1  1  0.000000  0.000000  0.500000  1
  Zr  Zr2  1  0.333333  0.666666  0.124842  1
  Zr  Zr3  1  0.333333  0.666666  0.375158  1
  Zr  Zr4  1  0.666665  0.333333  0.624842  1
  Zr  Zr5  1  0.666665  0.333333  0.875158  1
  Tl  Tl6  1  0.000000  0.000000  0.250000  1
  Tl  Tl7  1  0.000000  0.000000  0.750000  1
  C  C8  1  0.666665  0.333333  0.067309  1
  C  C9  1  0.666665  0.333333  0.432691  1
  C  C10  1  0.333333  0.666666  0.567309  1
  C  C11  1  0.333333  0.666666  0.932691  1
