# generated using pymatgen
data_Yb3HoMnRu7
_symmetry_space_group_name_H-M   'P 1'
_cell_length_a   5.27288900
_cell_length_b   5.27288804
_cell_length_c   8.74057200
_cell_angle_alpha   90.00000000
_cell_angle_beta   90.00000000
_cell_angle_gamma   119.99999978
_symmetry_Int_Tables_number   1
_chemical_formula_structural   Yb3HoMnRu7
_chemical_formula_sum   'Yb3 Ho1 Mn1 Ru7'
_cell_volume   210.45907921
_cell_formula_units_Z   1
loop_
 _symmetry_equiv_pos_site_id
 _symmetry_equiv_pos_as_xyz
  1  'x, y, z'
loop_
 _atom_site_type_symbol
 _atom_site_label
 _atom_site_symmetry_multiplicity
 _atom_site_fract_x
 _atom_site_fract_y
 _atom_site_fract_z
 _atom_site_occupancy
  Yb  Yb0  1  0.333333  0.666667  0.435703  1
  Yb  Yb1  1  0.666667  0.333333  0.568690  1
  Yb  Yb2  1  0.666667  0.333333  0.929246  1
  Ho  Ho3  1  0.333333  0.666667  0.068100  1
  Mn  Mn4  1  0.000000  0.000000  0.498525  1
  Ru  Ru5  1  0.000000  0.000000  0.000000  1
  Ru  Ru6  1  0.829245  0.170755  0.252775  1
  Ru  Ru7  1  0.829245  0.658490  0.252775  1
  Ru  Ru8  1  0.341510  0.170755  0.252775  1
  Ru  Ru9  1  0.170125  0.829875  0.747137  1
  Ru  Ru10  1  0.170125  0.340252  0.747137  1
  Ru  Ru11  1  0.659748  0.829875  0.747137  1
