# generated using pymatgen
data_Er5Ni(P2Ru3)6
_symmetry_space_group_name_H-M   'P 1'
_cell_length_a   12.47171100
_cell_length_b   12.47171077
_cell_length_c   3.95956900
_cell_angle_alpha   90.00000000
_cell_angle_beta   90.00000000
_cell_angle_gamma   120.00000326
_symmetry_Int_Tables_number   1
_chemical_formula_structural   Er5Ni(P2Ru3)6
_chemical_formula_sum   'Er5 Ni1 P12 Ru18'
_cell_volume   533.37247769
_cell_formula_units_Z   1
loop_
 _symmetry_equiv_pos_site_id
 _symmetry_equiv_pos_as_xyz
  1  'x, y, z'
loop_
 _atom_site_type_symbol
 _atom_site_label
 _atom_site_symmetry_multiplicity
 _atom_site_fract_x
 _atom_site_fract_y
 _atom_site_fract_z
 _atom_site_occupancy
  Er  Er0  1  0.666667  0.333333  0.000000  1
  Er  Er1  1  0.333333  0.666667  0.000000  1
  Er  Er2  1  0.186827  0.186827  0.500000  1
  Er  Er3  1  0.813173  0.000000  0.500000  1
  Er  Er4  1  0.000000  0.813173  0.500000  1
  Ni  Ni5  1  0.000000  0.000000  0.000000  1
  P  P6  1  0.373478  0.373478  0.000000  1
  P  P7  1  0.626522  0.000000  0.000000  1
  P  P8  1  0.000000  0.626522  0.000000  1
  P  P9  1  0.830221  0.306153  0.500000  1
  P  P10  1  0.693847  0.524069  0.500000  1
  P  P11  1  0.475931  0.169779  0.500000  1
  P  P12  1  0.306153  0.830221  0.500000  1
  P  P13  1  0.524069  0.693847  0.500000  1
  P  P14  1  0.169779  0.475931  0.500000  1
  P  P15  1  0.822596  0.822596  0.000000  1
  P  P16  1  0.177404  0.000000  0.000000  1
  P  P17  1  0.000000  0.177404  0.000000  1
  Ru  Ru18  1  0.815608  0.189695  0.000000  1
  Ru  Ru19  1  0.810305  0.625913  0.000000  1
  Ru  Ru20  1  0.374087  0.184392  0.000000  1
  Ru  Ru21  1  0.189695  0.815608  0.000000  1
  Ru  Ru22  1  0.625913  0.810305  0.000000  1
  Ru  Ru23  1  0.184392  0.374087  0.000000  1
  Ru  Ru24  1  0.556677  0.556677  0.000000  1
  Ru  Ru25  1  0.443323  0.000000  0.000000  1
  Ru  Ru26  1  0.000000  0.443323  0.000000  1
  Ru  Ru27  1  0.634139  0.126701  0.500000  1
  Ru  Ru28  1  0.873299  0.507440  0.500000  1
  Ru  Ru29  1  0.492560  0.365861  0.500000  1
  Ru  Ru30  1  0.126701  0.634139  0.500000  1
  Ru  Ru31  1  0.507440  0.873299  0.500000  1
  Ru  Ru32  1  0.365861  0.492560  0.500000  1
  Ru  Ru33  1  0.721866  0.721866  0.500000  1
  Ru  Ru34  1  0.278134  0.000000  0.500000  1
  Ru  Ru35  1  0.000000  0.278134  0.500000  1
