# generated using pymatgen
data_Zr10CoBi6As
_symmetry_space_group_name_H-M   'P 1'
_cell_length_a   5.94386100
_cell_length_b   8.85750482
_cell_length_c   8.85750500
_cell_angle_alpha   119.99998948
_cell_angle_beta   90.00000000
_cell_angle_gamma   90.00000000
_symmetry_Int_Tables_number   1
_chemical_formula_structural   Zr10CoBi6As
_chemical_formula_sum   'Zr10 Co1 Bi6 As1'
_cell_volume   403.85189572
_cell_formula_units_Z   1
loop_
 _symmetry_equiv_pos_site_id
 _symmetry_equiv_pos_as_xyz
  1  'x, y, z'
loop_
 _atom_site_type_symbol
 _atom_site_label
 _atom_site_symmetry_multiplicity
 _atom_site_fract_x
 _atom_site_fract_y
 _atom_site_fract_z
 _atom_site_occupancy
  Zr  Zr0  1  0.737928  0.747404  0.747404  1
  Zr  Zr1  1  0.262072  0.252596  0.252596  1
  Zr  Zr2  1  0.737928  0.000000  0.252596  1
  Zr  Zr3  1  0.262072  0.000000  0.747404  1
  Zr  Zr4  1  0.737928  0.252596  0.000000  1
  Zr  Zr5  1  0.262072  0.747404  0.000000  1
  Zr  Zr6  1  0.000000  0.666667  0.333333  1
  Zr  Zr7  1  0.000000  0.333333  0.666667  1
  Zr  Zr8  1  0.500000  0.333333  0.666667  1
  Zr  Zr9  1  0.500000  0.666667  0.333333  1
  Co  Co10  1  0.500000  0.000000  0.000000  1
  Bi  Bi11  1  0.750880  0.392978  0.392978  1
  Bi  Bi12  1  0.249120  0.607022  0.607022  1
  Bi  Bi13  1  0.750880  0.000000  0.607022  1
  Bi  Bi14  1  0.249120  0.000000  0.392978  1
  Bi  Bi15  1  0.750880  0.607022  0.000000  1
  Bi  Bi16  1  0.249120  0.392978  0.000000  1
  As  As17  1  0.000000  0.000000  0.000000  1
