# generated using pymatgen
data_AcCo9Ge4
_symmetry_space_group_name_H-M   'P 1'
_cell_length_a   8.19933534
_cell_length_b   8.19933506
_cell_length_c   8.19933507
_cell_angle_alpha   121.85796506
_cell_angle_beta   121.85795819
_cell_angle_gamma   86.81095018
_symmetry_Int_Tables_number   1
_chemical_formula_structural   AcCo9Ge4
_chemical_formula_sum   'Ac2 Co18 Ge8'
_cell_volume   378.19765583
_cell_formula_units_Z   2
loop_
 _symmetry_equiv_pos_site_id
 _symmetry_equiv_pos_as_xyz
  1  'x, y, z'
loop_
 _atom_site_type_symbol
 _atom_site_label
 _atom_site_symmetry_multiplicity
 _atom_site_fract_x
 _atom_site_fract_y
 _atom_site_fract_z
 _atom_site_occupancy
  Ac  Ac0  1  0.750000  0.750000  0.000000  1
  Ac  Ac1  1  0.250000  0.250000  0.000000  1
  Co  Co2  1  0.000000  0.500000  0.500000  1
  Co  Co3  1  0.500000  0.000000  0.500000  1
  Co  Co4  1  0.065919  0.200272  0.266191  1
  Co  Co5  1  0.934081  0.799728  0.733809  1
  Co  Co6  1  0.565919  0.299728  0.865648  1
  Co  Co7  1  0.434081  0.700272  0.134352  1
  Co  Co8  1  0.799728  0.065919  0.865648  1
  Co  Co9  1  0.200272  0.934081  0.134352  1
  Co  Co10  1  0.700272  0.565919  0.266191  1
  Co  Co11  1  0.299728  0.434081  0.733809  1
  Co  Co12  1  0.444816  0.944816  0.743562  1
  Co  Co13  1  0.201253  0.701253  0.256438  1
  Co  Co14  1  0.944816  0.201253  0.500000  1
  Co  Co15  1  0.701253  0.444816  0.500000  1
  Co  Co16  1  0.555184  0.055184  0.256438  1
  Co  Co17  1  0.798747  0.298747  0.743562  1
  Co  Co18  1  0.055184  0.798747  0.500000  1
  Co  Co19  1  0.298747  0.555184  0.500000  1
  Ge  Ge20  1  0.048090  0.548090  0.844033  1
  Ge  Ge21  1  0.704057  0.204057  0.155967  1
  Ge  Ge22  1  0.548090  0.704057  0.500000  1
  Ge  Ge23  1  0.204057  0.048090  0.500000  1
  Ge  Ge24  1  0.951910  0.451910  0.155967  1
  Ge  Ge25  1  0.295943  0.795943  0.844033  1
  Ge  Ge26  1  0.451910  0.295943  0.500000  1
  Ge  Ge27  1  0.795943  0.951910  0.500000  1
