# generated using pymatgen
data_Er4Si4OsRu2Rh
_symmetry_space_group_name_H-M   'P 1'
_cell_length_a   4.25740500
_cell_length_b   6.93006915
_cell_length_c   7.24248710
_cell_angle_alpha   89.84605518
_cell_angle_beta   90.00000000
_cell_angle_gamma   90.00000000
_symmetry_Int_Tables_number   1
_chemical_formula_structural   Er4Si4OsRu2Rh
_chemical_formula_sum   'Er4 Si4 Os1 Ru2 Rh1'
_cell_volume   213.68237213
_cell_formula_units_Z   1
loop_
 _symmetry_equiv_pos_site_id
 _symmetry_equiv_pos_as_xyz
  1  'x, y, z'
loop_
 _atom_site_type_symbol
 _atom_site_label
 _atom_site_symmetry_multiplicity
 _atom_site_fract_x
 _atom_site_fract_y
 _atom_site_fract_z
 _atom_site_occupancy
  Er  Er0  1  0.250000  0.489406  0.687991  1
  Er  Er1  1  0.750000  0.509481  0.312108  1
  Er  Er2  1  0.250000  0.996635  0.814455  1
  Er  Er3  1  0.750000  0.006648  0.185885  1
  Si  Si4  1  0.250000  0.299346  0.108819  1
  Si  Si5  1  0.750000  0.699122  0.883528  1
  Si  Si6  1  0.250000  0.800695  0.399343  1
  Si  Si7  1  0.750000  0.197277  0.606046  1
  Os  Os8  1  0.750000  0.843045  0.566259  1
  Ru  Ru9  1  0.250000  0.155205  0.434018  1
  Ru  Ru10  1  0.750000  0.346809  0.937152  1
  Rh  Rh11  1  0.250000  0.656329  0.064396  1
