# generated using pymatgen
data_CaAl5Pt3
_symmetry_space_group_name_H-M   'P 1'
_cell_length_a   4.12703800
_cell_length_b   7.45450200
_cell_length_c   20.57204900
_cell_angle_alpha   90.00000000
_cell_angle_beta   90.00000000
_cell_angle_gamma   90.00000000
_symmetry_Int_Tables_number   1
_chemical_formula_structural   CaAl5Pt3
_chemical_formula_sum   'Ca4 Al20 Pt12'
_cell_volume   632.89935544
_cell_formula_units_Z   4
loop_
 _symmetry_equiv_pos_site_id
 _symmetry_equiv_pos_as_xyz
  1  'x, y, z'
loop_
 _atom_site_type_symbol
 _atom_site_label
 _atom_site_symmetry_multiplicity
 _atom_site_fract_x
 _atom_site_fract_y
 _atom_site_fract_z
 _atom_site_occupancy
  Ca  Ca0  1  0.250000  0.116389  0.639839  1
  Ca  Ca1  1  0.750000  0.883611  0.360161  1
  Ca  Ca2  1  0.250000  0.383611  0.139839  1
  Ca  Ca3  1  0.750000  0.616389  0.860161  1
  Al  Al4  1  0.750000  0.352133  0.382796  1
  Al  Al5  1  0.750000  0.882660  0.982931  1
  Al  Al6  1  0.750000  0.687833  0.200055  1
  Al  Al7  1  0.250000  0.871472  0.492208  1
  Al  Al8  1  0.250000  0.628528  0.992208  1
  Al  Al9  1  0.250000  0.312167  0.799945  1
  Al  Al10  1  0.750000  0.074037  0.209084  1
  Al  Al11  1  0.250000  0.647867  0.617204  1
  Al  Al12  1  0.250000  0.574037  0.290916  1
  Al  Al13  1  0.250000  0.187833  0.299945  1
  Al  Al14  1  0.750000  0.147867  0.882796  1
  Al  Al15  1  0.250000  0.925963  0.790916  1
  Al  Al16  1  0.750000  0.371472  0.007792  1
  Al  Al17  1  0.750000  0.617340  0.482931  1
  Al  Al18  1  0.750000  0.128528  0.507792  1
  Al  Al19  1  0.250000  0.117340  0.017069  1
  Al  Al20  1  0.250000  0.852133  0.117204  1
  Al  Al21  1  0.250000  0.382660  0.517069  1
  Al  Al22  1  0.750000  0.425963  0.709084  1
  Al  Al23  1  0.750000  0.812167  0.700055  1
  Pt  Pt24  1  0.750000  0.383311  0.260326  1
  Pt  Pt25  1  0.250000  0.883311  0.239674  1
  Pt  Pt26  1  0.250000  0.616689  0.739674  1
  Pt  Pt27  1  0.750000  0.116689  0.760326  1
  Pt  Pt28  1  0.250000  0.163252  0.426943  1
  Pt  Pt29  1  0.750000  0.419655  0.584545  1
  Pt  Pt30  1  0.750000  0.080345  0.084545  1
  Pt  Pt31  1  0.250000  0.919655  0.915455  1
  Pt  Pt32  1  0.750000  0.836748  0.573057  1
  Pt  Pt33  1  0.250000  0.336748  0.926943  1
  Pt  Pt34  1  0.750000  0.663252  0.073057  1
  Pt  Pt35  1  0.250000  0.580345  0.415455  1
