# generated using pymatgen
data_La2Pr7Nd7(CdPd)4
_symmetry_space_group_name_H-M   'P 1'
_cell_length_a   10.10274929
_cell_length_b   10.10274953
_cell_length_c   10.10890600
_cell_angle_alpha   59.97983964
_cell_angle_beta   59.97983885
_cell_angle_gamma   60.03917718
_symmetry_Int_Tables_number   1
_chemical_formula_structural   La2Pr7Nd7(CdPd)4
_chemical_formula_sum   'La2 Pr7 Nd7 Cd4 Pd4'
_cell_volume   729.56544406
_cell_formula_units_Z   1
loop_
 _symmetry_equiv_pos_site_id
 _symmetry_equiv_pos_as_xyz
  1  'x, y, z'
loop_
 _atom_site_type_symbol
 _atom_site_label
 _atom_site_symmetry_multiplicity
 _atom_site_fract_x
 _atom_site_fract_y
 _atom_site_fract_z
 _atom_site_occupancy
  La  La0  1  0.350053  0.350053  0.351533  1
  La  La1  1  0.350053  0.350053  0.948362  1
  Pr  Pr2  1  0.807931  0.807931  0.192069  1
  Pr  Pr3  1  0.936808  0.563715  0.565883  1
  Pr  Pr4  1  0.563715  0.936808  0.933595  1
  Pr  Pr5  1  0.563715  0.936808  0.565883  1
  Pr  Pr6  1  0.936808  0.563715  0.933595  1
  Pr  Pr7  1  0.564733  0.564733  0.935267  1
  Pr  Pr8  1  0.935322  0.935322  0.564678  1
  Nd  Nd9  1  0.351309  0.942503  0.353094  1
  Nd  Nd10  1  0.942503  0.351309  0.353094  1
  Nd  Nd11  1  0.810041  0.191482  0.191154  1
  Nd  Nd12  1  0.191482  0.810041  0.807322  1
  Nd  Nd13  1  0.191482  0.810041  0.191154  1
  Nd  Nd14  1  0.810041  0.191482  0.807322  1
  Nd  Nd15  1  0.191193  0.191193  0.808807  1
  Cd  Cd16  1  0.580605  0.580605  0.579473  1
  Cd  Cd17  1  0.580605  0.580605  0.259316  1
  Cd  Cd18  1  0.581241  0.259102  0.579828  1
  Cd  Cd19  1  0.259102  0.581241  0.579828  1
  Pd  Pd20  1  0.143678  0.143678  0.143620  1
  Pd  Pd21  1  0.143678  0.143678  0.569023  1
  Pd  Pd22  1  0.143977  0.569925  0.143049  1
  Pd  Pd23  1  0.569925  0.143977  0.143049  1
