# generated using pymatgen
data_Cs7RbBa4(ZrAs4)2
_symmetry_space_group_name_H-M   'P 1'
_cell_length_a   11.27560799
_cell_length_b   11.21331854
_cell_length_c   8.25861651
_cell_angle_alpha   87.92394238
_cell_angle_beta   87.67282525
_cell_angle_gamma   119.64094207
_symmetry_Int_Tables_number   1
_chemical_formula_structural   Cs7RbBa4(ZrAs4)2
_chemical_formula_sum   'Cs7 Rb1 Ba4 Zr2 As8'
_cell_volume   904.89640440
_cell_formula_units_Z   1
loop_
 _symmetry_equiv_pos_site_id
 _symmetry_equiv_pos_as_xyz
  1  'x, y, z'
loop_
 _atom_site_type_symbol
 _atom_site_label
 _atom_site_symmetry_multiplicity
 _atom_site_fract_x
 _atom_site_fract_y
 _atom_site_fract_z
 _atom_site_occupancy
  Cs  Cs0  1  0.940507  0.474466  0.889180  1
  Cs  Cs1  1  0.868674  0.723356  0.158354  1
  Cs  Cs2  1  0.259011  0.122759  0.243092  1
  Cs  Cs3  1  0.855790  0.141975  0.190774  1
  Cs  Cs4  1  0.123502  0.259012  0.741836  1
  Cs  Cs5  1  0.722542  0.868325  0.657690  1
  Cs  Cs6  1  0.143756  0.857078  0.690939  1
  Rb  Rb7  1  0.473829  0.938616  0.385622  1
  Ba  Ba8  1  0.077327  0.536248  0.399138  1
  Ba  Ba9  1  0.476094  0.533391  0.376457  1
  Ba  Ba10  1  0.533149  0.073286  0.899103  1
  Ba  Ba11  1  0.531963  0.475597  0.876180  1
  Zr  Zr12  1  0.662436  0.335072  0.488442  1
  Zr  Zr13  1  0.338292  0.665666  0.990639  1
  As  As14  1  0.630575  0.326212  0.168239  1
  As  As15  1  0.330520  0.637190  0.667955  1
  As  As16  1  0.217286  0.415924  0.137514  1
  As  As17  1  0.594059  0.791598  0.073779  1
  As  As18  1  0.219738  0.800933  0.099248  1
  As  As19  1  0.789590  0.593209  0.570720  1
  As  As20  1  0.414458  0.215014  0.637855  1
  As  As21  1  0.796711  0.214881  0.592578  1
