# generated using pymatgen
data_Ce3Si3Pd2
_symmetry_space_group_name_H-M   'P 1'
_cell_length_a   5.70715646
_cell_length_b   5.70715600
_cell_length_c   14.46647700
_cell_angle_alpha   90.00000000
_cell_angle_beta   90.00000000
_cell_angle_gamma   135.39123308
_symmetry_Int_Tables_number   1
_chemical_formula_structural   Ce3Si3Pd2
_chemical_formula_sum   'Ce6 Si6 Pd4'
_cell_volume   330.90358147
_cell_formula_units_Z   2
loop_
 _symmetry_equiv_pos_site_id
 _symmetry_equiv_pos_as_xyz
  1  'x, y, z'
loop_
 _atom_site_type_symbol
 _atom_site_label
 _atom_site_symmetry_multiplicity
 _atom_site_fract_x
 _atom_site_fract_y
 _atom_site_fract_z
 _atom_site_occupancy
  Ce  Ce0  1  0.412487  0.587513  0.387541  1
  Ce  Ce1  1  0.587513  0.412487  0.612459  1
  Ce  Ce2  1  0.869441  0.130559  0.750000  1
  Ce  Ce3  1  0.130559  0.869441  0.250000  1
  Ce  Ce4  1  0.412487  0.587513  0.112459  1
  Ce  Ce5  1  0.587513  0.412487  0.887541  1
  Si  Si6  1  0.833834  0.166166  0.250000  1
  Si  Si7  1  0.166166  0.833834  0.750000  1
  Si  Si8  1  0.896171  0.103829  0.540113  1
  Si  Si9  1  0.103829  0.896171  0.459887  1
  Si  Si10  1  0.103829  0.896171  0.040113  1
  Si  Si11  1  0.896171  0.103829  0.959887  1
  Pd  Pd12  1  0.292931  0.707069  0.593415  1
  Pd  Pd13  1  0.707069  0.292931  0.406585  1
  Pd  Pd14  1  0.707069  0.292931  0.093415  1
  Pd  Pd15  1  0.292931  0.707069  0.906585  1
