# generated using pymatgen
data_NdTh3Ge8Ir3Rh
_symmetry_space_group_name_H-M   'P 1'
_cell_length_a   9.60469249
_cell_length_b   9.60180776
_cell_length_c   9.60180603
_cell_angle_alpha   153.29747442
_cell_angle_beta   124.51794253
_cell_angle_gamma   62.60980648
_symmetry_Int_Tables_number   1
_chemical_formula_structural   NdTh3Ge8Ir3Rh
_chemical_formula_sum   'Nd1 Th3 Ge8 Ir3 Rh1'
_cell_volume   325.29499895
_cell_formula_units_Z   1
loop_
 _symmetry_equiv_pos_site_id
 _symmetry_equiv_pos_as_xyz
  1  'x, y, z'
loop_
 _atom_site_type_symbol
 _atom_site_label
 _atom_site_symmetry_multiplicity
 _atom_site_fract_x
 _atom_site_fract_y
 _atom_site_fract_z
 _atom_site_occupancy
  Nd  Nd0  1  0.266102  0.000108  0.265996  1
  Th  Th1  1  0.706749  0.206965  0.499788  1
  Th  Th2  1  0.292708  0.792784  0.499923  1
  Th  Th3  1  0.731213  0.000102  0.731111  1
  Ge  Ge4  1  0.421924  0.423716  0.998208  1
  Ge  Ge5  1  0.574573  0.576169  0.998403  1
  Ge  Ge6  1  0.925147  0.422586  0.502560  1
  Ge  Ge7  1  0.079558  0.577173  0.502384  1
  Ge  Ge8  1  0.042151  0.196726  0.845425  1
  Ge  Ge9  1  0.957989  0.802785  0.155204  1
  Ge  Ge10  1  0.648806  0.803253  0.845552  1
  Ge  Ge11  1  0.353161  0.197809  0.155350  1
  Ir  Ir12  1  0.898856  0.646038  0.252819  1
  Ir  Ir13  1  0.397485  0.650030  0.747456  1
  Ir  Ir14  1  0.606804  0.353868  0.252936  1
  Rh  Rh15  1  0.096775  0.349890  0.746885  1
