# generated using pymatgen
data_Ba3TmIr2O9
_symmetry_space_group_name_H-M   'P 1'
_cell_length_a   5.92464900
_cell_length_b   5.92464828
_cell_length_c   14.61989400
_cell_angle_alpha   90.00000000
_cell_angle_beta   90.00000000
_cell_angle_gamma   119.99999844
_symmetry_Int_Tables_number   1
_chemical_formula_structural   Ba3TmIr2O9
_chemical_formula_sum   'Ba6 Tm2 Ir4 O18'
_cell_volume   444.42661758
_cell_formula_units_Z   2
loop_
 _symmetry_equiv_pos_site_id
 _symmetry_equiv_pos_as_xyz
  1  'x, y, z'
loop_
 _atom_site_type_symbol
 _atom_site_label
 _atom_site_symmetry_multiplicity
 _atom_site_fract_x
 _atom_site_fract_y
 _atom_site_fract_z
 _atom_site_occupancy
  Ba  Ba0  1  0.666667  0.333333  0.410179  1
  Ba  Ba1  1  0.333333  0.666667  0.589821  1
  Ba  Ba2  1  0.333333  0.666667  0.910179  1
  Ba  Ba3  1  0.000000  0.000000  0.250000  1
  Ba  Ba4  1  0.666667  0.333333  0.089821  1
  Ba  Ba5  1  0.000000  0.000000  0.750000  1
  Tm  Tm6  1  0.000000  0.000000  0.500000  1
  Tm  Tm7  1  0.000000  0.000000  0.000000  1
  Ir  Ir8  1  0.333333  0.666667  0.163474  1
  Ir  Ir9  1  0.666667  0.333333  0.836526  1
  Ir  Ir10  1  0.333333  0.666667  0.336526  1
  Ir  Ir11  1  0.666667  0.333333  0.663474  1
  O  O12  1  0.824914  0.649830  0.585340  1
  O  O13  1  0.824914  0.175086  0.914660  1
  O  O14  1  0.649830  0.824914  0.414660  1
  O  O15  1  0.509228  0.490772  0.750000  1
  O  O16  1  0.175086  0.350170  0.414660  1
  O  O17  1  0.350170  0.175086  0.585340  1
  O  O18  1  0.509228  0.018456  0.750000  1
  O  O19  1  0.175086  0.350170  0.085340  1
  O  O20  1  0.490772  0.981544  0.250000  1
  O  O21  1  0.649830  0.824914  0.085340  1
  O  O22  1  0.175086  0.824914  0.414660  1
  O  O23  1  0.350170  0.175086  0.914660  1
  O  O24  1  0.018456  0.509228  0.250000  1
  O  O25  1  0.490772  0.509228  0.250000  1
  O  O26  1  0.981544  0.490772  0.750000  1
  O  O27  1  0.824914  0.649830  0.914660  1
  O  O28  1  0.824914  0.175086  0.585340  1
  O  O29  1  0.175086  0.824914  0.085340  1
