# generated using pymatgen
data_La6Yb(YPt3)2
_symmetry_space_group_name_H-M   'P 1'
_cell_length_a   7.76903789
_cell_length_b   7.76903642
_cell_length_c   7.76903728
_cell_angle_alpha   70.87693974
_cell_angle_beta   70.87693748
_cell_angle_gamma   70.87694008
_symmetry_Int_Tables_number   1
_chemical_formula_structural   La6Yb(YPt3)2
_chemical_formula_sum   'La6 Yb1 Y2 Pt6'
_cell_volume   405.65350645
_cell_formula_units_Z   1
loop_
 _symmetry_equiv_pos_site_id
 _symmetry_equiv_pos_as_xyz
  1  'x, y, z'
loop_
 _atom_site_type_symbol
 _atom_site_label
 _atom_site_symmetry_multiplicity
 _atom_site_fract_x
 _atom_site_fract_y
 _atom_site_fract_z
 _atom_site_occupancy
  La  La0  1  0.327452  0.604758  0.846244  1
  La  La1  1  0.846244  0.327452  0.604758  1
  La  La2  1  0.604758  0.846244  0.327452  1
  La  La3  1  0.672548  0.395242  0.153756  1
  La  La4  1  0.153756  0.672548  0.395242  1
  La  La5  1  0.395242  0.153756  0.672548  1
  Yb  Yb6  1  0.000000  0.000000  0.000000  1
  Y  Y7  1  0.805372  0.805372  0.805372  1
  Y  Y8  1  0.194628  0.194628  0.194628  1
  Pt  Pt9  1  0.166096  0.958800  0.585057  1
  Pt  Pt10  1  0.585057  0.166096  0.958800  1
  Pt  Pt11  1  0.958800  0.585057  0.166096  1
  Pt  Pt12  1  0.833904  0.041200  0.414943  1
  Pt  Pt13  1  0.414943  0.833904  0.041200  1
  Pt  Pt14  1  0.041200  0.414943  0.833904  1
