# generated using pymatgen
data_Y5Nb3Ni16(AsP5)2
_symmetry_space_group_name_H-M   'P 1'
_cell_length_a   12.37578928
_cell_length_b   12.37578888
_cell_length_c   3.79645200
_cell_angle_alpha   90.00000000
_cell_angle_beta   90.00000000
_cell_angle_gamma   119.93043079
_symmetry_Int_Tables_number   1
_chemical_formula_structural   Y5Nb3Ni16(AsP5)2
_chemical_formula_sum   'Y5 Nb3 Ni16 As2 P10'
_cell_volume   503.91625529
_cell_formula_units_Z   1
loop_
 _symmetry_equiv_pos_site_id
 _symmetry_equiv_pos_as_xyz
  1  'x, y, z'
loop_
 _atom_site_type_symbol
 _atom_site_label
 _atom_site_symmetry_multiplicity
 _atom_site_fract_x
 _atom_site_fract_y
 _atom_site_fract_z
 _atom_site_occupancy
  Y  Y0  1  0.186533  0.186533  0.500000  1
  Y  Y1  1  0.819033  0.999921  0.500000  1
  Y  Y2  1  0.999921  0.819033  0.500000  1
  Y  Y3  1  0.333399  0.665679  0.000000  1
  Y  Y4  1  0.665679  0.333399  0.000000  1
  Nb  Nb5  1  0.558658  0.558658  0.000000  1
  Nb  Nb6  1  0.436367  0.001613  0.000000  1
  Nb  Nb7  1  0.001613  0.436367  0.000000  1
  Ni  Ni8  1  0.722401  0.722401  0.500000  1
  Ni  Ni9  1  0.276176  0.000693  0.500000  1
  Ni  Ni10  1  0.000693  0.276176  0.500000  1
  Ni  Ni11  1  0.185029  0.375336  0.000000  1
  Ni  Ni12  1  0.624659  0.801290  0.000000  1
  Ni  Ni13  1  0.197479  0.822893  0.000000  1
  Ni  Ni14  1  0.801290  0.624659  0.000000  1
  Ni  Ni15  1  0.822893  0.197479  0.000000  1
  Ni  Ni16  1  0.375336  0.185029  0.000000  1
  Ni  Ni17  1  0.359925  0.484189  0.500000  1
  Ni  Ni18  1  0.508445  0.868585  0.500000  1
  Ni  Ni19  1  0.131690  0.639659  0.500000  1
  Ni  Ni20  1  0.868585  0.508445  0.500000  1
  Ni  Ni21  1  0.639659  0.131690  0.500000  1
  Ni  Ni22  1  0.484189  0.359925  0.500000  1
  Ni  Ni23  1  0.000239  0.000239  0.000000  1
  As  As24  1  0.639494  0.999536  0.000000  1
  As  As25  1  0.999536  0.639494  0.000000  1
  P  P26  1  0.821978  0.821978  0.000000  1
  P  P27  1  0.178885  0.001930  0.000000  1
  P  P28  1  0.001930  0.178885  0.000000  1
  P  P29  1  0.167927  0.475809  0.500000  1
  P  P30  1  0.521715  0.688177  0.500000  1
  P  P31  1  0.309860  0.833178  0.500000  1
  P  P32  1  0.688177  0.521715  0.500000  1
  P  P33  1  0.833178  0.309860  0.500000  1
  P  P34  1  0.475809  0.167927  0.500000  1
  P  P35  1  0.361621  0.361621  0.000000  1
