# generated using pymatgen
data_Ho5Cd2In2NiPd
_symmetry_space_group_name_H-M   'P 1'
_cell_length_a   3.58082100
_cell_length_b   8.02198213
_cell_length_c   18.18964818
_cell_angle_alpha   90.14237547
_cell_angle_beta   90.00000000
_cell_angle_gamma   90.00000000
_symmetry_Int_Tables_number   1
_chemical_formula_structural   Ho5Cd2In2NiPd
_chemical_formula_sum   'Ho10 Cd4 In4 Ni2 Pd2'
_cell_volume   522.50116161
_cell_formula_units_Z   2
loop_
 _symmetry_equiv_pos_site_id
 _symmetry_equiv_pos_as_xyz
  1  'x, y, z'
loop_
 _atom_site_type_symbol
 _atom_site_label
 _atom_site_symmetry_multiplicity
 _atom_site_fract_x
 _atom_site_fract_y
 _atom_site_fract_z
 _atom_site_occupancy
  Ho  Ho0  1  0.000000  0.500000  0.500000  1
  Ho  Ho1  1  0.000000  0.000000  0.000000  1
  Ho  Ho2  1  0.000000  0.736132  0.276255  1
  Ho  Ho3  1  0.000000  0.263868  0.723745  1
  Ho  Ho4  1  0.000000  0.744145  0.782095  1
  Ho  Ho5  1  0.000000  0.255855  0.217905  1
  Ho  Ho6  1  0.000000  0.611056  0.088367  1
  Ho  Ho7  1  0.000000  0.388944  0.911633  1
  Ho  Ho8  1  0.000000  0.884284  0.585221  1
  Ho  Ho9  1  0.000000  0.115716  0.414779  1
  Cd  Cd10  1  0.500000  0.709467  0.931430  1
  Cd  Cd11  1  0.500000  0.290533  0.068570  1
  Cd  Cd12  1  0.500000  0.787863  0.430305  1
  Cd  Cd13  1  0.500000  0.212137  0.569695  1
  In  In14  1  0.500000  0.571686  0.650410  1
  In  In15  1  0.500000  0.428314  0.349590  1
  In  In16  1  0.500000  0.927442  0.147358  1
  In  In17  1  0.500000  0.072558  0.852642  1
  Ni  Ni18  1  0.500000  0.524125  0.195975  1
  Ni  Ni19  1  0.500000  0.475875  0.804025  1
  Pd  Pd20  1  0.500000  0.973204  0.698212  1
  Pd  Pd21  1  0.500000  0.026796  0.301788  1
