# generated using pymatgen
data_Ho12Si12RuRh3
_symmetry_space_group_name_H-M   'P 1'
_cell_length_a   4.20813800
_cell_length_b   10.67129601
_cell_length_c   12.31297742
_cell_angle_alpha   90.02029353
_cell_angle_beta   90.00000000
_cell_angle_gamma   90.00000000
_symmetry_Int_Tables_number   1
_chemical_formula_structural   Ho12Si12RuRh3
_chemical_formula_sum   'Ho12 Si12 Ru1 Rh3'
_cell_volume   552.93005383
_cell_formula_units_Z   1
loop_
 _symmetry_equiv_pos_site_id
 _symmetry_equiv_pos_as_xyz
  1  'x, y, z'
loop_
 _atom_site_type_symbol
 _atom_site_label
 _atom_site_symmetry_multiplicity
 _atom_site_fract_x
 _atom_site_fract_y
 _atom_site_fract_z
 _atom_site_occupancy
  Ho  Ho0  1  0.250000  0.878916  0.020038  1
  Ho  Ho1  1  0.250000  0.619621  0.520822  1
  Ho  Ho2  1  0.750000  0.120031  0.979524  1
  Ho  Ho3  1  0.750000  0.379711  0.480283  1
  Ho  Ho4  1  0.250000  0.920503  0.603771  1
  Ho  Ho5  1  0.250000  0.579781  0.104742  1
  Ho  Ho6  1  0.750000  0.079839  0.396154  1
  Ho  Ho7  1  0.750000  0.420426  0.895659  1
  Ho  Ho8  1  0.250000  0.661682  0.799962  1
  Ho  Ho9  1  0.250000  0.839217  0.300820  1
  Ho  Ho10  1  0.750000  0.338725  0.198687  1
  Ho  Ho11  1  0.750000  0.159678  0.699119  1
  Si  Si12  1  0.250000  0.013807  0.822505  1
  Si  Si13  1  0.250000  0.485523  0.321953  1
  Si  Si14  1  0.750000  0.986409  0.177782  1
  Si  Si15  1  0.750000  0.511619  0.679312  1
  Si  Si16  1  0.250000  0.248469  0.840056  1
  Si  Si17  1  0.250000  0.252583  0.341948  1
  Si  Si18  1  0.750000  0.752582  0.158406  1
  Si  Si19  1  0.750000  0.748462  0.657693  1
  Si  Si20  1  0.250000  0.202317  0.543055  1
  Si  Si21  1  0.250000  0.299888  0.041234  1
  Si  Si22  1  0.750000  0.800495  0.458228  1
  Si  Si23  1  0.750000  0.698465  0.958059  1
  Ru  Ru24  1  0.250000  0.391885  0.681482  1
  Rh  Rh25  1  0.250000  0.109629  0.183023  1
  Rh  Rh26  1  0.750000  0.609183  0.317934  1
  Rh  Rh27  1  0.750000  0.890552  0.817751  1
