# generated using pymatgen
data_Hf8In4CoAu7
_symmetry_space_group_name_H-M   'P 1'
_cell_length_a   7.55217400
_cell_length_b   7.55217372
_cell_length_c   6.98995403
_cell_angle_alpha   90.23828892
_cell_angle_beta   90.23828834
_cell_angle_gamma   90.21531059
_symmetry_Int_Tables_number   1
_chemical_formula_structural   Hf8In4CoAu7
_chemical_formula_sum   'Hf8 In4 Co1 Au7'
_cell_volume   398.66459822
_cell_formula_units_Z   1
loop_
 _symmetry_equiv_pos_site_id
 _symmetry_equiv_pos_as_xyz
  1  'x, y, z'
loop_
 _atom_site_type_symbol
 _atom_site_label
 _atom_site_symmetry_multiplicity
 _atom_site_fract_x
 _atom_site_fract_y
 _atom_site_fract_z
 _atom_site_occupancy
  Hf  Hf0  1  0.157640  0.157640  0.013531  1
  Hf  Hf1  1  0.855929  0.855929  0.998449  1
  Hf  Hf2  1  0.629432  0.343683  0.486671  1
  Hf  Hf3  1  0.343683  0.629432  0.486671  1
  Hf  Hf4  1  0.678421  0.306748  0.008377  1
  Hf  Hf5  1  0.306748  0.678421  0.008377  1
  Hf  Hf6  1  0.809648  0.809648  0.499293  1
  Hf  Hf7  1  0.205496  0.205496  0.485920  1
  In  In8  1  0.498478  0.005828  0.244204  1
  In  In9  1  0.499119  0.996419  0.747347  1
  In  In10  1  0.005828  0.498478  0.244204  1
  In  In11  1  0.996419  0.499119  0.747347  1
  Co  Co12  1  0.372547  0.372547  0.219533  1
  Au  Au13  1  0.630589  0.630589  0.785857  1
  Au  Au14  1  0.629315  0.629315  0.207402  1
  Au  Au15  1  0.871517  0.135417  0.713227  1
  Au  Au16  1  0.871915  0.132604  0.294627  1
  Au  Au17  1  0.369256  0.369256  0.801107  1
  Au  Au18  1  0.132604  0.871915  0.294627  1
  Au  Au19  1  0.135417  0.871517  0.713227  1
