# generated using pymatgen
data_Pr16Cd2Hg2Ir3Pd
_symmetry_space_group_name_H-M   'P 1'
_cell_length_a   10.02375014
_cell_length_b   10.02374926
_cell_length_c   10.03729475
_cell_angle_alpha   60.24599544
_cell_angle_beta   60.24600573
_cell_angle_gamma   60.33561568
_symmetry_Int_Tables_number   1
_chemical_formula_structural   Pr16Cd2Hg2Ir3Pd
_chemical_formula_sum   'Pr16 Cd2 Hg2 Ir3 Pd1'
_cell_volume   717.57053455
_cell_formula_units_Z   1
loop_
 _symmetry_equiv_pos_site_id
 _symmetry_equiv_pos_as_xyz
  1  'x, y, z'
loop_
 _atom_site_type_symbol
 _atom_site_label
 _atom_site_symmetry_multiplicity
 _atom_site_fract_x
 _atom_site_fract_y
 _atom_site_fract_z
 _atom_site_occupancy
  Pr  Pr0  1  0.347381  0.347381  0.347118  1
  Pr  Pr1  1  0.353644  0.353644  0.947519  1
  Pr  Pr2  1  0.354171  0.946006  0.353919  1
  Pr  Pr3  1  0.946006  0.354171  0.353919  1
  Pr  Pr4  1  0.804129  0.190820  0.191268  1
  Pr  Pr5  1  0.189499  0.808702  0.808822  1
  Pr  Pr6  1  0.190820  0.804129  0.191268  1
  Pr  Pr7  1  0.808702  0.189499  0.808822  1
  Pr  Pr8  1  0.190288  0.190288  0.804944  1
  Pr  Pr9  1  0.807810  0.807810  0.190635  1
  Pr  Pr10  1  0.939769  0.561832  0.562129  1
  Pr  Pr11  1  0.561892  0.938196  0.939685  1
  Pr  Pr12  1  0.561832  0.939769  0.562129  1
  Pr  Pr13  1  0.938196  0.561892  0.939685  1
  Pr  Pr14  1  0.561619  0.561619  0.941182  1
  Pr  Pr15  1  0.938550  0.938550  0.562138  1
  Cd  Cd16  1  0.579312  0.259580  0.580228  1
  Cd  Cd17  1  0.259580  0.579312  0.580228  1
  Hg  Hg18  1  0.583298  0.583298  0.585409  1
  Hg  Hg19  1  0.583246  0.583246  0.248339  1
  Ir  Ir20  1  0.141841  0.141841  0.573666  1
  Ir  Ir21  1  0.141779  0.573720  0.141889  1
  Ir  Ir22  1  0.573720  0.141779  0.141889  1
  Pd  Pd23  1  0.142911  0.142911  0.143167  1
