# generated using pymatgen
data_La8Mg3Hg3Au20
_symmetry_space_group_name_H-M   'P 1'
_cell_length_a   8.82028789
_cell_length_b   8.82028809
_cell_length_c   10.48006415
_cell_angle_alpha   90.10948787
_cell_angle_beta   89.89051031
_cell_angle_gamma   107.95975052
_symmetry_Int_Tables_number   1
_chemical_formula_structural   La8Mg3Hg3Au20
_chemical_formula_sum   'La8 Mg3 Hg3 Au20'
_cell_volume   775.59248931
_cell_formula_units_Z   1
loop_
 _symmetry_equiv_pos_site_id
 _symmetry_equiv_pos_as_xyz
  1  'x, y, z'
loop_
 _atom_site_type_symbol
 _atom_site_label
 _atom_site_symmetry_multiplicity
 _atom_site_fract_x
 _atom_site_fract_y
 _atom_site_fract_z
 _atom_site_occupancy
  La  La0  1  0.705963  0.300870  0.996249  1
  La  La1  1  0.294644  0.701434  0.998202  1
  La  La2  1  0.800870  0.205963  0.503751  1
  La  La3  1  0.201434  0.794644  0.501798  1
  La  La4  1  0.296302  0.303139  0.205659  1
  La  La5  1  0.700718  0.702043  0.795052  1
  La  La6  1  0.202043  0.200718  0.704948  1
  La  La7  1  0.803139  0.796302  0.294341  1
  Mg  Mg8  1  0.512390  0.012390  0.250000  1
  Mg  Mg9  1  0.001854  0.001304  0.002721  1
  Mg  Mg10  1  0.501304  0.501854  0.497279  1
  Hg  Hg11  1  0.016940  0.516940  0.250000  1
  Hg  Hg12  1  0.981862  0.481862  0.750000  1
  Hg  Hg13  1  0.480901  0.980901  0.750000  1
  Au  Au14  1  0.095802  0.094902  0.405718  1
  Au  Au15  1  0.903551  0.904570  0.593300  1
  Au  Au16  1  0.404570  0.403551  0.906700  1
  Au  Au17  1  0.594902  0.595802  0.094282  1
  Au  Au18  1  0.880654  0.157583  0.207770  1
  Au  Au19  1  0.105181  0.840964  0.797085  1
  Au  Au20  1  0.602331  0.338440  0.701940  1
  Au  Au21  1  0.657583  0.380654  0.292230  1
  Au  Au22  1  0.396948  0.672358  0.293135  1
  Au  Au23  1  0.340964  0.605181  0.702915  1
  Au  Au24  1  0.838440  0.102331  0.798060  1
  Au  Au25  1  0.172358  0.896948  0.206865  1
  Au  Au26  1  0.929934  0.669495  0.023125  1
  Au  Au27  1  0.069715  0.331312  0.978755  1
  Au  Au28  1  0.570327  0.841748  0.514942  1
  Au  Au29  1  0.169495  0.429934  0.476875  1
  Au  Au30  1  0.433106  0.160717  0.470659  1
  Au  Au31  1  0.831312  0.569715  0.521245  1
  Au  Au32  1  0.341748  0.070327  0.985058  1
  Au  Au33  1  0.660717  0.933106  0.029341  1
