# generated using pymatgen
data_Dy17(ThIr4)3
_symmetry_space_group_name_H-M   'P 1'
_cell_length_a   11.07387940
_cell_length_b   10.95992644
_cell_length_c   6.34847586
_cell_angle_alpha   90.03172587
_cell_angle_beta   89.79075585
_cell_angle_gamma   89.87083536
_symmetry_Int_Tables_number   1
_chemical_formula_structural   Dy17(ThIr4)3
_chemical_formula_sum   'Dy17 Th3 Ir12'
_cell_volume   770.50033716
_cell_formula_units_Z   1
loop_
 _symmetry_equiv_pos_site_id
 _symmetry_equiv_pos_as_xyz
  1  'x, y, z'
loop_
 _atom_site_type_symbol
 _atom_site_label
 _atom_site_symmetry_multiplicity
 _atom_site_fract_x
 _atom_site_fract_y
 _atom_site_fract_z
 _atom_site_occupancy
  Dy  Dy0  1  0.706431  0.907487  0.376991  1
  Dy  Dy1  1  0.592683  0.786690  0.879954  1
  Dy  Dy2  1  0.591765  0.210611  0.379274  1
  Dy  Dy3  1  0.415447  0.787011  0.379003  1
  Dy  Dy4  1  0.410449  0.214604  0.878645  1
  Dy  Dy5  1  0.207890  0.412832  0.620961  1
  Dy  Dy6  1  0.207204  0.588389  0.120031  1
  Dy  Dy7  1  0.791563  0.413019  0.120096  1
  Dy  Dy8  1  0.792488  0.588185  0.619894  1
  Dy  Dy9  1  0.911167  0.707633  0.119990  1
  Dy  Dy10  1  0.913897  0.292932  0.617199  1
  Dy  Dy11  1  0.085597  0.705928  0.618051  1
  Dy  Dy12  1  0.085844  0.294060  0.115195  1
  Dy  Dy13  1  0.995383  0.998507  0.500228  1
  Dy  Dy14  1  0.999999  0.999838  0.001286  1
  Dy  Dy15  1  0.499560  0.499619  0.006089  1
  Dy  Dy16  1  0.501984  0.498636  0.506445  1
  Th  Th17  1  0.292776  0.094832  0.378992  1
  Th  Th18  1  0.291561  0.905430  0.879430  1
  Th  Th19  1  0.707277  0.091133  0.881690  1
  Ir  Ir20  1  0.847067  0.155192  0.242603  1
  Ir  Ir21  1  0.843259  0.849201  0.754037  1
  Ir  Ir22  1  0.155685  0.150676  0.745270  1
  Ir  Ir23  1  0.155991  0.848484  0.248564  1
  Ir  Ir24  1  0.654930  0.345022  0.754558  1
  Ir  Ir25  1  0.654347  0.651041  0.253252  1
  Ir  Ir26  1  0.345531  0.346606  0.257006  1
  Ir  Ir27  1  0.346625  0.655110  0.755036  1
  Ir  Ir28  1  0.497447  0.000609  0.117387  1
  Ir  Ir29  1  0.499456  0.999676  0.623278  1
  Ir  Ir30  1  0.999350  0.500303  0.874755  1
  Ir  Ir31  1  0.999348  0.500703  0.374811  1
