# generated using pymatgen
data_Er6Tm4Cd3Ru
_symmetry_space_group_name_H-M   'P 1'
_cell_length_a   9.47036900
_cell_length_b   9.47037000
_cell_length_c   9.74779400
_cell_angle_alpha   90.00000000
_cell_angle_beta   90.00000000
_cell_angle_gamma   120.00000001
_symmetry_Int_Tables_number   1
_chemical_formula_structural   Er6Tm4Cd3Ru
_chemical_formula_sum   'Er12 Tm8 Cd6 Ru2'
_cell_volume   757.13064049
_cell_formula_units_Z   2
loop_
 _symmetry_equiv_pos_site_id
 _symmetry_equiv_pos_as_xyz
  1  'x, y, z'
loop_
 _atom_site_type_symbol
 _atom_site_label
 _atom_site_symmetry_multiplicity
 _atom_site_fract_x
 _atom_site_fract_y
 _atom_site_fract_z
 _atom_site_occupancy
  Er  Er0  1  0.209770  0.790230  0.440719  1
  Er  Er1  1  0.209770  0.419541  0.440719  1
  Er  Er2  1  0.580459  0.790230  0.440719  1
  Er  Er3  1  0.790230  0.209770  0.559281  1
  Er  Er4  1  0.790230  0.580459  0.559281  1
  Er  Er5  1  0.419541  0.209770  0.559281  1
  Er  Er6  1  0.541067  0.458933  0.249809  1
  Er  Er7  1  0.541067  0.082133  0.249809  1
  Er  Er8  1  0.917867  0.458933  0.249809  1
  Er  Er9  1  0.458933  0.541067  0.750191  1
  Er  Er10  1  0.458933  0.917867  0.750191  1
  Er  Er11  1  0.082133  0.541067  0.750191  1
  Tm  Tm12  1  0.000000  0.000000  0.500000  1
  Tm  Tm13  1  0.000000  0.000000  0.000000  1
  Tm  Tm14  1  0.790120  0.209880  0.940796  1
  Tm  Tm15  1  0.790120  0.580239  0.940796  1
  Tm  Tm16  1  0.419761  0.209880  0.940796  1
  Tm  Tm17  1  0.209880  0.790120  0.059204  1
  Tm  Tm18  1  0.209880  0.419761  0.059204  1
  Tm  Tm19  1  0.580239  0.790120  0.059204  1
  Cd  Cd20  1  0.885541  0.114459  0.249896  1
  Cd  Cd21  1  0.885541  0.771083  0.249896  1
  Cd  Cd22  1  0.228917  0.114459  0.249896  1
  Cd  Cd23  1  0.114459  0.885541  0.750104  1
  Cd  Cd24  1  0.114459  0.228917  0.750104  1
  Cd  Cd25  1  0.771083  0.885541  0.750104  1
  Ru  Ru26  1  0.333333  0.666667  0.249702  1
  Ru  Ru27  1  0.666667  0.333333  0.750298  1
