# generated using pymatgen
data_Y8ZnSBr12
_symmetry_space_group_name_H-M   'P 1'
_cell_length_a   3.96473800
_cell_length_b   13.38734349
_cell_length_c   14.02367900
_cell_angle_alpha   90.13193923
_cell_angle_beta   90.00000000
_cell_angle_gamma   90.00000000
_symmetry_Int_Tables_number   1
_chemical_formula_structural   Y8ZnSBr12
_chemical_formula_sum   'Y8 Zn1 S1 Br12'
_cell_volume   744.33717671
_cell_formula_units_Z   1
loop_
 _symmetry_equiv_pos_site_id
 _symmetry_equiv_pos_as_xyz
  1  'x, y, z'
loop_
 _atom_site_type_symbol
 _atom_site_label
 _atom_site_symmetry_multiplicity
 _atom_site_fract_x
 _atom_site_fract_y
 _atom_site_fract_z
 _atom_site_occupancy
  Y  Y0  1  0.500000  0.114980  0.348813  1
  Y  Y1  1  0.500000  0.885020  0.651187  1
  Y  Y2  1  0.500000  0.622455  0.158854  1
  Y  Y3  1  0.500000  0.377545  0.841146  1
  Y  Y4  1  0.000000  0.108986  0.575610  1
  Y  Y5  1  0.000000  0.891014  0.424390  1
  Y  Y6  1  0.000000  0.621104  0.914698  1
  Y  Y7  1  0.000000  0.378896  0.085302  1
  Zn  Zn8  1  0.500000  0.500000  0.000000  1
  S  S9  1  0.500000  0.000000  0.500000  1
  Br  Br10  1  0.500000  0.245663  0.174597  1
  Br  Br11  1  0.500000  0.754337  0.825403  1
  Br  Br12  1  0.500000  0.756318  0.335235  1
  Br  Br13  1  0.500000  0.243682  0.664765  1
  Br  Br14  1  0.000000  0.253173  0.419006  1
  Br  Br15  1  0.000000  0.746827  0.580994  1
  Br  Br16  1  0.000000  0.759428  0.083061  1
  Br  Br17  1  0.000000  0.240572  0.916939  1
  Br  Br18  1  0.000000  0.002272  0.245146  1
  Br  Br19  1  0.000000  0.997728  0.754854  1
  Br  Br20  1  0.000000  0.506863  0.262110  1
  Br  Br21  1  0.000000  0.493137  0.737890  1
