# generated using pymatgen
data_Ho6CrB14Os
_symmetry_space_group_name_H-M   'P 1'
_cell_length_a   8.03522281
_cell_length_b   8.03522199
_cell_length_c   9.30035300
_cell_angle_alpha   90.00000000
_cell_angle_beta   90.00000000
_cell_angle_gamma   155.04906082
_symmetry_Int_Tables_number   1
_chemical_formula_structural   Ho6CrB14Os
_chemical_formula_sum   'Ho6 Cr1 B14 Os1'
_cell_volume   253.30578913
_cell_formula_units_Z   1
loop_
 _symmetry_equiv_pos_site_id
 _symmetry_equiv_pos_as_xyz
  1  'x, y, z'
loop_
 _atom_site_type_symbol
 _atom_site_label
 _atom_site_symmetry_multiplicity
 _atom_site_fract_x
 _atom_site_fract_y
 _atom_site_fract_z
 _atom_site_occupancy
  Ho  Ho0  1  0.105645  0.894355  0.062170  1
  Ho  Ho1  1  0.894321  0.105679  0.940738  1
  Ho  Ho2  1  0.758010  0.241990  0.250000  1
  Ho  Ho3  1  0.243920  0.756080  0.750000  1
  Ho  Ho4  1  0.105645  0.894355  0.437830  1
  Ho  Ho5  1  0.894321  0.105679  0.559262  1
  Cr  Cr6  1  0.947189  0.052811  0.250000  1
  B  B7  1  0.726933  0.273067  0.533865  1
  B  B8  1  0.272180  0.727820  0.466738  1
  B  B9  1  0.272180  0.727820  0.033262  1
  B  B10  1  0.726933  0.273067  0.966135  1
  B  B11  1  0.520604  0.479396  0.905102  1
  B  B12  1  0.478859  0.521141  0.095894  1
  B  B13  1  0.478859  0.521141  0.404106  1
  B  B14  1  0.520604  0.479396  0.594898  1
  B  B15  1  0.456990  0.543010  0.750000  1
  B  B16  1  0.541771  0.458229  0.250000  1
  B  B17  1  0.631884  0.368116  0.649625  1
  B  B18  1  0.368583  0.631417  0.348519  1
  B  B19  1  0.368583  0.631417  0.151481  1
  B  B20  1  0.631884  0.368116  0.850375  1
  Os  Os21  1  0.054102  0.945898  0.750000  1
