# generated using pymatgen
data_Eu2CuB2Pd5Pt2
_symmetry_space_group_name_H-M   'P 1'
_cell_length_a   5.54681145
_cell_length_b   5.54681194
_cell_length_c   7.46929292
_cell_angle_alpha   90.10117798
_cell_angle_beta   89.89882313
_cell_angle_gamma   119.89549511
_symmetry_Int_Tables_number   1
_chemical_formula_structural   Eu2CuB2Pd5Pt2
_chemical_formula_sum   'Eu2 Cu1 B2 Pd5 Pt2'
_cell_volume   199.22894739
_cell_formula_units_Z   1
loop_
 _symmetry_equiv_pos_site_id
 _symmetry_equiv_pos_as_xyz
  1  'x, y, z'
loop_
 _atom_site_type_symbol
 _atom_site_label
 _atom_site_symmetry_multiplicity
 _atom_site_fract_x
 _atom_site_fract_y
 _atom_site_fract_z
 _atom_site_occupancy
  Eu  Eu0  1  0.999766  0.000234  0.503375  1
  Eu  Eu1  1  0.000105  0.999895  0.007075  1
  Cu  Cu2  1  0.668662  0.331338  0.998644  1
  B  B3  1  0.669356  0.330644  0.497140  1
  B  B4  1  0.330658  0.669342  0.497537  1
  Pd  Pd5  1  0.500284  0.499716  0.696546  1
  Pd  Pd6  1  0.500464  0.002057  0.700941  1
  Pd  Pd7  1  0.997943  0.499536  0.700941  1
  Pd  Pd8  1  0.500704  0.499296  0.298607  1
  Pd  Pd9  1  0.332762  0.667238  0.998286  1
  Pt  Pt10  1  0.500356  0.001059  0.300453  1
  Pt  Pt11  1  0.998941  0.499644  0.300453  1
