# generated using pymatgen
data_Er14Lu6Bi7Sb5
_symmetry_space_group_name_H-M   'P 1'
_cell_length_a   8.10086632
_cell_length_b   9.33361005
_cell_length_c   11.84189569
_cell_angle_alpha   90.04608424
_cell_angle_beta   89.93509006
_cell_angle_gamma   89.94286615
_symmetry_Int_Tables_number   1
_chemical_formula_structural   Er14Lu6Bi7Sb5
_chemical_formula_sum   'Er14 Lu6 Bi7 Sb5'
_cell_volume   895.36829832
_cell_formula_units_Z   1
loop_
 _symmetry_equiv_pos_site_id
 _symmetry_equiv_pos_as_xyz
  1  'x, y, z'
loop_
 _atom_site_type_symbol
 _atom_site_label
 _atom_site_symmetry_multiplicity
 _atom_site_fract_x
 _atom_site_fract_y
 _atom_site_fract_z
 _atom_site_occupancy
  Er  Er0  1  0.355857  0.753625  0.215383  1
  Er  Er1  1  0.848688  0.752999  0.286318  1
  Er  Er2  1  0.648587  0.249956  0.785604  1
  Er  Er3  1  0.148455  0.250064  0.714073  1
  Er  Er4  1  0.686195  0.937253  0.059915  1
  Er  Er5  1  0.188820  0.563468  0.442171  1
  Er  Er6  1  0.474943  0.247280  0.487204  1
  Er  Er7  1  0.974297  0.250311  0.011692  1
  Er  Er8  1  0.527246  0.752510  0.509886  1
  Er  Er9  1  0.025830  0.749908  0.988634  1
  Er  Er10  1  0.318562  0.246840  0.217515  1
  Er  Er11  1  0.813312  0.245662  0.283794  1
  Er  Er12  1  0.683672  0.749944  0.783181  1
  Er  Er13  1  0.183787  0.750234  0.716848  1
  Lu  Lu14  1  0.687734  0.566712  0.057898  1
  Lu  Lu15  1  0.189818  0.934894  0.441530  1
  Lu  Lu16  1  0.312614  0.065935  0.942650  1
  Lu  Lu17  1  0.811614  0.433786  0.556944  1
  Lu  Lu18  1  0.311673  0.434935  0.942377  1
  Lu  Lu19  1  0.810364  0.064219  0.555633  1
  Bi  Bi20  1  0.065108  0.504083  0.175925  1
  Bi  Bi21  1  0.434923  0.496009  0.673886  1
  Bi  Bi22  1  0.934224  0.004071  0.824722  1
  Bi  Bi23  1  0.434637  0.003986  0.675351  1
  Bi  Bi24  1  0.934434  0.495863  0.824848  1
  Bi  Bi25  1  0.565487  0.503601  0.324909  1
  Bi  Bi26  1  0.065731  0.995878  0.174716  1
  Sb  Sb27  1  0.403561  0.749747  0.957734  1
  Sb  Sb28  1  0.905054  0.749774  0.542448  1
  Sb  Sb29  1  0.595371  0.253215  0.041631  1
  Sb  Sb30  1  0.094742  0.247657  0.457857  1
  Sb  Sb31  1  0.564662  0.995580  0.326723  1
