# generated using pymatgen
data_Nd3DyIrRh3O14
_symmetry_space_group_name_H-M   'P 1'
_cell_length_a   7.33384433
_cell_length_b   7.37052118
_cell_length_c   7.37395900
_cell_angle_alpha   59.98457397
_cell_angle_beta   59.81889941
_cell_angle_gamma   59.76740755
_symmetry_Int_Tables_number   1
_chemical_formula_structural   Nd3DyIrRh3O14
_chemical_formula_sum   'Nd3 Dy1 Ir1 Rh3 O14'
_cell_volume   280.93133315
_cell_formula_units_Z   1
loop_
 _symmetry_equiv_pos_site_id
 _symmetry_equiv_pos_as_xyz
  1  'x, y, z'
loop_
 _atom_site_type_symbol
 _atom_site_label
 _atom_site_symmetry_multiplicity
 _atom_site_fract_x
 _atom_site_fract_y
 _atom_site_fract_z
 _atom_site_occupancy
  Nd  Nd0  1  0.125000  0.625000  0.125000  1
  Nd  Nd1  1  0.125000  0.125000  0.625000  1
  Nd  Nd2  1  0.125000  0.125000  0.125000  1
  Dy  Dy3  1  0.625000  0.125000  0.125000  1
  Ir  Ir4  1  0.625000  0.125000  0.625000  1
  Rh  Rh5  1  0.125000  0.625000  0.625000  1
  Rh  Rh6  1  0.625000  0.625000  0.125000  1
  Rh  Rh7  1  0.625000  0.625000  0.625000  1
  O  O8  1  0.700810  0.719631  0.289780  1
  O  O9  1  0.296817  0.290862  0.706161  1
  O  O10  1  0.699511  0.290500  0.713309  1
  O  O11  1  0.290431  0.711775  0.290154  1
  O  O12  1  0.290431  0.711775  0.707640  1
  O  O13  1  0.699511  0.290500  0.296681  1
  O  O14  1  0.549190  0.530369  0.960220  1
  O  O15  1  0.953183  0.959138  0.543839  1
  O  O16  1  0.550489  0.959500  0.536691  1
  O  O17  1  0.959569  0.538225  0.959846  1
  O  O18  1  0.959569  0.538225  0.542360  1
  O  O19  1  0.550489  0.959500  0.953319  1
  O  O20  1  0.260800  0.244101  0.247550  1
  O  O21  1  0.989200  0.005899  0.002450  1
