# generated using pymatgen
data_Tm2LuTa3(B2Ru5)2
_symmetry_space_group_name_H-M   'P 1'
_cell_length_a   9.55815168
_cell_length_b   9.55815199
_cell_length_c   3.11024300
_cell_angle_alpha   90.00000000
_cell_angle_beta   90.00000000
_cell_angle_gamma   90.30123962
_symmetry_Int_Tables_number   1
_chemical_formula_structural   Tm2LuTa3(B2Ru5)2
_chemical_formula_sum   'Tm2 Lu1 Ta3 B4 Ru10'
_cell_volume   284.14248164
_cell_formula_units_Z   1
loop_
 _symmetry_equiv_pos_site_id
 _symmetry_equiv_pos_as_xyz
  1  'x, y, z'
loop_
 _atom_site_type_symbol
 _atom_site_label
 _atom_site_symmetry_multiplicity
 _atom_site_fract_x
 _atom_site_fract_y
 _atom_site_fract_z
 _atom_site_occupancy
  Tm  Tm0  1  0.824279  0.674969  0.000000  1
  Tm  Tm1  1  0.174969  0.324279  0.000000  1
  Lu  Lu2  1  0.325718  0.825718  0.000000  1
  Ta  Ta3  1  0.675377  0.175377  0.000000  1
  Ta  Ta4  1  0.498089  0.503325  0.000000  1
  Ta  Ta5  1  0.003325  0.998089  0.000000  1
  B  B6  1  0.623166  0.880526  0.000000  1
  B  B7  1  0.380526  0.123166  0.000000  1
  B  B8  1  0.119328  0.619328  0.000000  1
  B  B9  1  0.876555  0.376555  0.000000  1
  Ru  Ru10  1  0.571026  0.721782  0.500000  1
  Ru  Ru11  1  0.439724  0.280567  0.500000  1
  Ru  Ru12  1  0.070394  0.780642  0.500000  1
  Ru  Ru13  1  0.916492  0.213470  0.500000  1
  Ru  Ru14  1  0.280642  0.570394  0.500000  1
  Ru  Ru15  1  0.713470  0.416492  0.500000  1
  Ru  Ru16  1  0.221782  0.071026  0.500000  1
  Ru  Ru17  1  0.780567  0.939724  0.500000  1
  Ru  Ru18  1  0.508310  0.008310  0.500000  1
  Ru  Ru19  1  0.996260  0.496260  0.500000  1
