# generated using pymatgen
data_LiAg2P11
_symmetry_space_group_name_H-M   'P 1'
_cell_length_a   7.56575391
_cell_length_b   7.56575399
_cell_length_c   6.66605445
_cell_angle_alpha   66.10104882
_cell_angle_beta   66.10104825
_cell_angle_gamma   60.51341842
_symmetry_Int_Tables_number   1
_chemical_formula_structural   LiAg2P11
_chemical_formula_sum   'Li1 Ag2 P11'
_cell_volume   293.34697395
_cell_formula_units_Z   1
loop_
 _symmetry_equiv_pos_site_id
 _symmetry_equiv_pos_as_xyz
  1  'x, y, z'
loop_
 _atom_site_type_symbol
 _atom_site_label
 _atom_site_symmetry_multiplicity
 _atom_site_fract_x
 _atom_site_fract_y
 _atom_site_fract_z
 _atom_site_occupancy
  Li  Li0  1  0.290896  0.290896  0.974654  1
  Ag  Ag1  1  0.589862  0.589862  0.194920  1
  Ag  Ag2  1  0.999601  0.999601  0.998078  1
  P  P3  1  0.811219  0.811219  0.954370  1
  P  P4  1  0.492463  0.492463  0.942120  1
  P  P5  1  0.082597  0.082597  0.275657  1
  P  P6  1  0.263412  0.775480  0.469342  1
  P  P7  1  0.775480  0.263412  0.469342  1
  P  P8  1  0.612833  0.909922  0.498767  1
  P  P9  1  0.909922  0.612833  0.498767  1
  P  P10  1  0.610115  0.057277  0.727747  1
  P  P11  1  0.057277  0.610115  0.727747  1
  P  P12  1  0.351550  0.808777  0.734045  1
  P  P13  1  0.808777  0.351550  0.734045  1
