# generated using pymatgen
data_ErZrSc2(SiMo)4
_symmetry_space_group_name_H-M   'P 1'
_cell_length_a   3.56699400
_cell_length_b   7.08108954
_cell_length_c   8.26965231
_cell_angle_alpha   90.18968533
_cell_angle_beta   90.00000000
_cell_angle_gamma   90.00000000
_symmetry_Int_Tables_number   1
_chemical_formula_structural   ErZrSc2(SiMo)4
_chemical_formula_sum   'Er1 Zr1 Sc2 Si4 Mo4'
_cell_volume   208.87541972
_cell_formula_units_Z   1
loop_
 _symmetry_equiv_pos_site_id
 _symmetry_equiv_pos_as_xyz
  1  'x, y, z'
loop_
 _atom_site_type_symbol
 _atom_site_label
 _atom_site_symmetry_multiplicity
 _atom_site_fract_x
 _atom_site_fract_y
 _atom_site_fract_z
 _atom_site_occupancy
  Er  Er0  1  0.750000  0.956272  0.664571  1
  Zr  Zr1  1  0.750000  0.456557  0.834625  1
  Sc  Sc2  1  0.250000  0.043775  0.330540  1
  Sc  Sc3  1  0.250000  0.541879  0.165595  1
  Si  Si4  1  0.250000  0.263489  0.636964  1
  Si  Si5  1  0.250000  0.754133  0.868545  1
  Si  Si6  1  0.750000  0.740012  0.358782  1
  Si  Si7  1  0.750000  0.242850  0.138358  1
  Mo  Mo8  1  0.250000  0.129572  0.942857  1
  Mo  Mo9  1  0.250000  0.624462  0.556979  1
  Mo  Mo10  1  0.750000  0.872968  0.061210  1
  Mo  Mo11  1  0.750000  0.374031  0.440975  1
