# generated using pymatgen
data_Ho3ErSc6(In2Pt)4
_symmetry_space_group_name_H-M   'P 1'
_cell_length_a   3.55436100
_cell_length_b   7.86737638
_cell_length_c   17.70875286
_cell_angle_alpha   90.03563759
_cell_angle_beta   90.00000000
_cell_angle_gamma   90.00000000
_symmetry_Int_Tables_number   1
_chemical_formula_structural   Ho3ErSc6(In2Pt)4
_chemical_formula_sum   'Ho3 Er1 Sc6 In8 Pt4'
_cell_volume   495.19853996
_cell_formula_units_Z   1
loop_
 _symmetry_equiv_pos_site_id
 _symmetry_equiv_pos_as_xyz
  1  'x, y, z'
loop_
 _atom_site_type_symbol
 _atom_site_label
 _atom_site_symmetry_multiplicity
 _atom_site_fract_x
 _atom_site_fract_y
 _atom_site_fract_z
 _atom_site_occupancy
  Ho  Ho0  1  0.000000  0.243268  0.219621  1
  Ho  Ho1  1  0.000000  0.756738  0.780385  1
  Ho  Ho2  1  0.000000  0.256771  0.719618  1
  Er  Er3  1  0.000000  0.743316  0.280254  1
  Sc  Sc4  1  0.000000  0.116494  0.415988  1
  Sc  Sc5  1  0.000000  0.883461  0.583984  1
  Sc  Sc6  1  0.000000  0.383480  0.916009  1
  Sc  Sc7  1  0.000000  0.616571  0.084035  1
  Sc  Sc8  1  0.000000  0.999980  0.000005  1
  Sc  Sc9  1  0.000000  0.499981  0.500009  1
  In  In10  1  0.500000  0.419313  0.355579  1
  In  In11  1  0.500000  0.580860  0.644401  1
  In  In12  1  0.500000  0.080869  0.855590  1
  In  In13  1  0.500000  0.919029  0.144479  1
  In  In14  1  0.500000  0.294306  0.061109  1
  In  In15  1  0.500000  0.705719  0.938904  1
  In  In16  1  0.500000  0.205759  0.561081  1
  In  In17  1  0.500000  0.794177  0.438822  1
  Pt  Pt18  1  0.500000  0.029426  0.308132  1
  Pt  Pt19  1  0.500000  0.970027  0.691806  1
  Pt  Pt20  1  0.500000  0.470053  0.808202  1
  Pt  Pt21  1  0.500000  0.530402  0.191988  1
