# generated using pymatgen
data_YU3(BRu)16
_symmetry_space_group_name_H-M   'P 1'
_cell_length_a   9.21092207
_cell_length_b   7.48540950
_cell_length_c   7.48540954
_cell_angle_alpha   90.04339160
_cell_angle_beta   113.95540844
_cell_angle_gamma   113.95541266
_symmetry_Int_Tables_number   1
_chemical_formula_structural   YU3(BRu)16
_chemical_formula_sum   'Y1 U3 B16 Ru16'
_cell_volume   422.45783752
_cell_formula_units_Z   1
loop_
 _symmetry_equiv_pos_site_id
 _symmetry_equiv_pos_as_xyz
  1  'x, y, z'
loop_
 _atom_site_type_symbol
 _atom_site_label
 _atom_site_symmetry_multiplicity
 _atom_site_fract_x
 _atom_site_fract_y
 _atom_site_fract_z
 _atom_site_occupancy
  Y  Y0  1  0.749999  0.875000  0.125000  1
  U  U1  1  0.250000  0.625000  0.375000  1
  U  U2  1  0.749999  0.375000  0.625000  1
  U  U3  1  0.250000  0.125000  0.875000  1
  B  B4  1  0.913765  0.625430  0.064459  1
  B  B5  1  0.416701  0.849439  0.127454  1
  B  B6  1  0.083298  0.872546  0.150561  1
  B  B7  1  0.584919  0.431450  0.210865  1
  B  B8  1  0.415472  0.348549  0.288352  1
  B  B9  1  0.913765  0.288334  0.349306  1
  B  B10  1  0.586235  0.935541  0.374570  1
  B  B11  1  0.083298  0.210751  0.432738  1
  B  B12  1  0.915081  0.789135  0.568550  1
  B  B13  1  0.415472  0.066923  0.627121  1
  B  B14  1  0.084527  0.711648  0.651451  1
  B  B15  1  0.586235  0.650694  0.711665  1
  B  B16  1  0.416701  0.567262  0.789249  1
  B  B17  1  0.915081  0.125946  0.846531  1
  B  B18  1  0.584919  0.153469  0.874054  1
  B  B19  1  0.084527  0.372879  0.933077  1
  Ru  Ru20  1  0.875295  0.324082  0.036002  1
  Ru  Ru21  1  0.371387  0.531928  0.048477  1
  Ru  Ru22  1  0.128613  0.177090  0.160542  1
  Ru  Ru23  1  0.626134  0.165734  0.178722  1
  Ru  Ru24  1  0.372689  0.033772  0.322736  1
  Ru  Ru25  1  0.875295  0.551213  0.339293  1
  Ru  Ru26  1  0.624705  0.660707  0.448787  1
  Ru  Ru27  1  0.128613  0.951523  0.468071  1
  Ru  Ru28  1  0.873866  0.052587  0.539599  1
  Ru  Ru29  1  0.372689  0.338916  0.549953  1
  Ru  Ru30  1  0.127311  0.450047  0.661083  1
  Ru  Ru31  1  0.624705  0.963998  0.675918  1
  Ru  Ru32  1  0.371387  0.839457  0.822910  1
  Ru  Ru33  1  0.873866  0.821278  0.834266  1
  Ru  Ru34  1  0.626134  0.460401  0.947413  1
  Ru  Ru35  1  0.127311  0.677264  0.966227  1
