# generated using pymatgen
data_TbDy3Ga18(RuPt2)2
_symmetry_space_group_name_H-M   'P 1'
_cell_length_a   7.63406210
_cell_length_b   7.63415470
_cell_length_c   9.49710906
_cell_angle_alpha   89.99018650
_cell_angle_beta   90.01244213
_cell_angle_gamma   119.77168622
_symmetry_Int_Tables_number   1
_chemical_formula_structural   TbDy3Ga18(RuPt2)2
_chemical_formula_sum   'Tb1 Dy3 Ga18 Ru2 Pt4'
_cell_volume   480.43347063
_cell_formula_units_Z   1
loop_
 _symmetry_equiv_pos_site_id
 _symmetry_equiv_pos_as_xyz
  1  'x, y, z'
loop_
 _atom_site_type_symbol
 _atom_site_label
 _atom_site_symmetry_multiplicity
 _atom_site_fract_x
 _atom_site_fract_y
 _atom_site_fract_z
 _atom_site_occupancy
  Tb  Tb0  1  0.326494  0.002239  0.750296  1
  Dy  Dy1  1  0.673500  0.997754  0.250309  1
  Dy  Dy2  1  0.002273  0.326512  0.749709  1
  Dy  Dy3  1  0.997677  0.673486  0.249694  1
  Ga  Ga4  1  0.864228  0.864270  0.750000  1
  Ga  Ga5  1  0.135737  0.135719  0.249997  1
  Ga  Ga6  1  0.662043  0.667851  0.432237  1
  Ga  Ga7  1  0.337949  0.332240  0.932303  1
  Ga  Ga8  1  0.667873  0.662064  0.067788  1
  Ga  Ga9  1  0.332147  0.338076  0.567685  1
  Ga  Ga10  1  0.450016  0.660889  0.746758  1
  Ga  Ga11  1  0.549992  0.339046  0.246748  1
  Ga  Ga12  1  0.661035  0.450144  0.753249  1
  Ga  Ga13  1  0.339033  0.549990  0.253257  1
  Ga  Ga14  1  0.994083  0.335676  0.081953  1
  Ga  Ga15  1  0.005831  0.664225  0.581884  1
  Ga  Ga16  1  0.335682  0.994063  0.417980  1
  Ga  Ga17  1  0.664432  0.005931  0.918109  1
  Ga  Ga18  1  0.994556  0.658020  0.918559  1
  Ga  Ga19  1  0.005340  0.341875  0.418483  1
  Ga  Ga20  1  0.658215  0.994657  0.581415  1
  Ga  Ga21  1  0.341891  0.005369  0.081571  1
  Ru  Ru22  1  0.328390  0.671617  0.499938  1
  Ru  Ru23  1  0.671694  0.328386  0.000043  1
  Pt  Pt24  1  0.000268  0.999657  0.499946  1
  Pt  Pt25  1  0.999639  0.000321  0.000066  1
  Pt  Pt26  1  0.671553  0.328420  0.499989  1
  Pt  Pt27  1  0.328428  0.671502  0.000035  1
