# generated using pymatgen
data_SrEuCu10
_symmetry_space_group_name_H-M   'P 1'
_cell_length_a   4.05802800
_cell_length_b   5.20665200
_cell_length_c   9.04256000
_cell_angle_alpha   90.00000000
_cell_angle_beta   90.00000000
_cell_angle_gamma   90.00000000
_symmetry_Int_Tables_number   1
_chemical_formula_structural   SrEuCu10
_chemical_formula_sum   'Sr1 Eu1 Cu10'
_cell_volume   191.05789558
_cell_formula_units_Z   1
loop_
 _symmetry_equiv_pos_site_id
 _symmetry_equiv_pos_as_xyz
  1  'x, y, z'
loop_
 _atom_site_type_symbol
 _atom_site_label
 _atom_site_symmetry_multiplicity
 _atom_site_fract_x
 _atom_site_fract_y
 _atom_site_fract_z
 _atom_site_occupancy
  Sr  Sr0  1  0.000000  0.000000  0.000000  1
  Eu  Eu1  1  0.000000  0.500000  0.500000  1
  Cu  Cu2  1  0.000000  0.000000  0.335589  1
  Cu  Cu3  1  0.000000  0.500000  0.830444  1
  Cu  Cu4  1  0.000000  0.500000  0.169556  1
  Cu  Cu5  1  0.000000  0.000000  0.664411  1
  Cu  Cu6  1  0.500000  0.000000  0.500000  1
  Cu  Cu7  1  0.500000  0.500000  0.000000  1
  Cu  Cu8  1  0.500000  0.251650  0.253579  1
  Cu  Cu9  1  0.500000  0.748350  0.746421  1
  Cu  Cu10  1  0.500000  0.748350  0.253579  1
  Cu  Cu11  1  0.500000  0.251650  0.746421  1
