# generated using pymatgen
data_Cs2V2ZnCo(PO3)12
_symmetry_space_group_name_H-M   'P 1'
_cell_length_a   6.43974117
_cell_length_b   15.98059344
_cell_length_c   8.57664500
_cell_angle_alpha   80.03133690
_cell_angle_beta   103.81831740
_cell_angle_gamma   88.95732819
_symmetry_Int_Tables_number   1
_chemical_formula_structural   Cs2V2ZnCo(PO3)12
_chemical_formula_sum   'Cs2 V2 Zn1 Co1 P12 O36'
_cell_volume   842.50769616
_cell_formula_units_Z   1
loop_
 _symmetry_equiv_pos_site_id
 _symmetry_equiv_pos_as_xyz
  1  'x, y, z'
loop_
 _atom_site_type_symbol
 _atom_site_label
 _atom_site_symmetry_multiplicity
 _atom_site_fract_x
 _atom_site_fract_y
 _atom_site_fract_z
 _atom_site_occupancy
  Cs  Cs0  1  0.072314  0.474147  0.488129  1
  Cs  Cs1  1  0.572124  0.974724  0.988377  1
  V  V2  1  0.389561  0.611963  0.166159  1
  V  V3  1  0.890894  0.111691  0.667717  1
  Zn  Zn4  1  0.117423  0.888530  0.337505  1
  Co  Co5  1  0.616208  0.388517  0.836406  1
  P  P6  1  0.897220  0.204775  0.981032  1
  P  P7  1  0.396561  0.704403  0.480452  1
  P  P8  1  0.008387  0.092623  0.315543  1
  P  P9  1  0.508308  0.592675  0.815010  1
  P  P10  1  0.600096  0.295889  0.516756  1
  P  P11  1  0.099600  0.796550  0.017206  1
  P  P12  1  0.489745  0.407939  0.182423  1
  P  P13  1  0.989300  0.907756  0.682172  1
  P  P14  1  0.143397  0.357510  0.923939  1
  P  P15  1  0.643374  0.857238  0.423119  1
  P  P16  1  0.356694  0.142292  0.570830  1
  P  P17  1  0.856759  0.642226  0.070175  1
  O  O18  1  0.925375  0.174772  0.175235  1
  O  O19  1  0.426094  0.674659  0.674859  1
  O  O20  1  0.576665  0.325778  0.324663  1
  O  O21  1  0.076298  0.825834  0.824768  1
  O  O22  1  0.693519  0.258789  0.917232  1
  O  O23  1  0.191763  0.757927  0.418183  1
  O  O24  1  0.871080  0.091894  0.436044  1
  O  O25  1  0.371592  0.592840  0.935471  1
  O  O26  1  0.800385  0.237033  0.577358  1
  O  O27  1  0.300011  0.738114  0.080131  1
  O  O28  1  0.639090  0.414807  0.072761  1
  O  O29  1  0.140004  0.915088  0.573616  1
  O  O30  1  0.296715  0.363221  0.816768  1
  O  O31  1  0.796878  0.862665  0.316193  1
  O  O32  1  0.569914  0.093231  0.640720  1
  O  O33  1  0.071299  0.593576  0.141916  1
  O  O34  1  0.205229  0.133071  0.681278  1
  O  O35  1  0.705109  0.630849  0.180915  1
  O  O36  1  0.935587  0.409411  0.858230  1
  O  O37  1  0.436218  0.909565  0.356838  1
  O  O38  1  0.919387  0.127575  0.903720  1
  O  O39  1  0.421436  0.627387  0.403584  1
  O  O40  1  0.020382  0.016705  0.238291  1
  O  O41  1  0.519237  0.516416  0.738685  1
  O  O42  1  0.579730  0.371653  0.592669  1
  O  O43  1  0.077739  0.872915  0.091065  1
  O  O44  1  0.455950  0.483726  0.260237  1
  O  O45  1  0.952434  0.983822  0.758571  1
  O  O46  1  0.106783  0.257512  0.978384  1
  O  O47  1  0.605631  0.757573  0.477855  1
  O  O48  1  0.249403  0.116458  0.398422  1
  O  O49  1  0.750343  0.616255  0.898191  1
  O  O50  1  0.388960  0.241616  0.518229  1
  O  O51  1  0.888704  0.741638  0.019734  1
  O  O52  1  0.255624  0.380095  0.101054  1
  O  O53  1  0.756073  0.879493  0.600577  1
