# generated using pymatgen
data_Er2Pa2TlPd4Pb
_symmetry_space_group_name_H-M   'P 1'
_cell_length_a   7.91900425
_cell_length_b   7.85624825
_cell_length_c   3.62181100
_cell_angle_alpha   90.00000000
_cell_angle_beta   90.00000000
_cell_angle_gamma   89.97094351
_symmetry_Int_Tables_number   1
_chemical_formula_structural   Er2Pa2TlPd4Pb
_chemical_formula_sum   'Er2 Pa2 Tl1 Pd4 Pb1'
_cell_volume   225.32610125
_cell_formula_units_Z   1
loop_
 _symmetry_equiv_pos_site_id
 _symmetry_equiv_pos_as_xyz
  1  'x, y, z'
loop_
 _atom_site_type_symbol
 _atom_site_label
 _atom_site_symmetry_multiplicity
 _atom_site_fract_x
 _atom_site_fract_y
 _atom_site_fract_z
 _atom_site_occupancy
  Er  Er0  1  0.828507  0.673510  0.500000  1
  Er  Er1  1  0.326959  0.827864  0.500000  1
  Pa  Pa2  1  0.670269  0.168789  0.500000  1
  Pa  Pa3  1  0.170181  0.330675  0.500000  1
  Tl  Tl4  1  0.002609  0.990137  0.000000  1
  Pd  Pd5  1  0.371656  0.135430  0.000000  1
  Pd  Pd6  1  0.126862  0.615811  0.000000  1
  Pd  Pd7  1  0.627116  0.884440  0.000000  1
  Pd  Pd8  1  0.872665  0.363423  0.000000  1
  Pb  Pb9  1  0.503177  0.509921  0.000000  1
