# generated using pymatgen
data_YbPu2ThB24
_symmetry_space_group_name_H-M   'P 1'
_cell_length_a   4.11342400
_cell_length_b   4.11342400
_cell_length_c   16.45304000
_cell_angle_alpha   90.00000000
_cell_angle_beta   90.00000000
_cell_angle_gamma   90.00000000
_symmetry_Int_Tables_number   1
_chemical_formula_structural   YbPu2ThB24
_chemical_formula_sum   'Yb1 Pu2 Th1 B24'
_cell_volume   278.38966529
_cell_formula_units_Z   1
loop_
 _symmetry_equiv_pos_site_id
 _symmetry_equiv_pos_as_xyz
  1  'x, y, z'
loop_
 _atom_site_type_symbol
 _atom_site_label
 _atom_site_symmetry_multiplicity
 _atom_site_fract_x
 _atom_site_fract_y
 _atom_site_fract_z
 _atom_site_occupancy
  Yb  Yb0  1  0.500000  0.500000  0.500000  1
  Pu  Pu1  1  0.500000  0.500000  0.246533  1
  Pu  Pu2  1  0.500000  0.500000  0.753467  1
  Th  Th3  1  0.500000  0.500000  0.000000  1
  B  B4  1  0.000000  0.000000  0.049727  1
  B  B5  1  0.000000  0.000000  0.300290  1
  B  B6  1  0.000000  0.000000  0.550039  1
  B  B7  1  0.000000  0.000000  0.798921  1
  B  B8  1  0.000000  0.301842  0.874462  1
  B  B9  1  0.000000  0.301842  0.125538  1
  B  B10  1  0.000000  0.300362  0.375548  1
  B  B11  1  0.000000  0.300362  0.624452  1
  B  B12  1  0.301842  0.000000  0.874462  1
  B  B13  1  0.301842  0.000000  0.125538  1
  B  B14  1  0.300362  0.000000  0.375548  1
  B  B15  1  0.300362  0.000000  0.624452  1
  B  B16  1  0.000000  0.000000  0.950273  1
  B  B17  1  0.000000  0.000000  0.201079  1
  B  B18  1  0.000000  0.000000  0.449961  1
  B  B19  1  0.000000  0.000000  0.699710  1
  B  B20  1  0.000000  0.698158  0.874462  1
  B  B21  1  0.000000  0.698158  0.125538  1
  B  B22  1  0.000000  0.699638  0.375548  1
  B  B23  1  0.000000  0.699638  0.624452  1
  B  B24  1  0.698158  0.000000  0.874462  1
  B  B25  1  0.698158  0.000000  0.125538  1
  B  B26  1  0.699638  0.000000  0.375548  1
  B  B27  1  0.699638  0.000000  0.624452  1
