# generated using pymatgen
data_Er2Al8ReSiPd2
_symmetry_space_group_name_H-M   'P 1'
_cell_length_a   7.58676891
_cell_length_b   7.58676930
_cell_length_c   9.36890400
_cell_angle_alpha   90.00000000
_cell_angle_beta   90.00000000
_cell_angle_gamma   119.13114725
_symmetry_Int_Tables_number   1
_chemical_formula_structural   Er2Al8ReSiPd2
_chemical_formula_sum   'Er4 Al16 Re2 Si2 Pd4'
_cell_volume   471.05244901
_cell_formula_units_Z   2
loop_
 _symmetry_equiv_pos_site_id
 _symmetry_equiv_pos_as_xyz
  1  'x, y, z'
loop_
 _atom_site_type_symbol
 _atom_site_label
 _atom_site_symmetry_multiplicity
 _atom_site_fract_x
 _atom_site_fract_y
 _atom_site_fract_z
 _atom_site_occupancy
  Er  Er0  1  0.994104  0.679527  0.250000  1
  Er  Er1  1  0.005896  0.320473  0.750000  1
  Er  Er2  1  0.679527  0.994104  0.250000  1
  Er  Er3  1  0.320473  0.005896  0.750000  1
  Al  Al4  1  0.001140  0.334576  0.079386  1
  Al  Al5  1  0.998860  0.665424  0.920614  1
  Al  Al6  1  0.998860  0.665424  0.579386  1
  Al  Al7  1  0.334576  0.001140  0.420614  1
  Al  Al8  1  0.001140  0.334576  0.420614  1
  Al  Al9  1  0.665424  0.998860  0.579386  1
  Al  Al10  1  0.665424  0.998860  0.920614  1
  Al  Al11  1  0.334576  0.001140  0.079386  1
  Al  Al12  1  0.331328  0.331328  0.555973  1
  Al  Al13  1  0.668672  0.668672  0.444027  1
  Al  Al14  1  0.668672  0.668672  0.055973  1
  Al  Al15  1  0.331328  0.331328  0.944027  1
  Al  Al16  1  0.339876  0.550290  0.250000  1
  Al  Al17  1  0.660124  0.449710  0.750000  1
  Al  Al18  1  0.550290  0.339876  0.250000  1
  Al  Al19  1  0.449710  0.660124  0.750000  1
  Re  Re20  1  0.000000  0.000000  0.000000  1
  Re  Re21  1  0.000000  0.000000  0.500000  1
  Si  Si22  1  0.125730  0.125730  0.250000  1
  Si  Si23  1  0.874270  0.874270  0.750000  1
  Pd  Pd24  1  0.672302  0.327698  0.000000  1
  Pd  Pd25  1  0.327698  0.672302  0.000000  1
  Pd  Pd26  1  0.327698  0.672302  0.500000  1
  Pd  Pd27  1  0.672302  0.327698  0.500000  1
