# generated using pymatgen
data_Sc3NbCr2(B2Ru5)2
_symmetry_space_group_name_H-M   'P 1'
_cell_length_a   9.31797257
_cell_length_b   9.31797240
_cell_length_c   3.00526500
_cell_angle_alpha   90.00000000
_cell_angle_beta   90.00000000
_cell_angle_gamma   90.29916538
_symmetry_Int_Tables_number   1
_chemical_formula_structural   Sc3NbCr2(B2Ru5)2
_chemical_formula_sum   'Sc3 Nb1 Cr2 B4 Ru10'
_cell_volume   260.92740841
_cell_formula_units_Z   1
loop_
 _symmetry_equiv_pos_site_id
 _symmetry_equiv_pos_as_xyz
  1  'x, y, z'
loop_
 _atom_site_type_symbol
 _atom_site_label
 _atom_site_symmetry_multiplicity
 _atom_site_fract_x
 _atom_site_fract_y
 _atom_site_fract_z
 _atom_site_occupancy
  Sc  Sc0  1  0.176298  0.823702  0.000000  1
  Sc  Sc1  1  0.324479  0.325485  0.000000  1
  Sc  Sc2  1  0.674515  0.675521  0.000000  1
  Nb  Nb3  1  0.823483  0.176517  0.000000  1
  Cr  Cr4  1  0.495292  0.998214  0.000000  1
  Cr  Cr5  1  0.001786  0.504708  0.000000  1
  B  B6  1  0.622896  0.377104  0.000000  1
  B  B7  1  0.377453  0.622547  0.000000  1
  B  B8  1  0.124043  0.124314  0.000000  1
  B  B9  1  0.875686  0.875957  0.000000  1
  Ru  Ru10  1  0.501197  0.498803  0.500000  1
  Ru  Ru11  1  0.997690  0.002310  0.500000  1
  Ru  Ru12  1  0.574878  0.209693  0.500000  1
  Ru  Ru13  1  0.432085  0.788396  0.500000  1
  Ru  Ru14  1  0.064779  0.286715  0.500000  1
  Ru  Ru15  1  0.929550  0.711305  0.500000  1
  Ru  Ru16  1  0.288695  0.070450  0.500000  1
  Ru  Ru17  1  0.713285  0.935221  0.500000  1
  Ru  Ru18  1  0.211604  0.567915  0.500000  1
  Ru  Ru19  1  0.790307  0.425122  0.500000  1
