# generated using pymatgen
data_Y2MnGeF14
_symmetry_space_group_name_H-M   'P 1'
_cell_length_a   5.43139459
_cell_length_b   8.73733868
_cell_length_c   11.72315686
_cell_angle_alpha   62.27420908
_cell_angle_beta   90.04346122
_cell_angle_gamma   89.99223623
_symmetry_Int_Tables_number   1
_chemical_formula_structural   Y2MnGeF14
_chemical_formula_sum   'Y4 Mn2 Ge2 F28'
_cell_volume   492.45733500
_cell_formula_units_Z   2
loop_
 _symmetry_equiv_pos_site_id
 _symmetry_equiv_pos_as_xyz
  1  'x, y, z'
loop_
 _atom_site_type_symbol
 _atom_site_label
 _atom_site_symmetry_multiplicity
 _atom_site_fract_x
 _atom_site_fract_y
 _atom_site_fract_z
 _atom_site_occupancy
  Y  Y0  1  0.261356  0.811199  0.263223  1
  Y  Y1  1  0.738644  0.188801  0.736777  1
  Y  Y2  1  0.761238  0.189704  0.235488  1
  Y  Y3  1  0.238762  0.810296  0.764512  1
  Mn  Mn4  1  0.259055  0.274533  0.456989  1
  Mn  Mn5  1  0.740945  0.725467  0.543011  1
  Ge  Ge6  1  0.758314  0.725554  0.042945  1
  Ge  Ge7  1  0.241686  0.274446  0.957055  1
  F  F8  1  0.929795  0.706195  0.420857  1
  F  F9  1  0.070205  0.293805  0.579143  1
  F  F10  1  0.430233  0.293869  0.078302  1
  F  F11  1  0.569767  0.706131  0.921698  1
  F  F12  1  0.482118  0.727456  0.131502  1
  F  F13  1  0.517882  0.272544  0.868498  1
  F  F14  1  0.979159  0.272721  0.368429  1
  F  F15  1  0.020841  0.727279  0.631571  1
  F  F16  1  0.945043  0.740066  0.168831  1
  F  F17  1  0.054957  0.259934  0.831169  1
  F  F18  1  0.446203  0.259666  0.329934  1
  F  F19  1  0.553797  0.740334  0.670066  1
  F  F20  1  0.772297  0.490350  0.136435  1
  F  F21  1  0.227703  0.509650  0.863565  1
  F  F22  1  0.271413  0.512415  0.362497  1
  F  F23  1  0.728587  0.487585  0.637503  1
  F  F24  1  0.956172  0.281721  0.039111  1
  F  F25  1  0.043828  0.718279  0.960889  1
  F  F26  1  0.454091  0.718786  0.460111  1
  F  F27  1  0.545909  0.281214  0.539889  1
  F  F28  1  0.739785  0.961958  0.453226  1
  F  F29  1  0.260215  0.038042  0.546774  1
  F  F30  1  0.239278  0.039345  0.046511  1
  F  F31  1  0.760722  0.960655  0.953489  1
  F  F32  1  0.597056  0.967954  0.227432  1
  F  F33  1  0.402944  0.032046  0.772568  1
  F  F34  1  0.096359  0.031983  0.272550  1
  F  F35  1  0.903641  0.968017  0.727450  1
