# generated using pymatgen
data_CaHo2(Si3Pd10)2
_symmetry_space_group_name_H-M   'P 1'
_cell_length_a   8.71225015
_cell_length_b   8.71225056
_cell_length_c   8.71225000
_cell_angle_alpha   60.00000212
_cell_angle_beta   60.00000058
_cell_angle_gamma   60.00000193
_symmetry_Int_Tables_number   1
_chemical_formula_structural   CaHo2(Si3Pd10)2
_chemical_formula_sum   'Ca1 Ho2 Si6 Pd20'
_cell_volume   467.60165550
_cell_formula_units_Z   1
loop_
 _symmetry_equiv_pos_site_id
 _symmetry_equiv_pos_as_xyz
  1  'x, y, z'
loop_
 _atom_site_type_symbol
 _atom_site_label
 _atom_site_symmetry_multiplicity
 _atom_site_fract_x
 _atom_site_fract_y
 _atom_site_fract_z
 _atom_site_occupancy
  Ca  Ca0  1  0.250000  0.250000  0.250000  1
  Ho  Ho1  1  0.750000  0.750000  0.750000  1
  Ho  Ho2  1  0.000000  0.000000  0.000000  1
  Si  Si3  1  0.731881  0.268119  0.268119  1
  Si  Si4  1  0.268119  0.731881  0.731881  1
  Si  Si5  1  0.268119  0.731881  0.268119  1
  Si  Si6  1  0.731881  0.268119  0.731881  1
  Si  Si7  1  0.268119  0.268119  0.731881  1
  Si  Si8  1  0.731881  0.731881  0.268119  1
  Pd  Pd9  1  0.384383  0.384383  0.384383  1
  Pd  Pd10  1  0.617004  0.617004  0.617004  1
  Pd  Pd11  1  0.384383  0.384383  0.846852  1
  Pd  Pd12  1  0.384383  0.846852  0.384383  1
  Pd  Pd13  1  0.617004  0.617004  0.148987  1
  Pd  Pd14  1  0.617004  0.148987  0.617004  1
  Pd  Pd15  1  0.846852  0.384383  0.384383  1
  Pd  Pd16  1  0.148987  0.617004  0.617004  1
  Pd  Pd17  1  0.345522  0.998873  0.998873  1
  Pd  Pd18  1  0.656732  0.998873  0.998873  1
  Pd  Pd19  1  0.998873  0.345522  0.656732  1
  Pd  Pd20  1  0.998873  0.656732  0.345522  1
  Pd  Pd21  1  0.998873  0.345522  0.998873  1
  Pd  Pd22  1  0.656732  0.998873  0.345522  1
  Pd  Pd23  1  0.998873  0.656732  0.998873  1
  Pd  Pd24  1  0.345522  0.998873  0.656732  1
  Pd  Pd25  1  0.998873  0.998873  0.345522  1
  Pd  Pd26  1  0.998873  0.998873  0.656732  1
  Pd  Pd27  1  0.656732  0.345522  0.998873  1
  Pd  Pd28  1  0.345522  0.656732  0.998873  1
