# generated using pymatgen
data_Lu4ScAlBi2
_symmetry_space_group_name_H-M   'P 1'
_cell_length_a   7.93899700
_cell_length_b   9.19585200
_cell_length_c   11.54776700
_cell_angle_alpha   90.00000000
_cell_angle_beta   90.00000000
_cell_angle_gamma   90.00000000
_symmetry_Int_Tables_number   1
_chemical_formula_structural   Lu4ScAlBi2
_chemical_formula_sum   'Lu16 Sc4 Al4 Bi8'
_cell_volume   843.05444659
_cell_formula_units_Z   4
loop_
 _symmetry_equiv_pos_site_id
 _symmetry_equiv_pos_as_xyz
  1  'x, y, z'
loop_
 _atom_site_type_symbol
 _atom_site_label
 _atom_site_symmetry_multiplicity
 _atom_site_fract_x
 _atom_site_fract_y
 _atom_site_fract_z
 _atom_site_occupancy
  Lu  Lu0  1  0.347426  0.250000  0.294234  1
  Lu  Lu1  1  0.652574  0.750000  0.705766  1
  Lu  Lu2  1  0.152574  0.750000  0.794234  1
  Lu  Lu3  1  0.847426  0.250000  0.205766  1
  Lu  Lu4  1  0.185343  0.250000  0.782478  1
  Lu  Lu5  1  0.814657  0.750000  0.217522  1
  Lu  Lu6  1  0.314657  0.750000  0.282478  1
  Lu  Lu7  1  0.685343  0.250000  0.717522  1
  Lu  Lu8  1  0.188807  0.059976  0.055123  1
  Lu  Lu9  1  0.811193  0.940024  0.944877  1
  Lu  Lu10  1  0.311193  0.940024  0.555123  1
  Lu  Lu11  1  0.811193  0.559976  0.944877  1
  Lu  Lu12  1  0.688807  0.059976  0.444877  1
  Lu  Lu13  1  0.188807  0.440024  0.055123  1
  Lu  Lu14  1  0.688807  0.440024  0.444877  1
  Lu  Lu15  1  0.311193  0.559976  0.555123  1
  Sc  Sc16  1  0.035103  0.250000  0.509446  1
  Sc  Sc17  1  0.964897  0.750000  0.490554  1
  Sc  Sc18  1  0.464897  0.750000  0.009446  1
  Sc  Sc19  1  0.535103  0.250000  0.990554  1
  Al  Al20  1  0.405213  0.250000  0.543978  1
  Al  Al21  1  0.594787  0.750000  0.456022  1
  Al  Al22  1  0.094787  0.750000  0.043978  1
  Al  Al23  1  0.905213  0.250000  0.956022  1
  Bi  Bi24  1  0.056393  0.000818  0.324247  1
  Bi  Bi25  1  0.943607  0.999182  0.675753  1
  Bi  Bi26  1  0.443607  0.999182  0.824247  1
  Bi  Bi27  1  0.943607  0.500818  0.675753  1
  Bi  Bi28  1  0.556393  0.000818  0.175753  1
  Bi  Bi29  1  0.056393  0.499182  0.324247  1
  Bi  Bi30  1  0.556393  0.499182  0.175753  1
  Bi  Bi31  1  0.443607  0.500818  0.824247  1
