# generated using pymatgen
data_Ho11Er6Tm3(CoBi2)4
_symmetry_space_group_name_H-M   'P 1'
_cell_length_a   7.92111204
_cell_length_b   8.86335026
_cell_length_c   12.34987319
_cell_angle_alpha   90.02605491
_cell_angle_beta   90.00747469
_cell_angle_gamma   89.99051076
_symmetry_Int_Tables_number   1
_chemical_formula_structural   Ho11Er6Tm3(CoBi2)4
_chemical_formula_sum   'Ho11 Er6 Tm3 Co4 Bi8'
_cell_volume   867.05473032
_cell_formula_units_Z   1
loop_
 _symmetry_equiv_pos_site_id
 _symmetry_equiv_pos_as_xyz
  1  'x, y, z'
loop_
 _atom_site_type_symbol
 _atom_site_label
 _atom_site_symmetry_multiplicity
 _atom_site_fract_x
 _atom_site_fract_y
 _atom_site_fract_z
 _atom_site_occupancy
  Ho  Ho0  1  0.652825  0.249926  0.300245  1
  Ho  Ho1  1  0.847091  0.249862  0.800150  1
  Ho  Ho2  1  0.152740  0.750113  0.199713  1
  Ho  Ho3  1  0.885347  0.750186  0.811790  1
  Ho  Ho4  1  0.115016  0.249788  0.188264  1
  Ho  Ho5  1  0.385076  0.249893  0.688396  1
  Ho  Ho6  1  0.615242  0.750135  0.311633  1
  Ho  Ho7  1  0.053859  0.750106  0.498032  1
  Ho  Ho8  1  0.946121  0.249842  0.502272  1
  Ho  Ho9  1  0.553673  0.249782  0.001984  1
  Ho  Ho10  1  0.446136  0.750209  0.997727  1
  Er  Er11  1  0.347349  0.750091  0.699370  1
  Er  Er12  1  0.674453  0.538587  0.563217  1
  Er  Er13  1  0.325376  0.462139  0.437139  1
  Er  Er14  1  0.174610  0.462002  0.936996  1
  Er  Er15  1  0.325573  0.037881  0.437199  1
  Er  Er16  1  0.825524  0.538240  0.062917  1
  Tm  Tm17  1  0.673615  0.961374  0.563081  1
  Tm  Tm18  1  0.826481  0.961822  0.062735  1
  Tm  Tm19  1  0.173570  0.038173  0.937187  1
  Co  Co20  1  0.065455  0.750381  0.992299  1
  Co  Co21  1  0.934360  0.249600  0.007678  1
  Co  Co22  1  0.565838  0.249801  0.507905  1
  Co  Co23  1  0.434520  0.750193  0.492393  1
  Bi  Bi24  1  0.570673  0.509792  0.826601  1
  Bi  Bi25  1  0.429017  0.490594  0.173135  1
  Bi  Bi26  1  0.071527  0.490773  0.673337  1
  Bi  Bi27  1  0.429286  0.009357  0.173063  1
  Bi  Bi28  1  0.928919  0.509484  0.326845  1
  Bi  Bi29  1  0.570436  0.990210  0.826582  1
  Bi  Bi30  1  0.928924  0.990501  0.326783  1
  Bi  Bi31  1  0.071371  0.009164  0.673335  1
