# generated using pymatgen
data_Ho2Al9PtRh2
_symmetry_space_group_name_H-M   'P 1'
_cell_length_a   7.56504857
_cell_length_b   7.56504814
_cell_length_c   9.44012104
_cell_angle_alpha   89.97527094
_cell_angle_beta   89.97527639
_cell_angle_gamma   119.58211053
_symmetry_Int_Tables_number   1
_chemical_formula_structural   Ho2Al9PtRh2
_chemical_formula_sum   'Ho4 Al18 Pt2 Rh4'
_cell_volume   469.83447084
_cell_formula_units_Z   2
loop_
 _symmetry_equiv_pos_site_id
 _symmetry_equiv_pos_as_xyz
  1  'x, y, z'
loop_
 _atom_site_type_symbol
 _atom_site_label
 _atom_site_symmetry_multiplicity
 _atom_site_fract_x
 _atom_site_fract_y
 _atom_site_fract_z
 _atom_site_occupancy
  Ho  Ho0  1  0.995214  0.669887  0.750210  1
  Ho  Ho1  1  0.004786  0.330113  0.249790  1
  Ho  Ho2  1  0.669887  0.995214  0.750210  1
  Ho  Ho3  1  0.330113  0.004786  0.249790  1
  Al  Al4  1  0.125942  0.125942  0.750809  1
  Al  Al5  1  0.874058  0.874058  0.249191  1
  Al  Al6  1  0.000592  0.330970  0.577701  1
  Al  Al7  1  0.999408  0.669030  0.422299  1
  Al  Al8  1  0.000379  0.665308  0.074685  1
  Al  Al9  1  0.334692  0.999621  0.925315  1
  Al  Al10  1  0.999621  0.334692  0.925315  1
  Al  Al11  1  0.665308  0.000379  0.074685  1
  Al  Al12  1  0.669030  0.999408  0.422299  1
  Al  Al13  1  0.330970  0.000592  0.577701  1
  Al  Al14  1  0.332013  0.332013  0.052215  1
  Al  Al15  1  0.667987  0.667987  0.947785  1
  Al  Al16  1  0.669802  0.669802  0.556738  1
  Al  Al17  1  0.330198  0.330198  0.443262  1
  Al  Al18  1  0.339760  0.547086  0.753773  1
  Al  Al19  1  0.660240  0.452914  0.246227  1
  Al  Al20  1  0.547086  0.339760  0.753773  1
  Al  Al21  1  0.452914  0.660240  0.246227  1
  Pt  Pt22  1  0.672297  0.327703  0.500000  1
  Pt  Pt23  1  0.327703  0.672297  0.500000  1
  Rh  Rh24  1  0.327797  0.672203  0.000000  1
  Rh  Rh25  1  0.672203  0.327797  0.000000  1
  Rh  Rh26  1  0.000000  0.000000  0.500000  1
  Rh  Rh27  1  0.000000  0.000000  0.000000  1
