# generated using pymatgen
data_Tb7Th3(Al2Ru3)2
_symmetry_space_group_name_H-M   'P 1'
_cell_length_a   8.46941347
_cell_length_b   8.46941268
_cell_length_c   8.46941414
_cell_angle_alpha   109.70898416
_cell_angle_beta   109.70898815
_cell_angle_gamma   109.70899212
_symmetry_Int_Tables_number   1
_chemical_formula_structural   Tb7Th3(Al2Ru3)2
_chemical_formula_sum   'Tb7 Th3 Al4 Ru6'
_cell_volume   463.50585487
_cell_formula_units_Z   1
loop_
 _symmetry_equiv_pos_site_id
 _symmetry_equiv_pos_as_xyz
  1  'x, y, z'
loop_
 _atom_site_type_symbol
 _atom_site_label
 _atom_site_symmetry_multiplicity
 _atom_site_fract_x
 _atom_site_fract_y
 _atom_site_fract_z
 _atom_site_occupancy
  Tb  Tb0  1  0.780513  0.780513  0.780513  1
  Tb  Tb1  1  0.313047  0.565374  0.749256  1
  Tb  Tb2  1  0.749256  0.313047  0.565374  1
  Tb  Tb3  1  0.565374  0.749256  0.313047  1
  Tb  Tb4  1  0.717596  0.503944  0.994888  1
  Tb  Tb5  1  0.994888  0.717596  0.503944  1
  Tb  Tb6  1  0.503944  0.994888  0.717596  1
  Th  Th7  1  0.253478  0.194183  0.940255  1
  Th  Th8  1  0.940255  0.253478  0.194183  1
  Th  Th9  1  0.194183  0.940255  0.253478  1
  Al  Al10  1  0.413361  0.413361  0.413361  1
  Al  Al11  1  0.094272  0.499518  0.998537  1
  Al  Al12  1  0.998537  0.094272  0.499518  1
  Al  Al13  1  0.499518  0.998537  0.094272  1
  Ru  Ru14  1  0.891448  0.122816  0.754636  1
  Ru  Ru15  1  0.754636  0.891448  0.122816  1
  Ru  Ru16  1  0.122816  0.754636  0.891448  1
  Ru  Ru17  1  0.234778  0.610626  0.367473  1
  Ru  Ru18  1  0.367473  0.234778  0.610626  1
  Ru  Ru19  1  0.610626  0.367473  0.234778  1
