# generated using pymatgen
data_Ba6TbYFe4O15
_symmetry_space_group_name_H-M   'P 1'
_cell_length_a   6.07202000
_cell_length_b   8.16332249
_cell_length_c   18.70627117
_cell_angle_alpha   88.95948213
_cell_angle_beta   90.00000000
_cell_angle_gamma   90.00000000
_symmetry_Int_Tables_number   1
_chemical_formula_structural   Ba6TbYFe4O15
_chemical_formula_sum   'Ba12 Tb2 Y2 Fe8 O30'
_cell_volume   927.07688575
_cell_formula_units_Z   2
loop_
 _symmetry_equiv_pos_site_id
 _symmetry_equiv_pos_as_xyz
  1  'x, y, z'
loop_
 _atom_site_type_symbol
 _atom_site_label
 _atom_site_symmetry_multiplicity
 _atom_site_fract_x
 _atom_site_fract_y
 _atom_site_fract_z
 _atom_site_occupancy
  Ba  Ba0  1  0.275074  0.000000  0.250000  1
  Ba  Ba1  1  0.725312  0.000000  0.750000  1
  Ba  Ba2  1  0.334193  0.500000  0.250000  1
  Ba  Ba3  1  0.666571  0.500000  0.750000  1
  Ba  Ba4  1  0.749009  0.973977  0.089227  1
  Ba  Ba5  1  0.749009  0.026023  0.410773  1
  Ba  Ba6  1  0.250688  0.025783  0.910569  1
  Ba  Ba7  1  0.250688  0.974217  0.589431  1
  Ba  Ba8  1  0.247139  0.500733  0.577455  1
  Ba  Ba9  1  0.247139  0.499267  0.922545  1
  Ba  Ba10  1  0.752388  0.498938  0.422829  1
  Ba  Ba11  1  0.752388  0.501062  0.077171  1
  Tb  Tb12  1  0.251431  0.753362  0.409218  1
  Tb  Tb13  1  0.251431  0.246638  0.090782  1
  Y  Y14  1  0.748179  0.246693  0.590840  1
  Y  Y15  1  0.748179  0.753307  0.909160  1
  Fe  Fe16  1  0.253636  0.754790  0.059428  1
  Fe  Fe17  1  0.253636  0.245210  0.440572  1
  Fe  Fe18  1  0.745992  0.245190  0.940236  1
  Fe  Fe19  1  0.745992  0.754810  0.559764  1
  Fe  Fe20  1  0.777008  0.769159  0.265709  1
  Fe  Fe21  1  0.777008  0.230841  0.234291  1
  Fe  Fe22  1  0.223441  0.230950  0.734159  1
  Fe  Fe23  1  0.223441  0.769050  0.765841  1
  O  O24  1  0.800584  0.000000  0.250000  1
  O  O25  1  0.199615  0.000000  0.750000  1
  O  O26  1  0.766779  0.958270  0.609118  1
  O  O27  1  0.766779  0.041730  0.890882  1
  O  O28  1  0.232458  0.042325  0.390938  1
  O  O29  1  0.232458  0.957675  0.109062  1
  O  O30  1  0.240336  0.529036  0.088752  1
  O  O31  1  0.240336  0.470964  0.411248  1
  O  O32  1  0.759131  0.471201  0.911083  1
  O  O33  1  0.759131  0.528799  0.588917  1
  O  O34  1  0.058147  0.723457  0.305054  1
  O  O35  1  0.058147  0.276543  0.194946  1
  O  O36  1  0.942789  0.276450  0.694274  1
  O  O37  1  0.942789  0.723550  0.805726  1
  O  O38  1  0.559011  0.746915  0.339142  1
  O  O39  1  0.559011  0.253085  0.160858  1
  O  O40  1  0.442429  0.252958  0.660992  1
  O  O41  1  0.442429  0.747042  0.839008  1
  O  O42  1  0.484684  0.766888  0.503220  1
  O  O43  1  0.484684  0.233112  0.996780  1
  O  O44  1  0.515354  0.233154  0.497018  1
  O  O45  1  0.515354  0.766846  0.002982  1
  O  O46  1  0.017638  0.769024  0.990966  1
  O  O47  1  0.017638  0.230976  0.509034  1
  O  O48  1  0.981892  0.230913  0.008580  1
  O  O49  1  0.981892  0.769087  0.491420  1
  O  O50  1  0.336759  0.690797  0.680874  1
  O  O51  1  0.336759  0.309203  0.819126  1
  O  O52  1  0.663005  0.308866  0.319329  1
  O  O53  1  0.663005  0.691134  0.180671  1
