# generated using pymatgen
data_PrEu6Ho(Si3Pd)4
_symmetry_space_group_name_H-M   'P 1'
_cell_length_a   8.31820600
_cell_length_b   8.31820539
_cell_length_c   8.44680600
_cell_angle_alpha   90.00000000
_cell_angle_beta   90.00000000
_cell_angle_gamma   120.00000244
_symmetry_Int_Tables_number   1
_chemical_formula_structural   PrEu6Ho(Si3Pd)4
_chemical_formula_sum   'Pr1 Eu6 Ho1 Si12 Pd4'
_cell_volume   506.15374152
_cell_formula_units_Z   1
loop_
 _symmetry_equiv_pos_site_id
 _symmetry_equiv_pos_as_xyz
  1  'x, y, z'
loop_
 _atom_site_type_symbol
 _atom_site_label
 _atom_site_symmetry_multiplicity
 _atom_site_fract_x
 _atom_site_fract_y
 _atom_site_fract_z
 _atom_site_occupancy
  Pr  Pr0  1  0.000000  0.000000  0.250000  1
  Eu  Eu1  1  0.499416  0.500584  0.750000  1
  Eu  Eu2  1  0.500593  0.499407  0.250000  1
  Eu  Eu3  1  0.001167  0.500584  0.750000  1
  Eu  Eu4  1  0.998815  0.499407  0.250000  1
  Eu  Eu5  1  0.499416  0.998833  0.750000  1
  Eu  Eu6  1  0.500593  0.001185  0.250000  1
  Ho  Ho7  1  0.000000  0.000000  0.750000  1
  Si  Si8  1  0.836172  0.163828  0.996288  1
  Si  Si9  1  0.163817  0.836183  0.995795  1
  Si  Si10  1  0.327655  0.163828  0.996288  1
  Si  Si11  1  0.163817  0.836183  0.504205  1
  Si  Si12  1  0.672366  0.836183  0.995795  1
  Si  Si13  1  0.836172  0.163828  0.503712  1
  Si  Si14  1  0.836172  0.672345  0.996288  1
  Si  Si15  1  0.672366  0.836183  0.504205  1
  Si  Si16  1  0.163817  0.327634  0.995795  1
  Si  Si17  1  0.327655  0.163828  0.503712  1
  Si  Si18  1  0.163817  0.327634  0.504205  1
  Si  Si19  1  0.836172  0.672345  0.503712  1
  Pd  Pd20  1  0.666667  0.333333  0.998164  1
  Pd  Pd21  1  0.333333  0.666667  0.001683  1
  Pd  Pd22  1  0.333333  0.666667  0.498317  1
  Pd  Pd23  1  0.666667  0.333333  0.501836  1
