# generated using pymatgen
data_Th2Sc10Os3Br16
_symmetry_space_group_name_H-M   'P 1'
_cell_length_a   9.19470178
_cell_length_b   11.26577617
_cell_length_c   12.04442802
_cell_angle_alpha   118.07431680
_cell_angle_beta   101.57504115
_cell_angle_gamma   100.11139366
_symmetry_Int_Tables_number   1
_chemical_formula_structural   Th2Sc10Os3Br16
_chemical_formula_sum   'Th2 Sc10 Os3 Br16'
_cell_volume   1024.48412569
_cell_formula_units_Z   1
loop_
 _symmetry_equiv_pos_site_id
 _symmetry_equiv_pos_as_xyz
  1  'x, y, z'
loop_
 _atom_site_type_symbol
 _atom_site_label
 _atom_site_symmetry_multiplicity
 _atom_site_fract_x
 _atom_site_fract_y
 _atom_site_fract_z
 _atom_site_occupancy
  Th  Th0  1  0.078277  0.247505  0.344523  1
  Th  Th1  1  0.921723  0.752495  0.655477  1
  Sc  Sc2  1  0.777153  0.527817  0.315359  1
  Sc  Sc3  1  0.222847  0.472183  0.684641  1
  Sc  Sc4  1  0.286110  0.736877  0.645478  1
  Sc  Sc5  1  0.713890  0.263123  0.354522  1
  Sc  Sc6  1  0.141259  0.546938  0.328022  1
  Sc  Sc7  1  0.858741  0.453062  0.671978  1
  Sc  Sc8  1  0.410034  0.362094  0.269000  1
  Sc  Sc9  1  0.589966  0.637906  0.731000  1
  Sc  Sc10  1  0.465542  0.308659  0.528342  1
  Sc  Sc11  1  0.534458  0.691341  0.471658  1
  Os  Os12  1  0.000000  0.500000  0.500000  1
  Os  Os13  1  0.338042  0.497558  0.497784  1
  Os  Os14  1  0.661959  0.502442  0.502216  1
  Br  Br15  1  0.397734  0.745542  0.883827  1
  Br  Br16  1  0.602266  0.254458  0.116173  1
  Br  Br17  1  0.219319  0.985594  0.794918  1
  Br  Br18  1  0.780681  0.014406  0.205082  1
  Br  Br19  1  0.345472  0.099841  0.253762  1
  Br  Br20  1  0.654528  0.900159  0.746238  1
  Br  Br21  1  0.554890  0.438262  0.799580  1
  Br  Br22  1  0.445110  0.561738  0.200420  1
  Br  Br23  1  0.310609  0.829928  0.466932  1
  Br  Br24  1  0.689391  0.170072  0.533068  1
  Br  Br25  1  0.183821  0.174288  0.548278  1
  Br  Br26  1  0.816179  0.825712  0.451722  1
  Br  Br27  1  0.925940  0.575077  0.162981  1
  Br  Br28  1  0.074060  0.424923  0.837019  1
  Br  Br29  1  0.912399  0.730911  0.892791  1
  Br  Br30  1  0.087601  0.269089  0.107209  1
