# generated using pymatgen
data_U8Nb12Si15Ge
_symmetry_space_group_name_H-M   'P 1'
_cell_length_a   6.86639800
_cell_length_b   7.09425508
_cell_length_c   13.32604600
_cell_angle_alpha   90.00000000
_cell_angle_beta   90.00000000
_cell_angle_gamma   90.05351694
_symmetry_Int_Tables_number   1
_chemical_formula_structural   U8Nb12Si15Ge
_chemical_formula_sum   'U8 Nb12 Si15 Ge1'
_cell_volume   649.13778868
_cell_formula_units_Z   1
loop_
 _symmetry_equiv_pos_site_id
 _symmetry_equiv_pos_as_xyz
  1  'x, y, z'
loop_
 _atom_site_type_symbol
 _atom_site_label
 _atom_site_symmetry_multiplicity
 _atom_site_fract_x
 _atom_site_fract_y
 _atom_site_fract_z
 _atom_site_occupancy
  U  U0  1  0.498930  0.668843  0.592698  1
  U  U1  1  0.998273  0.831036  0.907430  1
  U  U2  1  0.499034  0.331658  0.091435  1
  U  U3  1  0.004001  0.165700  0.410026  1
  U  U4  1  0.499034  0.331658  0.408565  1
  U  U5  1  0.004001  0.165700  0.089974  1
  U  U6  1  0.498930  0.668843  0.907302  1
  U  U7  1  0.998273  0.831036  0.592570  1
  Nb  Nb8  1  0.662493  0.173499  0.624419  1
  Nb  Nb9  1  0.162662  0.326839  0.875698  1
  Nb  Nb10  1  0.337227  0.827529  0.123924  1
  Nb  Nb11  1  0.837277  0.675659  0.376494  1
  Nb  Nb12  1  0.337227  0.827529  0.376076  1
  Nb  Nb13  1  0.837277  0.675659  0.123506  1
  Nb  Nb14  1  0.662493  0.173499  0.875581  1
  Nb  Nb15  1  0.162662  0.326839  0.624302  1
  Nb  Nb16  1  0.832359  0.500007  0.750000  1
  Nb  Nb17  1  0.332390  0.000082  0.750000  1
  Nb  Nb18  1  0.170530  0.501965  0.250000  1
  Nb  Nb19  1  0.666302  0.996817  0.250000  1
  Si  Si20  1  0.663645  0.961673  0.459238  1
  Si  Si21  1  0.163085  0.539817  0.040962  1
  Si  Si22  1  0.336293  0.038470  0.958123  1
  Si  Si23  1  0.835587  0.460660  0.540925  1
  Si  Si24  1  0.336293  0.038470  0.541877  1
  Si  Si25  1  0.835587  0.460660  0.959075  1
  Si  Si26  1  0.663645  0.961673  0.040762  1
  Si  Si27  1  0.163085  0.539817  0.459038  1
  Si  Si28  1  0.457245  0.377681  0.750000  1
  Si  Si29  1  0.957279  0.122686  0.750000  1
  Si  Si30  1  0.541498  0.624936  0.250000  1
  Si  Si31  1  0.042491  0.877776  0.250000  1
  Si  Si32  1  0.700248  0.871068  0.750000  1
  Si  Si33  1  0.200483  0.629061  0.750000  1
  Si  Si34  1  0.299315  0.129695  0.250000  1
  Ge  Ge35  1  0.802848  0.365456  0.250000  1
