# generated using pymatgen
data_Gd2C2S
_symmetry_space_group_name_H-M   'P 1'
_cell_length_a   7.05497890
_cell_length_b   7.05440515
_cell_length_c   6.79189482
_cell_angle_alpha   102.76555580
_cell_angle_beta   102.77153390
_cell_angle_gamma   33.09001083
_symmetry_Int_Tables_number   1
_chemical_formula_structural   Gd2C2S
_chemical_formula_sum   'Gd4 C4 S2'
_cell_volume   179.57401762
_cell_formula_units_Z   2
loop_
 _symmetry_equiv_pos_site_id
 _symmetry_equiv_pos_as_xyz
  1  'x, y, z'
loop_
 _atom_site_type_symbol
 _atom_site_label
 _atom_site_symmetry_multiplicity
 _atom_site_fract_x
 _atom_site_fract_y
 _atom_site_fract_z
 _atom_site_occupancy
  Gd  Gd0  1  0.440467  0.831496  0.141171  1
  Gd  Gd1  1  0.168377  0.559710  0.358715  1
  Gd  Gd2  1  0.831623  0.440290  0.641284  1
  Gd  Gd3  1  0.559533  0.168504  0.858830  1
  C  C4  1  0.091825  0.355867  0.031958  1
  C  C5  1  0.644095  0.908195  0.468053  1
  C  C6  1  0.355905  0.091805  0.531947  1
  C  C7  1  0.908175  0.644133  0.968043  1
  S  S8  1  0.780006  0.220008  0.250016  1
  S  S9  1  0.219994  0.779992  0.749985  1
