# generated using pymatgen
data_Dy2Ho8Sn5Bi
_symmetry_space_group_name_H-M   'P 1'
_cell_length_a   8.98039119
_cell_length_b   8.97442425
_cell_length_c   6.49655900
_cell_angle_alpha   90.00000000
_cell_angle_beta   90.00000000
_cell_angle_gamma   119.99865121
_symmetry_Int_Tables_number   1
_chemical_formula_structural   Dy2Ho8Sn5Bi
_chemical_formula_sum   'Dy2 Ho8 Sn5 Bi1'
_cell_volume   453.44202944
_cell_formula_units_Z   1
loop_
 _symmetry_equiv_pos_site_id
 _symmetry_equiv_pos_as_xyz
  1  'x, y, z'
loop_
 _atom_site_type_symbol
 _atom_site_label
 _atom_site_symmetry_multiplicity
 _atom_site_fract_x
 _atom_site_fract_y
 _atom_site_fract_z
 _atom_site_occupancy
  Dy  Dy0  1  0.994638  0.757740  0.750000  1
  Dy  Dy1  1  0.764892  0.000043  0.750000  1
  Ho  Ho2  1  0.000458  0.239036  0.250000  1
  Ho  Ho3  1  0.761345  0.760914  0.250000  1
  Ho  Ho4  1  0.236909  0.242392  0.750000  1
  Ho  Ho5  1  0.237566  0.000041  0.250000  1
  Ho  Ho6  1  0.332544  0.662614  0.498248  1
  Ho  Ho7  1  0.669891  0.337349  0.001757  1
  Ho  Ho8  1  0.669891  0.337349  0.498243  1
  Ho  Ho9  1  0.332544  0.662614  0.001752  1
  Sn  Sn10  1  0.395458  0.394160  0.250000  1
  Sn  Sn11  1  0.001293  0.605836  0.250000  1
  Sn  Sn12  1  0.999754  0.395848  0.750000  1
  Sn  Sn13  1  0.603588  0.603937  0.750000  1
  Sn  Sn14  1  0.605250  0.000006  0.250000  1
  Bi  Bi15  1  0.393978  0.000120  0.750000  1
