# generated using pymatgen
data_Er6Tm14Ir7Au5
_symmetry_space_group_name_H-M   'P 1'
_cell_length_a   11.02949186
_cell_length_b   11.03823099
_cell_length_c   6.29992107
_cell_angle_alpha   89.88003952
_cell_angle_beta   89.87988695
_cell_angle_gamma   89.55455224
_symmetry_Int_Tables_number   1
_chemical_formula_structural   Er6Tm14Ir7Au5
_chemical_formula_sum   'Er6 Tm14 Ir7 Au5'
_cell_volume   766.96416738
_cell_formula_units_Z   1
loop_
 _symmetry_equiv_pos_site_id
 _symmetry_equiv_pos_as_xyz
  1  'x, y, z'
loop_
 _atom_site_type_symbol
 _atom_site_label
 _atom_site_symmetry_multiplicity
 _atom_site_fract_x
 _atom_site_fract_y
 _atom_site_fract_z
 _atom_site_occupancy
  Er  Er0  1  0.299536  0.090075  0.363644  1
  Er  Er1  1  0.301312  0.907847  0.860917  1
  Er  Er2  1  0.697150  0.080074  0.859299  1
  Er  Er3  1  0.697653  0.906125  0.360256  1
  Er  Er4  1  0.580558  0.784986  0.874480  1
  Er  Er5  1  0.574854  0.206871  0.362519  1
  Tm  Tm6  1  0.418398  0.789199  0.374419  1
  Tm  Tm7  1  0.411373  0.207154  0.878421  1
  Tm  Tm8  1  0.214000  0.419823  0.625400  1
  Tm  Tm9  1  0.210433  0.581276  0.125566  1
  Tm  Tm10  1  0.794570  0.425247  0.137140  1
  Tm  Tm11  1  0.793484  0.587991  0.620931  1
  Tm  Tm12  1  0.910495  0.699916  0.135799  1
  Tm  Tm13  1  0.920500  0.303239  0.640204  1
  Tm  Tm14  1  0.092066  0.698414  0.638282  1
  Tm  Tm15  1  0.093296  0.302582  0.139314  1
  Tm  Tm16  1  0.998314  0.000265  0.499751  1
  Tm  Tm17  1  0.999420  0.001559  0.001101  1
  Tm  Tm18  1  0.495723  0.501726  0.002176  1
  Tm  Tm19  1  0.497801  0.504332  0.498562  1
  Ir  Ir20  1  0.653590  0.650843  0.250337  1
  Ir  Ir21  1  0.348155  0.347267  0.249649  1
  Ir  Ir22  1  0.345254  0.654057  0.750008  1
  Ir  Ir23  1  0.499000  0.998995  0.111440  1
  Ir  Ir24  1  0.499007  0.999960  0.613256  1
  Ir  Ir25  1  0.000165  0.500859  0.886674  1
  Ir  Ir26  1  0.001423  0.500970  0.388283  1
  Au  Au27  1  0.841654  0.158302  0.250600  1
  Au  Au28  1  0.844225  0.844996  0.750560  1
  Au  Au29  1  0.154332  0.156609  0.749909  1
  Au  Au30  1  0.156200  0.843773  0.250430  1
  Au  Au31  1  0.656059  0.344670  0.750676  1
