# generated using pymatgen
data_SrLi4Nd3Si8
_symmetry_space_group_name_H-M   'P 1'
_cell_length_a   3.87834100
_cell_length_b   7.86151052
_cell_length_c   10.61480014
_cell_angle_alpha   89.62251053
_cell_angle_beta   90.00000000
_cell_angle_gamma   90.00000000
_symmetry_Int_Tables_number   1
_chemical_formula_structural   SrLi4Nd3Si8
_chemical_formula_sum   'Sr1 Li4 Nd3 Si8'
_cell_volume   323.63418318
_cell_formula_units_Z   1
loop_
 _symmetry_equiv_pos_site_id
 _symmetry_equiv_pos_as_xyz
  1  'x, y, z'
loop_
 _atom_site_type_symbol
 _atom_site_label
 _atom_site_symmetry_multiplicity
 _atom_site_fract_x
 _atom_site_fract_y
 _atom_site_fract_z
 _atom_site_occupancy
  Sr  Sr0  1  0.750000  0.361603  0.365603  1
  Li  Li1  1  0.250000  0.999580  0.391641  1
  Li  Li2  1  0.750000  0.005580  0.611149  1
  Li  Li3  1  0.250000  0.493528  0.109825  1
  Li  Li4  1  0.750000  0.504616  0.891123  1
  Nd  Nd5  1  0.250000  0.130580  0.864094  1
  Nd  Nd6  1  0.750000  0.865859  0.132531  1
  Nd  Nd7  1  0.250000  0.634101  0.635012  1
  Si  Si8  1  0.750000  0.265675  0.064498  1
  Si  Si9  1  0.250000  0.728758  0.929665  1
  Si  Si10  1  0.750000  0.777769  0.430833  1
  Si  Si11  1  0.250000  0.230285  0.577515  1
  Si  Si12  1  0.750000  0.832781  0.820317  1
  Si  Si13  1  0.250000  0.158131  0.169655  1
  Si  Si14  1  0.750000  0.334775  0.684187  1
  Si  Si15  1  0.250000  0.676380  0.322351  1
