# generated using pymatgen
data_Ho15ErCd4(IrRu)2
_symmetry_space_group_name_H-M   'P 1'
_cell_length_a   9.61188846
_cell_length_b   9.61188924
_cell_length_c   9.63362799
_cell_angle_alpha   59.69554815
_cell_angle_beta   59.69554255
_cell_angle_gamma   59.62838975
_symmetry_Int_Tables_number   1
_chemical_formula_structural   Ho15ErCd4(IrRu)2
_chemical_formula_sum   'Ho15 Er1 Cd4 Ir2 Ru2'
_cell_volume   624.67644173
_cell_formula_units_Z   1
loop_
 _symmetry_equiv_pos_site_id
 _symmetry_equiv_pos_as_xyz
  1  'x, y, z'
loop_
 _atom_site_type_symbol
 _atom_site_label
 _atom_site_symmetry_multiplicity
 _atom_site_fract_x
 _atom_site_fract_y
 _atom_site_fract_z
 _atom_site_occupancy
  Ho  Ho0  1  0.598467  0.598467  0.205444  1
  Ho  Ho1  1  0.597065  0.208846  0.597465  1
  Ho  Ho2  1  0.208846  0.597065  0.597465  1
  Ho  Ho3  1  0.061482  0.438313  0.439705  1
  Ho  Ho4  1  0.437756  0.061982  0.059634  1
  Ho  Ho5  1  0.438313  0.061482  0.439705  1
  Ho  Ho6  1  0.061982  0.437756  0.059634  1
  Ho  Ho7  1  0.438250  0.438250  0.060956  1
  Ho  Ho8  1  0.059560  0.059560  0.440007  1
  Ho  Ho9  1  0.188064  0.810227  0.813251  1
  Ho  Ho10  1  0.810397  0.187891  0.188433  1
  Ho  Ho11  1  0.810227  0.188064  0.813251  1
  Ho  Ho12  1  0.187891  0.810397  0.188433  1
  Ho  Ho13  1  0.811606  0.811606  0.188544  1
  Ho  Ho14  1  0.188335  0.188335  0.811704  1
  Er  Er15  1  0.597820  0.597820  0.598703  1
  Cd  Cd16  1  0.830304  0.830304  0.830403  1
  Cd  Cd17  1  0.830325  0.830325  0.508614  1
  Cd  Cd18  1  0.830427  0.507887  0.830616  1
  Cd  Cd19  1  0.507887  0.830427  0.830616  1
  Ir  Ir20  1  0.394301  0.826753  0.390592  1
  Ir  Ir21  1  0.826753  0.394301  0.390592  1
  Ru  Ru22  1  0.391492  0.391492  0.387946  1
  Ru  Ru23  1  0.392453  0.392453  0.828289  1
