# generated using pymatgen
data_Na2V3Co6Ni3As7
_symmetry_space_group_name_H-M   'P 1'
_cell_length_a   9.44201300
_cell_length_b   9.44201315
_cell_length_c   3.73491200
_cell_angle_alpha   90.00000000
_cell_angle_beta   90.00000000
_cell_angle_gamma   120.00000299
_symmetry_Int_Tables_number   1
_chemical_formula_structural   Na2V3Co6Ni3As7
_chemical_formula_sum   'Na2 V3 Co6 Ni3 As7'
_cell_volume   288.36343288
_cell_formula_units_Z   1
loop_
 _symmetry_equiv_pos_site_id
 _symmetry_equiv_pos_as_xyz
  1  'x, y, z'
loop_
 _atom_site_type_symbol
 _atom_site_label
 _atom_site_symmetry_multiplicity
 _atom_site_fract_x
 _atom_site_fract_y
 _atom_site_fract_z
 _atom_site_occupancy
  Na  Na0  1  0.333333  0.666667  0.000000  1
  Na  Na1  1  0.666667  0.333333  0.500000  1
  V  V2  1  0.216577  0.119757  0.500000  1
  V  V3  1  0.880243  0.096821  0.500000  1
  V  V4  1  0.903179  0.783423  0.500000  1
  Co  Co5  1  0.118788  0.276840  0.000000  1
  Co  Co6  1  0.723160  0.841948  0.000000  1
  Co  Co7  1  0.158052  0.881212  0.000000  1
  Co  Co8  1  0.044892  0.430964  0.500000  1
  Co  Co9  1  0.569036  0.613928  0.500000  1
  Co  Co10  1  0.386072  0.955108  0.500000  1
  Ni  Ni11  1  0.427098  0.372396  0.000000  1
  Ni  Ni12  1  0.627604  0.054702  0.000000  1
  Ni  Ni13  1  0.945298  0.572902  0.000000  1
  As  As14  1  0.288444  0.416893  0.500000  1
  As  As15  1  0.583107  0.871551  0.500000  1
  As  As16  1  0.128449  0.711556  0.500000  1
  As  As17  1  0.413559  0.115873  0.000000  1
  As  As18  1  0.884127  0.297686  0.000000  1
  As  As19  1  0.702314  0.586441  0.000000  1
  As  As20  1  0.000000  0.000000  0.000000  1
