# generated using pymatgen
data_CaTbY2Tm4(B6Os)4
_symmetry_space_group_name_H-M   'P 1'
_cell_length_a   3.63606300
_cell_length_b   9.11960854
_cell_length_c   11.51976701
_cell_angle_alpha   89.91139208
_cell_angle_beta   90.00000000
_cell_angle_gamma   90.00000000
_symmetry_Int_Tables_number   1
_chemical_formula_structural   CaTbY2Tm4(B6Os)4
_chemical_formula_sum   'Ca1 Tb1 Y2 Tm4 B24 Os4'
_cell_volume   381.98892550
_cell_formula_units_Z   1
loop_
 _symmetry_equiv_pos_site_id
 _symmetry_equiv_pos_as_xyz
  1  'x, y, z'
loop_
 _atom_site_type_symbol
 _atom_site_label
 _atom_site_symmetry_multiplicity
 _atom_site_fract_x
 _atom_site_fract_y
 _atom_site_fract_z
 _atom_site_occupancy
  Ca  Ca0  1  0.000000  0.321838  0.413777  1
  Tb  Tb1  1  0.000000  0.178613  0.914462  1
  Y  Y2  1  0.000000  0.676653  0.585071  1
  Y  Y3  1  0.000000  0.821881  0.086492  1
  Tm  Tm4  1  0.000000  0.944288  0.371843  1
  Tm  Tm5  1  0.000000  0.057452  0.627327  1
  Tm  Tm6  1  0.000000  0.443443  0.128871  1
  Tm  Tm7  1  0.000000  0.555860  0.872752  1
  B  B8  1  0.500000  0.554379  0.432377  1
  B  B9  1  0.500000  0.445828  0.567774  1
  B  B10  1  0.500000  0.053728  0.066930  1
  B  B11  1  0.500000  0.945477  0.932158  1
  B  B12  1  0.500000  0.749396  0.418673  1
  B  B13  1  0.500000  0.251272  0.581522  1
  B  B14  1  0.500000  0.248698  0.081142  1
  B  B15  1  0.500000  0.750658  0.919080  1
  B  B16  1  0.500000  0.791873  0.266025  1
  B  B17  1  0.500000  0.209247  0.734171  1
  B  B18  1  0.500000  0.290621  0.233592  1
  B  B19  1  0.500000  0.708707  0.766247  1
  B  B20  1  0.500000  0.631229  0.185589  1
  B  B21  1  0.500000  0.369259  0.815477  1
  B  B22  1  0.500000  0.130460  0.314292  1
  B  B23  1  0.500000  0.869230  0.684746  1
  B  B24  1  0.500000  0.982927  0.212533  1
  B  B25  1  0.500000  0.016882  0.786508  1
  B  B26  1  0.500000  0.483357  0.287011  1
  B  B27  1  0.500000  0.516831  0.713413  1
  B  B28  1  0.500000  0.604997  0.029157  1
  B  B29  1  0.500000  0.395410  0.971644  1
  B  B30  1  0.500000  0.102039  0.471757  1
  B  B31  1  0.500000  0.896879  0.528330  1
  Os  Os32  1  0.000000  0.640014  0.319833  1
  Os  Os33  1  0.000000  0.361815  0.681069  1
  Os  Os34  1  0.000000  0.137062  0.177974  1
  Os  Os35  1  0.000000  0.861695  0.820381  1
