# generated using pymatgen
data_LaEuDy2(WO6)2
_symmetry_space_group_name_H-M   'P 1'
_cell_length_a   5.52158700
_cell_length_b   7.83478037
_cell_length_c   11.59480179
_cell_angle_alpha   76.24853549
_cell_angle_beta   90.00000000
_cell_angle_gamma   90.00000000
_symmetry_Int_Tables_number   1
_chemical_formula_structural   LaEuDy2(WO6)2
_chemical_formula_sum   'La2 Eu2 Dy4 W4 O24'
_cell_volume   487.21826048
_cell_formula_units_Z   2
loop_
 _symmetry_equiv_pos_site_id
 _symmetry_equiv_pos_as_xyz
  1  'x, y, z'
loop_
 _atom_site_type_symbol
 _atom_site_label
 _atom_site_symmetry_multiplicity
 _atom_site_fract_x
 _atom_site_fract_y
 _atom_site_fract_z
 _atom_site_occupancy
  La  La0  1  0.684629  0.500000  0.750000  1
  La  La1  1  0.315371  0.500000  0.250000  1
  Eu  Eu2  1  0.742357  0.000000  0.750000  1
  Eu  Eu3  1  0.257643  0.000000  0.250000  1
  Dy  Dy4  1  0.186435  0.796714  0.576488  1
  Dy  Dy5  1  0.813565  0.796714  0.076488  1
  Dy  Dy6  1  0.186435  0.203286  0.923512  1
  Dy  Dy7  1  0.813565  0.203286  0.423512  1
  W  W8  1  0.252413  0.727401  0.884922  1
  W  W9  1  0.747587  0.727401  0.384922  1
  W  W10  1  0.252413  0.272599  0.615078  1
  W  W11  1  0.747587  0.272599  0.115078  1
  O  O12  1  0.046176  0.939271  0.898642  1
  O  O13  1  0.527986  0.842995  0.933241  1
  O  O14  1  0.953824  0.939271  0.398642  1
  O  O15  1  0.449918  0.790830  0.728999  1
  O  O16  1  0.472014  0.842995  0.433241  1
  O  O17  1  0.989157  0.719690  0.769481  1
  O  O18  1  0.550082  0.790830  0.228999  1
  O  O19  1  0.858515  0.642550  0.544361  1
  O  O20  1  0.345742  0.494612  0.887889  1
  O  O21  1  0.010843  0.719690  0.269481  1
  O  O22  1  0.345742  0.505388  0.612111  1
  O  O23  1  0.858515  0.357450  0.955639  1
  O  O24  1  0.141485  0.642550  0.044361  1
  O  O25  1  0.654258  0.494612  0.387889  1
  O  O26  1  0.989157  0.280310  0.730519  1
  O  O27  1  0.654258  0.505388  0.112111  1
  O  O28  1  0.141485  0.357450  0.455639  1
  O  O29  1  0.449918  0.209170  0.771001  1
  O  O30  1  0.010843  0.280310  0.230519  1
  O  O31  1  0.527986  0.157005  0.566759  1
  O  O32  1  0.550082  0.209170  0.271001  1
  O  O33  1  0.046176  0.060729  0.601358  1
  O  O34  1  0.472014  0.157005  0.066759  1
  O  O35  1  0.953824  0.060729  0.101358  1
