# generated using pymatgen
data_UHg4(SbBr3)2
_symmetry_space_group_name_H-M   'P 1'
_cell_length_a   14.69657000
_cell_length_b   14.90875100
_cell_length_c   18.27301400
_cell_angle_alpha   90.00000000
_cell_angle_beta   90.00000000
_cell_angle_gamma   90.00000000
_symmetry_Int_Tables_number   1
_chemical_formula_structural   UHg4(SbBr3)2
_chemical_formula_sum   'U8 Hg32 Sb16 Br48'
_cell_volume   4003.75446405
_cell_formula_units_Z   8
loop_
 _symmetry_equiv_pos_site_id
 _symmetry_equiv_pos_as_xyz
  1  'x, y, z'
loop_
 _atom_site_type_symbol
 _atom_site_label
 _atom_site_symmetry_multiplicity
 _atom_site_fract_x
 _atom_site_fract_y
 _atom_site_fract_z
 _atom_site_occupancy
  U  U0  1  0.199938  0.489516  0.615062  1
  U  U1  1  0.300062  0.510484  0.115062  1
  U  U2  1  0.800062  0.989516  0.884938  1
  U  U3  1  0.800062  0.510484  0.384938  1
  U  U4  1  0.300062  0.989516  0.615062  1
  U  U5  1  0.699938  0.010484  0.384938  1
  U  U6  1  0.699938  0.489516  0.884938  1
  U  U7  1  0.199938  0.010484  0.115062  1
  Hg  Hg8  1  0.908058  0.011298  0.648989  1
  Hg  Hg9  1  0.908058  0.488702  0.148989  1
  Hg  Hg10  1  0.521994  0.215161  0.998303  1
  Hg  Hg11  1  0.971125  0.759111  0.750293  1
  Hg  Hg12  1  0.408058  0.488702  0.351011  1
  Hg  Hg13  1  0.726234  0.731827  0.125173  1
  Hg  Hg14  1  0.773766  0.268173  0.625173  1
  Hg  Hg15  1  0.028875  0.240889  0.249707  1
  Hg  Hg16  1  0.591942  0.511298  0.648989  1
  Hg  Hg17  1  0.091942  0.988702  0.351011  1
  Hg  Hg18  1  0.028875  0.259111  0.749707  1
  Hg  Hg19  1  0.273766  0.268173  0.874827  1
  Hg  Hg20  1  0.478006  0.784839  0.001697  1
  Hg  Hg21  1  0.091942  0.511298  0.851011  1
  Hg  Hg22  1  0.978006  0.715161  0.998303  1
  Hg  Hg23  1  0.528875  0.259111  0.750293  1
  Hg  Hg24  1  0.021994  0.215161  0.501697  1
  Hg  Hg25  1  0.273766  0.231827  0.374827  1
  Hg  Hg26  1  0.471125  0.759111  0.749707  1
  Hg  Hg27  1  0.021994  0.284839  0.001697  1
  Hg  Hg28  1  0.591942  0.988702  0.148989  1
  Hg  Hg29  1  0.528875  0.240889  0.250293  1
  Hg  Hg30  1  0.978006  0.784839  0.498303  1
  Hg  Hg31  1  0.226234  0.731827  0.374827  1
  Hg  Hg32  1  0.408058  0.011298  0.851011  1
  Hg  Hg33  1  0.471125  0.740889  0.249707  1
  Hg  Hg34  1  0.226234  0.768173  0.874827  1
  Hg  Hg35  1  0.971125  0.740889  0.250293  1
  Hg  Hg36  1  0.478006  0.715161  0.501697  1
  Hg  Hg37  1  0.726234  0.768173  0.625173  1
  Hg  Hg38  1  0.521994  0.284839  0.498303  1
  Hg  Hg39  1  0.773766  0.231827  0.125173  1
  Sb  Sb40  1  0.398553  0.669253  0.372580  1
  Sb  Sb41  1  0.939457  0.309639  0.132943  1
  Sb  Sb42  1  0.560543  0.690361  0.632943  1
  Sb  Sb43  1  0.601447  0.330747  0.627420  1
  Sb  Sb44  1  0.560543  0.809639  0.132943  1
  Sb  Sb45  1  0.939457  0.190361  0.632943  1
  Sb  Sb46  1  0.060543  0.809639  0.367057  1
  Sb  Sb47  1  0.101447  0.169253  0.372580  1
  Sb  Sb48  1  0.101447  0.330747  0.872580  1
  Sb  Sb49  1  0.601447  0.169253  0.127420  1
  Sb  Sb50  1  0.060543  0.690361  0.867057  1
  Sb  Sb51  1  0.898553  0.830747  0.627420  1
  Sb  Sb52  1  0.439457  0.190361  0.867057  1
  Sb  Sb53  1  0.439457  0.309639  0.367057  1
  Sb  Sb54  1  0.398553  0.830747  0.872580  1
  Sb  Sb55  1  0.898553  0.669253  0.127420  1
  Br  Br56  1  0.766634  0.924676  0.261195  1
  Br  Br57  1  0.472297  0.513812  0.178642  1
  Br  Br58  1  0.263023  0.829423  0.684778  1
  Br  Br59  1  0.840296  0.350888  0.455707  1
  Br  Br60  1  0.159704  0.649112  0.544293  1
  Br  Br61  1  0.236977  0.170577  0.184778  1
  Br  Br62  1  0.972297  0.513812  0.321358  1
  Br  Br63  1  0.733366  0.075324  0.761195  1
  Br  Br64  1  0.733366  0.424676  0.261195  1
  Br  Br65  1  0.374102  0.489905  0.554974  1
  Br  Br66  1  0.027703  0.013812  0.178642  1
  Br  Br67  1  0.340296  0.149112  0.544293  1
  Br  Br68  1  0.159704  0.850888  0.044293  1
  Br  Br69  1  0.659704  0.850888  0.455707  1
  Br  Br70  1  0.527703  0.486188  0.821358  1
  Br  Br71  1  0.736977  0.329423  0.815222  1
  Br  Br72  1  0.137882  0.396100  0.493080  1
  Br  Br73  1  0.637882  0.103900  0.506920  1
  Br  Br74  1  0.362118  0.896100  0.493080  1
  Br  Br75  1  0.266634  0.924676  0.238805  1
  Br  Br76  1  0.763023  0.670577  0.315222  1
  Br  Br77  1  0.472297  0.986188  0.678642  1
  Br  Br78  1  0.972297  0.986188  0.821358  1
  Br  Br79  1  0.374102  0.010095  0.054974  1
  Br  Br80  1  0.874102  0.489905  0.945026  1
  Br  Br81  1  0.637882  0.396100  0.006920  1
  Br  Br82  1  0.527703  0.013812  0.321358  1
  Br  Br83  1  0.027703  0.486188  0.678642  1
  Br  Br84  1  0.263023  0.670577  0.184778  1
  Br  Br85  1  0.862118  0.896100  0.006920  1
  Br  Br86  1  0.233366  0.424676  0.238805  1
  Br  Br87  1  0.236977  0.329423  0.684778  1
  Br  Br88  1  0.840296  0.149112  0.955707  1
  Br  Br89  1  0.659704  0.649112  0.955707  1
  Br  Br90  1  0.625898  0.989905  0.945026  1
  Br  Br91  1  0.763023  0.829423  0.815222  1
  Br  Br92  1  0.340296  0.350888  0.044293  1
  Br  Br93  1  0.125898  0.989905  0.554974  1
  Br  Br94  1  0.137882  0.103900  0.993080  1
  Br  Br95  1  0.233366  0.075324  0.738805  1
  Br  Br96  1  0.625898  0.510095  0.445026  1
  Br  Br97  1  0.266634  0.575324  0.738805  1
  Br  Br98  1  0.736977  0.170577  0.315222  1
  Br  Br99  1  0.125898  0.510095  0.054974  1
  Br  Br100  1  0.362118  0.603900  0.993080  1
  Br  Br101  1  0.862118  0.603900  0.506920  1
  Br  Br102  1  0.766634  0.575324  0.761195  1
  Br  Br103  1  0.874102  0.010095  0.445026  1
