# generated using pymatgen
data_DyEr(Ni2B)12
_symmetry_space_group_name_H-M   'P 1'
_cell_length_a   6.01473204
_cell_length_b   6.01473089
_cell_length_c   10.95093120
_cell_angle_alpha   90.02469625
_cell_angle_beta   90.02469751
_cell_angle_gamma   104.74614308
_symmetry_Int_Tables_number   1
_chemical_formula_structural   DyEr(Ni2B)12
_chemical_formula_sum   'Dy1 Er1 Ni24 B12'
_cell_volume   383.12300357
_cell_formula_units_Z   1
loop_
 _symmetry_equiv_pos_site_id
 _symmetry_equiv_pos_as_xyz
  1  'x, y, z'
loop_
 _atom_site_type_symbol
 _atom_site_label
 _atom_site_symmetry_multiplicity
 _atom_site_fract_x
 _atom_site_fract_y
 _atom_site_fract_z
 _atom_site_occupancy
  Dy  Dy0  1  0.166809  0.166809  0.503609  1
  Er  Er1  1  0.833412  0.833412  0.004089  1
  Ni  Ni2  1  0.997781  0.631678  0.562602  1
  Ni  Ni3  1  0.730838  0.342362  0.432070  1
  Ni  Ni4  1  0.342362  0.730838  0.432070  1
  Ni  Ni5  1  0.657866  0.268828  0.932204  1
  Ni  Ni6  1  0.001993  0.368038  0.062562  1
  Ni  Ni7  1  0.368038  0.001993  0.062562  1
  Ni  Ni8  1  0.631678  0.997781  0.562602  1
  Ni  Ni9  1  0.434126  0.434126  0.081344  1
  Ni  Ni10  1  0.212318  0.473914  0.723400  1
  Ni  Ni11  1  0.788040  0.526560  0.222941  1
  Ni  Ni12  1  0.526560  0.788040  0.222941  1
  Ni  Ni13  1  0.473914  0.212318  0.723400  1
  Ni  Ni14  1  0.566587  0.566587  0.581526  1
  Ni  Ni15  1  0.216637  0.216637  0.901015  1
  Ni  Ni16  1  0.145431  0.882115  0.744758  1
  Ni  Ni17  1  0.854477  0.117496  0.244281  1
  Ni  Ni18  1  0.117496  0.854477  0.244281  1
  Ni  Ni19  1  0.882115  0.145431  0.744758  1
  Ni  Ni20  1  0.544925  0.805898  0.767248  1
  Ni  Ni21  1  0.455482  0.194115  0.266798  1
  Ni  Ni22  1  0.194115  0.455482  0.266798  1
  Ni  Ni23  1  0.805898  0.544925  0.767248  1
  Ni  Ni24  1  0.782447  0.782447  0.400793  1
  Ni  Ni25  1  0.268828  0.657866  0.932204  1
  B  B26  1  0.400543  0.987738  0.877394  1
  B  B27  1  0.599571  0.012510  0.377416  1
  B  B28  1  0.012510  0.599571  0.377416  1
  B  B29  1  0.987738  0.400543  0.877394  1
  B  B30  1  0.327661  0.759162  0.615339  1
  B  B31  1  0.672171  0.240539  0.115251  1
  B  B32  1  0.240539  0.672171  0.115251  1
  B  B33  1  0.759162  0.327661  0.615339  1
  B  B34  1  0.512280  0.512280  0.344840  1
  B  B35  1  0.487741  0.487741  0.845087  1
  B  B36  1  0.163291  0.163291  0.161534  1
  B  B37  1  0.836616  0.836616  0.661641  1
