# generated using pymatgen
data_Y6Ho10MgIn3Pd4
_symmetry_space_group_name_H-M   'P 1'
_cell_length_a   9.74493132
_cell_length_b   9.71777476
_cell_length_c   9.71777500
_cell_angle_alpha   60.00000258
_cell_angle_beta   60.09214434
_cell_angle_gamma   60.09214462
_symmetry_Int_Tables_number   1
_chemical_formula_structural   Y6Ho10MgIn3Pd4
_chemical_formula_sum   'Y6 Ho10 Mg1 In3 Pd4'
_cell_volume   651.62978748
_cell_formula_units_Z   1
loop_
 _symmetry_equiv_pos_site_id
 _symmetry_equiv_pos_as_xyz
  1  'x, y, z'
loop_
 _atom_site_type_symbol
 _atom_site_label
 _atom_site_symmetry_multiplicity
 _atom_site_fract_x
 _atom_site_fract_y
 _atom_site_fract_z
 _atom_site_occupancy
  Y  Y0  1  0.935806  0.564452  0.564452  1
  Y  Y1  1  0.564106  0.936233  0.936233  1
  Y  Y2  1  0.564106  0.936233  0.563427  1
  Y  Y3  1  0.935806  0.564452  0.935289  1
  Y  Y4  1  0.564106  0.563427  0.936233  1
  Y  Y5  1  0.935806  0.935289  0.564452  1
  Ho  Ho6  1  0.351954  0.350914  0.350914  1
  Ho  Ho7  1  0.351954  0.350914  0.946218  1
  Ho  Ho8  1  0.351954  0.946218  0.350914  1
  Ho  Ho9  1  0.943688  0.352104  0.352104  1
  Ho  Ho10  1  0.809633  0.189937  0.189937  1
  Ho  Ho11  1  0.186955  0.812451  0.812451  1
  Ho  Ho12  1  0.186955  0.812451  0.188145  1
  Ho  Ho13  1  0.809633  0.189937  0.810493  1
  Ho  Ho14  1  0.186955  0.188145  0.812451  1
  Ho  Ho15  1  0.809633  0.810493  0.189937  1
  Mg  Mg16  1  0.265096  0.578301  0.578301  1
  In  In17  1  0.582288  0.583437  0.583437  1
  In  In18  1  0.582288  0.583437  0.250837  1
  In  In19  1  0.582288  0.250837  0.583437  1
  Pd  Pd20  1  0.143319  0.143984  0.143984  1
  Pd  Pd21  1  0.143319  0.143984  0.568713  1
  Pd  Pd22  1  0.143319  0.568713  0.143984  1
  Pd  Pd23  1  0.569029  0.143657  0.143657  1
