# generated using pymatgen
data_ErHf2Sc(Al3Rh)6
_symmetry_space_group_name_H-M   'P 1'
_cell_length_a   7.48278812
_cell_length_b   7.47720785
_cell_length_c   9.29982100
_cell_angle_alpha   90.00000000
_cell_angle_beta   90.00000000
_cell_angle_gamma   119.65936893
_symmetry_Int_Tables_number   1
_chemical_formula_structural   ErHf2Sc(Al3Rh)6
_chemical_formula_sum   'Er1 Hf2 Sc1 Al18 Rh6'
_cell_volume   452.15630916
_cell_formula_units_Z   1
loop_
 _symmetry_equiv_pos_site_id
 _symmetry_equiv_pos_as_xyz
  1  'x, y, z'
loop_
 _atom_site_type_symbol
 _atom_site_label
 _atom_site_symmetry_multiplicity
 _atom_site_fract_x
 _atom_site_fract_y
 _atom_site_fract_z
 _atom_site_occupancy
  Er  Er0  1  0.329096  0.006647  0.250000  1
  Hf  Hf1  1  0.995037  0.672605  0.750000  1
  Hf  Hf2  1  0.004590  0.326906  0.250000  1
  Sc  Sc3  1  0.671906  0.993819  0.750000  1
  Al  Al4  1  0.122417  0.122222  0.750000  1
  Al  Al5  1  0.872773  0.875415  0.250000  1
  Al  Al6  1  0.996087  0.334883  0.579266  1
  Al  Al7  1  0.000719  0.662377  0.424663  1
  Al  Al8  1  0.000719  0.662377  0.075337  1
  Al  Al9  1  0.335444  0.997548  0.917624  1
  Al  Al10  1  0.996087  0.334883  0.920734  1
  Al  Al11  1  0.667429  0.002041  0.075869  1
  Al  Al12  1  0.667429  0.002041  0.424131  1
  Al  Al13  1  0.335444  0.997548  0.582376  1
  Al  Al14  1  0.330881  0.333580  0.054825  1
  Al  Al15  1  0.669507  0.669237  0.940611  1
  Al  Al16  1  0.669507  0.669237  0.559389  1
  Al  Al17  1  0.330881  0.333580  0.445175  1
  Al  Al18  1  0.337225  0.553464  0.750000  1
  Al  Al19  1  0.665096  0.451107  0.250000  1
  Al  Al20  1  0.557725  0.342540  0.750000  1
  Al  Al21  1  0.444309  0.656341  0.250000  1
  Rh  Rh22  1  0.673138  0.328068  0.499524  1
  Rh  Rh23  1  0.326215  0.671992  0.500871  1
  Rh  Rh24  1  0.326215  0.671992  0.999129  1
  Rh  Rh25  1  0.673138  0.328068  0.000476  1
  Rh  Rh26  1  0.000494  0.999742  0.500112  1
  Rh  Rh27  1  0.000494  0.999742  0.999888  1
