# generated using pymatgen
data_La5Sn2BiSe
_symmetry_space_group_name_H-M   'P 1'
_cell_length_a   9.74224100
_cell_length_b   9.71568686
_cell_length_c   7.03960500
_cell_angle_alpha   90.00000000
_cell_angle_beta   90.00000000
_cell_angle_gamma   120.09044194
_symmetry_Int_Tables_number   1
_chemical_formula_structural   La5Sn2BiSe
_chemical_formula_sum   'La10 Sn4 Bi2 Se2'
_cell_volume   576.52053747
_cell_formula_units_Z   2
loop_
 _symmetry_equiv_pos_site_id
 _symmetry_equiv_pos_as_xyz
  1  'x, y, z'
loop_
 _atom_site_type_symbol
 _atom_site_label
 _atom_site_symmetry_multiplicity
 _atom_site_fract_x
 _atom_site_fract_y
 _atom_site_fract_z
 _atom_site_occupancy
  La  La0  1  0.663813  0.327625  0.000000  1
  La  La1  1  0.334648  0.669298  0.500000  1
  La  La2  1  0.663813  0.327625  0.500000  1
  La  La3  1  0.334648  0.669298  0.000000  1
  La  La4  1  0.748840  0.005151  0.750000  1
  La  La5  1  0.744432  0.748291  0.250000  1
  La  La6  1  0.001199  0.250955  0.250000  1
  La  La7  1  0.003860  0.748291  0.750000  1
  La  La8  1  0.249757  0.250955  0.750000  1
  La  La9  1  0.256311  0.005151  0.250000  1
  Sn  Sn10  1  0.608052  0.000001  0.250000  1
  Sn  Sn11  1  0.391949  0.000001  0.750000  1
  Sn  Sn12  1  0.000833  0.392861  0.750000  1
  Sn  Sn13  1  0.392028  0.392861  0.250000  1
  Bi  Bi14  1  0.608896  0.608509  0.750000  1
  Bi  Bi15  1  0.999613  0.608509  0.250000  1
  Se  Se16  1  0.998654  0.997308  0.500000  1
  Se  Se17  1  0.998654  0.997308  0.000000  1
