# generated using pymatgen
data_Nd4Th2Cd23P
_symmetry_space_group_name_H-M   'P 1'
_cell_length_a   10.03329949
_cell_length_b   10.07828817
_cell_length_c   10.07828280
_cell_angle_alpha   59.84063645
_cell_angle_beta   60.14700891
_cell_angle_gamma   60.14720812
_symmetry_Int_Tables_number   1
_chemical_formula_structural   Nd4Th2Cd23P
_chemical_formula_sum   'Nd4 Th2 Cd23 P1'
_cell_volume   721.33349271
_cell_formula_units_Z   1
loop_
 _symmetry_equiv_pos_site_id
 _symmetry_equiv_pos_as_xyz
  1  'x, y, z'
loop_
 _atom_site_type_symbol
 _atom_site_label
 _atom_site_symmetry_multiplicity
 _atom_site_fract_x
 _atom_site_fract_y
 _atom_site_fract_z
 _atom_site_occupancy
  Nd  Nd0  1  0.797760  0.200609  0.203872  1
  Nd  Nd1  1  0.201181  0.200487  0.799514  1
  Nd  Nd2  1  0.798818  0.200486  0.799514  1
  Nd  Nd3  1  0.202242  0.796127  0.799391  1
  Th  Th4  1  0.801383  0.798294  0.201703  1
  Th  Th5  1  0.198617  0.798297  0.201704  1
  Cd  Cd6  1  0.832737  0.833694  0.500832  1
  Cd  Cd7  1  0.834145  0.498155  0.833554  1
  Cd  Cd8  1  0.499059  0.834118  0.832569  1
  Cd  Cd9  1  0.834253  0.834117  0.832569  1
  Cd  Cd10  1  0.165854  0.166445  0.501846  1
  Cd  Cd11  1  0.167263  0.499167  0.166307  1
  Cd  Cd12  1  0.500941  0.167431  0.165882  1
  Cd  Cd13  1  0.165746  0.167431  0.165883  1
  Cd  Cd14  1  0.620967  0.622065  0.136001  1
  Cd  Cd15  1  0.620806  0.136886  0.621503  1
  Cd  Cd16  1  0.136096  0.621361  0.620938  1
  Cd  Cd17  1  0.621605  0.621360  0.620939  1
  Cd  Cd18  1  0.379195  0.378498  0.863113  1
  Cd  Cd19  1  0.379032  0.863999  0.377935  1
  Cd  Cd20  1  0.863903  0.379063  0.378639  1
  Cd  Cd21  1  0.378395  0.379062  0.378639  1
  Cd  Cd22  1  0.000496  0.000367  0.498784  1
  Cd  Cd23  1  0.500352  0.000368  0.498784  1
  Cd  Cd24  1  0.000000  0.500655  0.499345  1
  Cd  Cd25  1  0.499648  0.501216  0.999632  1
  Cd  Cd26  1  0.999504  0.501216  0.999632  1
  Cd  Cd27  1  0.500000  0.999421  0.000579  1
  Cd  Cd28  1  0.500000  0.499674  0.500326  1
  P  P29  1  0.000000  0.999929  0.000071  1
