# generated using pymatgen
data_Ca2Lu2As6Ir7
_symmetry_space_group_name_H-M   'P 1'
_cell_length_a   7.25572790
_cell_length_b   7.28210744
_cell_length_c   7.28210731
_cell_angle_alpha   109.75487245
_cell_angle_beta   109.40266260
_cell_angle_gamma   109.40266741
_symmetry_Int_Tables_number   1
_chemical_formula_structural   Ca2Lu2As6Ir7
_chemical_formula_sum   'Ca2 Lu2 As6 Ir7'
_cell_volume   295.65227935
_cell_formula_units_Z   1
loop_
 _symmetry_equiv_pos_site_id
 _symmetry_equiv_pos_as_xyz
  1  'x, y, z'
loop_
 _atom_site_type_symbol
 _atom_site_label
 _atom_site_symmetry_multiplicity
 _atom_site_fract_x
 _atom_site_fract_y
 _atom_site_fract_z
 _atom_site_occupancy
  Ca  Ca0  1  0.500000  0.000000  0.000000  1
  Ca  Ca1  1  0.500000  0.500000  0.500000  1
  Lu  Lu2  1  0.000000  0.000000  0.500000  1
  Lu  Lu3  1  0.000000  0.500000  0.000000  1
  As  As4  1  0.678834  0.680808  0.998026  1
  As  As5  1  0.321166  0.319192  0.001974  1
  As  As6  1  0.000000  0.680364  0.680364  1
  As  As7  1  0.000000  0.319636  0.319636  1
  As  As8  1  0.678834  0.998026  0.680808  1
  As  As9  1  0.321166  0.001974  0.319192  1
  Ir  Ir10  1  0.000000  0.000000  0.000000  1
  Ir  Ir11  1  0.243728  0.493322  0.750405  1
  Ir  Ir12  1  0.756272  0.249595  0.506678  1
  Ir  Ir13  1  0.500000  0.250000  0.750000  1
  Ir  Ir14  1  0.500000  0.750000  0.250000  1
  Ir  Ir15  1  0.756272  0.506678  0.249595  1
  Ir  Ir16  1  0.243728  0.750405  0.493322  1
