# generated using pymatgen
data_Pr4PtPb2Au3
_symmetry_space_group_name_H-M   'P 1'
_cell_length_a   8.28446091
_cell_length_b   8.28446091
_cell_length_c   3.87695100
_cell_angle_alpha   90.00000000
_cell_angle_beta   90.00000000
_cell_angle_gamma   90.13692407
_symmetry_Int_Tables_number   1
_chemical_formula_structural   Pr4PtPb2Au3
_chemical_formula_sum   'Pr4 Pt1 Pb2 Au3'
_cell_volume   266.08327577
_cell_formula_units_Z   1
loop_
 _symmetry_equiv_pos_site_id
 _symmetry_equiv_pos_as_xyz
  1  'x, y, z'
loop_
 _atom_site_type_symbol
 _atom_site_label
 _atom_site_symmetry_multiplicity
 _atom_site_fract_x
 _atom_site_fract_y
 _atom_site_fract_z
 _atom_site_occupancy
  Pr  Pr0  1  0.339516  0.175648  0.500000  1
  Pr  Pr1  1  0.817944  0.317944  0.500000  1
  Pr  Pr2  1  0.171145  0.671145  0.500000  1
  Pr  Pr3  1  0.675648  0.839516  0.500000  1
  Pt  Pt4  1  0.622659  0.122658  0.000000  1
  Pb  Pb5  1  0.999385  0.002317  0.000000  1
  Pb  Pb6  1  0.502317  0.499385  0.000000  1
  Au  Au7  1  0.122297  0.373865  0.000000  1
  Au  Au8  1  0.873865  0.622298  0.000000  1
  Au  Au9  1  0.375224  0.875224  0.000000  1
