# generated using pymatgen
data_La3Er7C4I15
_symmetry_space_group_name_H-M   'P 1'
_cell_length_a   9.68262199
_cell_length_b   10.45709538
_cell_length_c   11.61789408
_cell_angle_alpha   93.18984071
_cell_angle_beta   114.19377640
_cell_angle_gamma   109.47295212
_symmetry_Int_Tables_number   1
_chemical_formula_structural   La3Er7C4I15
_chemical_formula_sum   'La3 Er7 C4 I15'
_cell_volume   986.02914557
_cell_formula_units_Z   1
loop_
 _symmetry_equiv_pos_site_id
 _symmetry_equiv_pos_as_xyz
  1  'x, y, z'
loop_
 _atom_site_type_symbol
 _atom_site_label
 _atom_site_symmetry_multiplicity
 _atom_site_fract_x
 _atom_site_fract_y
 _atom_site_fract_z
 _atom_site_occupancy
  La  La0  1  0.705797  0.568440  0.044584  1
  La  La1  1  0.292791  0.432970  0.955300  1
  La  La2  1  0.664885  0.254154  0.836139  1
  Er  Er3  1  0.590138  0.543115  0.335665  1
  Er  Er4  1  0.353341  0.741921  0.162410  1
  Er  Er5  1  0.764429  0.871023  0.250889  1
  Er  Er6  1  0.525449  0.187304  0.097385  1
  Er  Er7  1  0.239706  0.127109  0.751863  1
  Er  Er8  1  0.406086  0.456833  0.664053  1
  Er  Er9  1  0.473302  0.814065  0.902191  1
  C  C10  1  0.481888  0.296274  0.938226  1
  C  C11  1  0.517510  0.706740  0.062670  1
  C  C12  1  0.453109  0.361296  0.831900  1
  C  C13  1  0.545328  0.639525  0.168177  1
  I  I14  1  0.220113  0.909575  0.941548  1
  I  I15  1  0.115540  0.194885  0.482702  1
  I  I16  1  0.168101  0.567764  0.697907  1
  I  I17  1  0.391745  0.961963  0.652933  1
  I  I18  1  0.695403  0.738440  0.809280  1
  I  I19  1  0.301259  0.261437  0.188570  1
  I  I20  1  0.829367  0.431566  0.302269  1
  I  I21  1  0.882630  0.803329  0.519213  1
  I  I22  1  0.357812  0.627249  0.405330  1
  I  I23  1  0.050752  0.845282  0.226837  1
  I  I24  1  0.783604  0.086504  0.069898  1
  I  I25  1  0.636776  0.381926  0.582169  1
  I  I26  1  0.950381  0.153812  0.774033  1
  I  I27  1  0.590352  0.022492  0.338540  1
  I  I28  1  0.012405  0.513008  0.007317  1
