# generated using pymatgen
data_Na20U(SnAs4)3
_symmetry_space_group_name_H-M   'P 1'
_cell_length_a   13.91270587
_cell_length_b   7.59344336
_cell_length_c   8.63219013
_cell_angle_alpha   90.43361459
_cell_angle_beta   90.31615910
_cell_angle_gamma   89.11038730
_symmetry_Int_Tables_number   1
_chemical_formula_structural   Na20U(SnAs4)3
_chemical_formula_sum   'Na20 U1 Sn3 As12'
_cell_volume   911.80135930
_cell_formula_units_Z   1
loop_
 _symmetry_equiv_pos_site_id
 _symmetry_equiv_pos_as_xyz
  1  'x, y, z'
loop_
 _atom_site_type_symbol
 _atom_site_label
 _atom_site_symmetry_multiplicity
 _atom_site_fract_x
 _atom_site_fract_y
 _atom_site_fract_z
 _atom_site_occupancy
  Na  Na0  1  0.757080  0.644243  0.069550  1
  Na  Na1  1  0.082754  0.660744  0.074319  1
  Na  Na2  1  0.913855  0.975176  0.166246  1
  Na  Na3  1  0.254472  0.997768  0.170507  1
  Na  Na4  1  0.590272  0.972120  0.179427  1
  Na  Na5  1  0.911803  0.462409  0.320929  1
  Na  Na6  1  0.236469  0.492972  0.332619  1
  Na  Na7  1  0.593887  0.473981  0.341539  1
  Na  Na8  1  0.417053  0.159116  0.428328  1
  Na  Na9  1  0.745003  0.143635  0.430399  1
  Na  Na10  1  0.255023  0.857416  0.574215  1
  Na  Na11  1  0.583248  0.841164  0.574061  1
  Na  Na12  1  0.412275  0.523872  0.658924  1
  Na  Na13  1  0.757418  0.511080  0.672240  1
  Na  Na14  1  0.088697  0.544258  0.680052  1
  Na  Na15  1  0.413372  0.037657  0.814586  1
  Na  Na16  1  0.741980  0.002761  0.830186  1
  Na  Na17  1  0.086795  0.016202  0.830735  1
  Na  Na18  1  0.917387  0.338334  0.924659  1
  Na  Na19  1  0.239108  0.351280  0.928229  1
  U  U20  1  0.416922  0.642438  0.069567  1
  Sn  Sn21  1  0.088826  0.147174  0.429820  1
  Sn  Sn22  1  0.910211  0.851262  0.570919  1
  Sn  Sn23  1  0.587910  0.357784  0.929811  1
  As  As24  1  0.426653  0.279827  0.095037  1
  As  As25  1  0.736304  0.254923  0.099479  1
  As  As26  1  0.080397  0.265262  0.142418  1
  As  As27  1  0.418187  0.761477  0.367105  1
  As  As28  1  0.762156  0.752696  0.398097  1
  As  As29  1  0.070543  0.791170  0.401644  1
  As  As30  1  0.928836  0.207901  0.596794  1
  As  As31  1  0.237532  0.250537  0.599216  1
  As  As32  1  0.583224  0.235242  0.643160  1
  As  As33  1  0.917567  0.731874  0.858815  1
  As  As34  1  0.260683  0.743796  0.898964  1
  As  As35  1  0.576099  0.720445  0.897401  1
