# generated using pymatgen
data_Tm6AlTcPd
_symmetry_space_group_name_H-M   'P 1'
_cell_length_a   8.47698169
_cell_length_b   8.47698236
_cell_length_c   8.47698100
_cell_angle_alpha   103.75304699
_cell_angle_beta   111.56902742
_cell_angle_gamma   113.24355589
_symmetry_Int_Tables_number   1
_chemical_formula_structural   Tm6AlTcPd
_chemical_formula_sum   'Tm12 Al2 Tc2 Pd2'
_cell_volume   465.35682359
_cell_formula_units_Z   2
loop_
 _symmetry_equiv_pos_site_id
 _symmetry_equiv_pos_as_xyz
  1  'x, y, z'
loop_
 _atom_site_type_symbol
 _atom_site_label
 _atom_site_symmetry_multiplicity
 _atom_site_fract_x
 _atom_site_fract_y
 _atom_site_fract_z
 _atom_site_occupancy
  Tm  Tm0  1  0.691618  0.260575  0.952193  1
  Tm  Tm1  1  0.308382  0.739425  0.047807  1
  Tm  Tm2  1  0.691618  0.739425  0.431043  1
  Tm  Tm3  1  0.308382  0.260575  0.568957  1
  Tm  Tm4  1  0.814455  0.154535  0.340079  1
  Tm  Tm5  1  0.814455  0.474376  0.659921  1
  Tm  Tm6  1  0.185545  0.845465  0.659921  1
  Tm  Tm7  1  0.185545  0.525624  0.340079  1
  Tm  Tm8  1  0.595385  0.778178  0.817206  1
  Tm  Tm9  1  0.960972  0.778178  0.182794  1
  Tm  Tm10  1  0.039028  0.221822  0.817206  1
  Tm  Tm11  1  0.404615  0.221822  0.182794  1
  Al  Al12  1  0.500000  0.500000  0.000000  1
  Al  Al13  1  0.500000  0.000000  0.500000  1
  Tc  Tc14  1  0.816695  0.500000  0.316695  1
  Tc  Tc15  1  0.183305  0.500000  0.683305  1
  Pd  Pd16  1  0.000000  0.129816  0.129816  1
  Pd  Pd17  1  0.000000  0.870184  0.870184  1
