# generated using pymatgen
data_HoWF7
_symmetry_space_group_name_H-M   'P 1'
_cell_length_a   5.72089300
_cell_length_b   6.03442890
_cell_length_c   8.26417713
_cell_angle_alpha   102.35944309
_cell_angle_beta   90.00000000
_cell_angle_gamma   90.00000000
_symmetry_Int_Tables_number   1
_chemical_formula_structural   HoWF7
_chemical_formula_sum   'Ho2 W2 F14'
_cell_volume   278.68651429
_cell_formula_units_Z   2
loop_
 _symmetry_equiv_pos_site_id
 _symmetry_equiv_pos_as_xyz
  1  'x, y, z'
loop_
 _atom_site_type_symbol
 _atom_site_label
 _atom_site_symmetry_multiplicity
 _atom_site_fract_x
 _atom_site_fract_y
 _atom_site_fract_z
 _atom_site_occupancy
  Ho  Ho0  1  0.699445  0.654377  0.684821  1
  Ho  Ho1  1  0.199445  0.345623  0.315179  1
  W  W2  1  0.708612  0.812191  0.224594  1
  W  W3  1  0.208612  0.187809  0.775406  1
  F  F4  1  0.897835  0.459796  0.478736  1
  F  F5  1  0.397835  0.540204  0.521264  1
  F  F6  1  0.435894  0.924129  0.768610  1
  F  F7  1  0.935894  0.075871  0.231390  1
  F  F8  1  0.947830  0.959944  0.758495  1
  F  F9  1  0.447830  0.040056  0.241505  1
  F  F10  1  0.984349  0.458070  0.791232  1
  F  F11  1  0.484349  0.541930  0.208768  1
  F  F12  1  0.697612  0.757240  0.978538  1
  F  F13  1  0.197612  0.242760  0.021462  1
  F  F14  1  0.711371  0.868673  0.472158  1
  F  F15  1  0.211371  0.131327  0.527842  1
  F  F16  1  0.493414  0.383405  0.783206  1
  F  F17  1  0.993414  0.616595  0.216794  1
