# generated using pymatgen
data_Ti15Si16Mo5
_symmetry_space_group_name_H-M   'P 1'
_cell_length_a   6.65779548
_cell_length_b   6.66067740
_cell_length_c   12.17893935
_cell_angle_alpha   89.95216656
_cell_angle_beta   90.14917404
_cell_angle_gamma   90.05707529
_symmetry_Int_Tables_number   1
_chemical_formula_structural   Ti15Si16Mo5
_chemical_formula_sum   'Ti15 Si16 Mo5'
_cell_volume   540.07799159
_cell_formula_units_Z   1
loop_
 _symmetry_equiv_pos_site_id
 _symmetry_equiv_pos_as_xyz
  1  'x, y, z'
loop_
 _atom_site_type_symbol
 _atom_site_label
 _atom_site_symmetry_multiplicity
 _atom_site_fract_x
 _atom_site_fract_y
 _atom_site_fract_z
 _atom_site_occupancy
  Ti  Ti0  1  0.349502  0.495173  0.872110  1
  Ti  Ti1  1  0.649844  0.503692  0.371906  1
  Ti  Ti2  1  0.495128  0.351007  0.127443  1
  Ti  Ti3  1  0.504978  0.649885  0.628082  1
  Ti  Ti4  1  0.004512  0.850688  0.121690  1
  Ti  Ti5  1  0.148488  0.996590  0.377902  1
  Ti  Ti6  1  0.851123  0.004293  0.878853  1
  Ti  Ti7  1  0.000603  0.340310  0.222610  1
  Ti  Ti8  1  0.161259  0.500336  0.471020  1
  Ti  Ti9  1  0.840282  0.499193  0.971990  1
  Ti  Ti10  1  0.502090  0.160310  0.528690  1
  Ti  Ti11  1  0.499195  0.840910  0.027467  1
  Ti  Ti12  1  0.999956  0.659764  0.721765  1
  Ti  Ti13  1  0.342051  0.997753  0.778330  1
  Ti  Ti14  1  0.659633  0.997950  0.278530  1
  Si  Si15  1  0.041361  0.303569  0.813849  1
  Si  Si16  1  0.196915  0.542693  0.064526  1
  Si  Si17  1  0.802280  0.455289  0.564062  1
  Si  Si18  1  0.543169  0.197269  0.935400  1
  Si  Si19  1  0.456432  0.802333  0.435491  1
  Si  Si20  1  0.957271  0.697635  0.314376  1
  Si  Si21  1  0.302848  0.042417  0.185660  1
  Si  Si22  1  0.699351  0.959345  0.685896  1
  Si  Si23  1  0.292856  0.360119  0.673572  1
  Si  Si24  1  0.140777  0.792778  0.922847  1
  Si  Si25  1  0.858983  0.206364  0.422945  1
  Si  Si26  1  0.793071  0.141404  0.077811  1
  Si  Si27  1  0.205643  0.859040  0.576605  1
  Si  Si28  1  0.706332  0.641302  0.172724  1
  Si  Si29  1  0.358882  0.293500  0.326807  1
  Si  Si30  1  0.640953  0.707063  0.827446  1
  Mo  Mo31  1  0.999312  0.150854  0.621400  1
  Mo  Mo32  1  0.169717  0.169948  0.999691  1
  Mo  Mo33  1  0.330136  0.669908  0.250134  1
  Mo  Mo34  1  0.667828  0.332492  0.750499  1
  Mo  Mo35  1  0.827240  0.826825  0.499875  1
