# generated using pymatgen
data_Ce6Co3Si4NiIr2
_symmetry_space_group_name_H-M   'P 1'
_cell_length_a   6.08435144
_cell_length_b   7.48583900
_cell_length_c   13.31349417
_cell_angle_alpha   90.00000000
_cell_angle_beta   90.00215763
_cell_angle_gamma   90.00000000
_symmetry_Int_Tables_number   1
_chemical_formula_structural   Ce6Co3Si4NiIr2
_chemical_formula_sum   'Ce12 Co6 Si8 Ni2 Ir4'
_cell_volume   606.38273357
_cell_formula_units_Z   2
loop_
 _symmetry_equiv_pos_site_id
 _symmetry_equiv_pos_as_xyz
  1  'x, y, z'
loop_
 _atom_site_type_symbol
 _atom_site_label
 _atom_site_symmetry_multiplicity
 _atom_site_fract_x
 _atom_site_fract_y
 _atom_site_fract_z
 _atom_site_occupancy
  Ce  Ce0  1  0.888878  0.886772  0.750574  1
  Ce  Ce1  1  0.858626  0.462486  0.399607  1
  Ce  Ce2  1  0.366897  0.038058  0.605486  1
  Ce  Ce3  1  0.139025  0.540442  0.900145  1
  Ce  Ce4  1  0.639057  0.957303  0.099371  1
  Ce  Ce5  1  0.109426  0.111908  0.244814  1
  Ce  Ce6  1  0.139057  0.542698  0.599371  1
  Ce  Ce7  1  0.639025  0.959559  0.400145  1
  Ce  Ce8  1  0.388878  0.613228  0.250574  1
  Ce  Ce9  1  0.358626  0.037514  0.899607  1
  Ce  Ce10  1  0.609426  0.388092  0.744814  1
  Ce  Ce11  1  0.866897  0.461942  0.105486  1
  Co  Co12  1  0.116131  0.114869  0.049272  1
  Co  Co13  1  0.883854  0.886500  0.949494  1
  Co  Co14  1  0.885320  0.887547  0.550090  1
  Co  Co15  1  0.616131  0.385131  0.549272  1
  Co  Co16  1  0.383854  0.613500  0.449494  1
  Co  Co17  1  0.385320  0.612453  0.050090  1
  Si  Si18  1  0.616974  0.684843  0.914241  1
  Si  Si19  1  0.884116  0.185104  0.588168  1
  Si  Si20  1  0.118252  0.814761  0.084474  1
  Si  Si21  1  0.116974  0.815157  0.414241  1
  Si  Si22  1  0.618252  0.685239  0.584474  1
  Si  Si23  1  0.882194  0.186087  0.913986  1
  Si  Si24  1  0.384116  0.314896  0.088168  1
  Si  Si25  1  0.382194  0.313913  0.413986  1
  Ni  Ni26  1  0.608903  0.383735  0.950153  1
  Ni  Ni27  1  0.108903  0.116265  0.450153  1
  Ir  Ir28  1  0.408894  0.737434  0.749849  1
  Ir  Ir29  1  0.593453  0.258754  0.250275  1
  Ir  Ir30  1  0.908894  0.762566  0.249849  1
  Ir  Ir31  1  0.093453  0.241246  0.750275  1
