# generated using pymatgen
data_Tm3In2SnPd3
_symmetry_space_group_name_H-M   'P 1'
_cell_length_a   7.76454400
_cell_length_b   7.73053301
_cell_length_c   3.72346200
_cell_angle_alpha   90.00000000
_cell_angle_beta   90.00000000
_cell_angle_gamma   120.14564352
_symmetry_Int_Tables_number   1
_chemical_formula_structural   Tm3In2SnPd3
_chemical_formula_sum   'Tm3 In2 Sn1 Pd3'
_cell_volume   193.26967139
_cell_formula_units_Z   1
loop_
 _symmetry_equiv_pos_site_id
 _symmetry_equiv_pos_as_xyz
  1  'x, y, z'
loop_
 _atom_site_type_symbol
 _atom_site_label
 _atom_site_symmetry_multiplicity
 _atom_site_fract_x
 _atom_site_fract_y
 _atom_site_fract_z
 _atom_site_occupancy
  Tm  Tm0  1  0.002650  0.409021  0.500000  1
  Tm  Tm1  1  0.593628  0.590979  0.500000  1
  Tm  Tm2  1  0.402604  0.000000  0.500000  1
  In  In3  1  0.001581  0.735123  0.000000  1
  In  In4  1  0.266458  0.264877  0.000000  1
  Sn  Sn5  1  0.735997  0.000000  0.000000  1
  Pd  Pd6  1  0.335471  0.668318  0.000000  1
  Pd  Pd7  1  0.667154  0.331682  0.000000  1
  Pd  Pd8  1  0.994457  0.000000  0.500000  1
