# generated using pymatgen
data_Li8Dy8SnBi3Pb4
_symmetry_space_group_name_H-M   'P 1'
_cell_length_a   9.56984600
_cell_length_b   9.56984672
_cell_length_c   7.28904700
_cell_angle_alpha   90.00000000
_cell_angle_beta   90.00000000
_cell_angle_gamma   120.00000443
_symmetry_Int_Tables_number   1
_chemical_formula_structural   Li8Dy8SnBi3Pb4
_chemical_formula_sum   'Li8 Dy8 Sn1 Bi3 Pb4'
_cell_volume   578.11108084
_cell_formula_units_Z   1
loop_
 _symmetry_equiv_pos_site_id
 _symmetry_equiv_pos_as_xyz
  1  'x, y, z'
loop_
 _atom_site_type_symbol
 _atom_site_label
 _atom_site_symmetry_multiplicity
 _atom_site_fract_x
 _atom_site_fract_y
 _atom_site_fract_z
 _atom_site_occupancy
  Li  Li0  1  0.167156  0.334313  0.280606  1
  Li  Li1  1  0.167156  0.832844  0.280606  1
  Li  Li2  1  0.665687  0.832844  0.280606  1
  Li  Li3  1  0.831692  0.663384  0.786932  1
  Li  Li4  1  0.831692  0.168308  0.786932  1
  Li  Li5  1  0.336616  0.168308  0.786932  1
  Li  Li6  1  0.333333  0.666667  0.671489  1
  Li  Li7  1  0.666667  0.333333  0.178905  1
  Dy  Dy8  1  0.514718  0.029437  0.491832  1
  Dy  Dy9  1  0.514718  0.485282  0.491832  1
  Dy  Dy10  1  0.970563  0.485282  0.491832  1
  Dy  Dy11  1  0.490910  0.981822  0.996774  1
  Dy  Dy12  1  0.490910  0.509090  0.996774  1
  Dy  Dy13  1  0.018178  0.509090  0.996774  1
  Dy  Dy14  1  0.000000  0.000000  0.496779  1
  Dy  Dy15  1  0.000000  0.000000  0.006612  1
  Sn  Sn16  1  0.666667  0.333333  0.761678  1
  Bi  Bi17  1  0.166764  0.333530  0.733633  1
  Bi  Bi18  1  0.166764  0.833236  0.733633  1
  Bi  Bi19  1  0.666470  0.833236  0.733633  1
  Pb  Pb20  1  0.833406  0.666811  0.232976  1
  Pb  Pb21  1  0.833406  0.166594  0.232976  1
  Pb  Pb22  1  0.333189  0.166594  0.232976  1
  Pb  Pb23  1  0.333333  0.666667  0.258274  1
