# generated using pymatgen
data_Sc6Al8Si8Ir7
_symmetry_space_group_name_H-M   'P 1'
_cell_length_a   8.60241482
_cell_length_b   8.60241431
_cell_length_c   8.60241500
_cell_angle_alpha   60.00000118
_cell_angle_beta   60.00000314
_cell_angle_gamma   60.00000235
_symmetry_Int_Tables_number   1
_chemical_formula_structural   Sc6Al8Si8Ir7
_chemical_formula_sum   'Sc6 Al8 Si8 Ir7'
_cell_volume   450.13849017
_cell_formula_units_Z   1
loop_
 _symmetry_equiv_pos_site_id
 _symmetry_equiv_pos_as_xyz
  1  'x, y, z'
loop_
 _atom_site_type_symbol
 _atom_site_label
 _atom_site_symmetry_multiplicity
 _atom_site_fract_x
 _atom_site_fract_y
 _atom_site_fract_z
 _atom_site_occupancy
  Sc  Sc0  1  0.192799  0.807201  0.807201  1
  Sc  Sc1  1  0.807201  0.192799  0.192799  1
  Sc  Sc2  1  0.807201  0.192799  0.807201  1
  Sc  Sc3  1  0.807201  0.807201  0.192799  1
  Sc  Sc4  1  0.192799  0.807201  0.192799  1
  Sc  Sc5  1  0.192799  0.192799  0.807201  1
  Al  Al6  1  0.621784  0.621784  0.621784  1
  Al  Al7  1  0.621784  0.621784  0.134646  1
  Al  Al8  1  0.134646  0.621784  0.621784  1
  Al  Al9  1  0.621784  0.134646  0.621784  1
  Al  Al10  1  0.378216  0.378216  0.378216  1
  Al  Al11  1  0.378216  0.378216  0.865354  1
  Al  Al12  1  0.378216  0.865354  0.378216  1
  Al  Al13  1  0.865354  0.378216  0.378216  1
  Si  Si14  1  0.846400  0.846400  0.846400  1
  Si  Si15  1  0.846400  0.846400  0.460800  1
  Si  Si16  1  0.460800  0.846400  0.846400  1
  Si  Si17  1  0.846400  0.460800  0.846400  1
  Si  Si18  1  0.153600  0.153600  0.153600  1
  Si  Si19  1  0.153600  0.153600  0.539200  1
  Si  Si20  1  0.153600  0.539200  0.153600  1
  Si  Si21  1  0.539200  0.153600  0.153600  1
  Ir  Ir22  1  0.500000  0.500000  0.500000  1
  Ir  Ir23  1  0.000000  0.500000  0.500000  1
  Ir  Ir24  1  0.500000  0.000000  0.000000  1
  Ir  Ir25  1  0.500000  0.000000  0.500000  1
  Ir  Ir26  1  0.500000  0.500000  0.000000  1
  Ir  Ir27  1  0.000000  0.500000  0.000000  1
  Ir  Ir28  1  0.000000  0.000000  0.500000  1
