# generated using pymatgen
data_Pr2NpHgO7
_symmetry_space_group_name_H-M   'P 1'
_cell_length_a   6.58419703
_cell_length_b   7.00822712
_cell_length_c   8.26947400
_cell_angle_alpha   90.00000000
_cell_angle_beta   90.00000000
_cell_angle_gamma   113.96275410
_symmetry_Int_Tables_number   1
_chemical_formula_structural   Pr2NpHgO7
_chemical_formula_sum   'Pr4 Np2 Hg2 O14'
_cell_volume   348.69411810
_cell_formula_units_Z   2
loop_
 _symmetry_equiv_pos_site_id
 _symmetry_equiv_pos_as_xyz
  1  'x, y, z'
loop_
 _atom_site_type_symbol
 _atom_site_label
 _atom_site_symmetry_multiplicity
 _atom_site_fract_x
 _atom_site_fract_y
 _atom_site_fract_z
 _atom_site_occupancy
  Pr  Pr0  1  0.000000  0.000000  0.000000  1
  Pr  Pr1  1  0.000000  0.000000  0.500000  1
  Pr  Pr2  1  0.956656  0.490200  0.750000  1
  Pr  Pr3  1  0.043344  0.509800  0.250000  1
  Np  Np4  1  0.500000  0.500000  0.000000  1
  Np  Np5  1  0.500000  0.500000  0.500000  1
  Hg  Hg6  1  0.487091  0.992300  0.750000  1
  Hg  Hg7  1  0.512909  0.007700  0.250000  1
  O  O8  1  0.588135  0.479649  0.750000  1
  O  O9  1  0.411865  0.520351  0.250000  1
  O  O10  1  0.839271  0.115412  0.750000  1
  O  O11  1  0.160729  0.884588  0.250000  1
  O  O12  1  0.134933  0.875600  0.750000  1
  O  O13  1  0.865067  0.124400  0.250000  1
  O  O14  1  0.415795  0.200686  0.014112  1
  O  O15  1  0.584205  0.799314  0.514112  1
  O  O16  1  0.156966  0.412291  0.971097  1
  O  O17  1  0.843034  0.587709  0.471097  1
  O  O18  1  0.415795  0.200686  0.485888  1
  O  O19  1  0.584205  0.799314  0.985888  1
  O  O20  1  0.843034  0.587709  0.028903  1
  O  O21  1  0.156966  0.412291  0.528903  1
