# generated using pymatgen
data_Ac7Tc2Os2C9
_symmetry_space_group_name_H-M   'P 1'
_cell_length_a   6.78699848
_cell_length_b   6.78699876
_cell_length_c   12.32185865
_cell_angle_alpha   71.30682062
_cell_angle_beta   71.30681923
_cell_angle_gamma   48.79985164
_symmetry_Int_Tables_number   1
_chemical_formula_structural   Ac7Tc2Os2C9
_chemical_formula_sum   'Ac7 Tc2 Os2 C9'
_cell_volume   399.73816091
_cell_formula_units_Z   1
loop_
 _symmetry_equiv_pos_site_id
 _symmetry_equiv_pos_as_xyz
  1  'x, y, z'
loop_
 _atom_site_type_symbol
 _atom_site_label
 _atom_site_symmetry_multiplicity
 _atom_site_fract_x
 _atom_site_fract_y
 _atom_site_fract_z
 _atom_site_occupancy
  Ac  Ac0  1  0.367209  0.367209  0.847286  1
  Ac  Ac1  1  0.138424  0.138424  0.685581  1
  Ac  Ac2  1  0.861189  0.861189  0.316207  1
  Ac  Ac3  1  0.144188  0.144188  0.381196  1
  Ac  Ac4  1  0.856722  0.856722  0.618053  1
  Ac  Ac5  1  0.002191  0.002191  0.000050  1
  Ac  Ac6  1  0.634023  0.634023  0.152479  1
  Tc  Tc7  1  0.363503  0.363503  0.141109  1
  Tc  Tc8  1  0.560982  0.560982  0.572579  1
  Os  Os9  1  0.438765  0.438765  0.426970  1
  Os  Os10  1  0.637638  0.637638  0.858243  1
  C  C11  1  0.391381  0.391381  0.289000  1
  C  C12  1  0.909702  0.909702  0.825284  1
  C  C13  1  0.392703  0.392703  0.605791  1
  C  C14  1  0.203406  0.203406  0.141786  1
  C  C15  1  0.795088  0.795088  0.856372  1
  C  C16  1  0.499354  0.499354  0.999015  1
  C  C17  1  0.088185  0.088185  0.178368  1
  C  C18  1  0.608181  0.608181  0.711604  1
  C  C19  1  0.607166  0.607166  0.393025  1
