# generated using pymatgen
data_K2RbSb(AsS2)6
_symmetry_space_group_name_H-M   'P 1'
_cell_length_a   9.53395200
_cell_length_b   9.53395145
_cell_length_c   7.98923200
_cell_angle_alpha   90.00000000
_cell_angle_beta   90.00000000
_cell_angle_gamma   120.00000189
_symmetry_Int_Tables_number   1
_chemical_formula_structural   K2RbSb(AsS2)6
_chemical_formula_sum   'K2 Rb1 Sb1 As6 S12'
_cell_volume   628.89994037
_cell_formula_units_Z   1
loop_
 _symmetry_equiv_pos_site_id
 _symmetry_equiv_pos_as_xyz
  1  'x, y, z'
loop_
 _atom_site_type_symbol
 _atom_site_label
 _atom_site_symmetry_multiplicity
 _atom_site_fract_x
 _atom_site_fract_y
 _atom_site_fract_z
 _atom_site_occupancy
  K  K0  1  0.000000  0.000000  0.002214  1
  K  K1  1  0.666667  0.333333  0.146333  1
  Rb  Rb2  1  0.333333  0.666667  0.846105  1
  Sb  Sb3  1  0.000000  0.000000  0.499069  1
  As  As4  1  0.289726  0.838152  0.375549  1
  As  As5  1  0.161848  0.451576  0.375549  1
  As  As6  1  0.548424  0.710274  0.375549  1
  As  As7  1  0.712848  0.164040  0.624984  1
  As  As8  1  0.835960  0.548808  0.624984  1
  As  As9  1  0.451192  0.287152  0.624984  1
  S  S10  1  0.258423  0.042871  0.290342  1
  S  S11  1  0.957129  0.215553  0.290342  1
  S  S12  1  0.784447  0.741577  0.290342  1
  S  S13  1  0.747919  0.960943  0.708740  1
  S  S14  1  0.039057  0.786975  0.708740  1
  S  S15  1  0.213025  0.252081  0.708740  1
  S  S16  1  0.521894  0.903413  0.220454  1
  S  S17  1  0.096587  0.618480  0.220454  1
  S  S18  1  0.381520  0.478106  0.220454  1
  S  S19  1  0.480833  0.097086  0.782023  1
  S  S20  1  0.902914  0.383750  0.782023  1
  S  S21  1  0.616250  0.519167  0.782023  1
