# generated using pymatgen
data_Yb5Y3(Si3Pt)4
_symmetry_space_group_name_H-M   'P 1'
_cell_length_a   8.19869500
_cell_length_b   8.19869633
_cell_length_c   8.18429400
_cell_angle_alpha   90.00000000
_cell_angle_beta   90.00000000
_cell_angle_gamma   120.08004605
_symmetry_Int_Tables_number   1
_chemical_formula_structural   Yb5Y3(Si3Pt)4
_chemical_formula_sum   'Yb5 Y3 Si12 Pt4'
_cell_volume   476.04775213
_cell_formula_units_Z   1
loop_
 _symmetry_equiv_pos_site_id
 _symmetry_equiv_pos_as_xyz
  1  'x, y, z'
loop_
 _atom_site_type_symbol
 _atom_site_label
 _atom_site_symmetry_multiplicity
 _atom_site_fract_x
 _atom_site_fract_y
 _atom_site_fract_z
 _atom_site_occupancy
  Yb  Yb0  1  0.001939  0.500961  0.250000  1
  Yb  Yb1  1  0.499014  0.500986  0.250000  1
  Yb  Yb2  1  0.500970  0.001885  0.750000  1
  Yb  Yb3  1  0.499039  0.998061  0.250000  1
  Yb  Yb4  1  0.998115  0.499030  0.750000  1
  Y  Y5  1  0.000016  0.999984  0.250000  1
  Y  Y6  1  0.000004  0.999996  0.750000  1
  Y  Y7  1  0.500926  0.499074  0.750000  1
  Si  Si8  1  0.164794  0.329367  0.998706  1
  Si  Si9  1  0.670633  0.835206  0.998706  1
  Si  Si10  1  0.164794  0.329367  0.501294  1
  Si  Si11  1  0.329359  0.164811  0.000484  1
  Si  Si12  1  0.164902  0.835098  0.998880  1
  Si  Si13  1  0.670633  0.835206  0.501294  1
  Si  Si14  1  0.835189  0.670641  0.000484  1
  Si  Si15  1  0.329359  0.164811  0.499516  1
  Si  Si16  1  0.164902  0.835098  0.501120  1
  Si  Si17  1  0.835189  0.670641  0.499516  1
  Si  Si18  1  0.835112  0.164888  0.000699  1
  Si  Si19  1  0.835112  0.164888  0.499301  1
  Pt  Pt20  1  0.333649  0.666351  0.997623  1
  Pt  Pt21  1  0.333649  0.666351  0.502377  1
  Pt  Pt22  1  0.666349  0.333651  0.000524  1
  Pt  Pt23  1  0.666349  0.333651  0.499476  1
