# generated using pymatgen
data_HfTa2Ti3Rh10
_symmetry_space_group_name_H-M   'P 1'
_cell_length_a   4.16418700
_cell_length_b   5.49721176
_cell_length_c   10.73612979
_cell_angle_alpha   90.91417966
_cell_angle_beta   90.00000000
_cell_angle_gamma   90.00000000
_symmetry_Int_Tables_number   1
_chemical_formula_structural   HfTa2Ti3Rh10
_chemical_formula_sum   'Hf1 Ta2 Ti3 Rh10'
_cell_volume   245.73394969
_cell_formula_units_Z   1
loop_
 _symmetry_equiv_pos_site_id
 _symmetry_equiv_pos_as_xyz
  1  'x, y, z'
loop_
 _atom_site_type_symbol
 _atom_site_label
 _atom_site_symmetry_multiplicity
 _atom_site_fract_x
 _atom_site_fract_y
 _atom_site_fract_z
 _atom_site_occupancy
  Hf  Hf0  1  0.500000  0.835768  0.358968  1
  Ta  Ta1  1  0.500000  0.332725  0.145846  1
  Ta  Ta2  1  0.500000  0.665936  0.853817  1
  Ti  Ti3  1  0.000000  0.002559  0.999217  1
  Ti  Ti4  1  0.000000  0.497944  0.503424  1
  Ti  Ti5  1  0.500000  0.163566  0.644613  1
  Rh  Rh6  1  0.000000  0.010656  0.507246  1
  Rh  Rh7  1  0.000000  0.498570  0.997048  1
  Rh  Rh8  1  0.000000  0.089743  0.237047  1
  Rh  Rh9  1  0.000000  0.905681  0.763251  1
  Rh  Rh10  1  0.000000  0.584334  0.255319  1
  Rh  Rh11  1  0.000000  0.403680  0.737571  1
  Rh  Rh12  1  0.500000  0.323901  0.393883  1
  Rh  Rh13  1  0.500000  0.686806  0.609205  1
  Rh  Rh14  1  0.500000  0.809552  0.100184  1
  Rh  Rh15  1  0.500000  0.188578  0.893361  1
