# generated using pymatgen
data_EuAu6
_symmetry_space_group_name_H-M   'P 1'
_cell_length_a   5.65509770
_cell_length_b   5.65509827
_cell_length_c   9.15510483
_cell_angle_alpha   82.48340373
_cell_angle_beta   82.48340102
_cell_angle_gamma   89.54437318
_symmetry_Int_Tables_number   1
_chemical_formula_structural   EuAu6
_chemical_formula_sum   'Eu2 Au12'
_cell_volume   287.75885606
_cell_formula_units_Z   2
loop_
 _symmetry_equiv_pos_site_id
 _symmetry_equiv_pos_as_xyz
  1  'x, y, z'
loop_
 _atom_site_type_symbol
 _atom_site_label
 _atom_site_symmetry_multiplicity
 _atom_site_fract_x
 _atom_site_fract_y
 _atom_site_fract_z
 _atom_site_occupancy
  Eu  Eu0  1  0.304311  0.695689  0.750000  1
  Eu  Eu1  1  0.695689  0.304311  0.250000  1
  Au  Au2  1  0.033969  0.169027  0.866001  1
  Au  Au3  1  0.830973  0.966031  0.633999  1
  Au  Au4  1  0.966031  0.830973  0.133999  1
  Au  Au5  1  0.169027  0.033969  0.366001  1
  Au  Au6  1  0.771792  0.618769  0.914858  1
  Au  Au7  1  0.381231  0.228208  0.585142  1
  Au  Au8  1  0.228208  0.381231  0.085142  1
  Au  Au9  1  0.618769  0.771792  0.414858  1
  Au  Au10  1  0.830158  0.464624  0.627219  1
  Au  Au11  1  0.535376  0.169842  0.872781  1
  Au  Au12  1  0.169842  0.535376  0.372781  1
  Au  Au13  1  0.464624  0.830158  0.127219  1
