# generated using pymatgen
data_Ce5Ho5Er6(MgCo)4
_symmetry_space_group_name_H-M   'P 1'
_cell_length_a   9.42242470
_cell_length_b   9.51469045
_cell_length_c   9.51468906
_cell_angle_alpha   59.88363081
_cell_angle_beta   60.32026439
_cell_angle_gamma   60.32026549
_symmetry_Int_Tables_number   1
_chemical_formula_structural   Ce5Ho5Er6(MgCo)4
_chemical_formula_sum   'Ce5 Ho5 Er6 Mg4 Co4'
_cell_volume   605.52957233
_cell_formula_units_Z   1
loop_
 _symmetry_equiv_pos_site_id
 _symmetry_equiv_pos_as_xyz
  1  'x, y, z'
loop_
 _atom_site_type_symbol
 _atom_site_label
 _atom_site_symmetry_multiplicity
 _atom_site_fract_x
 _atom_site_fract_y
 _atom_site_fract_z
 _atom_site_occupancy
  Ce  Ce0  1  0.338513  0.346697  0.346697  1
  Ce  Ce1  1  0.343938  0.340723  0.971400  1
  Ce  Ce2  1  0.343938  0.971400  0.340723  1
  Ce  Ce3  1  0.968095  0.346697  0.346697  1
  Ce  Ce4  1  0.816302  0.183698  0.183698  1
  Ho  Ho5  1  0.568441  0.931559  0.931559  1
  Ho  Ho6  1  0.564194  0.936701  0.561333  1
  Ho  Ho7  1  0.937770  0.561333  0.936701  1
  Ho  Ho8  1  0.564194  0.561333  0.936701  1
  Ho  Ho9  1  0.937770  0.936701  0.561333  1
  Er  Er10  1  0.186154  0.813846  0.813846  1
  Er  Er11  1  0.189175  0.811013  0.184647  1
  Er  Er12  1  0.815165  0.184647  0.811013  1
  Er  Er13  1  0.189175  0.184647  0.811013  1
  Er  Er14  1  0.815165  0.811013  0.184647  1
  Er  Er15  1  0.933860  0.566140  0.566140  1
  Mg  Mg16  1  0.580108  0.579280  0.579280  1
  Mg  Mg17  1  0.578946  0.581495  0.260612  1
  Mg  Mg18  1  0.578946  0.260612  0.581495  1
  Mg  Mg19  1  0.261332  0.579280  0.579280  1
  Co  Co20  1  0.111390  0.154440  0.154440  1
  Co  Co21  1  0.148848  0.142192  0.560111  1
  Co  Co22  1  0.148848  0.560111  0.142192  1
  Co  Co23  1  0.579731  0.154440  0.154440  1
