# generated using pymatgen
data_LaPr3(BPd4)4
_symmetry_space_group_name_H-M   'P 1'
_cell_length_a   5.50391000
_cell_length_b   6.19244366
_cell_length_c   11.87394500
_cell_angle_alpha   90.02902820
_cell_angle_beta   90.00000000
_cell_angle_gamma   90.00000000
_symmetry_Int_Tables_number   1
_chemical_formula_structural   LaPr3(BPd4)4
_chemical_formula_sum   'La1 Pr3 B4 Pd16'
_cell_volume   404.69548995
_cell_formula_units_Z   1
loop_
 _symmetry_equiv_pos_site_id
 _symmetry_equiv_pos_as_xyz
  1  'x, y, z'
loop_
 _atom_site_type_symbol
 _atom_site_label
 _atom_site_symmetry_multiplicity
 _atom_site_fract_x
 _atom_site_fract_y
 _atom_site_fract_z
 _atom_site_occupancy
  La  La0  1  0.250000  0.191465  0.656887  1
  Pr  Pr1  1  0.750000  0.305204  0.156690  1
  Pr  Pr2  1  0.750000  0.805008  0.343282  1
  Pr  Pr3  1  0.250000  0.693740  0.844739  1
  B  B4  1  0.750000  0.400310  0.551241  1
  B  B5  1  0.750000  0.898846  0.948879  1
  B  B6  1  0.250000  0.600686  0.447554  1
  B  B7  1  0.250000  0.100501  0.051725  1
  Pd  Pd8  1  0.750000  0.384011  0.734918  1
  Pd  Pd9  1  0.750000  0.880532  0.765588  1
  Pd  Pd10  1  0.250000  0.617436  0.264841  1
  Pd  Pd11  1  0.250000  0.120551  0.234548  1
  Pd  Pd12  1  0.750000  0.058458  0.555978  1
  Pd  Pd13  1  0.750000  0.557342  0.945033  1
  Pd  Pd14  1  0.250000  0.942621  0.443420  1
  Pd  Pd15  1  0.250000  0.442473  0.055278  1
  Pd  Pd16  1  0.000739  0.159249  0.911187  1
  Pd  Pd17  1  0.499066  0.660171  0.588337  1
  Pd  Pd18  1  0.501143  0.840628  0.089976  1
  Pd  Pd19  1  0.998568  0.340361  0.410200  1
  Pd  Pd20  1  0.998857  0.840628  0.089976  1
  Pd  Pd21  1  0.501432  0.340361  0.410200  1
  Pd  Pd22  1  0.499261  0.159249  0.911187  1
  Pd  Pd23  1  0.000934  0.660171  0.588337  1
