# generated using pymatgen
data_Er6Tm2Sc12Si13Pt3
_symmetry_space_group_name_H-M   'P 1'
_cell_length_a   7.07407648
_cell_length_b   7.41204809
_cell_length_c   13.97755287
_cell_angle_alpha   89.76589556
_cell_angle_beta   89.63837128
_cell_angle_gamma   90.63039993
_symmetry_Int_Tables_number   1
_chemical_formula_structural   Er6Tm2Sc12Si13Pt3
_chemical_formula_sum   'Er6 Tm2 Sc12 Si13 Pt3'
_cell_volume   732.82526618
_cell_formula_units_Z   1
loop_
 _symmetry_equiv_pos_site_id
 _symmetry_equiv_pos_as_xyz
  1  'x, y, z'
loop_
 _atom_site_type_symbol
 _atom_site_label
 _atom_site_symmetry_multiplicity
 _atom_site_fract_x
 _atom_site_fract_y
 _atom_site_fract_z
 _atom_site_occupancy
  Er  Er0  1  0.009132  0.177532  0.094407  1
  Er  Er1  1  0.990242  0.822882  0.906026  1
  Er  Er2  1  0.487353  0.680418  0.906172  1
  Er  Er3  1  0.990515  0.819492  0.594251  1
  Er  Er4  1  0.511949  0.321470  0.094501  1
  Er  Er5  1  0.010994  0.179005  0.405687  1
  Tm  Tm6  1  0.507893  0.321807  0.404863  1
  Tm  Tm7  1  0.487014  0.671842  0.595558  1
  Sc  Sc8  1  0.159275  0.503681  0.748532  1
  Sc  Sc9  1  0.841652  0.497455  0.251364  1
  Sc  Sc10  1  0.332415  0.002112  0.250417  1
  Sc  Sc11  1  0.666715  0.995789  0.749066  1
  Sc  Sc12  1  0.331590  0.181198  0.622653  1
  Sc  Sc13  1  0.673614  0.825480  0.374013  1
  Sc  Sc14  1  0.171360  0.668175  0.378087  1
  Sc  Sc15  1  0.674982  0.826872  0.124884  1
  Sc  Sc16  1  0.829487  0.327959  0.624716  1
  Sc  Sc17  1  0.325762  0.173168  0.874918  1
  Sc  Sc18  1  0.831362  0.321852  0.875334  1
  Sc  Sc19  1  0.170826  0.676919  0.124537  1
  Si  Si20  1  0.468767  0.608713  0.248309  1
  Si  Si21  1  0.533635  0.392463  0.753867  1
  Si  Si22  1  0.288572  0.867293  0.750873  1
  Si  Si23  1  0.711595  0.135437  0.249331  1
  Si  Si24  1  0.221392  0.370721  0.247523  1
  Si  Si25  1  0.780237  0.629538  0.753340  1
  Si  Si26  1  0.830488  0.533337  0.460162  1
  Si  Si27  1  0.344085  0.964595  0.459503  1
  Si  Si28  1  0.842155  0.532518  0.038924  1
  Si  Si29  1  0.658135  0.031095  0.539079  1
  Si  Si30  1  0.156399  0.468288  0.960906  1
  Si  Si31  1  0.656785  0.032310  0.960567  1
  Si  Si32  1  0.342947  0.968744  0.040297  1
  Pt  Pt33  1  0.035016  0.112508  0.747679  1
  Pt  Pt34  1  0.967979  0.893467  0.250249  1
  Pt  Pt35  1  0.157682  0.463862  0.539408  1
