# generated using pymatgen
data_Dy5Tm7In20
_symmetry_space_group_name_H-M   'P 1'
_cell_length_a   6.48850347
_cell_length_b   10.36557587
_cell_length_c   12.19734802
_cell_angle_alpha   89.89496590
_cell_angle_beta   89.95302269
_cell_angle_gamma   89.99244577
_symmetry_Int_Tables_number   1
_chemical_formula_structural   Dy5Tm7In20
_chemical_formula_sum   'Dy5 Tm7 In20'
_cell_volume   820.35629035
_cell_formula_units_Z   1
loop_
 _symmetry_equiv_pos_site_id
 _symmetry_equiv_pos_as_xyz
  1  'x, y, z'
loop_
 _atom_site_type_symbol
 _atom_site_label
 _atom_site_symmetry_multiplicity
 _atom_site_fract_x
 _atom_site_fract_y
 _atom_site_fract_z
 _atom_site_occupancy
  Dy  Dy0  1  0.390491  0.507389  0.358240  1
  Dy  Dy1  1  0.109509  0.507868  0.858423  1
  Dy  Dy2  1  0.390603  0.992540  0.358942  1
  Dy  Dy3  1  0.890175  0.007872  0.141052  1
  Dy  Dy4  1  0.610056  0.492192  0.642365  1
  Tm  Tm5  1  0.349541  0.751029  0.054285  1
  Tm  Tm6  1  0.150362  0.748821  0.554590  1
  Tm  Tm7  1  0.650742  0.251487  0.945625  1
  Tm  Tm8  1  0.850664  0.249068  0.445729  1
  Tm  Tm9  1  0.891059  0.492347  0.140750  1
  Tm  Tm10  1  0.608849  0.007492  0.640850  1
  Tm  Tm11  1  0.108635  0.991960  0.859398  1
  In  In12  1  0.615058  0.750395  0.505883  1
  In  In13  1  0.885246  0.749806  0.005845  1
  In  In14  1  0.386268  0.249327  0.496000  1
  In  In15  1  0.114685  0.249204  0.993543  1
  In  In16  1  0.651080  0.749408  0.243503  1
  In  In17  1  0.848531  0.751574  0.743754  1
  In  In18  1  0.348684  0.248305  0.756844  1
  In  In19  1  0.150487  0.250363  0.255598  1
  In  In20  1  0.124647  0.750397  0.281890  1
  In  In21  1  0.373835  0.751750  0.782510  1
  In  In22  1  0.873847  0.248055  0.717348  1
  In  In23  1  0.626044  0.251299  0.217673  1
  In  In24  1  0.875289  0.542849  0.399748  1
  In  In25  1  0.625476  0.957967  0.899295  1
  In  In26  1  0.124942  0.041951  0.600798  1
  In  In27  1  0.374167  0.456883  0.099099  1
  In  In28  1  0.124854  0.455879  0.599182  1
  In  In29  1  0.375853  0.043900  0.099070  1
  In  In30  1  0.875742  0.956414  0.401124  1
  In  In31  1  0.624580  0.544211  0.901045  1
