# generated using pymatgen
data_LaThAs2(RuO)2
_symmetry_space_group_name_H-M   'P 1'
_cell_length_a   4.15984200
_cell_length_b   4.15984200
_cell_length_c   8.15821300
_cell_angle_alpha   90.00000000
_cell_angle_beta   90.00000000
_cell_angle_gamma   90.00000000
_symmetry_Int_Tables_number   1
_chemical_formula_structural   LaThAs2(RuO)2
_chemical_formula_sum   'La1 Th1 As2 Ru2 O2'
_cell_volume   141.17204664
_cell_formula_units_Z   1
loop_
 _symmetry_equiv_pos_site_id
 _symmetry_equiv_pos_as_xyz
  1  'x, y, z'
loop_
 _atom_site_type_symbol
 _atom_site_label
 _atom_site_symmetry_multiplicity
 _atom_site_fract_x
 _atom_site_fract_y
 _atom_site_fract_z
 _atom_site_occupancy
  La  La0  1  0.250002  0.250002  0.155394  1
  Th  Th1  1  0.750002  0.750002  0.853101  1
  As  As2  1  0.750002  0.750002  0.345343  1
  As  As3  1  0.250002  0.250002  0.659095  1
  Ru  Ru4  1  0.750002  0.250002  0.503765  1
  Ru  Ru5  1  0.250002  0.750002  0.503765  1
  O  O6  1  0.750002  0.250002  0.989769  1
  O  O7  1  0.250002  0.750002  0.989769  1
