# generated using pymatgen
data_NdEr5ScCo17P12
_symmetry_space_group_name_H-M   'P 1'
_cell_length_a   3.71342500
_cell_length_b   10.61028900
_cell_length_c   12.29719000
_cell_angle_alpha   90.00000000
_cell_angle_beta   90.00000000
_cell_angle_gamma   90.00000000
_symmetry_Int_Tables_number   1
_chemical_formula_structural   NdEr5ScCo17P12
_chemical_formula_sum   'Nd1 Er5 Sc1 Co17 P12'
_cell_volume   484.51558745
_cell_formula_units_Z   1
loop_
 _symmetry_equiv_pos_site_id
 _symmetry_equiv_pos_as_xyz
  1  'x, y, z'
loop_
 _atom_site_type_symbol
 _atom_site_label
 _atom_site_symmetry_multiplicity
 _atom_site_fract_x
 _atom_site_fract_y
 _atom_site_fract_z
 _atom_site_occupancy
  Nd  Nd0  1  0.250000  0.750000  0.523288  1
  Er  Er1  1  0.750000  0.250000  0.472227  1
  Er  Er2  1  0.250000  0.928246  0.793672  1
  Er  Er3  1  0.250000  0.571754  0.793672  1
  Er  Er4  1  0.750000  0.068517  0.204103  1
  Er  Er5  1  0.750000  0.431483  0.204103  1
  Sc  Sc6  1  0.250000  0.250000  0.847169  1
  Co  Co7  1  0.750000  0.750000  0.160762  1
  Co  Co8  1  0.250000  0.250000  0.295860  1
  Co  Co9  1  0.750000  0.750000  0.707633  1
  Co  Co10  1  0.750000  0.250000  0.015668  1
  Co  Co11  1  0.250000  0.750000  0.987779  1
  Co  Co12  1  0.250000  0.423014  0.010036  1
  Co  Co13  1  0.250000  0.076986  0.010036  1
  Co  Co14  1  0.750000  0.587079  0.998382  1
  Co  Co15  1  0.750000  0.912921  0.998382  1
  Co  Co16  1  0.250000  0.452498  0.566362  1
  Co  Co17  1  0.250000  0.047502  0.566362  1
  Co  Co18  1  0.750000  0.543817  0.428567  1
  Co  Co19  1  0.750000  0.956183  0.428567  1
  Co  Co20  1  0.250000  0.870841  0.290517  1
  Co  Co21  1  0.250000  0.629159  0.290517  1
  Co  Co22  1  0.750000  0.128002  0.704966  1
  Co  Co23  1  0.750000  0.371998  0.704966  1
  P  P24  1  0.250000  0.250000  0.116979  1
  P  P25  1  0.750000  0.750000  0.885006  1
  P  P26  1  0.250000  0.250000  0.641303  1
  P  P27  1  0.750000  0.750000  0.341465  1
  P  P28  1  0.250000  0.439353  0.381529  1
  P  P29  1  0.250000  0.060647  0.381529  1
  P  P30  1  0.750000  0.557439  0.615658  1
  P  P31  1  0.750000  0.942561  0.615658  1
  P  P32  1  0.250000  0.899900  0.110697  1
  P  P33  1  0.250000  0.600100  0.110697  1
  P  P34  1  0.750000  0.086508  0.897942  1
  P  P35  1  0.750000  0.413492  0.897942  1
