# generated using pymatgen
data_Nd(Zn5Rh)2
_symmetry_space_group_name_H-M   'P 1'
_cell_length_a   6.83177780
_cell_length_b   6.88308871
_cell_length_c   6.83178034
_cell_angle_alpha   98.18031796
_cell_angle_beta   97.73385113
_cell_angle_gamma   135.78172368
_symmetry_Int_Tables_number   1
_chemical_formula_structural   Nd(Zn5Rh)2
_chemical_formula_sum   'Nd1 Zn10 Rh2'
_cell_volume   208.33532468
_cell_formula_units_Z   1
loop_
 _symmetry_equiv_pos_site_id
 _symmetry_equiv_pos_as_xyz
  1  'x, y, z'
loop_
 _atom_site_type_symbol
 _atom_site_label
 _atom_site_symmetry_multiplicity
 _atom_site_fract_x
 _atom_site_fract_y
 _atom_site_fract_z
 _atom_site_occupancy
  Nd  Nd0  1  0.000000  0.000000  0.000000  1
  Zn  Zn1  1  0.500000  0.500000  0.500000  1
  Zn  Zn2  1  0.000000  0.500000  0.000000  1
  Zn  Zn3  1  0.966129  0.319811  0.353682  1
  Zn  Zn4  1  0.033871  0.680189  0.646318  1
  Zn  Zn5  1  0.649463  0.000000  0.649463  1
  Zn  Zn6  1  0.350537  0.000000  0.350537  1
  Zn  Zn7  1  0.502456  0.281939  0.779483  1
  Zn  Zn8  1  0.497544  0.718061  0.220517  1
  Zn  Zn9  1  0.722043  0.500000  0.222043  1
  Zn  Zn10  1  0.277957  0.500000  0.777957  1
  Rh  Rh11  1  0.000000  0.000000  0.500000  1
  Rh  Rh12  1  0.500000  0.000000  0.000000  1
