# generated using pymatgen
data_Gd4Hf5ZrGe8
_symmetry_space_group_name_H-M   'P 1'
_cell_length_a   7.40932900
_cell_length_b   7.40933038
_cell_length_c   13.59235100
_cell_angle_alpha   90.00000000
_cell_angle_beta   90.00000000
_cell_angle_gamma   89.98159564
_symmetry_Int_Tables_number   1
_chemical_formula_structural   Gd4Hf5ZrGe8
_chemical_formula_sum   'Gd8 Hf10 Zr2 Ge16'
_cell_volume   746.19510944
_cell_formula_units_Z   2
loop_
 _symmetry_equiv_pos_site_id
 _symmetry_equiv_pos_as_xyz
  1  'x, y, z'
loop_
 _atom_site_type_symbol
 _atom_site_label
 _atom_site_symmetry_multiplicity
 _atom_site_fract_x
 _atom_site_fract_y
 _atom_site_fract_z
 _atom_site_occupancy
  Gd  Gd0  1  0.997974  0.340407  0.218057  1
  Gd  Gd1  1  0.002026  0.659593  0.718057  1
  Gd  Gd2  1  0.159167  0.498215  0.468336  1
  Gd  Gd3  1  0.501785  0.840833  0.031664  1
  Gd  Gd4  1  0.840833  0.501785  0.968336  1
  Gd  Gd5  1  0.498215  0.159167  0.531664  1
  Gd  Gd6  1  0.340407  0.997974  0.781943  1
  Gd  Gd7  1  0.659593  0.002026  0.281943  1
  Hf  Hf8  1  0.327723  0.672277  0.250000  1
  Hf  Hf9  1  0.672277  0.327723  0.750000  1
  Hf  Hf10  1  0.156601  0.995550  0.375444  1
  Hf  Hf11  1  0.843399  0.004450  0.875444  1
  Hf  Hf12  1  0.504376  0.657220  0.625308  1
  Hf  Hf13  1  0.342780  0.495624  0.874692  1
  Hf  Hf14  1  0.495624  0.342780  0.125308  1
  Hf  Hf15  1  0.657220  0.504376  0.374692  1
  Hf  Hf16  1  0.995550  0.156601  0.624556  1
  Hf  Hf17  1  0.004450  0.843399  0.124556  1
  Zr  Zr18  1  0.172025  0.172025  0.000000  1
  Zr  Zr19  1  0.827975  0.827975  0.500000  1
  Ge  Ge20  1  0.368301  0.300603  0.322305  1
  Ge  Ge21  1  0.631699  0.699397  0.822305  1
  Ge  Ge22  1  0.200765  0.868598  0.572347  1
  Ge  Ge23  1  0.131402  0.799235  0.927653  1
  Ge  Ge24  1  0.799235  0.131402  0.072347  1
  Ge  Ge25  1  0.868598  0.200765  0.427653  1
  Ge  Ge26  1  0.300603  0.368301  0.677695  1
  Ge  Ge27  1  0.699397  0.631699  0.177695  1
  Ge  Ge28  1  0.296135  0.036757  0.182545  1
  Ge  Ge29  1  0.703865  0.963243  0.682545  1
  Ge  Ge30  1  0.461266  0.795218  0.431540  1
  Ge  Ge31  1  0.204782  0.538734  0.068460  1
  Ge  Ge32  1  0.538734  0.204782  0.931540  1
  Ge  Ge33  1  0.795218  0.461266  0.568460  1
  Ge  Ge34  1  0.036757  0.296135  0.817455  1
  Ge  Ge35  1  0.963243  0.703865  0.317455  1
