# generated using pymatgen
data_LaSmGa2(Co3B)2
_symmetry_space_group_name_H-M   'P 1'
_cell_length_a   5.26853773
_cell_length_b   5.27894622
_cell_length_c   6.67097600
_cell_angle_alpha   90.00000000
_cell_angle_beta   90.00000000
_cell_angle_gamma   120.10312599
_symmetry_Int_Tables_number   1
_chemical_formula_structural   LaSmGa2(Co3B)2
_chemical_formula_sum   'La1 Sm1 Ga2 Co6 B2'
_cell_volume   160.51111037
_cell_formula_units_Z   1
loop_
 _symmetry_equiv_pos_site_id
 _symmetry_equiv_pos_as_xyz
  1  'x, y, z'
loop_
 _atom_site_type_symbol
 _atom_site_label
 _atom_site_symmetry_multiplicity
 _atom_site_fract_x
 _atom_site_fract_y
 _atom_site_fract_z
 _atom_site_occupancy
  La  La0  1  0.999993  0.999999  0.000000  1
  Sm  Sm1  1  0.999985  0.000003  0.500000  1
  Ga  Ga2  1  0.332763  0.666624  0.000000  1
  Ga  Ga3  1  0.667219  0.333378  0.000000  1
  Co  Co4  1  0.499980  0.999999  0.297824  1
  Co  Co5  1  0.499980  0.500001  0.297699  1
  Co  Co6  1  0.999979  0.499999  0.297754  1
  Co  Co7  1  0.499980  0.999999  0.702176  1
  Co  Co8  1  0.499980  0.500001  0.702300  1
  Co  Co9  1  0.999979  0.499999  0.702245  1
  B  B10  1  0.332963  0.666524  0.500000  1
  B  B11  1  0.666996  0.333475  0.500000  1
