# generated using pymatgen
data_Cs6Sm3BiI18
_symmetry_space_group_name_H-M   'P 1'
_cell_length_a   8.69268802
_cell_length_b   8.67441284
_cell_length_c   22.25042233
_cell_angle_alpha   91.57432191
_cell_angle_beta   88.67750490
_cell_angle_gamma   60.12268445
_symmetry_Int_Tables_number   1
_chemical_formula_structural   Cs6Sm3BiI18
_chemical_formula_sum   'Cs6 Sm3 Bi1 I18'
_cell_volume   1452.92645497
_cell_formula_units_Z   1
loop_
 _symmetry_equiv_pos_site_id
 _symmetry_equiv_pos_as_xyz
  1  'x, y, z'
loop_
 _atom_site_type_symbol
 _atom_site_label
 _atom_site_symmetry_multiplicity
 _atom_site_fract_x
 _atom_site_fract_y
 _atom_site_fract_z
 _atom_site_occupancy
  Cs  Cs0  1  0.327632  0.332482  0.063358  1
  Cs  Cs1  1  0.331937  0.328458  0.430955  1
  Cs  Cs2  1  0.675126  0.664683  0.932754  1
  Cs  Cs3  1  0.662043  0.678063  0.568209  1
  Cs  Cs4  1  0.011493  0.999435  0.756822  1
  Cs  Cs5  1  0.992257  0.996061  0.248583  1
  Sm  Sm6  1  0.650183  0.677628  0.156387  1
  Sm  Sm7  1  0.677498  0.650493  0.344957  1
  Sm  Sm8  1  0.349280  0.322667  0.842226  1
  Bi  Bi9  1  0.322416  0.349442  0.654978  1
  I  I10  1  0.499318  0.007478  0.740000  1
  I  I11  1  0.008266  0.498509  0.760692  1
  I  I12  1  0.503305  0.987133  0.260873  1
  I  I13  1  0.986130  0.503658  0.240867  1
  I  I14  1  0.193333  0.140780  0.914028  1
  I  I15  1  0.144119  0.193280  0.582645  1
  I  I16  1  0.807644  0.859526  0.086565  1
  I  I17  1  0.858924  0.808960  0.415301  1
  I  I18  1  0.500895  0.499126  0.750675  1
  I  I19  1  0.502380  0.502548  0.250763  1
  I  I20  1  0.647618  0.189145  0.573801  1
  I  I21  1  0.187045  0.651987  0.923593  1
  I  I22  1  0.348540  0.813170  0.425067  1
  I  I23  1  0.812718  0.348277  0.075984  1
  I  I24  1  0.694048  0.146188  0.905263  1
  I  I25  1  0.147299  0.693572  0.593463  1
  I  I26  1  0.302291  0.855676  0.096372  1
  I  I27  1  0.856252  0.301576  0.404820  1
