# generated using pymatgen
data_Ho2Ga10OsRu2
_symmetry_space_group_name_H-M   'P 1'
_cell_length_a   8.90152800
_cell_length_b   8.90152800
_cell_length_c   6.40668000
_cell_angle_alpha   90.00000000
_cell_angle_beta   90.00000000
_cell_angle_gamma   90.00000000
_symmetry_Int_Tables_number   1
_chemical_formula_structural   Ho2Ga10OsRu2
_chemical_formula_sum   'Ho4 Ga20 Os2 Ru4'
_cell_volume   507.64738920
_cell_formula_units_Z   2
loop_
 _symmetry_equiv_pos_site_id
 _symmetry_equiv_pos_as_xyz
  1  'x, y, z'
loop_
 _atom_site_type_symbol
 _atom_site_label
 _atom_site_symmetry_multiplicity
 _atom_site_fract_x
 _atom_site_fract_y
 _atom_site_fract_z
 _atom_site_occupancy
  Ho  Ho0  1  0.683074  0.183074  0.000000  1
  Ho  Ho1  1  0.316926  0.816926  0.000000  1
  Ho  Ho2  1  0.816926  0.683074  0.000000  1
  Ho  Ho3  1  0.183074  0.316926  0.000000  1
  Ga  Ga4  1  0.938657  0.206916  0.293456  1
  Ga  Ga5  1  0.706916  0.438657  0.293456  1
  Ga  Ga6  1  0.500000  0.000000  0.285324  1
  Ga  Ga7  1  0.561343  0.706916  0.706544  1
  Ga  Ga8  1  0.293084  0.561343  0.706544  1
  Ga  Ga9  1  0.793084  0.938657  0.293456  1
  Ga  Ga10  1  0.938657  0.206916  0.706544  1
  Ga  Ga11  1  0.293084  0.561343  0.293456  1
  Ga  Ga12  1  0.061343  0.793084  0.293456  1
  Ga  Ga13  1  0.706916  0.438657  0.706544  1
  Ga  Ga14  1  0.438657  0.293084  0.706544  1
  Ga  Ga15  1  0.061343  0.793084  0.706544  1
  Ga  Ga16  1  0.206916  0.061343  0.706544  1
  Ga  Ga17  1  0.793084  0.938657  0.706544  1
  Ga  Ga18  1  0.206916  0.061343  0.293456  1
  Ga  Ga19  1  0.000000  0.500000  0.714676  1
  Ga  Ga20  1  0.000000  0.500000  0.285324  1
  Ga  Ga21  1  0.561343  0.706916  0.293456  1
  Ga  Ga22  1  0.438657  0.293084  0.293456  1
  Ga  Ga23  1  0.500000  0.000000  0.714676  1
  Os  Os24  1  0.000000  0.000000  0.000000  1
  Os  Os25  1  0.500000  0.500000  0.000000  1
  Ru  Ru26  1  0.678201  0.178201  0.500000  1
  Ru  Ru27  1  0.821799  0.678201  0.500000  1
  Ru  Ru28  1  0.178201  0.321799  0.500000  1
  Ru  Ru29  1  0.321799  0.821799  0.500000  1
