# generated using pymatgen
data_Na5GeAs11Rh19
_symmetry_space_group_name_H-M   'P 1'
_cell_length_a   13.11396565
_cell_length_b   13.10489353
_cell_length_c   3.99635200
_cell_angle_alpha   90.00000000
_cell_angle_beta   90.00000000
_cell_angle_gamma   119.96533747
_symmetry_Int_Tables_number   1
_chemical_formula_structural   Na5GeAs11Rh19
_chemical_formula_sum   'Na5 Ge1 As11 Rh19'
_cell_volume   594.99523843
_cell_formula_units_Z   1
loop_
 _symmetry_equiv_pos_site_id
 _symmetry_equiv_pos_as_xyz
  1  'x, y, z'
loop_
 _atom_site_type_symbol
 _atom_site_label
 _atom_site_symmetry_multiplicity
 _atom_site_fract_x
 _atom_site_fract_y
 _atom_site_fract_z
 _atom_site_occupancy
  Na  Na0  1  0.000467  0.181602  0.500000  1
  Na  Na1  1  0.818358  0.818420  0.500000  1
  Na  Na2  1  0.182286  0.000801  0.500000  1
  Na  Na3  1  0.665422  0.333011  0.000000  1
  Na  Na4  1  0.333326  0.666596  0.000000  1
  Ge  Ge5  1  0.484413  0.319905  0.500000  1
  As  As6  1  0.820612  0.999853  0.000000  1
  As  As7  1  0.179699  0.179164  0.000000  1
  As  As8  1  0.000242  0.820838  0.000000  1
  As  As9  1  0.363695  0.001112  0.000000  1
  As  As10  1  0.681559  0.166524  0.500000  1
  As  As11  1  0.833603  0.515449  0.500000  1
  As  As12  1  0.515381  0.833201  0.500000  1
  As  As13  1  0.166573  0.682014  0.500000  1
  As  As14  1  0.317968  0.484171  0.500000  1
  As  As15  1  0.999890  0.362735  0.000000  1
  As  As16  1  0.636267  0.635686  0.000000  1
  Rh  Rh17  1  0.802485  0.179398  0.000000  1
  Rh  Rh18  1  0.375527  0.196046  0.000000  1
  Rh  Rh19  1  0.647492  0.521784  0.500000  1
  Rh  Rh20  1  0.873121  0.354733  0.500000  1
  Rh  Rh21  1  0.354752  0.872796  0.500000  1
  Rh  Rh22  1  0.518029  0.644540  0.500000  1
  Rh  Rh23  1  0.126545  0.481783  0.500000  1
  Rh  Rh24  1  0.821492  0.623855  0.000000  1
  Rh  Rh25  1  0.623555  0.820208  0.000000  1
  Rh  Rh26  1  0.179827  0.803298  0.000000  1
  Rh  Rh27  1  0.197522  0.377559  0.000000  1
  Rh  Rh28  1  0.000168  0.714047  0.500000  1
  Rh  Rh29  1  0.283443  0.285391  0.500000  1
  Rh  Rh30  1  0.713828  0.999726  0.500000  1
  Rh  Rh31  1  0.000329  0.547062  0.000000  1
  Rh  Rh32  1  0.452863  0.450723  0.000000  1
  Rh  Rh33  1  0.547325  0.999751  0.000000  1
  Rh  Rh34  1  0.999878  0.999890  0.000000  1
  Rh  Rh35  1  0.482058  0.126327  0.500000  1
