# generated using pymatgen
data_Dy3In4CuIr
_symmetry_space_group_name_H-M   'P 1'
_cell_length_a   7.83229100
_cell_length_b   7.83229090
_cell_length_c   3.84532800
_cell_angle_alpha   90.00000000
_cell_angle_beta   90.00000000
_cell_angle_gamma   120.00001307
_symmetry_Int_Tables_number   1
_chemical_formula_structural   Dy3In4CuIr
_chemical_formula_sum   'Dy3 In4 Cu1 Ir1'
_cell_volume   204.28740378
_cell_formula_units_Z   1
loop_
 _symmetry_equiv_pos_site_id
 _symmetry_equiv_pos_as_xyz
  1  'x, y, z'
loop_
 _atom_site_type_symbol
 _atom_site_label
 _atom_site_symmetry_multiplicity
 _atom_site_fract_x
 _atom_site_fract_y
 _atom_site_fract_z
 _atom_site_occupancy
  Dy  Dy0  1  0.051180  0.297391  0.500000  1
  Dy  Dy1  1  0.702609  0.753788  0.500000  1
  Dy  Dy2  1  0.246212  0.948820  0.500000  1
  In  In3  1  0.666635  0.081064  0.000000  1
  In  In4  1  0.918936  0.585571  0.000000  1
  In  In5  1  0.414429  0.333365  0.000000  1
  In  In6  1  0.333333  0.666667  0.000000  1
  Cu  Cu7  1  0.666667  0.333333  0.500000  1
  Ir  Ir8  1  0.000000  0.000000  0.000000  1
