# generated using pymatgen
data_Er2Tm6Sc12Ga7Si9
_symmetry_space_group_name_H-M   'P 1'
_cell_length_a   7.12114532
_cell_length_b   7.37865073
_cell_length_c   14.17668003
_cell_angle_alpha   90.00198581
_cell_angle_beta   89.93703727
_cell_angle_gamma   90.02817383
_symmetry_Int_Tables_number   1
_chemical_formula_structural   Er2Tm6Sc12Ga7Si9
_chemical_formula_sum   'Er2 Tm6 Sc12 Ga7 Si9'
_cell_volume   744.90523124
_cell_formula_units_Z   1
loop_
 _symmetry_equiv_pos_site_id
 _symmetry_equiv_pos_as_xyz
  1  'x, y, z'
loop_
 _atom_site_type_symbol
 _atom_site_label
 _atom_site_symmetry_multiplicity
 _atom_site_fract_x
 _atom_site_fract_y
 _atom_site_fract_z
 _atom_site_occupancy
  Er  Er0  1  0.012393  0.174596  0.098578  1
  Er  Er1  1  0.989714  0.823036  0.901731  1
  Tm  Tm2  1  0.488432  0.676932  0.901849  1
  Tm  Tm3  1  0.989536  0.823378  0.599223  1
  Tm  Tm4  1  0.510359  0.322326  0.098713  1
  Tm  Tm5  1  0.010241  0.176185  0.400619  1
  Tm  Tm6  1  0.510591  0.323228  0.400550  1
  Tm  Tm7  1  0.489541  0.676555  0.599156  1
  Sc  Sc8  1  0.163753  0.503518  0.749948  1
  Sc  Sc9  1  0.836939  0.497420  0.249879  1
  Sc  Sc10  1  0.336167  0.003427  0.249017  1
  Sc  Sc11  1  0.663312  0.996884  0.749687  1
  Sc  Sc12  1  0.330221  0.173644  0.625793  1
  Sc  Sc13  1  0.669418  0.826670  0.373969  1
  Sc  Sc14  1  0.169600  0.673947  0.373851  1
  Sc  Sc15  1  0.668191  0.825237  0.126153  1
  Sc  Sc16  1  0.829988  0.326310  0.626000  1
  Sc  Sc17  1  0.329734  0.174204  0.874951  1
  Sc  Sc18  1  0.829212  0.326368  0.874381  1
  Sc  Sc19  1  0.171921  0.675699  0.125094  1
  Ga  Ga20  1  0.161718  0.464159  0.539589  1
  Ga  Ga21  1  0.838290  0.535779  0.460282  1
  Ga  Ga22  1  0.338054  0.963796  0.460418  1
  Ga  Ga23  1  0.838324  0.537012  0.040115  1
  Ga  Ga24  1  0.661835  0.036013  0.539386  1
  Ga  Ga25  1  0.161147  0.463392  0.960653  1
  Ga  Ga26  1  0.660443  0.036692  0.960990  1
  Si  Si27  1  0.031823  0.112086  0.750700  1
  Si  Si28  1  0.967802  0.887046  0.249628  1
  Si  Si29  1  0.467627  0.611931  0.249582  1
  Si  Si30  1  0.531983  0.387518  0.750175  1
  Si  Si31  1  0.284207  0.872728  0.750546  1
  Si  Si32  1  0.716091  0.127620  0.249274  1
  Si  Si33  1  0.215473  0.372043  0.249616  1
  Si  Si34  1  0.784085  0.627734  0.750374  1
  Si  Si35  1  0.341835  0.964888  0.039532  1
