# generated using pymatgen
data_Nd4Ga4CuNiIr2
_symmetry_space_group_name_H-M   'P 1'
_cell_length_a   4.46573500
_cell_length_b   7.14526847
_cell_length_c   7.63618330
_cell_angle_alpha   90.27894286
_cell_angle_beta   90.00000000
_cell_angle_gamma   90.00000000
_symmetry_Int_Tables_number   1
_chemical_formula_structural   Nd4Ga4CuNiIr2
_chemical_formula_sum   'Nd4 Ga4 Cu1 Ni1 Ir2'
_cell_volume   243.65913468
_cell_formula_units_Z   1
loop_
 _symmetry_equiv_pos_site_id
 _symmetry_equiv_pos_as_xyz
  1  'x, y, z'
loop_
 _atom_site_type_symbol
 _atom_site_label
 _atom_site_symmetry_multiplicity
 _atom_site_fract_x
 _atom_site_fract_y
 _atom_site_fract_z
 _atom_site_occupancy
  Nd  Nd0  1  0.250000  0.024311  0.807467  1
  Nd  Nd1  1  0.250000  0.529902  0.696421  1
  Nd  Nd2  1  0.750000  0.978790  0.196381  1
  Nd  Nd3  1  0.750000  0.485884  0.299184  1
  Ga  Ga4  1  0.250000  0.174587  0.422222  1
  Ga  Ga5  1  0.250000  0.675094  0.073615  1
  Ga  Ga6  1  0.750000  0.821384  0.585807  1
  Ga  Ga7  1  0.750000  0.330117  0.920423  1
  Cu  Cu8  1  0.750000  0.201177  0.593662  1
  Ni  Ni9  1  0.750000  0.700171  0.904582  1
  Ir  Ir10  1  0.250000  0.790946  0.405843  1
  Ir  Ir11  1  0.250000  0.287634  0.094394  1
