# generated using pymatgen
data_Li3GaCu
_symmetry_space_group_name_H-M   'P 1'
_cell_length_a   5.10840417
_cell_length_b   5.10840413
_cell_length_c   5.10840403
_cell_angle_alpha   49.34357432
_cell_angle_beta   49.34357435
_cell_angle_gamma   49.34357977
_symmetry_Int_Tables_number   1
_chemical_formula_structural   Li3GaCu
_chemical_formula_sum   'Li3 Ga1 Cu1'
_cell_volume   70.49894593
_cell_formula_units_Z   1
loop_
 _symmetry_equiv_pos_site_id
 _symmetry_equiv_pos_as_xyz
  1  'x, y, z'
loop_
 _atom_site_type_symbol
 _atom_site_label
 _atom_site_symmetry_multiplicity
 _atom_site_fract_x
 _atom_site_fract_y
 _atom_site_fract_z
 _atom_site_occupancy
  Li  Li0  1  0.003323  0.003323  0.003323  1
  Li  Li1  1  0.595145  0.595145  0.595145  1
  Li  Li2  1  0.401301  0.401301  0.401301  1
  Ga  Ga3  1  0.809932  0.809932  0.809932  1
  Cu  Cu4  1  0.190300  0.190300  0.190300  1
