# generated using pymatgen
data_NdGdHf2(NiAs)4
_symmetry_space_group_name_H-M   'P 1'
_cell_length_a   4.03674000
_cell_length_b   4.03674016
_cell_length_c   14.91545900
_cell_angle_alpha   90.00000000
_cell_angle_beta   90.00000000
_cell_angle_gamma   120.00001505
_symmetry_Int_Tables_number   1
_chemical_formula_structural   NdGdHf2(NiAs)4
_chemical_formula_sum   'Nd1 Gd1 Hf2 Ni4 As4'
_cell_volume   210.48868856
_cell_formula_units_Z   1
loop_
 _symmetry_equiv_pos_site_id
 _symmetry_equiv_pos_as_xyz
  1  'x, y, z'
loop_
 _atom_site_type_symbol
 _atom_site_label
 _atom_site_symmetry_multiplicity
 _atom_site_fract_x
 _atom_site_fract_y
 _atom_site_fract_z
 _atom_site_occupancy
  Nd  Nd0  1  0.000000  0.000000  0.488000  1
  Gd  Gd1  1  0.000000  0.000000  0.757303  1
  Hf  Hf2  1  0.000000  0.000000  0.239760  1
  Hf  Hf3  1  0.000000  0.000000  0.007174  1
  Ni  Ni4  1  0.333333  0.666667  0.146713  1
  Ni  Ni5  1  0.666667  0.333333  0.925734  1
  Ni  Ni6  1  0.666667  0.333333  0.628489  1
  Ni  Ni7  1  0.333333  0.666667  0.322699  1
  As  As8  1  0.333333  0.666667  0.622656  1
  As  As9  1  0.666667  0.333333  0.362488  1
  As  As10  1  0.666667  0.333333  0.110244  1
  As  As11  1  0.333333  0.666667  0.888740  1
