# generated using pymatgen
data_YbCd(WO4)2
_symmetry_space_group_name_H-M   'P 1'
_cell_length_a   5.95373200
_cell_length_b   5.12076709
_cell_length_c   5.20820902
_cell_angle_alpha   87.89743986
_cell_angle_beta   90.00000000
_cell_angle_gamma   90.00000000
_symmetry_Int_Tables_number   1
_chemical_formula_structural   YbCd(WO4)2
_chemical_formula_sum   'Yb1 Cd1 W2 O8'
_cell_volume   158.67928154
_cell_formula_units_Z   1
loop_
 _symmetry_equiv_pos_site_id
 _symmetry_equiv_pos_as_xyz
  1  'x, y, z'
loop_
 _atom_site_type_symbol
 _atom_site_label
 _atom_site_symmetry_multiplicity
 _atom_site_fract_x
 _atom_site_fract_y
 _atom_site_fract_z
 _atom_site_occupancy
  Yb  Yb0  1  0.684430  0.500000  0.250000  1
  Cd  Cd1  1  0.313342  0.500000  0.750000  1
  W  W2  1  0.169996  0.000000  0.250000  1
  W  W3  1  0.829558  0.000000  0.750000  1
  O  O4  1  0.096998  0.795887  0.947931  1
  O  O5  1  0.096998  0.204113  0.552069  1
  O  O6  1  0.902784  0.197883  0.053490  1
  O  O7  1  0.902784  0.802117  0.446510  1
  O  O8  1  0.368562  0.755753  0.380918  1
  O  O9  1  0.368562  0.244247  0.119082  1
  O  O10  1  0.632993  0.243986  0.617814  1
  O  O11  1  0.632993  0.756014  0.882186  1
