# generated using pymatgen
data_KMn4Ga5S12
_symmetry_space_group_name_H-M   'P 1'
_cell_length_a   8.44898261
_cell_length_b   8.48487025
_cell_length_c   8.67163648
_cell_angle_alpha   108.20638518
_cell_angle_beta   106.84389865
_cell_angle_gamma   107.98753791
_symmetry_Int_Tables_number   1
_chemical_formula_structural   KMn4Ga5S12
_chemical_formula_sum   'K1 Mn4 Ga5 S12'
_cell_volume   507.75977216
_cell_formula_units_Z   1
loop_
 _symmetry_equiv_pos_site_id
 _symmetry_equiv_pos_as_xyz
  1  'x, y, z'
loop_
 _atom_site_type_symbol
 _atom_site_label
 _atom_site_symmetry_multiplicity
 _atom_site_fract_x
 _atom_site_fract_y
 _atom_site_fract_z
 _atom_site_occupancy
  K  K0  1  0.996696  0.000542  0.003206  1
  Mn  Mn1  1  0.491951  0.338452  0.936671  1
  Mn  Mn2  1  0.627316  0.707076  0.401741  1
  Mn  Mn3  1  0.407381  0.643210  0.718549  1
  Mn  Mn4  1  0.714803  0.404799  0.637423  1
  Ga  Ga5  1  0.186124  0.552806  0.024439  1
  Ga  Ga6  1  0.022960  0.183217  0.556213  1
  Ga  Ga7  1  0.560962  0.022519  0.188270  1
  Ga  Ga8  1  0.937117  0.476201  0.334952  1
  Ga  Ga9  1  0.326699  0.935537  0.476761  1
  S  S10  1  0.857371  0.625329  0.542858  1
  S  S11  1  0.542706  0.864919  0.623357  1
  S  S12  1  0.642124  0.569793  0.859821  1
  S  S13  1  0.369699  0.439617  0.147390  1
  S  S14  1  0.153240  0.380123  0.449407  1
  S  S15  1  0.443174  0.148239  0.376029  1
  S  S16  1  0.068955  0.681847  0.224424  1
  S  S17  1  0.223700  0.074453  0.677418  1
  S  S18  1  0.696424  0.221319  0.080934  1
  S  S19  1  0.777325  0.929767  0.305337  1
  S  S20  1  0.301938  0.780246  0.939701  1
  S  S21  1  0.932535  0.301188  0.776301  1
