# generated using pymatgen
data_Y3Tm17(Cd3Pt)2
_symmetry_space_group_name_H-M   'P 1'
_cell_length_a   9.57939200
_cell_length_b   9.57939165
_cell_length_c   9.68951800
_cell_angle_alpha   90.00000000
_cell_angle_beta   90.00000000
_cell_angle_gamma   119.99999430
_symmetry_Int_Tables_number   1
_chemical_formula_structural   Y3Tm17(Cd3Pt)2
_chemical_formula_sum   'Y3 Tm17 Cd6 Pt2'
_cell_volume   770.03187984
_cell_formula_units_Z   1
loop_
 _symmetry_equiv_pos_site_id
 _symmetry_equiv_pos_as_xyz
  1  'x, y, z'
loop_
 _atom_site_type_symbol
 _atom_site_label
 _atom_site_symmetry_multiplicity
 _atom_site_fract_x
 _atom_site_fract_y
 _atom_site_fract_z
 _atom_site_occupancy
  Y  Y0  1  0.458055  0.541945  0.750000  1
  Y  Y1  1  0.458055  0.916110  0.750000  1
  Y  Y2  1  0.083890  0.541945  0.750000  1
  Tm  Tm3  1  0.000000  0.000000  0.499961  1
  Tm  Tm4  1  0.000000  0.000000  0.000039  1
  Tm  Tm5  1  0.542879  0.457121  0.250000  1
  Tm  Tm6  1  0.542879  0.085758  0.250000  1
  Tm  Tm7  1  0.914242  0.457121  0.250000  1
  Tm  Tm8  1  0.208020  0.791980  0.440469  1
  Tm  Tm9  1  0.208020  0.416041  0.440469  1
  Tm  Tm10  1  0.583959  0.791980  0.440469  1
  Tm  Tm11  1  0.791259  0.208741  0.556791  1
  Tm  Tm12  1  0.791259  0.582515  0.556791  1
  Tm  Tm13  1  0.417485  0.208741  0.556791  1
  Tm  Tm14  1  0.791259  0.208741  0.943209  1
  Tm  Tm15  1  0.791259  0.582515  0.943209  1
  Tm  Tm16  1  0.417485  0.208741  0.943209  1
  Tm  Tm17  1  0.208020  0.791980  0.059531  1
  Tm  Tm18  1  0.208020  0.416041  0.059531  1
  Tm  Tm19  1  0.583959  0.791980  0.059531  1
  Cd  Cd20  1  0.884755  0.115245  0.250000  1
  Cd  Cd21  1  0.884755  0.769509  0.250000  1
  Cd  Cd22  1  0.230491  0.115245  0.250000  1
  Cd  Cd23  1  0.113870  0.886130  0.750000  1
  Cd  Cd24  1  0.113870  0.227740  0.750000  1
  Cd  Cd25  1  0.772260  0.886130  0.750000  1
  Pt  Pt26  1  0.333333  0.666667  0.250000  1
  Pt  Pt27  1  0.666667  0.333333  0.750000  1
