# generated using pymatgen
data_Dy8Si16(MoW3)3
_symmetry_space_group_name_H-M   'P 1'
_cell_length_a   6.78510605
_cell_length_b   6.95017223
_cell_length_c   12.92403306
_cell_angle_alpha   89.96495803
_cell_angle_beta   90.02775797
_cell_angle_gamma   90.07232113
_symmetry_Int_Tables_number   1
_chemical_formula_structural   Dy8Si16(MoW3)3
_chemical_formula_sum   'Dy8 Si16 Mo3 W9'
_cell_volume   609.46642965
_cell_formula_units_Z   1
loop_
 _symmetry_equiv_pos_site_id
 _symmetry_equiv_pos_as_xyz
  1  'x, y, z'
loop_
 _atom_site_type_symbol
 _atom_site_label
 _atom_site_symmetry_multiplicity
 _atom_site_fract_x
 _atom_site_fract_y
 _atom_site_fract_z
 _atom_site_occupancy
  Dy  Dy0  1  0.496570  0.332571  0.093582  1
  Dy  Dy1  1  0.995909  0.167550  0.406434  1
  Dy  Dy2  1  0.503694  0.667550  0.593534  1
  Dy  Dy3  1  0.003724  0.832631  0.906238  1
  Dy  Dy4  1  0.503135  0.667484  0.906259  1
  Dy  Dy5  1  0.003105  0.832182  0.593424  1
  Dy  Dy6  1  0.496183  0.332589  0.406427  1
  Dy  Dy7  1  0.996815  0.167718  0.093622  1
  Si  Si8  1  0.660414  0.042420  0.547067  1
  Si  Si9  1  0.159754  0.457581  0.952728  1
  Si  Si10  1  0.340123  0.957952  0.047409  1
  Si  Si11  1  0.839223  0.542453  0.453470  1
  Si  Si12  1  0.338531  0.957389  0.452877  1
  Si  Si13  1  0.840028  0.542974  0.047586  1
  Si  Si14  1  0.660408  0.042795  0.952320  1
  Si  Si15  1  0.161326  0.456911  0.547052  1
  Si  Si16  1  0.535054  0.369041  0.749322  1
  Si  Si17  1  0.035005  0.131202  0.750886  1
  Si  Si18  1  0.465576  0.630581  0.249254  1
  Si  Si19  1  0.964409  0.869560  0.250058  1
  Si  Si20  1  0.802342  0.631806  0.750442  1
  Si  Si21  1  0.302183  0.868098  0.749573  1
  Si  Si22  1  0.198160  0.367371  0.250258  1
  Si  Si23  1  0.697530  0.131951  0.249842  1
  Mo  Mo24  1  0.669582  0.836350  0.125148  1
  Mo  Mo25  1  0.829852  0.337207  0.875419  1
  Mo  Mo26  1  0.330484  0.162862  0.624917  1
  W  W27  1  0.832109  0.335784  0.626766  1
  W  W28  1  0.331997  0.164643  0.873574  1
  W  W29  1  0.169123  0.663515  0.125686  1
  W  W30  1  0.667832  0.835721  0.373672  1
  W  W31  1  0.169343  0.662907  0.374365  1
  W  W32  1  0.665315  0.000406  0.749779  1
  W  W33  1  0.165068  0.499567  0.749584  1
  W  W34  1  0.334313  0.999520  0.250468  1
  W  W35  1  0.835785  0.501157  0.250960  1
