# generated using pymatgen
data_Tb8Tm12Si15Sb
_symmetry_space_group_name_H-M   'P 1'
_cell_length_a   7.43342602
_cell_length_b   7.62751368
_cell_length_c   14.51061300
_cell_angle_alpha   90.08984026
_cell_angle_beta   86.87410081
_cell_angle_gamma   90.10338875
_symmetry_Int_Tables_number   1
_chemical_formula_structural   Tb8Tm12Si15Sb
_chemical_formula_sum   'Tb8 Tm12 Si15 Sb1'
_cell_volume   821.50449313
_cell_formula_units_Z   1
loop_
 _symmetry_equiv_pos_site_id
 _symmetry_equiv_pos_as_xyz
  1  'x, y, z'
loop_
 _atom_site_type_symbol
 _atom_site_label
 _atom_site_symmetry_multiplicity
 _atom_site_fract_x
 _atom_site_fract_y
 _atom_site_fract_z
 _atom_site_occupancy
  Tb  Tb0  1  0.020508  0.182202  0.098865  1
  Tb  Tb1  1  0.979266  0.818923  0.901225  1
  Tb  Tb2  1  0.479620  0.681443  0.901167  1
  Tb  Tb3  1  0.999569  0.825162  0.599597  1
  Tb  Tb4  1  0.521101  0.318290  0.100110  1
  Tb  Tb5  1  0.996965  0.176363  0.399869  1
  Tb  Tb6  1  0.506704  0.315436  0.398002  1
  Tb  Tb7  1  0.512171  0.685325  0.601981  1
  Tm  Tm8  1  0.167409  0.504857  0.752078  1
  Tm  Tm9  1  0.831251  0.494113  0.253427  1
  Tm  Tm10  1  0.331126  0.007819  0.252779  1
  Tm  Tm11  1  0.671313  0.993175  0.748899  1
  Tm  Tm12  1  0.355304  0.154836  0.624626  1
  Tm  Tm13  1  0.648798  0.831598  0.378042  1
  Tm  Tm14  1  0.144549  0.679122  0.372244  1
  Tm  Tm15  1  0.672314  0.822320  0.122199  1
  Tm  Tm16  1  0.839329  0.329768  0.623071  1
  Tm  Tm17  1  0.326424  0.176874  0.877478  1
  Tm  Tm18  1  0.826489  0.322336  0.877241  1
  Tm  Tm19  1  0.172520  0.678084  0.122936  1
  Si  Si20  1  0.041893  0.112102  0.751854  1
  Si  Si21  1  0.956415  0.892104  0.246022  1
  Si  Si22  1  0.457865  0.610396  0.247622  1
  Si  Si23  1  0.539222  0.389908  0.752477  1
  Si  Si24  1  0.288572  0.866946  0.753376  1
  Si  Si25  1  0.713651  0.128468  0.246645  1
  Si  Si26  1  0.212702  0.372380  0.247735  1
  Si  Si27  1  0.789343  0.629655  0.752400  1
  Si  Si28  1  0.799911  0.536606  0.457263  1
  Si  Si29  1  0.304806  0.965774  0.456938  1
  Si  Si30  1  0.851004  0.530251  0.040682  1
  Si  Si31  1  0.696441  0.034154  0.542395  1
  Si  Si32  1  0.147676  0.470301  0.959810  1
  Si  Si33  1  0.647927  0.030115  0.959325  1
  Si  Si34  1  0.350992  0.971100  0.041369  1
  Sb  Sb35  1  0.198855  0.461697  0.538248  1
