# generated using pymatgen
data_Hf6SiSnBi
_symmetry_space_group_name_H-M   'P 1'
_cell_length_a   3.93282100
_cell_length_b   7.56024455
_cell_length_c   7.56024600
_cell_angle_alpha   119.99999759
_cell_angle_beta   90.00000000
_cell_angle_gamma   90.00000000
_symmetry_Int_Tables_number   1
_chemical_formula_structural   Hf6SiSnBi
_chemical_formula_sum   'Hf6 Si1 Sn1 Bi1'
_cell_volume   194.67339080
_cell_formula_units_Z   1
loop_
 _symmetry_equiv_pos_site_id
 _symmetry_equiv_pos_as_xyz
  1  'x, y, z'
loop_
 _atom_site_type_symbol
 _atom_site_label
 _atom_site_symmetry_multiplicity
 _atom_site_fract_x
 _atom_site_fract_y
 _atom_site_fract_z
 _atom_site_occupancy
  Hf  Hf0  1  0.500000  0.764393  0.760568  1
  Hf  Hf1  1  0.500000  0.996175  0.235607  1
  Hf  Hf2  1  0.500000  0.239432  0.003825  1
  Hf  Hf3  1  0.000000  0.388157  0.382064  1
  Hf  Hf4  1  0.000000  0.993907  0.611843  1
  Hf  Hf5  1  0.000000  0.617936  0.006093  1
  Si  Si6  1  0.000000  0.000000  0.000000  1
  Sn  Sn7  1  0.500000  0.666667  0.333333  1
  Bi  Bi8  1  0.500000  0.333333  0.666667  1
