# generated using pymatgen
data_Sc4Ga3Tc3Ru2
_symmetry_space_group_name_H-M   'P 1'
_cell_length_a   5.20737700
_cell_length_b   5.24542403
_cell_length_c   8.57560700
_cell_angle_alpha   90.00000000
_cell_angle_beta   90.00000000
_cell_angle_gamma   119.76034264
_symmetry_Int_Tables_number   1
_chemical_formula_structural   Sc4Ga3Tc3Ru2
_chemical_formula_sum   'Sc4 Ga3 Tc3 Ru2'
_cell_volume   203.34751263
_cell_formula_units_Z   1
loop_
 _symmetry_equiv_pos_site_id
 _symmetry_equiv_pos_as_xyz
  1  'x, y, z'
loop_
 _atom_site_type_symbol
 _atom_site_label
 _atom_site_symmetry_multiplicity
 _atom_site_fract_x
 _atom_site_fract_y
 _atom_site_fract_z
 _atom_site_occupancy
  Sc  Sc0  1  0.329725  0.659451  0.059033  1
  Sc  Sc1  1  0.663725  0.327449  0.565691  1
  Sc  Sc2  1  0.329725  0.659451  0.440967  1
  Sc  Sc3  1  0.663725  0.327449  0.934309  1
  Ga  Ga4  1  0.350716  0.191866  0.250000  1
  Ga  Ga5  1  0.841150  0.191866  0.250000  1
  Ga  Ga6  1  0.167434  0.334868  0.750000  1
  Tc  Tc7  1  0.842716  0.685431  0.250000  1
  Tc  Tc8  1  0.177059  0.831412  0.750000  1
  Tc  Tc9  1  0.654351  0.831412  0.750000  1
  Ru  Ru10  1  0.989837  0.979674  0.497409  1
  Ru  Ru11  1  0.989837  0.979674  0.002591  1
