# generated using pymatgen
data_DySc4Si7Pt9
_symmetry_space_group_name_H-M   'P 1'
_cell_length_a   10.04969100
_cell_length_b   10.04969014
_cell_length_c   3.94546600
_cell_angle_alpha   90.00000000
_cell_angle_beta   90.00000000
_cell_angle_gamma   119.99999954
_symmetry_Int_Tables_number   1
_chemical_formula_structural   DySc4Si7Pt9
_chemical_formula_sum   'Dy1 Sc4 Si7 Pt9'
_cell_volume   345.09154501
_cell_formula_units_Z   1
loop_
 _symmetry_equiv_pos_site_id
 _symmetry_equiv_pos_as_xyz
  1  'x, y, z'
loop_
 _atom_site_type_symbol
 _atom_site_label
 _atom_site_symmetry_multiplicity
 _atom_site_fract_x
 _atom_site_fract_y
 _atom_site_fract_z
 _atom_site_occupancy
  Dy  Dy0  1  0.333333  0.666667  0.500000  1
  Sc  Sc1  1  0.000000  0.000000  0.000000  1
  Sc  Sc2  1  0.895663  0.458270  0.500000  1
  Sc  Sc3  1  0.562607  0.104337  0.500000  1
  Sc  Sc4  1  0.541730  0.437393  0.500000  1
  Si  Si5  1  0.239790  0.189549  0.500000  1
  Si  Si6  1  0.810451  0.050242  0.500000  1
  Si  Si7  1  0.949758  0.760210  0.500000  1
  Si  Si8  1  0.556929  0.647931  0.000000  1
  Si  Si9  1  0.352069  0.908997  0.000000  1
  Si  Si10  1  0.091003  0.443071  0.000000  1
  Si  Si11  1  0.666667  0.333333  0.000000  1
  Pt  Pt12  1  0.217292  0.935960  0.500000  1
  Pt  Pt13  1  0.064040  0.281333  0.500000  1
  Pt  Pt14  1  0.718667  0.782708  0.500000  1
  Pt  Pt15  1  0.315070  0.413894  0.000000  1
  Pt  Pt16  1  0.586106  0.901176  0.000000  1
  Pt  Pt17  1  0.098824  0.684930  0.000000  1
  Pt  Pt18  1  0.382672  0.171791  0.000000  1
  Pt  Pt19  1  0.828209  0.210882  0.000000  1
  Pt  Pt20  1  0.789118  0.617328  0.000000  1
