# generated using pymatgen
data_Yb3Er2Pa3(Pt2Pb)4
_symmetry_space_group_name_H-M   'P 1'
_cell_length_a   7.92839689
_cell_length_b   7.92839636
_cell_length_c   7.19528700
_cell_angle_alpha   90.00000000
_cell_angle_beta   90.00000000
_cell_angle_gamma   90.27998739
_symmetry_Int_Tables_number   1
_chemical_formula_structural   Yb3Er2Pa3(Pt2Pb)4
_chemical_formula_sum   'Yb3 Er2 Pa3 Pt8 Pb4'
_cell_volume   452.28654890
_cell_formula_units_Z   1
loop_
 _symmetry_equiv_pos_site_id
 _symmetry_equiv_pos_as_xyz
  1  'x, y, z'
loop_
 _atom_site_type_symbol
 _atom_site_label
 _atom_site_symmetry_multiplicity
 _atom_site_fract_x
 _atom_site_fract_y
 _atom_site_fract_z
 _atom_site_occupancy
  Yb  Yb0  1  0.342223  0.345004  0.500000  1
  Yb  Yb1  1  0.654996  0.657777  0.500000  1
  Yb  Yb2  1  0.175890  0.824110  0.500000  1
  Er  Er3  1  0.842238  0.157762  0.000000  1
  Er  Er4  1  0.157394  0.842606  0.000000  1
  Pa  Pa5  1  0.677401  0.675418  0.000000  1
  Pa  Pa6  1  0.826502  0.173498  0.500000  1
  Pa  Pa7  1  0.324582  0.322599  0.000000  1
  Pt  Pt8  1  0.864325  0.873714  0.738464  1
  Pt  Pt9  1  0.126286  0.135675  0.738464  1
  Pt  Pt10  1  0.635107  0.364893  0.769644  1
  Pt  Pt11  1  0.635107  0.364893  0.230356  1
  Pt  Pt12  1  0.378153  0.621847  0.214472  1
  Pt  Pt13  1  0.126286  0.135675  0.261536  1
  Pt  Pt14  1  0.864325  0.873714  0.261536  1
  Pt  Pt15  1  0.378153  0.621847  0.785528  1
  Pb  Pb16  1  0.493987  0.998470  0.745689  1
  Pb  Pb17  1  0.493987  0.998470  0.254311  1
  Pb  Pb18  1  0.001530  0.506013  0.745689  1
  Pb  Pb19  1  0.001530  0.506013  0.254311  1
