# generated using pymatgen
data_Pr5Tl2Ir
_symmetry_space_group_name_H-M   'P 1'
_cell_length_a   8.13357300
_cell_length_b   9.55524500
_cell_length_c   12.88171700
_cell_angle_alpha   90.00000000
_cell_angle_beta   90.00000000
_cell_angle_gamma   90.00000000
_symmetry_Int_Tables_number   1
_chemical_formula_structural   Pr5Tl2Ir
_chemical_formula_sum   'Pr20 Tl8 Ir4'
_cell_volume   1001.14492399
_cell_formula_units_Z   4
loop_
 _symmetry_equiv_pos_site_id
 _symmetry_equiv_pos_as_xyz
  1  'x, y, z'
loop_
 _atom_site_type_symbol
 _atom_site_label
 _atom_site_symmetry_multiplicity
 _atom_site_fract_x
 _atom_site_fract_y
 _atom_site_fract_z
 _atom_site_occupancy
  Pr  Pr0  1  0.344410  0.750000  0.717322  1
  Pr  Pr1  1  0.655590  0.250000  0.282678  1
  Pr  Pr2  1  0.844410  0.250000  0.782678  1
  Pr  Pr3  1  0.155590  0.750000  0.217322  1
  Pr  Pr4  1  0.884352  0.750000  0.808459  1
  Pr  Pr5  1  0.115648  0.250000  0.191541  1
  Pr  Pr6  1  0.384352  0.250000  0.691541  1
  Pr  Pr7  1  0.615648  0.750000  0.308459  1
  Pr  Pr8  1  0.675080  0.535384  0.578778  1
  Pr  Pr9  1  0.324920  0.464616  0.421222  1
  Pr  Pr10  1  0.175080  0.464616  0.921222  1
  Pr  Pr11  1  0.324920  0.035384  0.421222  1
  Pr  Pr12  1  0.824920  0.535384  0.078778  1
  Pr  Pr13  1  0.675080  0.964616  0.578778  1
  Pr  Pr14  1  0.824920  0.964616  0.078778  1
  Pr  Pr15  1  0.175080  0.035384  0.921222  1
  Pr  Pr16  1  0.056907  0.750000  0.500071  1
  Pr  Pr17  1  0.943093  0.250000  0.499929  1
  Pr  Pr18  1  0.556907  0.250000  0.999929  1
  Pr  Pr19  1  0.443093  0.750000  0.000071  1
  Tl  Tl20  1  0.574421  0.508129  0.833475  1
  Tl  Tl21  1  0.425579  0.491871  0.166525  1
  Tl  Tl22  1  0.074421  0.491871  0.666525  1
  Tl  Tl23  1  0.425579  0.008129  0.166525  1
  Tl  Tl24  1  0.925579  0.508129  0.333475  1
  Tl  Tl25  1  0.574421  0.991871  0.833475  1
  Tl  Tl26  1  0.925579  0.991871  0.333475  1
  Tl  Tl27  1  0.074421  0.008129  0.666525  1
  Ir  Ir28  1  0.075099  0.750000  0.996430  1
  Ir  Ir29  1  0.924901  0.250000  0.003570  1
  Ir  Ir30  1  0.575099  0.250000  0.503570  1
  Ir  Ir31  1  0.424901  0.750000  0.496430  1
