# generated using pymatgen
data_Ho17Er3Ir7Ru5
_symmetry_space_group_name_H-M   'P 1'
_cell_length_a   10.79023685
_cell_length_b   10.79076522
_cell_length_c   6.38855701
_cell_angle_alpha   89.96419883
_cell_angle_beta   89.97424220
_cell_angle_gamma   90.09641899
_symmetry_Int_Tables_number   1
_chemical_formula_structural   Ho17Er3Ir7Ru5
_chemical_formula_sum   'Ho17 Er3 Ir7 Ru5'
_cell_volume   743.84980277
_cell_formula_units_Z   1
loop_
 _symmetry_equiv_pos_site_id
 _symmetry_equiv_pos_as_xyz
  1  'x, y, z'
loop_
 _atom_site_type_symbol
 _atom_site_label
 _atom_site_symmetry_multiplicity
 _atom_site_fract_x
 _atom_site_fract_y
 _atom_site_fract_z
 _atom_site_occupancy
  Ho  Ho0  1  0.293418  0.086089  0.377450  1
  Ho  Ho1  1  0.292675  0.913565  0.877457  1
  Ho  Ho2  1  0.707327  0.086477  0.877702  1
  Ho  Ho3  1  0.707064  0.913900  0.376227  1
  Ho  Ho4  1  0.586155  0.793331  0.877432  1
  Ho  Ho5  1  0.586946  0.206843  0.377486  1
  Ho  Ho6  1  0.413624  0.793060  0.377283  1
  Ho  Ho7  1  0.413599  0.206623  0.876528  1
  Ho  Ho8  1  0.206665  0.413816  0.622602  1
  Ho  Ho9  1  0.206883  0.586412  0.122694  1
  Ho  Ho10  1  0.793161  0.413077  0.122477  1
  Ho  Ho11  1  0.793321  0.586411  0.623508  1
  Ho  Ho12  1  0.913926  0.706613  0.122494  1
  Ho  Ho13  1  0.913500  0.292749  0.622399  1
  Ho  Ho14  1  0.086469  0.707286  0.622668  1
  Ho  Ho15  1  0.086118  0.292852  0.123724  1
  Ho  Ho16  1  0.999623  0.001002  0.499724  1
  Er  Er17  1  0.999078  0.000343  0.000214  1
  Er  Er18  1  0.500188  0.500254  0.000431  1
  Er  Er19  1  0.499769  0.499787  0.499541  1
  Ir  Ir20  1  0.846963  0.846703  0.750081  1
  Ir  Ir21  1  0.153264  0.153050  0.750493  1
  Ir  Ir22  1  0.152919  0.847058  0.249686  1
  Ir  Ir23  1  0.651721  0.348306  0.749986  1
  Ir  Ir24  1  0.652833  0.652307  0.249709  1
  Ir  Ir25  1  0.347657  0.347233  0.250261  1
  Ir  Ir26  1  0.347702  0.652297  0.750024  1
  Ru  Ru27  1  0.847724  0.152281  0.249787  1
  Ru  Ru28  1  0.500255  0.000322  0.122305  1
  Ru  Ru29  1  0.499878  0.000090  0.622301  1
  Ru  Ru30  1  0.999935  0.500131  0.877688  1
  Ru  Ru31  1  0.999644  0.499729  0.377639  1
