# generated using pymatgen
data_Y16Er4TcRh11
_symmetry_space_group_name_H-M   'P 1'
_cell_length_a   10.92757821
_cell_length_b   10.92757746
_cell_length_c   6.36050500
_cell_angle_alpha   89.98888436
_cell_angle_beta   89.98888436
_cell_angle_gamma   90.10756797
_symmetry_Int_Tables_number   1
_chemical_formula_structural   Y16Er4TcRh11
_chemical_formula_sum   'Y16 Er4 Tc1 Rh11'
_cell_volume   759.51898456
_cell_formula_units_Z   1
loop_
 _symmetry_equiv_pos_site_id
 _symmetry_equiv_pos_as_xyz
  1  'x, y, z'
loop_
 _atom_site_type_symbol
 _atom_site_label
 _atom_site_symmetry_multiplicity
 _atom_site_fract_x
 _atom_site_fract_y
 _atom_site_fract_z
 _atom_site_occupancy
  Y  Y0  1  0.290539  0.088697  0.378611  1
  Y  Y1  1  0.290243  0.909165  0.878538  1
  Y  Y2  1  0.709276  0.088064  0.878700  1
  Y  Y3  1  0.709475  0.912091  0.379006  1
  Y  Y4  1  0.585993  0.789260  0.877872  1
  Y  Y5  1  0.588242  0.209393  0.379879  1
  Y  Y6  1  0.410675  0.788851  0.379529  1
  Y  Y7  1  0.411433  0.208850  0.878724  1
  Y  Y8  1  0.210740  0.414007  0.622128  1
  Y  Y9  1  0.211149  0.589325  0.120471  1
  Y  Y10  1  0.790607  0.411758  0.120121  1
  Y  Y11  1  0.791150  0.588567  0.621276  1
  Y  Y12  1  0.911303  0.709461  0.121389  1
  Y  Y13  1  0.911936  0.290724  0.621300  1
  Y  Y14  1  0.090835  0.709757  0.621462  1
  Y  Y15  1  0.087909  0.290525  0.120994  1
  Er  Er16  1  0.999640  0.999894  0.500264  1
  Er  Er17  1  0.000106  0.000360  0.999736  1
  Er  Er18  1  0.499282  0.499526  0.999729  1
  Er  Er19  1  0.500474  0.500718  0.500271  1
  Tc  Tc20  1  0.348182  0.651818  0.750000  1
  Rh  Rh21  1  0.848564  0.151436  0.250000  1
  Rh  Rh22  1  0.848258  0.848222  0.749831  1
  Rh  Rh23  1  0.151778  0.151742  0.750169  1
  Rh  Rh24  1  0.149111  0.850889  0.250000  1
  Rh  Rh25  1  0.652194  0.347806  0.750000  1
  Rh  Rh26  1  0.654577  0.651689  0.249570  1
  Rh  Rh27  1  0.348311  0.345423  0.250430  1
  Rh  Rh28  1  0.500197  0.001548  0.125709  1
  Rh  Rh29  1  0.500171  0.000803  0.624156  1
  Rh  Rh30  1  0.999197  0.499829  0.875844  1
  Rh  Rh31  1  0.998452  0.499803  0.374291  1
