# generated using pymatgen
data_Tm5RuAu2
_symmetry_space_group_name_H-M   'P 1'
_cell_length_a   11.14384100
_cell_length_b   11.14384100
_cell_length_c   6.30458300
_cell_angle_alpha   90.00000000
_cell_angle_beta   90.00000000
_cell_angle_gamma   90.00000000
_symmetry_Int_Tables_number   1
_chemical_formula_structural   Tm5RuAu2
_chemical_formula_sum   'Tm20 Ru4 Au8'
_cell_volume   782.93585181
_cell_formula_units_Z   4
loop_
 _symmetry_equiv_pos_site_id
 _symmetry_equiv_pos_as_xyz
  1  'x, y, z'
loop_
 _atom_site_type_symbol
 _atom_site_label
 _atom_site_symmetry_multiplicity
 _atom_site_fract_x
 _atom_site_fract_y
 _atom_site_fract_z
 _atom_site_occupancy
  Tm  Tm0  1  0.300612  0.082992  0.357447  1
  Tm  Tm1  1  0.300612  0.917008  0.857447  1
  Tm  Tm2  1  0.699388  0.082992  0.857447  1
  Tm  Tm3  1  0.699388  0.917008  0.357447  1
  Tm  Tm4  1  0.582992  0.800612  0.857447  1
  Tm  Tm5  1  0.582992  0.199388  0.357447  1
  Tm  Tm6  1  0.417008  0.800612  0.357447  1
  Tm  Tm7  1  0.417008  0.199388  0.857447  1
  Tm  Tm8  1  0.199388  0.417008  0.642553  1
  Tm  Tm9  1  0.199388  0.582992  0.142553  1
  Tm  Tm10  1  0.800612  0.417008  0.142553  1
  Tm  Tm11  1  0.800612  0.582992  0.642553  1
  Tm  Tm12  1  0.917008  0.699388  0.142553  1
  Tm  Tm13  1  0.917008  0.300612  0.642553  1
  Tm  Tm14  1  0.082992  0.699388  0.642553  1
  Tm  Tm15  1  0.082992  0.300612  0.142553  1
  Tm  Tm16  1  0.000000  0.000000  0.500000  1
  Tm  Tm17  1  0.000000  0.000000  0.000000  1
  Tm  Tm18  1  0.500000  0.500000  0.000000  1
  Tm  Tm19  1  0.500000  0.500000  0.500000  1
  Ru  Ru20  1  0.500000  0.000000  0.108780  1
  Ru  Ru21  1  0.500000  0.000000  0.608780  1
  Ru  Ru22  1  0.000000  0.500000  0.891220  1
  Ru  Ru23  1  0.000000  0.500000  0.391220  1
  Au  Au24  1  0.844476  0.155524  0.250000  1
  Au  Au25  1  0.844476  0.844476  0.750000  1
  Au  Au26  1  0.155524  0.155524  0.750000  1
  Au  Au27  1  0.155524  0.844476  0.250000  1
  Au  Au28  1  0.655524  0.344476  0.750000  1
  Au  Au29  1  0.655524  0.655524  0.250000  1
  Au  Au30  1  0.344476  0.344476  0.250000  1
  Au  Au31  1  0.344476  0.655524  0.750000  1
