# generated using pymatgen
data_Tb4HoGaCo5
_symmetry_space_group_name_H-M   'P 1'
_cell_length_a   5.48439891
_cell_length_b   5.48439879
_cell_length_c   20.54045800
_cell_angle_alpha   90.00000000
_cell_angle_beta   90.00000000
_cell_angle_gamma   136.94068208
_symmetry_Int_Tables_number   1
_chemical_formula_structural   Tb4HoGaCo5
_chemical_formula_sum   'Tb8 Ho2 Ga2 Co10'
_cell_volume   421.82583632
_cell_formula_units_Z   2
loop_
 _symmetry_equiv_pos_site_id
 _symmetry_equiv_pos_as_xyz
  1  'x, y, z'
loop_
 _atom_site_type_symbol
 _atom_site_label
 _atom_site_symmetry_multiplicity
 _atom_site_fract_x
 _atom_site_fract_y
 _atom_site_fract_z
 _atom_site_occupancy
  Tb  Tb0  1  0.291387  0.708613  0.065820  1
  Tb  Tb1  1  0.998345  0.001655  0.842775  1
  Tb  Tb2  1  0.708613  0.291387  0.565820  1
  Tb  Tb3  1  0.001655  0.998345  0.342775  1
  Tb  Tb4  1  0.998345  0.001655  0.657225  1
  Tb  Tb5  1  0.708613  0.291387  0.934180  1
  Tb  Tb6  1  0.001655  0.998345  0.157225  1
  Tb  Tb7  1  0.291387  0.708613  0.434180  1
  Ho  Ho8  1  0.288108  0.711892  0.250000  1
  Ho  Ho9  1  0.711892  0.288108  0.750000  1
  Ga  Ga10  1  0.000000  0.000000  0.500000  1
  Ga  Ga11  1  0.000000  0.000000  0.000000  1
  Co  Co12  1  0.294090  0.705910  0.654376  1
  Co  Co13  1  0.581444  0.418556  0.441496  1
  Co  Co14  1  0.413355  0.586645  0.750000  1
  Co  Co15  1  0.418556  0.581444  0.941496  1
  Co  Co16  1  0.586645  0.413355  0.250000  1
  Co  Co17  1  0.418556  0.581444  0.558504  1
  Co  Co18  1  0.705910  0.294090  0.345624  1
  Co  Co19  1  0.705910  0.294090  0.154376  1
  Co  Co20  1  0.581444  0.418556  0.058504  1
  Co  Co21  1  0.294090  0.705910  0.845624  1
