# generated using pymatgen
data_Hf4Sc4Co7Si14Ir
_symmetry_space_group_name_H-M   'P 1'
_cell_length_a   9.51070932
_cell_length_b   9.50189727
_cell_length_c   9.52393036
_cell_angle_alpha   94.06934976
_cell_angle_beta   94.12940446
_cell_angle_gamma   148.95563377
_symmetry_Int_Tables_number   1
_chemical_formula_structural   Hf4Sc4Co7Si14Ir
_chemical_formula_sum   'Hf4 Sc4 Co7 Si14 Ir1'
_cell_volume   427.72258088
_cell_formula_units_Z   1
loop_
 _symmetry_equiv_pos_site_id
 _symmetry_equiv_pos_as_xyz
  1  'x, y, z'
loop_
 _atom_site_type_symbol
 _atom_site_label
 _atom_site_symmetry_multiplicity
 _atom_site_fract_x
 _atom_site_fract_y
 _atom_site_fract_z
 _atom_site_occupancy
  Hf  Hf0  1  0.303379  0.498697  0.802275  1
  Hf  Hf1  1  0.695542  0.499875  0.196442  1
  Hf  Hf2  1  0.500951  0.696627  0.196435  1
  Hf  Hf3  1  0.498854  0.303516  0.802262  1
  Sc  Sc4  1  0.138466  0.138481  0.276914  1
  Sc  Sc5  1  0.860976  0.860974  0.722007  1
  Sc  Sc6  1  0.136517  0.859220  0.999453  1
  Sc  Sc7  1  0.862900  0.140205  0.999436  1
  Co  Co8  1  0.395722  0.895717  0.791412  1
  Co  Co9  1  0.898598  0.101386  0.502219  1
  Co  Co10  1  0.603603  0.400767  0.502245  1
  Co  Co11  1  0.602226  0.102237  0.204482  1
  Co  Co12  1  0.898206  0.398209  0.796376  1
  Co  Co13  1  0.102878  0.897738  0.499981  1
  Co  Co14  1  0.397119  0.602310  0.499980  1
  Si  Si15  1  0.289598  0.289617  0.579167  1
  Si  Si16  1  0.710170  0.710170  0.420372  1
  Si  Si17  1  0.300303  0.718510  0.994028  1
  Si  Si18  1  0.693715  0.275521  0.994034  1
  Si  Si19  1  0.090991  0.498495  0.591853  1
  Si  Si20  1  0.895003  0.489034  0.414185  1
  Si  Si21  1  0.519197  0.925190  0.414188  1
  Si  Si22  1  0.500876  0.093333  0.591838  1
  Si  Si23  1  0.252668  0.253118  0.999556  1
  Si  Si24  1  0.746898  0.746442  0.999554  1
  Si  Si25  1  0.306761  0.013689  0.300985  1
  Si  Si26  1  0.701780  0.001016  0.701156  1
  Si  Si27  1  0.999426  0.700216  0.701164  1
  Si  Si28  1  0.994166  0.287207  0.300979  1
  Ir  Ir29  1  0.102513  0.602482  0.205019  1
