# generated using pymatgen
data_Hf18MnRe6BW2
_symmetry_space_group_name_H-M   'P 1'
_cell_length_a   8.54395300
_cell_length_b   8.54395332
_cell_length_c   8.50525700
_cell_angle_alpha   90.00000000
_cell_angle_beta   90.00000000
_cell_angle_gamma   119.99999491
_symmetry_Int_Tables_number   1
_chemical_formula_structural   Hf18MnRe6BW2
_chemical_formula_sum   'Hf18 Mn1 Re6 B1 W2'
_cell_volume   537.69477019
_cell_formula_units_Z   1
loop_
 _symmetry_equiv_pos_site_id
 _symmetry_equiv_pos_as_xyz
  1  'x, y, z'
loop_
 _atom_site_type_symbol
 _atom_site_label
 _atom_site_symmetry_multiplicity
 _atom_site_fract_x
 _atom_site_fract_y
 _atom_site_fract_z
 _atom_site_occupancy
  Hf  Hf0  1  0.201947  0.798053  0.443424  1
  Hf  Hf1  1  0.201947  0.403894  0.443424  1
  Hf  Hf2  1  0.596106  0.798053  0.443424  1
  Hf  Hf3  1  0.798636  0.201364  0.556166  1
  Hf  Hf4  1  0.798636  0.597271  0.556166  1
  Hf  Hf5  1  0.402729  0.201364  0.556166  1
  Hf  Hf6  1  0.798636  0.201364  0.943834  1
  Hf  Hf7  1  0.798636  0.597271  0.943834  1
  Hf  Hf8  1  0.402729  0.201364  0.943834  1
  Hf  Hf9  1  0.201947  0.798053  0.056576  1
  Hf  Hf10  1  0.201947  0.403894  0.056576  1
  Hf  Hf11  1  0.596106  0.798053  0.056576  1
  Hf  Hf12  1  0.539935  0.460065  0.250000  1
  Hf  Hf13  1  0.539935  0.079871  0.250000  1
  Hf  Hf14  1  0.920129  0.460065  0.250000  1
  Hf  Hf15  1  0.460603  0.539397  0.750000  1
  Hf  Hf16  1  0.460603  0.921207  0.750000  1
  Hf  Hf17  1  0.078793  0.539397  0.750000  1
  Mn  Mn18  1  0.333333  0.666667  0.250000  1
  Re  Re19  1  0.887825  0.112175  0.250000  1
  Re  Re20  1  0.887825  0.775652  0.250000  1
  Re  Re21  1  0.224348  0.112175  0.250000  1
  Re  Re22  1  0.111362  0.888638  0.750000  1
  Re  Re23  1  0.111362  0.222722  0.750000  1
  Re  Re24  1  0.777278  0.888638  0.750000  1
  B  B25  1  0.666667  0.333333  0.750000  1
  W  W26  1  0.000000  0.000000  0.499881  1
  W  W27  1  0.000000  0.000000  0.000119  1
