# generated using pymatgen
data_Nd3MnGaS7
_symmetry_space_group_name_H-M   'P 1'
_cell_length_a   10.00210701
_cell_length_b   10.00128912
_cell_length_c   6.21911300
_cell_angle_alpha   90.00000000
_cell_angle_beta   90.00000000
_cell_angle_gamma   120.00024581
_symmetry_Int_Tables_number   1
_chemical_formula_structural   Nd3MnGaS7
_chemical_formula_sum   'Nd6 Mn2 Ga2 S14'
_cell_volume   538.77257712
_cell_formula_units_Z   2
loop_
 _symmetry_equiv_pos_site_id
 _symmetry_equiv_pos_as_xyz
  1  'x, y, z'
loop_
 _atom_site_type_symbol
 _atom_site_label
 _atom_site_symmetry_multiplicity
 _atom_site_fract_x
 _atom_site_fract_y
 _atom_site_fract_z
 _atom_site_occupancy
  Nd  Nd0  1  0.146267  0.376721  0.234223  1
  Nd  Nd1  1  0.230467  0.853723  0.234252  1
  Nd  Nd2  1  0.623271  0.769548  0.234233  1
  Nd  Nd3  1  0.853734  0.623279  0.734224  1
  Nd  Nd4  1  0.769533  0.146277  0.734252  1
  Nd  Nd5  1  0.376728  0.230452  0.734234  1
  Mn  Mn6  1  0.000016  0.999887  0.030471  1
  Mn  Mn7  1  0.999984  0.000113  0.530472  1
  Ga  Ga8  1  0.666665  0.333341  0.157189  1
  Ga  Ga9  1  0.333336  0.666659  0.657190  1
  S  S10  1  0.905018  0.422802  0.002193  1
  S  S11  1  0.517764  0.094980  0.002195  1
  S  S12  1  0.577209  0.482234  0.002188  1
  S  S13  1  0.333339  0.666667  0.020958  1
  S  S14  1  0.857601  0.095934  0.307340  1
  S  S15  1  0.238275  0.142370  0.307359  1
  S  S16  1  0.904113  0.761780  0.307395  1
  S  S17  1  0.094982  0.577197  0.502193  1
  S  S18  1  0.482236  0.905021  0.502195  1
  S  S19  1  0.422792  0.517766  0.502189  1
  S  S20  1  0.666661  0.333332  0.520957  1
  S  S21  1  0.142398  0.904065  0.807340  1
  S  S22  1  0.761725  0.857629  0.807359  1
  S  S23  1  0.095887  0.238220  0.807395  1
