# generated using pymatgen
data_TbY3Ho4(ReB6)4
_symmetry_space_group_name_H-M   'P 1'
_cell_length_a   3.68249100
_cell_length_b   9.17828102
_cell_length_c   11.56857100
_cell_angle_alpha   89.99592053
_cell_angle_beta   90.00000000
_cell_angle_gamma   90.00000000
_symmetry_Int_Tables_number   1
_chemical_formula_structural   TbY3Ho4(ReB6)4
_chemical_formula_sum   'Tb1 Y3 Ho4 Re4 B24'
_cell_volume   391.00540436
_cell_formula_units_Z   1
loop_
 _symmetry_equiv_pos_site_id
 _symmetry_equiv_pos_as_xyz
  1  'x, y, z'
loop_
 _atom_site_type_symbol
 _atom_site_label
 _atom_site_symmetry_multiplicity
 _atom_site_fract_x
 _atom_site_fract_y
 _atom_site_fract_z
 _atom_site_occupancy
  Tb  Tb0  1  0.000000  0.176567  0.913946  1
  Y  Y1  1  0.000000  0.323243  0.414019  1
  Y  Y2  1  0.000000  0.676745  0.586090  1
  Y  Y3  1  0.000000  0.823295  0.085962  1
  Ho  Ho4  1  0.000000  0.943019  0.369956  1
  Ho  Ho5  1  0.000000  0.057019  0.629970  1
  Ho  Ho6  1  0.000000  0.442955  0.129915  1
  Ho  Ho7  1  0.000000  0.557104  0.870056  1
  Re  Re8  1  0.000000  0.638628  0.320511  1
  Re  Re9  1  0.000000  0.361303  0.679565  1
  Re  Re10  1  0.000000  0.138658  0.179371  1
  Re  Re11  1  0.000000  0.861384  0.820623  1
  B  B12  1  0.500000  0.553313  0.432684  1
  B  B13  1  0.500000  0.446566  0.567472  1
  B  B14  1  0.500000  0.053524  0.067204  1
  B  B15  1  0.500000  0.946788  0.932633  1
  B  B16  1  0.500000  0.749253  0.418200  1
  B  B17  1  0.500000  0.250736  0.581975  1
  B  B18  1  0.500000  0.249217  0.081601  1
  B  B19  1  0.500000  0.750890  0.918238  1
  B  B20  1  0.500000  0.791990  0.265457  1
  B  B21  1  0.500000  0.208017  0.734662  1
  B  B22  1  0.500000  0.291936  0.234247  1
  B  B23  1  0.500000  0.708136  0.765611  1
  B  B24  1  0.500000  0.630491  0.185586  1
  B  B25  1  0.500000  0.369336  0.814541  1
  B  B26  1  0.500000  0.130541  0.314219  1
  B  B27  1  0.500000  0.869616  0.685727  1
  B  B28  1  0.500000  0.982320  0.211961  1
  B  B29  1  0.500000  0.017786  0.787951  1
  B  B30  1  0.500000  0.482198  0.287810  1
  B  B31  1  0.500000  0.517598  0.712291  1
  B  B32  1  0.500000  0.599418  0.027779  1
  B  B33  1  0.500000  0.400371  0.972149  1
  B  B34  1  0.500000  0.099441  0.472206  1
  B  B35  1  0.500000  0.900601  0.527808  1
