# generated using pymatgen
data_Er2GaB2Ir2Rh3
_symmetry_space_group_name_H-M   'P 1'
_cell_length_a   9.51526901
_cell_length_b   9.50895701
_cell_length_c   3.18785500
_cell_angle_alpha   90.00000000
_cell_angle_beta   90.00000000
_cell_angle_gamma   89.99595826
_symmetry_Int_Tables_number   1
_chemical_formula_structural   Er2GaB2Ir2Rh3
_chemical_formula_sum   'Er4 Ga2 B4 Ir4 Rh6'
_cell_volume   288.43802464
_cell_formula_units_Z   2
loop_
 _symmetry_equiv_pos_site_id
 _symmetry_equiv_pos_as_xyz
  1  'x, y, z'
loop_
 _atom_site_type_symbol
 _atom_site_label
 _atom_site_symmetry_multiplicity
 _atom_site_fract_x
 _atom_site_fract_y
 _atom_site_fract_z
 _atom_site_occupancy
  Er  Er0  1  0.821652  0.322832  0.000000  1
  Er  Er1  1  0.324740  0.177878  0.000000  1
  Er  Er2  1  0.677162  0.822638  0.000000  1
  Er  Er3  1  0.176734  0.676118  0.000000  1
  Ga  Ga4  1  0.998908  0.999298  0.000000  1
  Ga  Ga5  1  0.500014  0.500389  0.000000  1
  B  B6  1  0.621585  0.120600  0.000000  1
  B  B7  1  0.120656  0.375413  0.000000  1
  B  B8  1  0.879301  0.621360  0.000000  1
  B  B9  1  0.375895  0.879654  0.000000  1
  Ir  Ir10  1  0.069667  0.219453  0.500000  1
  Ir  Ir11  1  0.220032  0.931372  0.500000  1
  Ir  Ir12  1  0.501542  0.000124  0.500000  1
  Ir  Ir13  1  0.998816  0.499996  0.500000  1
  Rh  Rh14  1  0.781576  0.070033  0.500000  1
  Rh  Rh15  1  0.930673  0.780973  0.500000  1
  Rh  Rh16  1  0.430569  0.718875  0.500000  1
  Rh  Rh17  1  0.570052  0.281444  0.500000  1
  Rh  Rh18  1  0.718854  0.570515  0.500000  1
  Rh  Rh19  1  0.281573  0.431035  0.500000  1
