# generated using pymatgen
data_YbAl2SiPt
_symmetry_space_group_name_H-M   'P 1'
_cell_length_a   4.07734423
_cell_length_b   4.07734423
_cell_length_c   6.26715853
_cell_angle_alpha   108.98339980
_cell_angle_beta   108.98340388
_cell_angle_gamma   90.00001351
_symmetry_Int_Tables_number   1
_chemical_formula_structural   YbAl2SiPt
_chemical_formula_sum   'Yb1 Al2 Si1 Pt1'
_cell_volume   92.51022394
_cell_formula_units_Z   1
loop_
 _symmetry_equiv_pos_site_id
 _symmetry_equiv_pos_as_xyz
  1  'x, y, z'
loop_
 _atom_site_type_symbol
 _atom_site_label
 _atom_site_symmetry_multiplicity
 _atom_site_fract_x
 _atom_site_fract_y
 _atom_site_fract_z
 _atom_site_occupancy
  Yb  Yb0  1  0.585990  0.585990  0.171983  1
  Al  Al1  1  0.338808  0.838808  0.677615  1
  Al  Al2  1  0.838808  0.338808  0.677615  1
  Si  Si3  1  0.986971  0.986971  0.973942  1
  Pt  Pt4  1  0.207221  0.207221  0.414443  1
