# generated using pymatgen
data_Tb3Ho(InGa2)2
_symmetry_space_group_name_H-M   'P 1'
_cell_length_a   7.23619595
_cell_length_b   7.23619595
_cell_length_c   4.45604600
_cell_angle_alpha   90.00000000
_cell_angle_beta   90.00000000
_cell_angle_gamma   90.35103459
_symmetry_Int_Tables_number   1
_chemical_formula_structural   Tb3Ho(InGa2)2
_chemical_formula_sum   'Tb3 Ho1 In2 Ga4'
_cell_volume   233.32547148
_cell_formula_units_Z   1
loop_
 _symmetry_equiv_pos_site_id
 _symmetry_equiv_pos_as_xyz
  1  'x, y, z'
loop_
 _atom_site_type_symbol
 _atom_site_label
 _atom_site_symmetry_multiplicity
 _atom_site_fract_x
 _atom_site_fract_y
 _atom_site_fract_z
 _atom_site_occupancy
  Tb  Tb0  1  0.328281  0.828281  0.500000  1
  Tb  Tb1  1  0.827130  0.672354  0.500000  1
  Tb  Tb2  1  0.172354  0.327130  0.500000  1
  Ho  Ho3  1  0.672187  0.172187  0.500000  1
  In  In4  1  0.999435  0.000561  0.000000  1
  In  In5  1  0.500561  0.499435  0.000000  1
  Ga  Ga6  1  0.125874  0.625874  0.000000  1
  Ga  Ga7  1  0.626157  0.874785  0.000000  1
  Ga  Ga8  1  0.374785  0.126157  0.000000  1
  Ga  Ga9  1  0.873235  0.373235  0.000000  1
