# generated using pymatgen
data_Ac4In5Ag3
_symmetry_space_group_name_H-M   'P 1'
_cell_length_a   5.08746900
_cell_length_b   8.16256975
_cell_length_c   8.49093175
_cell_angle_alpha   89.54739283
_cell_angle_beta   90.00000000
_cell_angle_gamma   90.00000000
_symmetry_Int_Tables_number   1
_chemical_formula_structural   Ac4In5Ag3
_chemical_formula_sum   'Ac4 In5 Ag3'
_cell_volume   352.59039762
_cell_formula_units_Z   1
loop_
 _symmetry_equiv_pos_site_id
 _symmetry_equiv_pos_as_xyz
  1  'x, y, z'
loop_
 _atom_site_type_symbol
 _atom_site_label
 _atom_site_symmetry_multiplicity
 _atom_site_fract_x
 _atom_site_fract_y
 _atom_site_fract_z
 _atom_site_occupancy
  Ac  Ac0  1  0.500000  0.485284  0.789644  1
  Ac  Ac1  1  0.500000  0.000815  0.719219  1
  Ac  Ac2  1  0.000000  0.496899  0.205219  1
  Ac  Ac3  1  0.000000  0.014049  0.286576  1
  In  In4  1  0.500000  0.802622  0.081057  1
  In  In5  1  0.500000  0.298865  0.411873  1
  In  In6  1  0.000000  0.199304  0.912154  1
  In  In7  1  0.000000  0.705988  0.595623  1
  In  In8  1  0.500000  0.690215  0.413827  1
  Ag  Ag9  1  0.500000  0.194452  0.082185  1
  Ag  Ag10  1  0.000000  0.305020  0.581475  1
  Ag  Ag11  1  0.000000  0.806489  0.921149  1
