# generated using pymatgen
data_LiBe8VIr2
_symmetry_space_group_name_H-M   'P 1'
_cell_length_a   4.30151200
_cell_length_b   4.30151142
_cell_length_c   7.07731700
_cell_angle_alpha   90.00000000
_cell_angle_beta   90.00000000
_cell_angle_gamma   120.00000444
_symmetry_Int_Tables_number   1
_chemical_formula_structural   LiBe8VIr2
_chemical_formula_sum   'Li1 Be8 V1 Ir2'
_cell_volume   113.40742252
_cell_formula_units_Z   1
loop_
 _symmetry_equiv_pos_site_id
 _symmetry_equiv_pos_as_xyz
  1  'x, y, z'
loop_
 _atom_site_type_symbol
 _atom_site_label
 _atom_site_symmetry_multiplicity
 _atom_site_fract_x
 _atom_site_fract_y
 _atom_site_fract_z
 _atom_site_occupancy
  Li  Li0  1  0.666667  0.333333  0.934411  1
  Be  Be1  1  0.000000  0.000000  0.999056  1
  Be  Be2  1  0.000000  0.000000  0.504857  1
  Be  Be3  1  0.832625  0.665249  0.245739  1
  Be  Be4  1  0.170264  0.829736  0.756020  1
  Be  Be5  1  0.659471  0.829736  0.756020  1
  Be  Be6  1  0.334751  0.167375  0.245739  1
  Be  Be7  1  0.832625  0.167375  0.245739  1
  Be  Be8  1  0.170264  0.340529  0.756020  1
  V  V9  1  0.333333  0.666667  0.437487  1
  Ir  Ir10  1  0.333333  0.666667  0.067270  1
  Ir  Ir11  1  0.666667  0.333333  0.551639  1
