# generated using pymatgen
data_Sc4Ga4FeTc3
_symmetry_space_group_name_H-M   'P 1'
_cell_length_a   5.23583807
_cell_length_b   5.24075893
_cell_length_c   8.44668400
_cell_angle_alpha   90.00000000
_cell_angle_beta   90.00000000
_cell_angle_gamma   119.44002599
_symmetry_Int_Tables_number   1
_chemical_formula_structural   Sc4Ga4FeTc3
_chemical_formula_sum   'Sc4 Ga4 Fe1 Tc3'
_cell_volume   201.84606893
_cell_formula_units_Z   1
loop_
 _symmetry_equiv_pos_site_id
 _symmetry_equiv_pos_as_xyz
  1  'x, y, z'
loop_
 _atom_site_type_symbol
 _atom_site_label
 _atom_site_symmetry_multiplicity
 _atom_site_fract_x
 _atom_site_fract_y
 _atom_site_fract_z
 _atom_site_occupancy
  Sc  Sc0  1  0.329342  0.666507  0.437637  1
  Sc  Sc1  1  0.661504  0.330367  0.557374  1
  Sc  Sc2  1  0.661504  0.330367  0.942626  1
  Sc  Sc3  1  0.329342  0.666507  0.062363  1
  Ga  Ga4  1  0.831444  0.647731  0.250000  1
  Ga  Ga5  1  0.342220  0.160462  0.250000  1
  Ga  Ga6  1  0.188918  0.844052  0.750000  1
  Ga  Ga7  1  0.192635  0.353964  0.750000  1
  Fe  Fe8  1  0.833350  0.155795  0.250000  1
  Tc  Tc9  1  0.974021  0.000327  0.498301  1
  Tc  Tc10  1  0.974021  0.000327  0.001699  1
  Tc  Tc11  1  0.681701  0.843594  0.750000  1
