# generated using pymatgen
data_Ga5Fe6CuRh12
_symmetry_space_group_name_H-M   'P 1'
_cell_length_a   4.26935600
_cell_length_b   6.03679600
_cell_length_c   12.78070000
_cell_angle_alpha   90.00000000
_cell_angle_beta   89.99902823
_cell_angle_gamma   90.00000000
_symmetry_Int_Tables_number   1
_chemical_formula_structural   Ga5Fe6CuRh12
_chemical_formula_sum   'Ga5 Fe6 Cu1 Rh12'
_cell_volume   329.39993627
_cell_formula_units_Z   1
loop_
 _symmetry_equiv_pos_site_id
 _symmetry_equiv_pos_as_xyz
  1  'x, y, z'
loop_
 _atom_site_type_symbol
 _atom_site_label
 _atom_site_symmetry_multiplicity
 _atom_site_fract_x
 _atom_site_fract_y
 _atom_site_fract_z
 _atom_site_occupancy
  Ga  Ga0  1  0.499729  0.500000  0.165884  1
  Ga  Ga1  1  0.999734  0.000000  0.332914  1
  Ga  Ga2  1  0.500001  0.500000  0.500000  1
  Ga  Ga3  1  0.000265  0.000000  0.667086  1
  Ga  Ga4  1  0.500270  0.500000  0.834116  1
  Fe  Fe5  1  0.000000  0.500000  0.000000  1
  Fe  Fe6  1  0.499856  0.000000  0.161668  1
  Fe  Fe7  1  0.999871  0.500000  0.332362  1
  Fe  Fe8  1  0.500001  0.000000  0.500000  1
  Fe  Fe9  1  0.000130  0.500000  0.667638  1
  Fe  Fe10  1  0.500145  0.000000  0.838332  1
  Cu  Cu11  1  0.000000  0.000000  0.000000  1
  Rh  Rh12  1  0.500001  0.251801  0.000000  1
  Rh  Rh13  1  0.500001  0.748199  0.000000  1
  Rh  Rh14  1  0.999803  0.251002  0.168244  1
  Rh  Rh15  1  0.999803  0.748999  0.168244  1
  Rh  Rh16  1  0.499817  0.249011  0.333726  1
  Rh  Rh17  1  0.499817  0.750987  0.333726  1
  Rh  Rh18  1  0.000000  0.250842  0.500000  1
  Rh  Rh19  1  0.000000  0.749158  0.500000  1
  Rh  Rh20  1  0.500184  0.249011  0.666274  1
  Rh  Rh21  1  0.500184  0.750987  0.666274  1
  Rh  Rh22  1  0.000199  0.251002  0.831756  1
  Rh  Rh23  1  0.000199  0.748999  0.831756  1
