# generated using pymatgen
data_Zr5Co16Tc3(Ge3P)3
_symmetry_space_group_name_H-M   'P 1'
_cell_length_a   12.26316100
_cell_length_b   12.26316215
_cell_length_c   3.72772600
_cell_angle_alpha   90.00000000
_cell_angle_beta   90.00000000
_cell_angle_gamma   119.99999959
_symmetry_Int_Tables_number   1
_chemical_formula_structural   Zr5Co16Tc3(Ge3P)3
_chemical_formula_sum   'Zr5 Co16 Tc3 Ge9 P3'
_cell_volume   485.48913744
_cell_formula_units_Z   1
loop_
 _symmetry_equiv_pos_site_id
 _symmetry_equiv_pos_as_xyz
  1  'x, y, z'
loop_
 _atom_site_type_symbol
 _atom_site_label
 _atom_site_symmetry_multiplicity
 _atom_site_fract_x
 _atom_site_fract_y
 _atom_site_fract_z
 _atom_site_occupancy
  Zr  Zr0  1  0.666667  0.333333  0.000000  1
  Zr  Zr1  1  0.333333  0.666667  0.000000  1
  Zr  Zr2  1  0.821947  0.821947  0.500000  1
  Zr  Zr3  1  0.178053  0.000000  0.500000  1
  Zr  Zr4  1  0.000000  0.178053  0.500000  1
  Co  Co5  1  0.194895  0.364833  0.000000  1
  Co  Co6  1  0.169938  0.805105  0.000000  1
  Co  Co7  1  0.830062  0.635167  0.000000  1
  Co  Co8  1  0.805105  0.169938  0.000000  1
  Co  Co9  1  0.364833  0.194895  0.000000  1
  Co  Co10  1  0.124595  0.476232  0.500000  1
  Co  Co11  1  0.351637  0.875405  0.500000  1
  Co  Co12  1  0.523768  0.648363  0.500000  1
  Co  Co13  1  0.648363  0.523768  0.500000  1
  Co  Co14  1  0.875405  0.351637  0.500000  1
  Co  Co15  1  0.476232  0.124595  0.500000  1
  Co  Co16  1  0.000000  0.000000  0.000000  1
  Co  Co17  1  0.729981  0.000000  0.500000  1
  Co  Co18  1  0.000000  0.729981  0.500000  1
  Co  Co19  1  0.635167  0.830062  0.000000  1
  Co  Co20  1  0.270019  0.270019  0.500000  1
  Tc  Tc21  1  0.442201  0.442201  0.000000  1
  Tc  Tc22  1  0.557799  0.000000  0.000000  1
  Tc  Tc23  1  0.000000  0.557799  0.000000  1
  Ge  Ge24  1  0.643656  0.643656  0.000000  1
  Ge  Ge25  1  0.356344  0.000000  0.000000  1
  Ge  Ge26  1  0.000000  0.356344  0.000000  1
  Ge  Ge27  1  0.482225  0.317487  0.500000  1
  Ge  Ge28  1  0.682513  0.164740  0.500000  1
  Ge  Ge29  1  0.835260  0.517775  0.500000  1
  Ge  Ge30  1  0.517775  0.835260  0.500000  1
  Ge  Ge31  1  0.164740  0.682513  0.500000  1
  Ge  Ge32  1  0.317487  0.482225  0.500000  1
  P  P33  1  0.825156  0.000000  0.000000  1
  P  P34  1  0.000000  0.825156  0.000000  1
  P  P35  1  0.174844  0.174844  0.000000  1
