# generated using pymatgen
data_Gd2MoWC3
_symmetry_space_group_name_H-M   'P 1'
_cell_length_a   6.19103402
_cell_length_b   6.19103367
_cell_length_c   5.77806178
_cell_angle_alpha   67.61013958
_cell_angle_beta   67.61013921
_cell_angle_gamma   31.52355696
_symmetry_Int_Tables_number   1
_chemical_formula_structural   Gd2MoWC3
_chemical_formula_sum   'Gd2 Mo1 W1 C3'
_cell_volume   106.33816433
_cell_formula_units_Z   1
loop_
 _symmetry_equiv_pos_site_id
 _symmetry_equiv_pos_as_xyz
  1  'x, y, z'
loop_
 _atom_site_type_symbol
 _atom_site_label
 _atom_site_symmetry_multiplicity
 _atom_site_fract_x
 _atom_site_fract_y
 _atom_site_fract_z
 _atom_site_occupancy
  Gd  Gd0  1  0.391255  0.391255  0.821344  1
  Gd  Gd1  1  0.608602  0.608602  0.181844  1
  Mo  Mo2  1  0.842832  0.842832  0.323969  1
  W  W3  1  0.158227  0.158227  0.673873  1
  C  C4  1  0.000675  0.000675  0.997730  1
  C  C5  1  0.249070  0.249070  0.268383  1
  C  C6  1  0.749340  0.749340  0.732859  1
