# generated using pymatgen
data_NdPa(Al5Re)4
_symmetry_space_group_name_H-M   'P 1'
_cell_length_a   6.92130329
_cell_length_b   6.92130307
_cell_length_c   9.22034700
_cell_angle_alpha   90.00000000
_cell_angle_beta   90.00000000
_cell_angle_gamma   97.03252024
_symmetry_Int_Tables_number   1
_chemical_formula_structural   NdPa(Al5Re)4
_chemical_formula_sum   'Nd1 Pa1 Al20 Re4'
_cell_volume   438.37258397
_cell_formula_units_Z   1
loop_
 _symmetry_equiv_pos_site_id
 _symmetry_equiv_pos_as_xyz
  1  'x, y, z'
loop_
 _atom_site_type_symbol
 _atom_site_label
 _atom_site_symmetry_multiplicity
 _atom_site_fract_x
 _atom_site_fract_y
 _atom_site_fract_z
 _atom_site_occupancy
  Nd  Nd0  1  0.128643  0.871357  0.250000  1
  Pa  Pa1  1  0.867227  0.132773  0.750000  1
  Al  Al2  1  0.622318  0.377682  0.549436  1
  Al  Al3  1  0.376470  0.623530  0.468553  1
  Al  Al4  1  0.376470  0.623530  0.031447  1
  Al  Al5  1  0.622318  0.377682  0.950564  1
  Al  Al6  1  0.227196  0.224130  0.500332  1
  Al  Al7  1  0.775870  0.772804  0.500332  1
  Al  Al8  1  0.775870  0.772804  0.999668  1
  Al  Al9  1  0.227196  0.224130  0.999668  1
  Al  Al10  1  0.842995  0.157005  0.098215  1
  Al  Al11  1  0.152196  0.847804  0.899225  1
  Al  Al12  1  0.152196  0.847804  0.600775  1
  Al  Al13  1  0.842995  0.157005  0.401785  1
  Al  Al14  1  0.858681  0.591247  0.750000  1
  Al  Al15  1  0.138277  0.402122  0.250000  1
  Al  Al16  1  0.408753  0.141319  0.750000  1
  Al  Al17  1  0.597878  0.861723  0.250000  1
  Al  Al18  1  0.215487  0.478014  0.750000  1
  Al  Al19  1  0.785719  0.524554  0.250000  1
  Al  Al20  1  0.521986  0.784513  0.750000  1
  Al  Al21  1  0.475446  0.214281  0.250000  1
  Re  Re22  1  0.999460  0.495556  0.502244  1
  Re  Re23  1  0.999460  0.495556  0.997756  1
  Re  Re24  1  0.504444  0.000540  0.997756  1
  Re  Re25  1  0.504444  0.000540  0.502244  1
