# generated using pymatgen
data_TbYb2Ga9Ag2
_symmetry_space_group_name_H-M   'P 1'
_cell_length_a   8.28452749
_cell_length_b   8.28452718
_cell_length_c   8.28452783
_cell_angle_alpha   148.70231441
_cell_angle_beta   110.66534075
_cell_angle_gamma   78.03063615
_symmetry_Int_Tables_number   1
_chemical_formula_structural   TbYb2Ga9Ag2
_chemical_formula_sum   'Tb1 Yb2 Ga9 Ag2'
_cell_volume   271.13532382
_cell_formula_units_Z   1
loop_
 _symmetry_equiv_pos_site_id
 _symmetry_equiv_pos_as_xyz
  1  'x, y, z'
loop_
 _atom_site_type_symbol
 _atom_site_label
 _atom_site_symmetry_multiplicity
 _atom_site_fract_x
 _atom_site_fract_y
 _atom_site_fract_z
 _atom_site_occupancy
  Tb  Tb0  1  0.500000  0.500000  0.000000  1
  Yb  Yb1  1  0.202413  0.202413  0.000000  1
  Yb  Yb2  1  0.797587  0.797587  0.000000  1
  Ga  Ga3  1  0.074417  0.355185  0.719232  1
  Ga  Ga4  1  0.925583  0.644815  0.280768  1
  Ga  Ga5  1  0.635954  0.355185  0.280768  1
  Ga  Ga6  1  0.364046  0.644815  0.719232  1
  Ga  Ga7  1  0.792803  0.159325  0.633479  1
  Ga  Ga8  1  0.207197  0.840675  0.366521  1
  Ga  Ga9  1  0.525846  0.159325  0.366521  1
  Ga  Ga10  1  0.474154  0.840675  0.633479  1
  Ga  Ga11  1  0.000000  0.500000  0.500000  1
  Ag  Ag12  1  0.817179  0.000000  0.817179  1
  Ag  Ag13  1  0.182821  0.000000  0.182821  1
