# generated using pymatgen
data_Y16In4CuRu3
_symmetry_space_group_name_H-M   'P 1'
_cell_length_a   9.71152057
_cell_length_b   9.71621077
_cell_length_c   9.72109869
_cell_angle_alpha   59.90347526
_cell_angle_beta   59.87728516
_cell_angle_gamma   59.84922420
_symmetry_Int_Tables_number   1
_chemical_formula_structural   Y16In4CuRu3
_chemical_formula_sum   'Y16 In4 Cu1 Ru3'
_cell_volume   646.79584327
_cell_formula_units_Z   1
loop_
 _symmetry_equiv_pos_site_id
 _symmetry_equiv_pos_as_xyz
  1  'x, y, z'
loop_
 _atom_site_type_symbol
 _atom_site_label
 _atom_site_symmetry_multiplicity
 _atom_site_fract_x
 _atom_site_fract_y
 _atom_site_fract_z
 _atom_site_occupancy
  Y  Y0  1  0.102594  0.698814  0.103019  1
  Y  Y1  1  0.941424  0.941844  0.551818  1
  Y  Y2  1  0.941066  0.551701  0.941825  1
  Y  Y3  1  0.309201  0.691552  0.308610  1
  Y  Y4  1  0.940816  0.558545  0.558573  1
  Y  Y5  1  0.309215  0.308861  0.691416  1
  Y  Y6  1  0.099303  0.099031  0.098709  1
  Y  Y7  1  0.558195  0.558145  0.941568  1
  Y  Y8  1  0.102836  0.103086  0.698707  1
  Y  Y9  1  0.689601  0.314816  0.689711  1
  Y  Y10  1  0.689580  0.689618  0.314767  1
  Y  Y11  1  0.691719  0.308917  0.308608  1
  Y  Y12  1  0.314876  0.689705  0.689746  1
  Y  Y13  1  0.558359  0.941225  0.558341  1
  Y  Y14  1  0.698958  0.102564  0.102729  1
  Y  Y15  1  0.551616  0.941061  0.941429  1
  In  In16  1  0.332637  0.332904  0.333129  1
  In  In17  1  0.000925  0.333322  0.333261  1
  In  In18  1  0.333507  0.000650  0.333324  1
  In  In19  1  0.333541  0.333454  0.000412  1
  Cu  Cu20  1  0.891505  0.891482  0.891440  1
  Ru  Ru21  1  0.891068  0.890894  0.327006  1
  Ru  Ru22  1  0.326276  0.891143  0.890997  1
  Ru  Ru23  1  0.891184  0.326666  0.890855  1
