# generated using pymatgen
data_Sc3Al3GaAu2
_symmetry_space_group_name_H-M   'P 1'
_cell_length_a   6.87238500
_cell_length_b   6.87238562
_cell_length_c   8.19413300
_cell_angle_alpha   90.00000000
_cell_angle_beta   90.00000000
_cell_angle_gamma   119.99999220
_symmetry_Int_Tables_number   1
_chemical_formula_structural   Sc3Al3GaAu2
_chemical_formula_sum   'Sc6 Al6 Ga2 Au4'
_cell_volume   335.15729475
_cell_formula_units_Z   2
loop_
 _symmetry_equiv_pos_site_id
 _symmetry_equiv_pos_as_xyz
  1  'x, y, z'
loop_
 _atom_site_type_symbol
 _atom_site_label
 _atom_site_symmetry_multiplicity
 _atom_site_fract_x
 _atom_site_fract_y
 _atom_site_fract_z
 _atom_site_occupancy
  Sc  Sc0  1  0.579597  0.000311  0.750000  1
  Sc  Sc1  1  0.999689  0.579286  0.750000  1
  Sc  Sc2  1  0.420714  0.420403  0.750000  1
  Sc  Sc3  1  0.994415  0.577448  0.250000  1
  Sc  Sc4  1  0.583033  0.005585  0.250000  1
  Sc  Sc5  1  0.422552  0.416967  0.250000  1
  Al  Al6  1  0.750167  0.754815  0.000135  1
  Al  Al7  1  0.245185  0.995352  0.000135  1
  Al  Al8  1  0.004648  0.249833  0.000135  1
  Al  Al9  1  0.750167  0.754815  0.499865  1
  Al  Al10  1  0.245185  0.995352  0.499865  1
  Al  Al11  1  0.004648  0.249833  0.499865  1
  Ga  Ga12  1  0.666667  0.333333  0.997877  1
  Ga  Ga13  1  0.666667  0.333333  0.502123  1
  Au  Au14  1  0.000000  0.000000  0.750000  1
  Au  Au15  1  0.000000  0.000000  0.250000  1
  Au  Au16  1  0.333333  0.666667  0.496616  1
  Au  Au17  1  0.333333  0.666667  0.003384  1
