# generated using pymatgen
data_Y3ErAl18Ir4PdPt
_symmetry_space_group_name_H-M   'P 1'
_cell_length_a   7.58072668
_cell_length_b   7.58214711
_cell_length_c   9.47034306
_cell_angle_alpha   89.97312459
_cell_angle_beta   89.95809728
_cell_angle_gamma   119.57114201
_symmetry_Int_Tables_number   1
_chemical_formula_structural   Y3ErAl18Ir4PdPt
_chemical_formula_sum   'Y3 Er1 Al18 Ir4 Pd1 Pt1'
_cell_volume   473.43426326
_cell_formula_units_Z   1
loop_
 _symmetry_equiv_pos_site_id
 _symmetry_equiv_pos_as_xyz
  1  'x, y, z'
loop_
 _atom_site_type_symbol
 _atom_site_label
 _atom_site_symmetry_multiplicity
 _atom_site_fract_x
 _atom_site_fract_y
 _atom_site_fract_z
 _atom_site_occupancy
  Y  Y0  1  0.995889  0.671553  0.249575  1
  Y  Y1  1  0.004881  0.328774  0.750483  1
  Y  Y2  1  0.670942  0.995017  0.249535  1
  Er  Er3  1  0.328172  0.003810  0.750528  1
  Al  Al4  1  0.130385  0.129570  0.248112  1
  Al  Al5  1  0.870904  0.869796  0.751749  1
  Al  Al6  1  0.003345  0.334622  0.075148  1
  Al  Al7  1  0.003384  0.669295  0.924230  1
  Al  Al8  1  0.999090  0.661314  0.576859  1
  Al  Al9  1  0.339100  0.001380  0.424456  1
  Al  Al10  1  0.001558  0.338955  0.423622  1
  Al  Al11  1  0.660571  0.998560  0.577162  1
  Al  Al12  1  0.665024  0.996790  0.924149  1
  Al  Al13  1  0.331179  0.997185  0.074514  1
  Al  Al14  1  0.336541  0.336088  0.555370  1
  Al  Al15  1  0.663439  0.663349  0.445657  1
  Al  Al16  1  0.666541  0.669825  0.052663  1
  Al  Al17  1  0.330323  0.333256  0.946326  1
  Al  Al18  1  0.339760  0.548771  0.249650  1
  Al  Al19  1  0.659768  0.452162  0.748060  1
  Al  Al20  1  0.547040  0.339240  0.251971  1
  Al  Al21  1  0.451171  0.660691  0.750311  1
  Ir  Ir22  1  0.328104  0.672027  0.999759  1
  Ir  Ir23  1  0.328002  0.672104  0.500240  1
  Ir  Ir24  1  0.672249  0.327649  0.500233  1
  Ir  Ir25  1  0.000177  0.000346  0.999651  1
  Pd  Pd26  1  0.000351  0.000078  0.500242  1
  Pt  Pt27  1  0.672110  0.327792  0.999742  1
