# generated using pymatgen
data_DyHo2(Al3Ni2)3
_symmetry_space_group_name_H-M   'P 1'
_cell_length_a   9.02862900
_cell_length_b   9.02862918
_cell_length_c   4.05463200
_cell_angle_alpha   90.00000000
_cell_angle_beta   90.00000000
_cell_angle_gamma   120.00000299
_symmetry_Int_Tables_number   1
_chemical_formula_structural   DyHo2(Al3Ni2)3
_chemical_formula_sum   'Dy1 Ho2 Al9 Ni6'
_cell_volume   286.23694383
_cell_formula_units_Z   1
loop_
 _symmetry_equiv_pos_site_id
 _symmetry_equiv_pos_as_xyz
  1  'x, y, z'
loop_
 _atom_site_type_symbol
 _atom_site_label
 _atom_site_symmetry_multiplicity
 _atom_site_fract_x
 _atom_site_fract_y
 _atom_site_fract_z
 _atom_site_occupancy
  Dy  Dy0  1  0.333333  0.666667  0.500000  1
  Ho  Ho1  1  0.666667  0.333333  0.500000  1
  Ho  Ho2  1  0.000000  0.000000  0.000000  1
  Al  Al3  1  0.500064  0.000129  0.000000  1
  Al  Al4  1  0.999871  0.499936  0.000000  1
  Al  Al5  1  0.500064  0.499936  0.000000  1
  Al  Al6  1  0.297617  0.000183  0.500000  1
  Al  Al7  1  0.702566  0.000183  0.500000  1
  Al  Al8  1  0.999817  0.297434  0.500000  1
  Al  Al9  1  0.999817  0.702383  0.500000  1
  Al  Al10  1  0.702566  0.702383  0.500000  1
  Al  Al11  1  0.297617  0.297434  0.500000  1
  Ni  Ni12  1  0.180607  0.361214  0.000000  1
  Ni  Ni13  1  0.819172  0.638344  0.000000  1
  Ni  Ni14  1  0.638786  0.819393  0.000000  1
  Ni  Ni15  1  0.361656  0.180828  0.000000  1
  Ni  Ni16  1  0.180607  0.819393  0.000000  1
  Ni  Ni17  1  0.819172  0.180828  0.000000  1
