# generated using pymatgen
data_TbCe(B2Ir3)3
_symmetry_space_group_name_H-M   'P 1'
_cell_length_a   5.66959600
_cell_length_b   5.66959672
_cell_length_c   8.63850700
_cell_angle_alpha   90.00000000
_cell_angle_beta   90.00000000
_cell_angle_gamma   119.99999578
_symmetry_Int_Tables_number   1
_chemical_formula_structural   TbCe(B2Ir3)3
_chemical_formula_sum   'Tb1 Ce1 B6 Ir9'
_cell_volume   240.47704229
_cell_formula_units_Z   1
loop_
 _symmetry_equiv_pos_site_id
 _symmetry_equiv_pos_as_xyz
  1  'x, y, z'
loop_
 _atom_site_type_symbol
 _atom_site_label
 _atom_site_symmetry_multiplicity
 _atom_site_fract_x
 _atom_site_fract_y
 _atom_site_fract_z
 _atom_site_occupancy
  Tb  Tb0  1  0.000000  0.000000  0.296039  1
  Ce  Ce1  1  0.000000  0.000000  0.702477  1
  B  B2  1  0.666667  0.333333  0.001675  1
  B  B3  1  0.333333  0.666667  0.001675  1
  B  B4  1  0.666667  0.333333  0.667192  1
  B  B5  1  0.333333  0.666667  0.667192  1
  B  B6  1  0.333333  0.666667  0.331452  1
  B  B7  1  0.666667  0.333333  0.331452  1
  Ir  Ir8  1  0.500000  0.500000  0.836251  1
  Ir  Ir9  1  0.500000  0.000000  0.836251  1
  Ir  Ir10  1  0.000000  0.500000  0.836251  1
  Ir  Ir11  1  0.500000  0.500000  0.164504  1
  Ir  Ir12  1  0.500000  0.000000  0.164504  1
  Ir  Ir13  1  0.000000  0.500000  0.164504  1
  Ir  Ir14  1  0.500000  0.500000  0.499527  1
  Ir  Ir15  1  0.500000  0.000000  0.499527  1
  Ir  Ir16  1  0.000000  0.500000  0.499527  1
