# generated using pymatgen
data_Ho7Pa(Si4Mo3)4
_symmetry_space_group_name_H-M   'P 1'
_cell_length_a   6.77416020
_cell_length_b   6.95289159
_cell_length_c   12.93044900
_cell_angle_alpha   90.06674862
_cell_angle_beta   90.01408255
_cell_angle_gamma   90.02861133
_symmetry_Int_Tables_number   1
_chemical_formula_structural   Ho7Pa(Si4Mo3)4
_chemical_formula_sum   'Ho7 Pa1 Si16 Mo12'
_cell_volume   609.02365946
_cell_formula_units_Z   1
loop_
 _symmetry_equiv_pos_site_id
 _symmetry_equiv_pos_as_xyz
  1  'x, y, z'
loop_
 _atom_site_type_symbol
 _atom_site_label
 _atom_site_symmetry_multiplicity
 _atom_site_fract_x
 _atom_site_fract_y
 _atom_site_fract_z
 _atom_site_occupancy
  Ho  Ho0  1  0.496645  0.332796  0.093435  1
  Ho  Ho1  1  0.996185  0.167005  0.406786  1
  Ho  Ho2  1  0.502446  0.666982  0.594360  1
  Ho  Ho3  1  0.002525  0.834298  0.905057  1
  Ho  Ho4  1  0.501802  0.667832  0.904515  1
  Ho  Ho5  1  0.002416  0.832658  0.594319  1
  Ho  Ho6  1  0.496418  0.332595  0.407127  1
  Pa  Pa7  1  0.996814  0.168850  0.095731  1
  Si  Si8  1  0.658731  0.041985  0.546544  1
  Si  Si9  1  0.160444  0.459339  0.953794  1
  Si  Si10  1  0.342770  0.955565  0.045646  1
  Si  Si11  1  0.841229  0.541053  0.453337  1
  Si  Si12  1  0.340546  0.958154  0.453444  1
  Si  Si13  1  0.839906  0.546283  0.045388  1
  Si  Si14  1  0.658846  0.042439  0.952973  1
  Si  Si15  1  0.159069  0.458466  0.546460  1
  Si  Si16  1  0.534943  0.365315  0.749985  1
  Si  Si17  1  0.035716  0.134659  0.749425  1
  Si  Si18  1  0.465711  0.635323  0.249096  1
  Si  Si19  1  0.964915  0.862846  0.251331  1
  Si  Si20  1  0.802533  0.629177  0.749648  1
  Si  Si21  1  0.303185  0.870855  0.749547  1
  Si  Si22  1  0.199402  0.372382  0.251800  1
  Si  Si23  1  0.693652  0.128162  0.251929  1
  Mo  Mo24  1  0.832444  0.334003  0.625134  1
  Mo  Mo25  1  0.330757  0.164058  0.875495  1
  Mo  Mo26  1  0.169795  0.662591  0.124917  1
  Mo  Mo27  1  0.667450  0.833408  0.375466  1
  Mo  Mo28  1  0.168666  0.665668  0.375394  1
  Mo  Mo29  1  0.672785  0.840569  0.124880  1
  Mo  Mo30  1  0.833439  0.332742  0.876463  1
  Mo  Mo31  1  0.330484  0.165299  0.624703  1
  Mo  Mo32  1  0.666140  0.999464  0.749436  1
  Mo  Mo33  1  0.164826  0.501710  0.750298  1
  Mo  Mo34  1  0.330752  0.004650  0.248150  1
  Mo  Mo35  1  0.835611  0.490822  0.247991  1
