# generated using pymatgen
data_Dy11Th5Mg2(HgRu2)2
_symmetry_space_group_name_H-M   'P 1'
_cell_length_a   9.66877767
_cell_length_b   9.75479597
_cell_length_c   9.77409872
_cell_angle_alpha   59.84369032
_cell_angle_beta   60.12581092
_cell_angle_gamma   60.25634791
_symmetry_Int_Tables_number   1
_chemical_formula_structural   Dy11Th5Mg2(HgRu2)2
_chemical_formula_sum   'Dy11 Th5 Mg2 Hg2 Ru4'
_cell_volume   652.95019193
_cell_formula_units_Z   1
loop_
 _symmetry_equiv_pos_site_id
 _symmetry_equiv_pos_as_xyz
  1  'x, y, z'
loop_
 _atom_site_type_symbol
 _atom_site_label
 _atom_site_symmetry_multiplicity
 _atom_site_fract_x
 _atom_site_fract_y
 _atom_site_fract_z
 _atom_site_occupancy
  Dy  Dy0  1  0.185132  0.812692  0.813141  1
  Dy  Dy1  1  0.191222  0.807776  0.187563  1
  Dy  Dy2  1  0.812417  0.184388  0.809803  1
  Dy  Dy3  1  0.190682  0.186255  0.809133  1
  Dy  Dy4  1  0.809067  0.806516  0.187535  1
  Dy  Dy5  1  0.931672  0.567020  0.567862  1
  Dy  Dy6  1  0.563288  0.933902  0.936808  1
  Dy  Dy7  1  0.562431  0.934811  0.564225  1
  Dy  Dy8  1  0.935337  0.563029  0.938125  1
  Dy  Dy9  1  0.562348  0.563157  0.938023  1
  Dy  Dy10  1  0.936663  0.935927  0.563909  1
  Th  Th11  1  0.342083  0.348369  0.348412  1
  Th  Th12  1  0.347792  0.347475  0.958311  1
  Th  Th13  1  0.349243  0.956012  0.348015  1
  Th  Th14  1  0.955405  0.351634  0.350607  1
  Th  Th15  1  0.815905  0.182861  0.185942  1
  Mg  Mg16  1  0.578909  0.267297  0.577269  1
  Mg  Mg17  1  0.269143  0.578963  0.574128  1
  Hg  Hg18  1  0.583267  0.582873  0.588737  1
  Hg  Hg19  1  0.581272  0.585303  0.244887  1
  Ru  Ru20  1  0.129645  0.146687  0.147402  1
  Ru  Ru21  1  0.145395  0.141651  0.568996  1
  Ru  Ru22  1  0.144953  0.567952  0.142755  1
  Ru  Ru23  1  0.576731  0.147450  0.148410  1
