# generated using pymatgen
data_Tb8Zr12Si15Ge
_symmetry_space_group_name_H-M   'P 1'
_cell_length_a   7.35694009
_cell_length_b   7.36396154
_cell_length_c   13.53676504
_cell_angle_alpha   89.93355211
_cell_angle_beta   89.99198618
_cell_angle_gamma   89.96742446
_symmetry_Int_Tables_number   1
_chemical_formula_structural   Tb8Zr12Si15Ge
_chemical_formula_sum   'Tb8 Zr12 Si15 Ge1'
_cell_volume   733.37019503
_cell_formula_units_Z   1
loop_
 _symmetry_equiv_pos_site_id
 _symmetry_equiv_pos_as_xyz
  1  'x, y, z'
loop_
 _atom_site_type_symbol
 _atom_site_label
 _atom_site_symmetry_multiplicity
 _atom_site_fract_x
 _atom_site_fract_y
 _atom_site_fract_z
 _atom_site_occupancy
  Tb  Tb0  1  0.995117  0.345639  0.213720  1
  Tb  Tb1  1  0.003909  0.654582  0.714388  1
  Tb  Tb2  1  0.153090  0.498146  0.465276  1
  Tb  Tb3  1  0.504293  0.844876  0.035251  1
  Tb  Tb4  1  0.845567  0.503800  0.964075  1
  Tb  Tb5  1  0.496806  0.153848  0.536602  1
  Tb  Tb6  1  0.345332  0.996208  0.785739  1
  Tb  Tb7  1  0.655470  0.002731  0.285431  1
  Zr  Zr8  1  0.174959  0.175204  0.999843  1
  Zr  Zr9  1  0.825040  0.825211  0.500203  1
  Zr  Zr10  1  0.325063  0.677295  0.249466  1
  Zr  Zr11  1  0.675108  0.324964  0.750003  1
  Zr  Zr12  1  0.146980  0.994277  0.374212  1
  Zr  Zr13  1  0.851994  0.004121  0.874484  1
  Zr  Zr14  1  0.504051  0.648280  0.624587  1
  Zr  Zr15  1  0.351832  0.495813  0.875416  1
  Zr  Zr16  1  0.495598  0.351523  0.123681  1
  Zr  Zr17  1  0.650709  0.506537  0.376283  1
  Zr  Zr18  1  0.995578  0.148155  0.625639  1
  Zr  Zr19  1  0.003583  0.851334  0.125065  1
  Si  Si20  1  0.638327  0.706235  0.816314  1
  Si  Si21  1  0.205895  0.862014  0.566358  1
  Si  Si22  1  0.138288  0.793925  0.933425  1
  Si  Si23  1  0.793878  0.138400  0.066119  1
  Si  Si24  1  0.861617  0.205683  0.433712  1
  Si  Si25  1  0.293959  0.361636  0.683680  1
  Si  Si26  1  0.705555  0.637965  0.183552  1
  Si  Si27  1  0.295239  0.047238  0.184666  1
  Si  Si28  1  0.704825  0.949240  0.686740  1
  Si  Si29  1  0.449531  0.795613  0.436544  1
  Si  Si30  1  0.204621  0.550209  0.063455  1
  Si  Si31  1  0.550465  0.204590  0.936335  1
  Si  Si32  1  0.795029  0.449516  0.563777  1
  Si  Si33  1  0.050503  0.295310  0.813367  1
  Si  Si34  1  0.949890  0.704269  0.313236  1
  Ge  Ge35  1  0.362302  0.295613  0.319354  1
