# generated using pymatgen
data_Tb2UMnFeSi7
_symmetry_space_group_name_H-M   'P 1'
_cell_length_a   12.29134659
_cell_length_b   12.29134681
_cell_length_c   4.05054300
_cell_angle_alpha   90.00000000
_cell_angle_beta   90.00000000
_cell_angle_gamma   160.89782024
_symmetry_Int_Tables_number   1
_chemical_formula_structural   Tb2UMnFeSi7
_chemical_formula_sum   'Tb2 U1 Mn1 Fe1 Si7'
_cell_volume   200.26126121
_cell_formula_units_Z   1
loop_
 _symmetry_equiv_pos_site_id
 _symmetry_equiv_pos_as_xyz
  1  'x, y, z'
loop_
 _atom_site_type_symbol
 _atom_site_label
 _atom_site_symmetry_multiplicity
 _atom_site_fract_x
 _atom_site_fract_y
 _atom_site_fract_z
 _atom_site_occupancy
  Tb  Tb0  1  0.316752  0.683248  0.000000  1
  Tb  Tb1  1  0.684517  0.315483  0.000000  1
  U  U2  1  0.000065  0.999935  0.500000  1
  Mn  Mn3  1  0.124595  0.875405  0.500000  1
  Fe  Fe4  1  0.875112  0.124888  0.500000  1
  Si  Si5  1  0.222762  0.777238  0.500000  1
  Si  Si6  1  0.779875  0.220125  0.500000  1
  Si  Si7  1  0.084272  0.915728  0.000000  1
  Si  Si8  1  0.914213  0.085787  0.000000  1
  Si  Si9  1  0.414136  0.585864  0.500000  1
  Si  Si10  1  0.498173  0.501827  0.000000  1
  Si  Si11  1  0.585529  0.414471  0.500000  1
