# generated using pymatgen
data_Er4GeS3
_symmetry_space_group_name_H-M   'P 1'
_cell_length_a   6.82366902
_cell_length_b   6.82366884
_cell_length_c   6.82366895
_cell_angle_alpha   131.85025260
_cell_angle_beta   131.85025226
_cell_angle_gamma   70.46564451
_symmetry_Int_Tables_number   1
_chemical_formula_structural   Er4GeS3
_chemical_formula_sum   'Er4 Ge1 S3'
_cell_volume   172.74632973
_cell_formula_units_Z   1
loop_
 _symmetry_equiv_pos_site_id
 _symmetry_equiv_pos_as_xyz
  1  'x, y, z'
loop_
 _atom_site_type_symbol
 _atom_site_label
 _atom_site_symmetry_multiplicity
 _atom_site_fract_x
 _atom_site_fract_y
 _atom_site_fract_z
 _atom_site_occupancy
  Er  Er0  1  0.750475  0.750475  0.000000  1
  Er  Er1  1  0.249526  0.249526  0.000000  1
  Er  Er2  1  0.000000  0.500000  0.500000  1
  Er  Er3  1  0.500000  0.000000  0.500000  1
  Ge  Ge4  1  0.000000  0.000000  0.000000  1
  S  S5  1  0.500000  0.500000  0.000000  1
  S  S6  1  0.250000  0.750000  0.500000  1
  S  S7  1  0.750000  0.250000  0.500000  1
