# generated using pymatgen
data_Pa3Ga3NiPdPt
_symmetry_space_group_name_H-M   'P 1'
_cell_length_a   6.92704600
_cell_length_b   6.92704530
_cell_length_c   8.32137300
_cell_angle_alpha   90.00000000
_cell_angle_beta   90.00000000
_cell_angle_gamma   120.00000335
_symmetry_Int_Tables_number   1
_chemical_formula_structural   Pa3Ga3NiPdPt
_chemical_formula_sum   'Pa6 Ga6 Ni2 Pd2 Pt2'
_cell_volume   345.79738586
_cell_formula_units_Z   2
loop_
 _symmetry_equiv_pos_site_id
 _symmetry_equiv_pos_as_xyz
  1  'x, y, z'
loop_
 _atom_site_type_symbol
 _atom_site_label
 _atom_site_symmetry_multiplicity
 _atom_site_fract_x
 _atom_site_fract_y
 _atom_site_fract_z
 _atom_site_occupancy
  Pa  Pa0  1  0.755952  0.098557  0.000000  1
  Pa  Pa1  1  0.342604  0.244048  0.000000  1
  Pa  Pa2  1  0.901443  0.657396  0.000000  1
  Pa  Pa3  1  0.343423  0.244337  0.500000  1
  Pa  Pa4  1  0.755663  0.099086  0.500000  1
  Pa  Pa5  1  0.900914  0.656577  0.500000  1
  Ga  Ga6  1  0.573299  0.658354  0.749993  1
  Ga  Ga7  1  0.085055  0.426701  0.749993  1
  Ga  Ga8  1  0.341646  0.914945  0.749993  1
  Ga  Ga9  1  0.573299  0.658354  0.250007  1
  Ga  Ga10  1  0.085055  0.426701  0.250007  1
  Ga  Ga11  1  0.341646  0.914945  0.250007  1
  Ni  Ni12  1  0.666667  0.333333  0.751265  1
  Ni  Ni13  1  0.666667  0.333333  0.248735  1
  Pd  Pd14  1  0.333333  0.666667  0.000000  1
  Pd  Pd15  1  0.333333  0.666667  0.500000  1
  Pt  Pt16  1  0.000000  0.000000  0.250245  1
  Pt  Pt17  1  0.000000  0.000000  0.749755  1
