# generated using pymatgen
data_Dy9HoIn8(PtAu)2
_symmetry_space_group_name_H-M   'P 1'
_cell_length_a   3.65462900
_cell_length_b   8.18293650
_cell_length_c   18.37318668
_cell_angle_alpha   90.10712055
_cell_angle_beta   90.00000000
_cell_angle_gamma   90.00000000
_symmetry_Int_Tables_number   1
_chemical_formula_structural   Dy9HoIn8(PtAu)2
_chemical_formula_sum   'Dy9 Ho1 In8 Pt2 Au2'
_cell_volume   549.46015710
_cell_formula_units_Z   1
loop_
 _symmetry_equiv_pos_site_id
 _symmetry_equiv_pos_as_xyz
  1  'x, y, z'
loop_
 _atom_site_type_symbol
 _atom_site_label
 _atom_site_symmetry_multiplicity
 _atom_site_fract_x
 _atom_site_fract_y
 _atom_site_fract_z
 _atom_site_occupancy
  Dy  Dy0  1  0.000000  0.119502  0.419321  1
  Dy  Dy1  1  0.000000  0.880449  0.580648  1
  Dy  Dy2  1  0.000000  0.384376  0.916328  1
  Dy  Dy3  1  0.000000  0.615643  0.083726  1
  Dy  Dy4  1  0.000000  0.252967  0.216662  1
  Dy  Dy5  1  0.000000  0.747067  0.783345  1
  Dy  Dy6  1  0.000000  0.268399  0.720998  1
  Dy  Dy7  1  0.000000  0.999998  0.000006  1
  Dy  Dy8  1  0.000000  0.499990  0.499999  1
  Ho  Ho9  1  0.000000  0.731573  0.278918  1
  In  In10  1  0.500000  0.422233  0.352322  1
  In  In11  1  0.500000  0.577913  0.647655  1
  In  In12  1  0.500000  0.078003  0.852619  1
  In  In13  1  0.500000  0.921915  0.147429  1
  In  In14  1  0.500000  0.291551  0.065562  1
  In  In15  1  0.500000  0.708477  0.934439  1
  In  In16  1  0.500000  0.210087  0.567416  1
  In  In17  1  0.500000  0.789898  0.432484  1
  Pt  Pt18  1  0.500000  0.472277  0.804001  1
  Pt  Pt19  1  0.500000  0.528123  0.196162  1
  Au  Au20  1  0.500000  0.028916  0.302174  1
  Au  Au21  1  0.500000  0.970644  0.697786  1
