# generated using pymatgen
data_TbHf(ZrPt6)2
_symmetry_space_group_name_H-M   'P 1'
_cell_length_a   5.76226400
_cell_length_b   5.76226313
_cell_length_c   9.38159300
_cell_angle_alpha   90.00000000
_cell_angle_beta   90.00000000
_cell_angle_gamma   120.00000501
_symmetry_Int_Tables_number   1
_chemical_formula_structural   TbHf(ZrPt6)2
_chemical_formula_sum   'Tb1 Hf1 Zr2 Pt12'
_cell_volume   269.76986563
_cell_formula_units_Z   1
loop_
 _symmetry_equiv_pos_site_id
 _symmetry_equiv_pos_as_xyz
  1  'x, y, z'
loop_
 _atom_site_type_symbol
 _atom_site_label
 _atom_site_symmetry_multiplicity
 _atom_site_fract_x
 _atom_site_fract_y
 _atom_site_fract_z
 _atom_site_occupancy
  Tb  Tb0  1  0.666667  0.333333  0.750000  1
  Hf  Hf1  1  0.333333  0.666667  0.250000  1
  Zr  Zr2  1  0.000000  0.000000  0.502281  1
  Zr  Zr3  1  0.000000  0.000000  0.997719  1
  Pt  Pt4  1  0.170847  0.341693  0.750000  1
  Pt  Pt5  1  0.004387  0.502193  0.005710  1
  Pt  Pt6  1  0.830937  0.661875  0.250000  1
  Pt  Pt7  1  0.338125  0.169063  0.250000  1
  Pt  Pt8  1  0.497807  0.502193  0.005710  1
  Pt  Pt9  1  0.830937  0.169063  0.250000  1
  Pt  Pt10  1  0.497807  0.502193  0.494290  1
  Pt  Pt11  1  0.497807  0.995613  0.494290  1
  Pt  Pt12  1  0.170847  0.829153  0.750000  1
  Pt  Pt13  1  0.658307  0.829153  0.750000  1
  Pt  Pt14  1  0.497807  0.995613  0.005710  1
  Pt  Pt15  1  0.004387  0.502193  0.494290  1
