# generated using pymatgen
data_LaPr3(Zn5Sn)2
_symmetry_space_group_name_H-M   'P 1'
_cell_length_a   8.63904380
_cell_length_b   8.63904408
_cell_length_c   9.11717627
_cell_angle_alpha   90.18900882
_cell_angle_beta   89.81099040
_cell_angle_gamma   149.53478611
_symmetry_Int_Tables_number   1
_chemical_formula_structural   LaPr3(Zn5Sn)2
_chemical_formula_sum   'La1 Pr3 Zn10 Sn2'
_cell_volume   344.99286472
_cell_formula_units_Z   1
loop_
 _symmetry_equiv_pos_site_id
 _symmetry_equiv_pos_as_xyz
  1  'x, y, z'
loop_
 _atom_site_type_symbol
 _atom_site_label
 _atom_site_symmetry_multiplicity
 _atom_site_fract_x
 _atom_site_fract_y
 _atom_site_fract_z
 _atom_site_occupancy
  La  La0  1  0.000000  0.000000  0.000000  1
  Pr  Pr1  1  0.206822  0.793178  0.250225  1
  Pr  Pr2  1  0.793178  0.206822  0.749775  1
  Pr  Pr3  1  0.000000  0.000000  0.500000  1
  Zn  Zn4  1  0.814576  0.185424  0.391337  1
  Zn  Zn5  1  0.185424  0.814576  0.608663  1
  Zn  Zn6  1  0.814206  0.185794  0.108441  1
  Zn  Zn7  1  0.185794  0.814206  0.891559  1
  Zn  Zn8  1  0.656269  0.343731  0.485084  1
  Zn  Zn9  1  0.343731  0.656269  0.514916  1
  Zn  Zn10  1  0.656395  0.343605  0.015004  1
  Zn  Zn11  1  0.343605  0.656395  0.984996  1
  Zn  Zn12  1  0.397298  0.602702  0.250142  1
  Zn  Zn13  1  0.602702  0.397298  0.749858  1
  Sn  Sn14  1  0.557356  0.442644  0.251037  1
  Sn  Sn15  1  0.442644  0.557356  0.748963  1
