# generated using pymatgen
data_ZrTi2(NbAs)4
_symmetry_space_group_name_H-M   'P 1'
_cell_length_a   7.89037910
_cell_length_b   7.89037821
_cell_length_c   14.24342800
_cell_angle_alpha   75.93730924
_cell_angle_beta   75.93731086
_cell_angle_gamma   26.12887790
_symmetry_Int_Tables_number   1
_chemical_formula_structural   ZrTi2(NbAs)4
_chemical_formula_sum   'Zr2 Ti4 Nb8 As8'
_cell_volume   378.18108947
_cell_formula_units_Z   2
loop_
 _symmetry_equiv_pos_site_id
 _symmetry_equiv_pos_as_xyz
  1  'x, y, z'
loop_
 _atom_site_type_symbol
 _atom_site_label
 _atom_site_symmetry_multiplicity
 _atom_site_fract_x
 _atom_site_fract_y
 _atom_site_fract_z
 _atom_site_occupancy
  Zr  Zr0  1  0.822805  0.822805  0.544578  1
  Zr  Zr1  1  0.177195  0.177195  0.455422  1
  Ti  Ti2  1  0.663059  0.663059  0.032982  1
  Ti  Ti3  1  0.336941  0.336941  0.967018  1
  Ti  Ti4  1  0.997370  0.997370  0.664523  1
  Ti  Ti5  1  0.002630  0.002630  0.335477  1
  Nb  Nb6  1  0.210879  0.210879  0.200660  1
  Nb  Nb7  1  0.789121  0.789121  0.799340  1
  Nb  Nb8  1  0.195848  0.195848  0.696454  1
  Nb  Nb9  1  0.804152  0.804152  0.303546  1
  Nb  Nb10  1  0.427321  0.427321  0.170460  1
  Nb  Nb11  1  0.572679  0.572679  0.829540  1
  Nb  Nb12  1  0.500000  0.500000  0.500000  1
  Nb  Nb13  1  0.000000  0.000000  0.000000  1
  As  As14  1  0.061557  0.061557  0.152412  1
  As  As15  1  0.938443  0.938443  0.847588  1
  As  As16  1  0.374403  0.374403  0.668011  1
  As  As17  1  0.625597  0.625597  0.331989  1
  As  As18  1  0.377786  0.377786  0.392334  1
  As  As19  1  0.622214  0.622214  0.607666  1
  As  As20  1  0.176804  0.176804  0.898483  1
  As  As21  1  0.823196  0.823196  0.101517  1
