# generated using pymatgen
data_Dy8TmLuSi6
_symmetry_space_group_name_H-M   'P 1'
_cell_length_a   8.42281400
_cell_length_b   8.42281236
_cell_length_c   6.32172200
_cell_angle_alpha   90.00000000
_cell_angle_beta   90.00000000
_cell_angle_gamma   120.00000645
_symmetry_Int_Tables_number   1
_chemical_formula_structural   Dy8TmLuSi6
_chemical_formula_sum   'Dy8 Tm1 Lu1 Si6'
_cell_volume   388.40099443
_cell_formula_units_Z   1
loop_
 _symmetry_equiv_pos_site_id
 _symmetry_equiv_pos_as_xyz
  1  'x, y, z'
loop_
 _atom_site_type_symbol
 _atom_site_label
 _atom_site_symmetry_multiplicity
 _atom_site_fract_x
 _atom_site_fract_y
 _atom_site_fract_z
 _atom_site_occupancy
  Dy  Dy0  1  0.666667  0.333333  0.500000  1
  Dy  Dy1  1  0.333333  0.666667  0.500000  1
  Dy  Dy2  1  0.756086  0.756149  0.248444  1
  Dy  Dy3  1  0.243851  0.999936  0.248444  1
  Dy  Dy4  1  0.000064  0.243914  0.248444  1
  Dy  Dy5  1  0.243851  0.243914  0.751556  1
  Dy  Dy6  1  0.756086  0.999936  0.751556  1
  Dy  Dy7  1  0.000064  0.756149  0.751556  1
  Tm  Tm8  1  0.666667  0.333333  0.000000  1
  Lu  Lu9  1  0.333333  0.666667  0.000000  1
  Si  Si10  1  0.394697  0.394881  0.244966  1
  Si  Si11  1  0.605119  0.999816  0.244966  1
  Si  Si12  1  0.000184  0.605303  0.244966  1
  Si  Si13  1  0.605119  0.605303  0.755034  1
  Si  Si14  1  0.394697  0.999816  0.755034  1
  Si  Si15  1  0.000184  0.394881  0.755034  1
