# generated using pymatgen
data_Sc6TaAl12V3Ru7
_symmetry_space_group_name_H-M   'P 1'
_cell_length_a   8.76379323
_cell_length_b   8.76379330
_cell_length_c   8.78135044
_cell_angle_alpha   60.06612419
_cell_angle_beta   60.06612650
_cell_angle_gamma   60.00000093
_symmetry_Int_Tables_number   1
_chemical_formula_structural   Sc6TaAl12V3Ru7
_chemical_formula_sum   'Sc6 Ta1 Al12 V3 Ru7'
_cell_volume   477.37965969
_cell_formula_units_Z   1
loop_
 _symmetry_equiv_pos_site_id
 _symmetry_equiv_pos_as_xyz
  1  'x, y, z'
loop_
 _atom_site_type_symbol
 _atom_site_label
 _atom_site_symmetry_multiplicity
 _atom_site_fract_x
 _atom_site_fract_y
 _atom_site_fract_z
 _atom_site_occupancy
  Sc  Sc0  1  0.709261  0.709261  0.287271  1
  Sc  Sc1  1  0.294207  0.709261  0.287271  1
  Sc  Sc2  1  0.709261  0.294207  0.287271  1
  Sc  Sc3  1  0.288081  0.288081  0.711805  1
  Sc  Sc4  1  0.712033  0.288081  0.711805  1
  Sc  Sc5  1  0.288081  0.712033  0.711805  1
  Ta  Ta6  1  0.879931  0.879931  0.360207  1
  Al  Al7  1  0.120371  0.120371  0.638886  1
  Al  Al8  1  0.120784  0.640661  0.117769  1
  Al  Al9  1  0.640661  0.120784  0.117769  1
  Al  Al10  1  0.120784  0.120784  0.117769  1
  Al  Al11  1  0.666200  0.666200  0.001400  1
  Al  Al12  1  0.662691  0.005692  0.668925  1
  Al  Al13  1  0.005692  0.662691  0.668925  1
  Al  Al14  1  0.662691  0.662691  0.668925  1
  Al  Al15  1  0.334823  0.334823  0.995529  1
  Al  Al16  1  0.334676  0.995688  0.334959  1
  Al  Al17  1  0.995688  0.334676  0.334959  1
  Al  Al18  1  0.334676  0.334676  0.334959  1
  V  V19  1  0.879928  0.360485  0.879659  1
  V  V20  1  0.360485  0.879928  0.879659  1
  V  V21  1  0.879928  0.879928  0.879659  1
  Ru  Ru22  1  0.002383  0.002383  0.992849  1
  Ru  Ru23  1  0.996066  0.996066  0.505724  1
  Ru  Ru24  1  0.502146  0.996066  0.505724  1
  Ru  Ru25  1  0.996066  0.502146  0.505724  1
  Ru  Ru26  1  0.502975  0.502975  0.997596  1
  Ru  Ru27  1  0.996453  0.502975  0.997596  1
  Ru  Ru28  1  0.502975  0.996453  0.997596  1
