# generated using pymatgen
data_V3Co4P4W
_symmetry_space_group_name_H-M   'P 1'
_cell_length_a   3.55086400
_cell_length_b   5.85811422
_cell_length_c   6.70951625
_cell_angle_alpha   90.03119809
_cell_angle_beta   90.00000000
_cell_angle_gamma   90.00000000
_symmetry_Int_Tables_number   1
_chemical_formula_structural   V3Co4P4W
_chemical_formula_sum   'V3 Co4 P4 W1'
_cell_volume   139.56708840
_cell_formula_units_Z   1
loop_
 _symmetry_equiv_pos_site_id
 _symmetry_equiv_pos_as_xyz
  1  'x, y, z'
loop_
 _atom_site_type_symbol
 _atom_site_label
 _atom_site_symmetry_multiplicity
 _atom_site_fract_x
 _atom_site_fract_y
 _atom_site_fract_z
 _atom_site_occupancy
  V  V0  1  0.250000  0.531067  0.330723  1
  V  V1  1  0.750000  0.969325  0.831260  1
  V  V2  1  0.750000  0.472656  0.670264  1
  Co  Co3  1  0.250000  0.142036  0.562899  1
  Co  Co4  1  0.250000  0.643079  0.935858  1
  Co  Co5  1  0.750000  0.856822  0.439056  1
  Co  Co6  1  0.750000  0.356608  0.062893  1
  P  P7  1  0.250000  0.765332  0.623428  1
  P  P8  1  0.250000  0.269742  0.871515  1
  P  P9  1  0.750000  0.238298  0.381020  1
  P  P10  1  0.750000  0.726246  0.124681  1
  W  W11  1  0.250000  0.028788  0.166404  1
