# generated using pymatgen
data_TbPa7(BiPt2)4
_symmetry_space_group_name_H-M   'P 1'
_cell_length_a   7.80565800
_cell_length_b   7.80565845
_cell_length_c   7.60496400
_cell_angle_alpha   90.00000000
_cell_angle_beta   90.00000000
_cell_angle_gamma   90.70234367
_symmetry_Int_Tables_number   1
_chemical_formula_structural   TbPa7(BiPt2)4
_chemical_formula_sum   'Tb1 Pa7 Bi4 Pt8'
_cell_volume   463.32271786
_cell_formula_units_Z   1
loop_
 _symmetry_equiv_pos_site_id
 _symmetry_equiv_pos_as_xyz
  1  'x, y, z'
loop_
 _atom_site_type_symbol
 _atom_site_label
 _atom_site_symmetry_multiplicity
 _atom_site_fract_x
 _atom_site_fract_y
 _atom_site_fract_z
 _atom_site_occupancy
  Tb  Tb0  1  0.178387  0.821613  0.500000  1
  Pa  Pa1  1  0.682643  0.678856  0.000000  1
  Pa  Pa2  1  0.341321  0.344859  0.500000  1
  Pa  Pa3  1  0.821340  0.178660  0.500000  1
  Pa  Pa4  1  0.655141  0.658679  0.500000  1
  Pa  Pa5  1  0.321144  0.317357  0.000000  1
  Pa  Pa6  1  0.842715  0.157285  0.000000  1
  Pa  Pa7  1  0.159928  0.840072  0.000000  1
  Bi  Bi8  1  0.493859  0.997994  0.748174  1
  Bi  Bi9  1  0.493859  0.997994  0.251826  1
  Bi  Bi10  1  0.002006  0.506141  0.748174  1
  Bi  Bi11  1  0.002006  0.506141  0.251826  1
  Pt  Pt12  1  0.867049  0.873668  0.733216  1
  Pt  Pt13  1  0.126332  0.132951  0.733216  1
  Pt  Pt14  1  0.632273  0.367727  0.771261  1
  Pt  Pt15  1  0.632273  0.367727  0.228739  1
  Pt  Pt16  1  0.377169  0.622831  0.222970  1
  Pt  Pt17  1  0.126332  0.132951  0.266784  1
  Pt  Pt18  1  0.867049  0.873668  0.266784  1
  Pt  Pt19  1  0.377169  0.622831  0.777030  1
