# generated using pymatgen
data_YMgGa3Ru
_symmetry_space_group_name_H-M   'P 1'
_cell_length_a   5.33508200
_cell_length_b   5.33508153
_cell_length_c   8.76539300
_cell_angle_alpha   90.00000000
_cell_angle_beta   90.00000000
_cell_angle_gamma   120.00000292
_symmetry_Int_Tables_number   1
_chemical_formula_structural   YMgGa3Ru
_chemical_formula_sum   'Y2 Mg2 Ga6 Ru2'
_cell_volume   216.06487518
_cell_formula_units_Z   2
loop_
 _symmetry_equiv_pos_site_id
 _symmetry_equiv_pos_as_xyz
  1  'x, y, z'
loop_
 _atom_site_type_symbol
 _atom_site_label
 _atom_site_symmetry_multiplicity
 _atom_site_fract_x
 _atom_site_fract_y
 _atom_site_fract_z
 _atom_site_occupancy
  Y  Y0  1  0.333334  0.666668  0.551973  1
  Y  Y1  1  0.333334  0.666668  0.948028  1
  Mg  Mg2  1  0.666667  0.333334  0.046416  1
  Mg  Mg3  1  0.666667  0.333334  0.453584  1
  Ga  Ga4  1  0.163988  0.327977  0.250000  1
  Ga  Ga5  1  0.163988  0.836012  0.250000  1
  Ga  Ga6  1  0.672024  0.836012  0.250000  1
  Ga  Ga7  1  0.331409  0.165704  0.750000  1
  Ga  Ga8  1  0.834295  0.165704  0.750000  1
  Ga  Ga9  1  0.834295  0.668589  0.750000  1
  Ru  Ru10  1  0.000000  0.000000  0.009245  1
  Ru  Ru11  1  0.000000  0.000000  0.490755  1
