# generated using pymatgen
data_Yb11Pr5(MgRu)4
_symmetry_space_group_name_H-M   'P 1'
_cell_length_a   10.06707924
_cell_length_b   9.94119282
_cell_length_c   9.94233800
_cell_angle_alpha   59.99618263
_cell_angle_beta   60.40904507
_cell_angle_gamma   60.34570352
_symmetry_Int_Tables_number   1
_chemical_formula_structural   Yb11Pr5(MgRu)4
_chemical_formula_sum   'Yb11 Pr5 Mg4 Ru4'
_cell_volume   707.54877730
_cell_formula_units_Z   1
loop_
 _symmetry_equiv_pos_site_id
 _symmetry_equiv_pos_as_xyz
  1  'x, y, z'
loop_
 _atom_site_type_symbol
 _atom_site_label
 _atom_site_symmetry_multiplicity
 _atom_site_fract_x
 _atom_site_fract_y
 _atom_site_fract_z
 _atom_site_occupancy
  Yb  Yb0  1  0.046537  0.452555  0.451051  1
  Yb  Yb1  1  0.190394  0.811204  0.187634  1
  Yb  Yb2  1  0.657769  0.661376  0.659403  1
  Yb  Yb3  1  0.452141  0.452156  0.047851  1
  Yb  Yb4  1  0.046537  0.452555  0.049857  1
  Yb  Yb5  1  0.451896  0.047350  0.048418  1
  Yb  Yb6  1  0.048457  0.050313  0.450615  1
  Yb  Yb7  1  0.657769  0.661376  0.021451  1
  Yb  Yb8  1  0.658374  0.018354  0.661636  1
  Yb  Yb9  1  0.190394  0.811204  0.810768  1
  Yb  Yb10  1  0.451896  0.047350  0.452335  1
  Pr  Pr11  1  0.194917  0.185076  0.810004  1
  Pr  Pr12  1  0.025354  0.660480  0.657083  1
  Pr  Pr13  1  0.802565  0.813410  0.192013  1
  Pr  Pr14  1  0.807552  0.189908  0.192380  1
  Pr  Pr15  1  0.807552  0.189908  0.810160  1
  Mg  Mg16  1  0.421809  0.422034  0.423753  1
  Mg  Mg17  1  0.423407  0.732084  0.422255  1
  Mg  Mg18  1  0.732120  0.422566  0.422658  1
  Mg  Mg19  1  0.421809  0.422034  0.732405  1
  Ru  Ru20  1  0.867967  0.862008  0.867691  1
  Ru  Ru21  1  0.401782  0.872648  0.862785  1
  Ru  Ru22  1  0.873035  0.400042  0.863461  1
  Ru  Ru23  1  0.867967  0.862008  0.402334  1
