# generated using pymatgen
data_CoNi7RuSe8
_symmetry_space_group_name_H-M   'P 1'
_cell_length_a   7.41907448
_cell_length_b   7.41907385
_cell_length_c   7.41907336
_cell_angle_alpha   60.13790920
_cell_angle_beta   60.13791276
_cell_angle_gamma   60.13790826
_symmetry_Int_Tables_number   1
_chemical_formula_structural   CoNi7RuSe8
_chemical_formula_sum   'Co1 Ni7 Ru1 Se8'
_cell_volume   289.66013532
_cell_formula_units_Z   1
loop_
 _symmetry_equiv_pos_site_id
 _symmetry_equiv_pos_as_xyz
  1  'x, y, z'
loop_
 _atom_site_type_symbol
 _atom_site_label
 _atom_site_symmetry_multiplicity
 _atom_site_fract_x
 _atom_site_fract_y
 _atom_site_fract_z
 _atom_site_occupancy
  Co  Co0  1  0.879125  0.879125  0.879125  1
  Ni  Ni1  1  0.631561  0.122591  0.122591  1
  Ni  Ni2  1  0.122591  0.631561  0.122591  1
  Ni  Ni3  1  0.122591  0.122591  0.631561  1
  Ni  Ni4  1  0.122843  0.122843  0.122843  1
  Ni  Ni5  1  0.369972  0.876515  0.876515  1
  Ni  Ni6  1  0.876515  0.369972  0.876515  1
  Ni  Ni7  1  0.876515  0.876515  0.369972  1
  Ru  Ru8  1  0.499371  0.499371  0.499371  1
  Se  Se9  1  0.250433  0.250433  0.250433  1
  Se  Se10  1  0.753233  0.753233  0.753233  1
  Se  Se11  1  0.738052  0.261724  0.261724  1
  Se  Se12  1  0.738064  0.257625  0.738064  1
  Se  Se13  1  0.738064  0.738064  0.257625  1
  Se  Se14  1  0.257625  0.738064  0.738064  1
  Se  Se15  1  0.261724  0.738052  0.261724  1
  Se  Se16  1  0.261724  0.261724  0.738052  1
