# generated using pymatgen
data_TbY2(LuPd2)2
_symmetry_space_group_name_H-M   'P 1'
_cell_length_a   7.45274200
_cell_length_b   7.53072500
_cell_length_c   14.62955300
_cell_angle_alpha   90.00000000
_cell_angle_beta   90.00000000
_cell_angle_gamma   90.00000000
_symmetry_Int_Tables_number   1
_chemical_formula_structural   TbY2(LuPd2)2
_chemical_formula_sum   'Tb4 Y8 Lu8 Pd16'
_cell_volume   821.07708611
_cell_formula_units_Z   4
loop_
 _symmetry_equiv_pos_site_id
 _symmetry_equiv_pos_as_xyz
  1  'x, y, z'
loop_
 _atom_site_type_symbol
 _atom_site_label
 _atom_site_symmetry_multiplicity
 _atom_site_fract_x
 _atom_site_fract_y
 _atom_site_fract_z
 _atom_site_occupancy
  Tb  Tb0  1  0.343171  0.166650  0.378099  1
  Tb  Tb1  1  0.843171  0.333350  0.121901  1
  Tb  Tb2  1  0.156829  0.666650  0.621901  1
  Tb  Tb3  1  0.656829  0.833350  0.878099  1
  Y  Y4  1  0.998007  0.820329  0.406380  1
  Y  Y5  1  0.498007  0.679671  0.093620  1
  Y  Y6  1  0.501993  0.320329  0.593620  1
  Y  Y7  1  0.001993  0.179671  0.906380  1
  Y  Y8  1  0.000443  0.178237  0.593046  1
  Y  Y9  1  0.500443  0.321763  0.906954  1
  Y  Y10  1  0.499557  0.678237  0.406954  1
  Y  Y11  1  0.999557  0.821763  0.093046  1
  Lu  Lu12  1  0.680918  0.988867  0.250014  1
  Lu  Lu13  1  0.180918  0.511133  0.249986  1
  Lu  Lu14  1  0.819082  0.488867  0.749986  1
  Lu  Lu15  1  0.319082  0.011133  0.750014  1
  Lu  Lu16  1  0.657200  0.832829  0.622948  1
  Lu  Lu17  1  0.157200  0.667171  0.877052  1
  Lu  Lu18  1  0.842800  0.332829  0.377052  1
  Lu  Lu19  1  0.342800  0.167171  0.122948  1
  Pd  Pd20  1  0.816293  0.643154  0.251149  1
  Pd  Pd21  1  0.316293  0.856846  0.248851  1
  Pd  Pd22  1  0.683707  0.143154  0.748851  1
  Pd  Pd23  1  0.183707  0.356846  0.751149  1
  Pd  Pd24  1  0.545563  0.386843  0.249990  1
  Pd  Pd25  1  0.045563  0.113157  0.250010  1
  Pd  Pd26  1  0.954437  0.886843  0.750010  1
  Pd  Pd27  1  0.454437  0.613157  0.749990  1
  Pd  Pd28  1  0.814557  0.534149  0.540782  1
  Pd  Pd29  1  0.314557  0.965851  0.959218  1
  Pd  Pd30  1  0.685443  0.034149  0.459218  1
  Pd  Pd31  1  0.185443  0.465851  0.040782  1
  Pd  Pd32  1  0.176493  0.467328  0.456311  1
  Pd  Pd33  1  0.676493  0.032672  0.043689  1
  Pd  Pd34  1  0.323507  0.967328  0.543689  1
  Pd  Pd35  1  0.823507  0.532672  0.956311  1
