# generated using pymatgen
data_Hf8NbNi2Au
_symmetry_space_group_name_H-M   'P 1'
_cell_length_a   8.74579673
_cell_length_b   8.74579640
_cell_length_c   8.77132900
_cell_angle_alpha   59.90337570
_cell_angle_beta   59.90337697
_cell_angle_gamma   59.64727721
_symmetry_Int_Tables_number   1
_chemical_formula_structural   Hf8NbNi2Au
_chemical_formula_sum   'Hf16 Nb2 Ni4 Au2'
_cell_volume   472.43885720
_cell_formula_units_Z   2
loop_
 _symmetry_equiv_pos_site_id
 _symmetry_equiv_pos_as_xyz
  1  'x, y, z'
loop_
 _atom_site_type_symbol
 _atom_site_label
 _atom_site_symmetry_multiplicity
 _atom_site_fract_x
 _atom_site_fract_y
 _atom_site_fract_z
 _atom_site_occupancy
  Hf  Hf0  1  0.702865  0.102351  0.097392  1
  Hf  Hf1  1  0.102351  0.702865  0.097392  1
  Hf  Hf2  1  0.101137  0.101137  0.696599  1
  Hf  Hf3  1  0.101137  0.101137  0.101127  1
  Hf  Hf4  1  0.311158  0.311158  0.688842  1
  Hf  Hf5  1  0.685790  0.685790  0.314210  1
  Hf  Hf6  1  0.315782  0.674038  0.316421  1
  Hf  Hf7  1  0.674038  0.315782  0.693759  1
  Hf  Hf8  1  0.674038  0.315782  0.316421  1
  Hf  Hf9  1  0.315782  0.674038  0.693759  1
  Hf  Hf10  1  0.948222  0.948222  0.551778  1
  Hf  Hf11  1  0.546874  0.546874  0.953126  1
  Hf  Hf12  1  0.950441  0.555975  0.939891  1
  Hf  Hf13  1  0.555975  0.950441  0.553694  1
  Hf  Hf14  1  0.555975  0.950441  0.939891  1
  Hf  Hf15  1  0.950441  0.555975  0.553694  1
  Nb  Nb16  1  0.333759  0.333759  0.998495  1
  Nb  Nb17  1  0.333759  0.333759  0.333987  1
  Ni  Ni18  1  0.325679  0.894948  0.889687  1
  Ni  Ni19  1  0.894948  0.325679  0.889687  1
  Ni  Ni20  1  0.894045  0.894045  0.327080  1
  Ni  Ni21  1  0.894045  0.894045  0.884831  1
  Au  Au22  1  0.993366  0.338394  0.334120  1
  Au  Au23  1  0.338394  0.993366  0.334120  1
