# generated using pymatgen
data_Y9ErSi5Ge
_symmetry_space_group_name_H-M   'P 1'
_cell_length_a   8.46675300
_cell_length_b   8.47008114
_cell_length_c   6.37198700
_cell_angle_alpha   90.00318008
_cell_angle_beta   89.99975231
_cell_angle_gamma   119.98643358
_symmetry_Int_Tables_number   1
_chemical_formula_structural   Y9ErSi5Ge
_chemical_formula_sum   'Y9 Er1 Si5 Ge1'
_cell_volume   395.79411002
_cell_formula_units_Z   1
loop_
 _symmetry_equiv_pos_site_id
 _symmetry_equiv_pos_as_xyz
  1  'x, y, z'
loop_
 _atom_site_type_symbol
 _atom_site_label
 _atom_site_symmetry_multiplicity
 _atom_site_fract_x
 _atom_site_fract_y
 _atom_site_fract_z
 _atom_site_occupancy
  Y  Y0  1  0.998417  0.755174  0.749601  1
  Y  Y1  1  0.999960  0.243435  0.250436  1
  Y  Y2  1  0.756359  0.756762  0.250414  1
  Y  Y3  1  0.757879  0.999845  0.749584  1
  Y  Y4  1  0.243096  0.245028  0.749579  1
  Y  Y5  1  0.242822  0.999849  0.250404  1
  Y  Y6  1  0.667974  0.334899  0.000866  1
  Y  Y7  1  0.667983  0.334909  0.499133  1
  Y  Y8  1  0.333096  0.665127  0.000875  1
  Er  Er9  1  0.333014  0.664957  0.499111  1
  Si  Si10  1  0.393857  0.394703  0.251207  1
  Si  Si11  1  0.001237  0.606356  0.251186  1
  Si  Si12  1  0.000840  0.394906  0.748828  1
  Si  Si13  1  0.604924  0.606141  0.748810  1
  Si  Si14  1  0.605268  0.998971  0.251171  1
  Ge  Ge15  1  0.393272  0.998937  0.748797  1
