# generated using pymatgen
data_Mn8VSi4Ru3
_symmetry_space_group_name_H-M   'P 1'
_cell_length_a   5.76328587
_cell_length_b   5.76342127
_cell_length_c   5.76342100
_cell_angle_alpha   89.87642980
_cell_angle_beta   90.04618827
_cell_angle_gamma   90.04618737
_symmetry_Int_Tables_number   1
_chemical_formula_structural   Mn8VSi4Ru3
_chemical_formula_sum   'Mn8 V1 Si4 Ru3'
_cell_volume   191.43863101
_cell_formula_units_Z   1
loop_
 _symmetry_equiv_pos_site_id
 _symmetry_equiv_pos_as_xyz
  1  'x, y, z'
loop_
 _atom_site_type_symbol
 _atom_site_label
 _atom_site_symmetry_multiplicity
 _atom_site_fract_x
 _atom_site_fract_y
 _atom_site_fract_z
 _atom_site_occupancy
  Mn  Mn0  1  0.247732  0.751355  0.751355  1
  Mn  Mn1  1  0.750711  0.248515  0.750675  1
  Mn  Mn2  1  0.750199  0.750385  0.750385  1
  Mn  Mn3  1  0.513789  0.995370  0.995370  1
  Mn  Mn4  1  0.984227  0.995800  0.504044  1
  Mn  Mn5  1  0.984227  0.504044  0.995800  1
  Mn  Mn6  1  0.750711  0.750675  0.248515  1
  Mn  Mn7  1  0.750059  0.249275  0.249275  1
  V  V8  1  0.522925  0.506181  0.506181  1
  Si  Si9  1  0.996262  0.501687  0.501687  1
  Si  Si10  1  0.505282  0.998798  0.501321  1
  Si  Si11  1  0.505282  0.501321  0.998798  1
  Si  Si12  1  0.992708  0.998071  0.998071  1
  Ru  Ru13  1  0.248645  0.249742  0.749765  1
  Ru  Ru14  1  0.248645  0.749765  0.249742  1
  Ru  Ru15  1  0.248597  0.249019  0.249019  1
