# generated using pymatgen
data_Fe3Ni(AuO2)4
_symmetry_space_group_name_H-M   'P 1'
_cell_length_a   5.32545994
_cell_length_b   6.16186616
_cell_length_c   7.14098544
_cell_angle_alpha   64.43289705
_cell_angle_beta   75.56693421
_cell_angle_gamma   89.95216346
_symmetry_Int_Tables_number   1
_chemical_formula_structural   Fe3Ni(AuO2)4
_chemical_formula_sum   'Fe3 Ni1 Au4 O8'
_cell_volume   203.17936085
_cell_formula_units_Z   1
loop_
 _symmetry_equiv_pos_site_id
 _symmetry_equiv_pos_as_xyz
  1  'x, y, z'
loop_
 _atom_site_type_symbol
 _atom_site_label
 _atom_site_symmetry_multiplicity
 _atom_site_fract_x
 _atom_site_fract_y
 _atom_site_fract_z
 _atom_site_occupancy
  Fe  Fe0  1  0.999969  0.503829  0.000007  1
  Fe  Fe1  1  0.500000  0.249851  0.000000  1
  Fe  Fe2  1  0.000035  0.996554  0.999993  1
  Ni  Ni3  1  0.499994  0.749864  0.999998  1
  Au  Au4  1  0.000574  0.999866  0.500361  1
  Au  Au5  1  0.999432  0.500217  0.499641  1
  Au  Au6  1  0.500004  0.749940  0.499995  1
  Au  Au7  1  0.499995  0.249936  0.500004  1
  O  O8  1  0.895547  0.834235  0.831868  1
  O  O9  1  0.889464  0.333689  0.832919  1
  O  O10  1  0.385896  0.578497  0.832335  1
  O  O11  1  0.385918  0.088898  0.832335  1
  O  O12  1  0.110535  0.166567  0.167080  1
  O  O13  1  0.104452  0.666051  0.168133  1
  O  O14  1  0.614091  0.921213  0.167645  1
  O  O15  1  0.614095  0.410793  0.167683  1
