# generated using pymatgen
data_Ac8LuNi6
_symmetry_space_group_name_H-M   'P 1'
_cell_length_a   7.78201631
_cell_length_b   7.78201614
_cell_length_c   7.78201623
_cell_angle_alpha   74.47766549
_cell_angle_beta   74.47766353
_cell_angle_gamma   74.47766793
_symmetry_Int_Tables_number   1
_chemical_formula_structural   Ac8LuNi6
_chemical_formula_sum   'Ac8 Lu1 Ni6'
_cell_volume   427.66417923
_cell_formula_units_Z   1
loop_
 _symmetry_equiv_pos_site_id
 _symmetry_equiv_pos_as_xyz
  1  'x, y, z'
loop_
 _atom_site_type_symbol
 _atom_site_label
 _atom_site_symmetry_multiplicity
 _atom_site_fract_x
 _atom_site_fract_y
 _atom_site_fract_z
 _atom_site_occupancy
  Ac  Ac0  1  0.293869  0.293869  0.293869  1
  Ac  Ac1  1  0.706131  0.706131  0.706131  1
  Ac  Ac2  1  0.816444  0.333741  0.129551  1
  Ac  Ac3  1  0.333741  0.129551  0.816444  1
  Ac  Ac4  1  0.129551  0.816444  0.333741  1
  Ac  Ac5  1  0.183556  0.666259  0.870449  1
  Ac  Ac6  1  0.666259  0.870449  0.183556  1
  Ac  Ac7  1  0.870449  0.183556  0.666259  1
  Lu  Lu8  1  0.500000  0.500000  0.500000  1
  Ni  Ni9  1  0.468004  0.626593  0.103750  1
  Ni  Ni10  1  0.626593  0.103750  0.468004  1
  Ni  Ni11  1  0.103750  0.468004  0.626593  1
  Ni  Ni12  1  0.531996  0.373407  0.896250  1
  Ni  Ni13  1  0.373407  0.896250  0.531996  1
  Ni  Ni14  1  0.896250  0.531996  0.373407  1
