# generated using pymatgen
data_Sc2ReOs2Ru
_symmetry_space_group_name_H-M   'P 1'
_cell_length_a   5.18577524
_cell_length_b   5.12566440
_cell_length_c   8.80679100
_cell_angle_alpha   90.00000000
_cell_angle_beta   90.00000000
_cell_angle_gamma   119.61732002
_symmetry_Int_Tables_number   1
_chemical_formula_structural   Sc2ReOs2Ru
_chemical_formula_sum   'Sc4 Re2 Os4 Ru2'
_cell_volume   203.50448977
_cell_formula_units_Z   2
loop_
 _symmetry_equiv_pos_site_id
 _symmetry_equiv_pos_as_xyz
  1  'x, y, z'
loop_
 _atom_site_type_symbol
 _atom_site_label
 _atom_site_symmetry_multiplicity
 _atom_site_fract_x
 _atom_site_fract_y
 _atom_site_fract_z
 _atom_site_occupancy
  Sc  Sc0  1  0.331516  0.668256  0.067474  1
  Sc  Sc1  1  0.668484  0.336739  0.567474  1
  Sc  Sc2  1  0.331516  0.668256  0.432526  1
  Sc  Sc3  1  0.668484  0.336739  0.932526  1
  Re  Re4  1  0.834195  0.164934  0.250000  1
  Re  Re5  1  0.165805  0.330740  0.750000  1
  Os  Os6  1  0.830987  0.651632  0.250000  1
  Os  Os7  1  0.169013  0.820647  0.750000  1
  Os  Os8  1  0.654681  0.822089  0.750000  1
  Os  Os9  1  0.345319  0.167406  0.250000  1
  Ru  Ru10  1  0.000000  0.016281  0.500000  1
  Ru  Ru11  1  0.000000  0.016281  0.000000  1
