# generated using pymatgen
data_Nb12AlCo12As
_symmetry_space_group_name_H-M   'P 1'
_cell_length_a   4.93515737
_cell_length_b   4.93515662
_cell_length_c   17.52212460
_cell_angle_alpha   98.09568158
_cell_angle_beta   98.09568108
_cell_angle_gamma   60.00000160
_symmetry_Int_Tables_number   1
_chemical_formula_structural   Nb12AlCo12As
_chemical_formula_sum   'Nb12 Al1 Co12 As1'
_cell_volume   364.67003243
_cell_formula_units_Z   1
loop_
 _symmetry_equiv_pos_site_id
 _symmetry_equiv_pos_as_xyz
  1  'x, y, z'
loop_
 _atom_site_type_symbol
 _atom_site_label
 _atom_site_symmetry_multiplicity
 _atom_site_fract_x
 _atom_site_fract_y
 _atom_site_fract_z
 _atom_site_occupancy
  Nb  Nb0  1  0.415393  0.415393  0.246181  1
  Nb  Nb1  1  0.915089  0.915089  0.745264  1
  Nb  Nb2  1  0.084911  0.084911  0.254736  1
  Nb  Nb3  1  0.584607  0.584607  0.753819  1
  Nb  Nb4  1  0.774421  0.774421  0.323264  1
  Nb  Nb5  1  0.275771  0.275771  0.827312  1
  Nb  Nb6  1  0.724229  0.724229  0.172688  1
  Nb  Nb7  1  0.225579  0.225579  0.676736  1
  Nb  Nb8  1  0.825662  0.825662  0.476985  1
  Nb  Nb9  1  0.327356  0.327356  0.982069  1
  Nb  Nb10  1  0.672644  0.672644  0.017931  1
  Nb  Nb11  1  0.174338  0.174338  0.523015  1
  Al  Al12  1  0.000000  0.000000  0.000000  1
  Co  Co13  1  0.705087  0.205254  0.115595  1
  Co  Co14  1  0.202972  0.706406  0.615786  1
  Co  Co15  1  0.205254  0.205254  0.115595  1
  Co  Co16  1  0.706406  0.706406  0.615786  1
  Co  Co17  1  0.205254  0.705087  0.115595  1
  Co  Co18  1  0.706406  0.202972  0.615786  1
  Co  Co19  1  0.797028  0.293594  0.384214  1
  Co  Co20  1  0.294913  0.794746  0.884405  1
  Co  Co21  1  0.293594  0.293594  0.384214  1
  Co  Co22  1  0.794746  0.794746  0.884405  1
  Co  Co23  1  0.293594  0.797028  0.384214  1
  Co  Co24  1  0.794746  0.294913  0.884405  1
  As  As25  1  0.500000  0.500000  0.500000  1
