# generated using pymatgen
data_Ce3Ho9(SiOs)8
_symmetry_space_group_name_H-M   'P 1'
_cell_length_a   5.54750302
_cell_length_b   7.78050124
_cell_length_c   13.29380162
_cell_angle_alpha   90.10922149
_cell_angle_beta   90.05502766
_cell_angle_gamma   89.77758428
_symmetry_Int_Tables_number   1
_chemical_formula_structural   Ce3Ho9(SiOs)8
_chemical_formula_sum   'Ce3 Ho9 Si8 Os8'
_cell_volume   573.78614669
_cell_formula_units_Z   1
loop_
 _symmetry_equiv_pos_site_id
 _symmetry_equiv_pos_as_xyz
  1  'x, y, z'
loop_
 _atom_site_type_symbol
 _atom_site_label
 _atom_site_symmetry_multiplicity
 _atom_site_fract_x
 _atom_site_fract_y
 _atom_site_fract_z
 _atom_site_occupancy
  Ce  Ce0  1  0.652417  0.408288  0.902775  1
  Ce  Ce1  1  0.350207  0.904045  0.595727  1
  Ce  Ce2  1  0.651370  0.092963  0.098777  1
  Ho  Ho3  1  0.127968  0.253666  0.749339  1
  Ho  Ho4  1  0.872286  0.743116  0.251827  1
  Ho  Ho5  1  0.127773  0.249896  0.251177  1
  Ho  Ho6  1  0.869790  0.752405  0.749291  1
  Ho  Ho7  1  0.642007  0.393109  0.602071  1
  Ho  Ho8  1  0.352616  0.609492  0.105121  1
  Ho  Ho9  1  0.649871  0.109252  0.395130  1
  Ho  Ho10  1  0.351226  0.891161  0.895453  1
  Ho  Ho11  1  0.354247  0.600613  0.397340  1
  Si  Si12  1  0.090738  0.251675  0.500243  1
  Si  Si13  1  0.911843  0.750173  0.000948  1
  Si  Si14  1  0.901256  0.746758  0.496494  1
  Si  Si15  1  0.103535  0.249276  0.000754  1
  Si  Si16  1  0.639826  0.103886  0.752593  1
  Si  Si17  1  0.360634  0.897691  0.253479  1
  Si  Si18  1  0.635912  0.397244  0.248477  1
  Si  Si19  1  0.356294  0.601860  0.747453  1
  Os  Os20  1  0.845767  0.020097  0.592675  1
  Os  Os21  1  0.155422  0.977640  0.093273  1
  Os  Os22  1  0.847658  0.472528  0.408025  1
  Os  Os23  1  0.156580  0.521915  0.908554  1
  Os  Os24  1  0.154072  0.975565  0.411822  1
  Os  Os25  1  0.845341  0.025410  0.912196  1
  Os  Os26  1  0.147605  0.526158  0.589858  1
  Os  Os27  1  0.845739  0.474117  0.089129  1
