# generated using pymatgen
data_Zr6V2Co16SiP11
_symmetry_space_group_name_H-M   'P 1'
_cell_length_a   11.96708143
_cell_length_b   11.97591968
_cell_length_c   3.64554100
_cell_angle_alpha   90.00000000
_cell_angle_beta   90.00000000
_cell_angle_gamma   119.96968289
_symmetry_Int_Tables_number   1
_chemical_formula_structural   Zr6V2Co16SiP11
_chemical_formula_sum   'Zr6 V2 Co16 Si1 P11'
_cell_volume   452.60811197
_cell_formula_units_Z   1
loop_
 _symmetry_equiv_pos_site_id
 _symmetry_equiv_pos_as_xyz
  1  'x, y, z'
loop_
 _atom_site_type_symbol
 _atom_site_label
 _atom_site_symmetry_multiplicity
 _atom_site_fract_x
 _atom_site_fract_y
 _atom_site_fract_z
 _atom_site_occupancy
  Zr  Zr0  1  0.001058  0.555149  0.000000  1
  Zr  Zr1  1  0.664759  0.332715  0.000000  1
  Zr  Zr2  1  0.335801  0.667761  0.000000  1
  Zr  Zr3  1  0.820246  0.820178  0.500000  1
  Zr  Zr4  1  0.182650  0.000030  0.500000  1
  Zr  Zr5  1  0.999800  0.175492  0.500000  1
  V  V6  1  0.441389  0.442015  0.000000  1
  V  V7  1  0.553408  0.002652  0.000000  1
  Co  Co8  1  0.197909  0.371601  0.000000  1
  Co  Co9  1  0.182811  0.809974  0.000000  1
  Co  Co10  1  0.820773  0.626443  0.000000  1
  Co  Co11  1  0.801216  0.173346  0.000000  1
  Co  Co12  1  0.374903  0.197933  0.000000  1
  Co  Co13  1  0.129812  0.478633  0.500000  1
  Co  Co14  1  0.359683  0.877630  0.500000  1
  Co  Co15  1  0.515161  0.646092  0.500000  1
  Co  Co16  1  0.640564  0.517030  0.500000  1
  Co  Co17  1  0.870356  0.348641  0.500000  1
  Co  Co18  1  0.483360  0.129740  0.500000  1
  Co  Co19  1  0.000092  0.000370  0.000000  1
  Co  Co20  1  0.717918  0.000511  0.500000  1
  Co  Co21  1  0.001417  0.722400  0.500000  1
  Co  Co22  1  0.623108  0.826917  0.000000  1
  Co  Co23  1  0.281383  0.280732  0.500000  1
  Si  Si24  1  0.639714  0.644571  0.000000  1
  P  P25  1  0.362451  0.004231  0.000000  1
  P  P26  1  0.999358  0.343591  0.000000  1
  P  P27  1  0.480970  0.316202  0.500000  1
  P  P28  1  0.682323  0.164307  0.500000  1
  P  P29  1  0.824325  0.516855  0.500000  1
  P  P30  1  0.518679  0.835944  0.500000  1
  P  P31  1  0.176699  0.692985  0.500000  1
  P  P32  1  0.821920  0.997436  0.000000  1
  P  P33  1  0.000209  0.824407  0.000000  1
  P  P34  1  0.316563  0.480881  0.500000  1
  P  P35  1  0.177209  0.174599  0.000000  1
