# generated using pymatgen
data_NpTl(PO4)2
_symmetry_space_group_name_H-M   'P 1'
_cell_length_a   5.30710656
_cell_length_b   5.30710715
_cell_length_c   8.79966400
_cell_angle_alpha   87.10148262
_cell_angle_beta   87.10148230
_cell_angle_gamma   62.89769535
_symmetry_Int_Tables_number   1
_chemical_formula_structural   NpTl(PO4)2
_chemical_formula_sum   'Np1 Tl1 P2 O8'
_cell_volume   220.24313402
_cell_formula_units_Z   1
loop_
 _symmetry_equiv_pos_site_id
 _symmetry_equiv_pos_as_xyz
  1  'x, y, z'
loop_
 _atom_site_type_symbol
 _atom_site_label
 _atom_site_symmetry_multiplicity
 _atom_site_fract_x
 _atom_site_fract_y
 _atom_site_fract_z
 _atom_site_occupancy
  Np  Np0  1  0.000000  0.000000  0.500000  1
  Tl  Tl1  1  0.000000  0.000000  0.000000  1
  P  P2  1  0.642300  0.642300  0.708753  1
  P  P3  1  0.357700  0.357700  0.291247  1
  O  O4  1  0.314028  0.314028  0.130115  1
  O  O5  1  0.321306  0.774882  0.667755  1
  O  O6  1  0.678694  0.225118  0.332245  1
  O  O7  1  0.774882  0.321306  0.667755  1
  O  O8  1  0.225118  0.678694  0.332245  1
  O  O9  1  0.685972  0.685972  0.869885  1
  O  O10  1  0.220232  0.220232  0.412956  1
  O  O11  1  0.779768  0.779768  0.587044  1
