# generated using pymatgen
data_LaCePPt8
_symmetry_space_group_name_H-M   'P 1'
_cell_length_a   9.18306025
_cell_length_b   9.20085852
_cell_length_c   4.31248000
_cell_angle_alpha   90.00000000
_cell_angle_beta   90.00000000
_cell_angle_gamma   145.52888717
_symmetry_Int_Tables_number   1
_chemical_formula_structural   LaCePPt8
_chemical_formula_sum   'La1 Ce1 P1 Pt8'
_cell_volume   206.23014411
_cell_formula_units_Z   1
loop_
 _symmetry_equiv_pos_site_id
 _symmetry_equiv_pos_as_xyz
  1  'x, y, z'
loop_
 _atom_site_type_symbol
 _atom_site_label
 _atom_site_symmetry_multiplicity
 _atom_site_fract_x
 _atom_site_fract_y
 _atom_site_fract_z
 _atom_site_occupancy
  La  La0  1  0.618655  0.373616  0.500000  1
  Ce  Ce1  1  0.370845  0.621174  0.500000  1
  P  P2  1  0.224680  0.223328  0.000000  1
  Pt  Pt3  1  0.107361  0.886902  0.000000  1
  Pt  Pt4  1  0.892893  0.112046  0.000000  1
  Pt  Pt5  1  0.490632  0.981086  0.000000  1
  Pt  Pt6  1  0.988090  0.489795  0.000000  1
  Pt  Pt7  1  0.196596  0.791958  0.500000  1
  Pt  Pt8  1  0.793314  0.193661  0.500000  1
  Pt  Pt9  1  0.001009  0.003126  0.500000  1
  Pt  Pt10  1  0.629524  0.636907  0.000000  1
