# generated using pymatgen
data_ErSc2Co8P6W
_symmetry_space_group_name_H-M   'P 1'
_cell_length_a   3.66441000
_cell_length_b   10.45277800
_cell_length_c   12.12552200
_cell_angle_alpha   90.00000000
_cell_angle_beta   90.00000000
_cell_angle_gamma   90.00000000
_symmetry_Int_Tables_number   1
_chemical_formula_structural   ErSc2Co8P6W
_chemical_formula_sum   'Er2 Sc4 Co16 P12 W2'
_cell_volume   464.44707310
_cell_formula_units_Z   2
loop_
 _symmetry_equiv_pos_site_id
 _symmetry_equiv_pos_as_xyz
  1  'x, y, z'
loop_
 _atom_site_type_symbol
 _atom_site_label
 _atom_site_symmetry_multiplicity
 _atom_site_fract_x
 _atom_site_fract_y
 _atom_site_fract_z
 _atom_site_occupancy
  Er  Er0  1  0.750000  0.250000  0.473213  1
  Er  Er1  1  0.250000  0.750000  0.526787  1
  Sc  Sc2  1  0.250000  0.929711  0.796093  1
  Sc  Sc3  1  0.250000  0.570289  0.796093  1
  Sc  Sc4  1  0.750000  0.070289  0.203907  1
  Sc  Sc5  1  0.750000  0.429711  0.203907  1
  Co  Co6  1  0.250000  0.250000  0.296457  1
  Co  Co7  1  0.750000  0.750000  0.703543  1
  Co  Co8  1  0.750000  0.250000  0.013451  1
  Co  Co9  1  0.250000  0.750000  0.986549  1
  Co  Co10  1  0.250000  0.417282  0.009973  1
  Co  Co11  1  0.250000  0.082718  0.009973  1
  Co  Co12  1  0.750000  0.582718  0.990027  1
  Co  Co13  1  0.750000  0.917282  0.990027  1
  Co  Co14  1  0.250000  0.454292  0.568695  1
  Co  Co15  1  0.250000  0.045708  0.568695  1
  Co  Co16  1  0.750000  0.545708  0.431305  1
  Co  Co17  1  0.750000  0.954292  0.431305  1
  Co  Co18  1  0.250000  0.874221  0.291965  1
  Co  Co19  1  0.250000  0.625779  0.291965  1
  Co  Co20  1  0.750000  0.125779  0.708035  1
  Co  Co21  1  0.750000  0.374221  0.708035  1
  P  P22  1  0.250000  0.250000  0.121476  1
  P  P23  1  0.750000  0.750000  0.878524  1
  P  P24  1  0.250000  0.250000  0.647682  1
  P  P25  1  0.750000  0.750000  0.352318  1
  P  P26  1  0.250000  0.436605  0.380818  1
  P  P27  1  0.250000  0.063395  0.380818  1
  P  P28  1  0.750000  0.563395  0.619182  1
  P  P29  1  0.750000  0.936605  0.619182  1
  P  P30  1  0.250000  0.909144  0.109470  1
  P  P31  1  0.250000  0.590856  0.109470  1
  P  P32  1  0.750000  0.090856  0.890530  1
  P  P33  1  0.750000  0.409144  0.890530  1
  W  W34  1  0.250000  0.250000  0.842727  1
  W  W35  1  0.750000  0.750000  0.157273  1
