# generated using pymatgen
data_ZnAs2F12
_symmetry_space_group_name_H-M   'P 1'
_cell_length_a   5.37583162
_cell_length_b   10.82297646
_cell_length_c   5.37361003
_cell_angle_alpha   57.28215214
_cell_angle_beta   57.03762732
_cell_angle_gamma   57.09269205
_symmetry_Int_Tables_number   1
_chemical_formula_structural   ZnAs2F12
_chemical_formula_sum   'Zn1 As2 F12'
_cell_volume   206.49297530
_cell_formula_units_Z   1
loop_
 _symmetry_equiv_pos_site_id
 _symmetry_equiv_pos_as_xyz
  1  'x, y, z'
loop_
 _atom_site_type_symbol
 _atom_site_label
 _atom_site_symmetry_multiplicity
 _atom_site_fract_x
 _atom_site_fract_y
 _atom_site_fract_z
 _atom_site_occupancy
  Zn  Zn0  1  0.000000  0.500000  0.000000  1
  As  As1  1  0.490872  0.247377  0.512135  1
  As  As2  1  0.509128  0.752623  0.487865  1
  F  F3  1  0.143017  0.209376  0.714854  1
  F  F4  1  0.173307  0.683399  0.726628  1
  F  F5  1  0.377395  0.373563  0.158060  1
  F  F6  1  0.398712  0.849570  0.162576  1
  F  F7  1  0.715741  0.092995  0.375052  1
  F  F8  1  0.729639  0.571302  0.390067  1
  F  F9  1  0.270361  0.428698  0.609933  1
  F  F10  1  0.284259  0.907005  0.624948  1
  F  F11  1  0.601288  0.150430  0.837424  1
  F  F12  1  0.622605  0.626437  0.841940  1
  F  F13  1  0.826693  0.316601  0.273372  1
  F  F14  1  0.856983  0.790624  0.285146  1
