# generated using pymatgen
data_Tb2Th3Tl3C
_symmetry_space_group_name_H-M   'P 1'
_cell_length_a   9.37755300
_cell_length_b   9.37755314
_cell_length_c   6.36419600
_cell_angle_alpha   90.00000000
_cell_angle_beta   90.00000000
_cell_angle_gamma   120.00000302
_symmetry_Int_Tables_number   1
_chemical_formula_structural   Tb2Th3Tl3C
_chemical_formula_sum   'Tb4 Th6 Tl6 C2'
_cell_volume   484.67790960
_cell_formula_units_Z   2
loop_
 _symmetry_equiv_pos_site_id
 _symmetry_equiv_pos_as_xyz
  1  'x, y, z'
loop_
 _atom_site_type_symbol
 _atom_site_label
 _atom_site_symmetry_multiplicity
 _atom_site_fract_x
 _atom_site_fract_y
 _atom_site_fract_z
 _atom_site_occupancy
  Tb  Tb0  1  0.666667  0.333333  0.000000  1
  Tb  Tb1  1  0.333333  0.666667  0.000000  1
  Tb  Tb2  1  0.333333  0.666667  0.500000  1
  Tb  Tb3  1  0.666667  0.333333  0.500000  1
  Th  Th4  1  0.780987  0.780987  0.750000  1
  Th  Th5  1  0.219013  0.000000  0.750000  1
  Th  Th6  1  0.000000  0.219013  0.750000  1
  Th  Th7  1  0.219013  0.219013  0.250000  1
  Th  Th8  1  0.780987  0.000000  0.250000  1
  Th  Th9  1  0.000000  0.780987  0.250000  1
  Tl  Tl10  1  0.411195  0.411195  0.750000  1
  Tl  Tl11  1  0.588805  0.000000  0.750000  1
  Tl  Tl12  1  0.000000  0.588805  0.750000  1
  Tl  Tl13  1  0.588805  0.588805  0.250000  1
  Tl  Tl14  1  0.411195  0.000000  0.250000  1
  Tl  Tl15  1  0.000000  0.411195  0.250000  1
  C  C16  1  0.000000  0.000000  0.000000  1
  C  C17  1  0.000000  0.000000  0.500000  1
