# generated using pymatgen
data_Er2Lu10Co5Sn
_symmetry_space_group_name_H-M   'P 1'
_cell_length_a   8.10515237
_cell_length_b   8.10515336
_cell_length_c   8.10515249
_cell_angle_alpha   106.65124520
_cell_angle_beta   111.01589130
_cell_angle_gamma   110.78288865
_symmetry_Int_Tables_number   1
_chemical_formula_structural   Er2Lu10Co5Sn
_chemical_formula_sum   'Er2 Lu10 Co5 Sn1'
_cell_volume   409.14288532
_cell_formula_units_Z   1
loop_
 _symmetry_equiv_pos_site_id
 _symmetry_equiv_pos_as_xyz
  1  'x, y, z'
loop_
 _atom_site_type_symbol
 _atom_site_label
 _atom_site_symmetry_multiplicity
 _atom_site_fract_x
 _atom_site_fract_y
 _atom_site_fract_z
 _atom_site_occupancy
  Er  Er0  1  0.473888  0.287679  0.186209  1
  Er  Er1  1  0.101470  0.287679  0.813791  1
  Lu  Lu2  1  0.898610  0.713749  0.184861  1
  Lu  Lu3  1  0.528887  0.713749  0.815139  1
  Lu  Lu4  1  0.305889  0.620210  0.314321  1
  Lu  Lu5  1  0.305889  0.991570  0.685679  1
  Lu  Lu6  1  0.693874  0.380331  0.686457  1
  Lu  Lu7  1  0.693874  0.007416  0.313543  1
  Lu  Lu8  1  0.193397  0.213221  0.407096  1
  Lu  Lu9  1  0.806125  0.786301  0.592904  1
  Lu  Lu10  1  0.193397  0.786301  0.980174  1
  Lu  Lu11  1  0.806125  0.213221  0.019826  1
  Co  Co12  1  0.501283  0.614584  0.113301  1
  Co  Co13  1  0.501283  0.387983  0.886699  1
  Co  Co14  1  0.372134  0.998879  0.373255  1
  Co  Co15  1  0.625623  0.998879  0.626745  1
  Co  Co16  1  0.996623  0.996623  0.000000  1
  Sn  Sn17  1  0.001629  0.501629  0.500000  1
