# generated using pymatgen
data_Cs2Mn(WO4)3
_symmetry_space_group_name_H-M   'P 1'
_cell_length_a   7.24844511
_cell_length_b   7.24844583
_cell_length_c   7.24844565
_cell_angle_alpha   61.20962177
_cell_angle_beta   61.20962063
_cell_angle_gamma   61.20962422
_symmetry_Int_Tables_number   1
_chemical_formula_structural   Cs2Mn(WO4)3
_chemical_formula_sum   'Cs2 Mn1 W3 O12'
_cell_volume   276.61638151
_cell_formula_units_Z   1
loop_
 _symmetry_equiv_pos_site_id
 _symmetry_equiv_pos_as_xyz
  1  'x, y, z'
loop_
 _atom_site_type_symbol
 _atom_site_label
 _atom_site_symmetry_multiplicity
 _atom_site_fract_x
 _atom_site_fract_y
 _atom_site_fract_z
 _atom_site_occupancy
  Cs  Cs0  1  0.631567  0.631567  0.631567  1
  Cs  Cs1  1  0.368433  0.368433  0.368433  1
  Mn  Mn2  1  0.000000  0.000000  0.000000  1
  W  W3  1  0.500000  0.000000  0.000000  1
  W  W4  1  0.000000  0.000000  0.500000  1
  W  W5  1  0.000000  0.500000  0.000000  1
  O  O6  1  0.943447  0.314703  0.314703  1
  O  O7  1  0.307124  0.941525  0.941525  1
  O  O8  1  0.314703  0.314703  0.943447  1
  O  O9  1  0.941525  0.941525  0.307124  1
  O  O10  1  0.941525  0.307124  0.941525  1
  O  O11  1  0.314703  0.943447  0.314703  1
  O  O12  1  0.056553  0.685297  0.685297  1
  O  O13  1  0.692876  0.058475  0.058475  1
  O  O14  1  0.685297  0.685297  0.056553  1
  O  O15  1  0.058475  0.058475  0.692876  1
  O  O16  1  0.058475  0.692876  0.058475  1
  O  O17  1  0.685297  0.056553  0.685297  1
