# generated using pymatgen
data_Dy2HoCI3
_symmetry_space_group_name_H-M   'P 1'
_cell_length_a   3.89738300
_cell_length_b   8.69107881
_cell_length_c   11.92120810
_cell_angle_alpha   92.22669419
_cell_angle_beta   90.00000000
_cell_angle_gamma   90.00000000
_symmetry_Int_Tables_number   1
_chemical_formula_structural   Dy2HoCI3
_chemical_formula_sum   'Dy4 Ho2 C2 I6'
_cell_volume   403.49577745
_cell_formula_units_Z   2
loop_
 _symmetry_equiv_pos_site_id
 _symmetry_equiv_pos_as_xyz
  1  'x, y, z'
loop_
 _atom_site_type_symbol
 _atom_site_label
 _atom_site_symmetry_multiplicity
 _atom_site_fract_x
 _atom_site_fract_y
 _atom_site_fract_z
 _atom_site_occupancy
  Dy  Dy0  1  0.250000  0.918822  0.598904  1
  Dy  Dy1  1  0.750000  0.081178  0.401096  1
  Dy  Dy2  1  0.250000  0.887208  0.188861  1
  Dy  Dy3  1  0.750000  0.112792  0.811139  1
  Ho  Ho4  1  0.250000  0.290765  0.614706  1
  Ho  Ho5  1  0.750000  0.709235  0.385294  1
  C  C6  1  0.250000  0.882197  0.387789  1
  C  C7  1  0.750000  0.117803  0.612211  1
  I  I8  1  0.250000  0.859408  0.872001  1
  I  I9  1  0.750000  0.140592  0.127999  1
  I  I10  1  0.250000  0.375187  0.869848  1
  I  I11  1  0.750000  0.624813  0.130152  1
  I  I12  1  0.250000  0.382797  0.368636  1
  I  I13  1  0.750000  0.617203  0.631364  1
