# generated using pymatgen
data_Ta2TiB3Os2Ru
_symmetry_space_group_name_H-M   'P 1'
_cell_length_a   3.10468500
_cell_length_b   9.01527300
_cell_length_c   15.60473700
_cell_angle_alpha   90.00000000
_cell_angle_beta   90.00000000
_cell_angle_gamma   90.00000000
_symmetry_Int_Tables_number   1
_chemical_formula_structural   Ta2TiB3Os2Ru
_chemical_formula_sum   'Ta8 Ti4 B12 Os8 Ru4'
_cell_volume   436.77007918
_cell_formula_units_Z   4
loop_
 _symmetry_equiv_pos_site_id
 _symmetry_equiv_pos_as_xyz
  1  'x, y, z'
loop_
 _atom_site_type_symbol
 _atom_site_label
 _atom_site_symmetry_multiplicity
 _atom_site_fract_x
 _atom_site_fract_y
 _atom_site_fract_z
 _atom_site_occupancy
  Ta  Ta0  1  0.000000  0.516994  0.593710  1
  Ta  Ta1  1  0.000000  0.483006  0.406290  1
  Ta  Ta2  1  0.000000  0.016994  0.906290  1
  Ta  Ta3  1  0.000000  0.983006  0.093710  1
  Ta  Ta4  1  0.000000  0.687314  0.203612  1
  Ta  Ta5  1  0.000000  0.312686  0.796388  1
  Ta  Ta6  1  0.000000  0.187314  0.296388  1
  Ta  Ta7  1  0.000000  0.812686  0.703612  1
  Ti  Ti8  1  0.000000  0.802901  0.494199  1
  Ti  Ti9  1  0.000000  0.197099  0.505801  1
  Ti  Ti10  1  0.000000  0.302901  0.005801  1
  Ti  Ti11  1  0.000000  0.697099  0.994199  1
  B  B12  1  0.500000  0.609052  0.495372  1
  B  B13  1  0.500000  0.390948  0.504628  1
  B  B14  1  0.500000  0.109052  0.004628  1
  B  B15  1  0.500000  0.890948  0.995372  1
  B  B16  1  0.000000  0.607201  0.835479  1
  B  B17  1  0.000000  0.392799  0.164521  1
  B  B18  1  0.000000  0.107201  0.664521  1
  B  B19  1  0.000000  0.892799  0.335479  1
  B  B20  1  0.500000  0.717738  0.596399  1
  B  B21  1  0.500000  0.282262  0.403601  1
  B  B22  1  0.500000  0.217738  0.903601  1
  B  B23  1  0.500000  0.782262  0.096399  1
  Os  Os24  1  0.500000  0.719305  0.357380  1
  Os  Os25  1  0.500000  0.280695  0.642620  1
  Os  Os26  1  0.500000  0.219305  0.142620  1
  Os  Os27  1  0.500000  0.780695  0.857380  1
  Os  Os28  1  0.500000  0.519951  0.093342  1
  Os  Os29  1  0.500000  0.480049  0.906658  1
  Os  Os30  1  0.500000  0.019951  0.406658  1
  Os  Os31  1  0.500000  0.980049  0.593342  1
  Ru  Ru32  1  0.500000  0.563071  0.734107  1
  Ru  Ru33  1  0.500000  0.436929  0.265893  1
  Ru  Ru34  1  0.500000  0.063071  0.765893  1
  Ru  Ru35  1  0.500000  0.936929  0.234107  1
