# generated using pymatgen
data_HoThZn4
_symmetry_space_group_name_H-M   'P 1'
_cell_length_a   5.71218899
_cell_length_b   5.71218873
_cell_length_c   5.71218916
_cell_angle_alpha   133.10709175
_cell_angle_beta   101.34571487
_cell_angle_gamma   96.88675662
_symmetry_Int_Tables_number   1
_chemical_formula_structural   HoThZn4
_chemical_formula_sum   'Ho1 Th1 Zn4'
_cell_volume   124.70909147
_cell_formula_units_Z   1
loop_
 _symmetry_equiv_pos_site_id
 _symmetry_equiv_pos_as_xyz
  1  'x, y, z'
loop_
 _atom_site_type_symbol
 _atom_site_label
 _atom_site_symmetry_multiplicity
 _atom_site_fract_x
 _atom_site_fract_y
 _atom_site_fract_z
 _atom_site_occupancy
  Ho  Ho0  1  0.222941  0.472941  0.750000  1
  Th  Th1  1  0.786758  0.536758  0.250000  1
  Zn  Zn2  1  0.209878  0.163125  0.046754  1
  Zn  Zn3  1  0.782260  0.832026  0.950234  1
  Zn  Zn4  1  0.616370  0.163125  0.453246  1
  Zn  Zn5  1  0.381793  0.832026  0.549766  1
