# generated using pymatgen
data_CaTlPS4
_symmetry_space_group_name_H-M   'P 1'
_cell_length_a   6.43163800
_cell_length_b   6.68105200
_cell_length_c   17.22589700
_cell_angle_alpha   90.00000000
_cell_angle_beta   90.00000000
_cell_angle_gamma   90.00000000
_symmetry_Int_Tables_number   1
_chemical_formula_structural   CaTlPS4
_chemical_formula_sum   'Ca4 Tl4 P4 S16'
_cell_volume   740.19865316
_cell_formula_units_Z   4
loop_
 _symmetry_equiv_pos_site_id
 _symmetry_equiv_pos_as_xyz
  1  'x, y, z'
loop_
 _atom_site_type_symbol
 _atom_site_label
 _atom_site_symmetry_multiplicity
 _atom_site_fract_x
 _atom_site_fract_y
 _atom_site_fract_z
 _atom_site_occupancy
  Ca  Ca0  1  0.290407  0.473053  0.227251  1
  Ca  Ca1  1  0.790407  0.026947  0.772749  1
  Ca  Ca2  1  0.709593  0.973053  0.272749  1
  Ca  Ca3  1  0.209593  0.526947  0.727251  1
  Tl  Tl4  1  0.966916  0.986764  0.044024  1
  Tl  Tl5  1  0.466916  0.513236  0.955976  1
  Tl  Tl6  1  0.033084  0.486764  0.455976  1
  Tl  Tl7  1  0.533084  0.013236  0.544024  1
  P  P8  1  0.213598  0.011661  0.339793  1
  P  P9  1  0.286402  0.988339  0.839793  1
  P  P10  1  0.713598  0.488339  0.660207  1
  P  P11  1  0.786402  0.511661  0.160207  1
  S  S12  1  0.371042  0.943994  0.725704  1
  S  S13  1  0.128958  0.056006  0.225704  1
  S  S14  1  0.414411  0.241467  0.366909  1
  S  S15  1  0.914411  0.258533  0.633091  1
  S  S16  1  0.882113  0.747824  0.646917  1
  S  S17  1  0.958123  0.010306  0.410390  1
  S  S18  1  0.041877  0.510306  0.089610  1
  S  S19  1  0.117887  0.247824  0.853083  1
  S  S20  1  0.628958  0.443994  0.774296  1
  S  S21  1  0.085589  0.758533  0.866909  1
  S  S22  1  0.585589  0.741467  0.133091  1
  S  S23  1  0.871042  0.556006  0.274296  1
  S  S24  1  0.382113  0.752176  0.353083  1
  S  S25  1  0.458123  0.489694  0.589610  1
  S  S26  1  0.541877  0.989694  0.910390  1
  S  S27  1  0.617887  0.252176  0.146917  1
