# generated using pymatgen
data_Sr6TbTm(BO3)6
_symmetry_space_group_name_H-M   'P 1'
_cell_length_a   7.91199072
_cell_length_b   7.91199121
_cell_length_c   7.91199000
_cell_angle_alpha   105.03530893
_cell_angle_beta   105.03530292
_cell_angle_gamma   105.03531226
_symmetry_Int_Tables_number   1
_chemical_formula_structural   Sr6TbTm(BO3)6
_chemical_formula_sum   'Sr6 Tb1 Tm1 B6 O18'
_cell_volume   432.68899763
_cell_formula_units_Z   1
loop_
 _symmetry_equiv_pos_site_id
 _symmetry_equiv_pos_as_xyz
  1  'x, y, z'
loop_
 _atom_site_type_symbol
 _atom_site_label
 _atom_site_symmetry_multiplicity
 _atom_site_fract_x
 _atom_site_fract_y
 _atom_site_fract_z
 _atom_site_occupancy
  Sr  Sr0  1  0.360102  0.735016  0.858864  1
  Sr  Sr1  1  0.858864  0.360102  0.735016  1
  Sr  Sr2  1  0.735016  0.858864  0.360102  1
  Sr  Sr3  1  0.639898  0.264984  0.141136  1
  Sr  Sr4  1  0.141136  0.639898  0.264984  1
  Sr  Sr5  1  0.264984  0.141136  0.639898  1
  Tb  Tb6  1  0.000000  0.000000  0.000000  1
  Tm  Tm7  1  0.500000  0.500000  0.500000  1
  B  B8  1  0.706757  0.611242  0.958397  1
  B  B9  1  0.958397  0.706757  0.611242  1
  B  B10  1  0.611242  0.958397  0.706757  1
  B  B11  1  0.041603  0.293243  0.388758  1
  B  B12  1  0.388758  0.041603  0.293243  1
  B  B13  1  0.293243  0.388758  0.041603  1
  O  O14  1  0.045504  0.810783  0.522955  1
  O  O15  1  0.522955  0.045504  0.810783  1
  O  O16  1  0.443213  0.492823  0.209547  1
  O  O17  1  0.492823  0.209547  0.443213  1
  O  O18  1  0.209547  0.443213  0.492823  1
  O  O19  1  0.790453  0.556787  0.507177  1
  O  O20  1  0.556787  0.507177  0.790453  1
  O  O21  1  0.507177  0.790453  0.556787  1
  O  O22  1  0.254864  0.196966  0.968356  1
  O  O23  1  0.196966  0.968356  0.254864  1
  O  O24  1  0.968356  0.254864  0.196966  1
  O  O25  1  0.745136  0.803034  0.031644  1
  O  O26  1  0.803034  0.031644  0.745136  1
  O  O27  1  0.031644  0.745136  0.803034  1
  O  O28  1  0.189217  0.477045  0.954496  1
  O  O29  1  0.477045  0.954496  0.189217  1
  O  O30  1  0.954496  0.189217  0.477045  1
  O  O31  1  0.810783  0.522955  0.045504  1
