# generated using pymatgen
data_Ce2RuRhF14
_symmetry_space_group_name_H-M   'P 1'
_cell_length_a   5.56449641
_cell_length_b   8.94286312
_cell_length_c   11.99956200
_cell_angle_alpha   62.67199443
_cell_angle_beta   90.55217774
_cell_angle_gamma   89.83116391
_symmetry_Int_Tables_number   1
_chemical_formula_structural   Ce2RuRhF14
_chemical_formula_sum   'Ce4 Ru2 Rh2 F28'
_cell_volume   530.44190397
_cell_formula_units_Z   2
loop_
 _symmetry_equiv_pos_site_id
 _symmetry_equiv_pos_as_xyz
  1  'x, y, z'
loop_
 _atom_site_type_symbol
 _atom_site_label
 _atom_site_symmetry_multiplicity
 _atom_site_fract_x
 _atom_site_fract_y
 _atom_site_fract_z
 _atom_site_occupancy
  Ce  Ce0  1  0.258232  0.809572  0.260105  1
  Ce  Ce1  1  0.741768  0.190428  0.739895  1
  Ce  Ce2  1  0.756369  0.199525  0.229562  1
  Ce  Ce3  1  0.243631  0.800475  0.770438  1
  Ru  Ru4  1  0.255470  0.270479  0.459945  1
  Ru  Ru5  1  0.744530  0.729521  0.540055  1
  Rh  Rh6  1  0.756945  0.728804  0.041824  1
  Rh  Rh7  1  0.243055  0.271196  0.958176  1
  F  F8  1  0.943025  0.708528  0.413856  1
  F  F9  1  0.056975  0.291472  0.586144  1
  F  F10  1  0.436846  0.293722  0.088726  1
  F  F11  1  0.563154  0.706278  0.911274  1
  F  F12  1  0.464720  0.724348  0.136717  1
  F  F13  1  0.535280  0.275652  0.863283  1
  F  F14  1  0.965831  0.270046  0.365786  1
  F  F15  1  0.034169  0.729954  0.634214  1
  F  F16  1  0.940937  0.744352  0.177606  1
  F  F17  1  0.059063  0.255648  0.822394  1
  F  F18  1  0.446760  0.252289  0.329076  1
  F  F19  1  0.553240  0.747711  0.670924  1
  F  F20  1  0.772577  0.481054  0.143089  1
  F  F21  1  0.227423  0.518946  0.856911  1
  F  F22  1  0.270488  0.514083  0.362379  1
  F  F23  1  0.729512  0.485917  0.637621  1
  F  F24  1  0.941657  0.277568  0.043119  1
  F  F25  1  0.058343  0.722432  0.956881  1
  F  F26  1  0.446655  0.722898  0.452359  1
  F  F27  1  0.553345  0.277102  0.547641  1
  F  F28  1  0.741659  0.972699  0.447074  1
  F  F29  1  0.258341  0.027301  0.552926  1
  F  F30  1  0.242224  0.022660  0.053673  1
  F  F31  1  0.757776  0.977340  0.946327  1
  F  F32  1  0.598065  0.967811  0.229832  1
  F  F33  1  0.401935  0.032189  0.770168  1
  F  F34  1  0.095776  0.033450  0.270786  1
  F  F35  1  0.904224  0.966550  0.729214  1
