# generated using pymatgen
data_In3Sn11(Ir2Ru)2
_symmetry_space_group_name_H-M   'P 1'
_cell_length_a   8.24540737
_cell_length_b   8.24718816
_cell_length_c   8.24718734
_cell_angle_alpha   110.21646434
_cell_angle_beta   109.59517008
_cell_angle_gamma   108.61463579
_symmetry_Int_Tables_number   1
_chemical_formula_structural   In3Sn11(Ir2Ru)2
_chemical_formula_sum   'In3 Sn11 Ir4 Ru2'
_cell_volume   431.58840823
_cell_formula_units_Z   1
loop_
 _symmetry_equiv_pos_site_id
 _symmetry_equiv_pos_as_xyz
  1  'x, y, z'
loop_
 _atom_site_type_symbol
 _atom_site_label
 _atom_site_symmetry_multiplicity
 _atom_site_fract_x
 _atom_site_fract_y
 _atom_site_fract_z
 _atom_site_occupancy
  In  In0  1  0.251770  0.750613  0.501156  1
  In  In1  1  0.752006  0.250864  0.501142  1
  In  In2  1  0.753759  0.501885  0.251874  1
  Sn  Sn3  1  0.252342  0.502657  0.749684  1
  Sn  Sn4  1  0.505851  0.754030  0.254877  1
  Sn  Sn5  1  0.505851  0.250974  0.751821  1
  Sn  Sn6  1  0.997443  0.997231  0.323426  1
  Sn  Sn7  1  0.674998  0.999998  0.997962  1
  Sn  Sn8  1  0.997443  0.674017  0.000211  1
  Sn  Sn9  1  0.326191  0.326194  0.327048  1
  Sn  Sn10  1  0.994674  0.322782  0.997746  1
  Sn  Sn11  1  0.674998  0.677035  0.674999  1
  Sn  Sn12  1  0.326191  0.999144  0.999999  1
  Sn  Sn13  1  0.994674  0.996928  0.671893  1
  Ir  Ir14  1  0.340903  0.000194  0.340709  1
  Ir  Ir15  1  0.003803  0.341278  0.344664  1
  Ir  Ir16  1  0.003803  0.659139  0.662524  1
  Ir  Ir17  1  0.338250  0.341475  0.996775  1
  Ru  Ru18  1  0.649579  0.653270  0.996309  1
  Ru  Ru19  1  0.655475  0.000294  0.655181  1
