# generated using pymatgen
data_MgNb6VS12
_symmetry_space_group_name_H-M   'P 1'
_cell_length_a   5.81709700
_cell_length_b   5.81709658
_cell_length_c   12.54578000
_cell_angle_alpha   90.00000000
_cell_angle_beta   90.00000000
_cell_angle_gamma   120.00000810
_symmetry_Int_Tables_number   1
_chemical_formula_structural   MgNb6VS12
_chemical_formula_sum   'Mg1 Nb6 V1 S12'
_cell_volume   367.65531067
_cell_formula_units_Z   1
loop_
 _symmetry_equiv_pos_site_id
 _symmetry_equiv_pos_as_xyz
  1  'x, y, z'
loop_
 _atom_site_type_symbol
 _atom_site_label
 _atom_site_symmetry_multiplicity
 _atom_site_fract_x
 _atom_site_fract_y
 _atom_site_fract_z
 _atom_site_occupancy
  Mg  Mg0  1  0.666667  0.333333  0.750000  1
  Nb  Nb1  1  0.333333  0.666667  0.495335  1
  Nb  Nb2  1  0.666667  0.333333  0.008608  1
  Nb  Nb3  1  0.666667  0.333333  0.491392  1
  Nb  Nb4  1  0.333333  0.666667  0.004665  1
  Nb  Nb5  1  0.000000  0.000000  0.492663  1
  Nb  Nb6  1  0.000000  0.000000  0.007337  1
  V  V7  1  0.333333  0.666667  0.250000  1
  S  S8  1  0.664291  0.667174  0.368093  1
  S  S9  1  0.332826  0.997118  0.368093  1
  S  S10  1  0.002882  0.335709  0.368093  1
  S  S11  1  0.000896  0.669861  0.880738  1
  S  S12  1  0.330139  0.999104  0.619262  1
  S  S13  1  0.330139  0.331033  0.880738  1
  S  S14  1  0.668967  0.999104  0.880738  1
  S  S15  1  0.332826  0.335709  0.131907  1
  S  S16  1  0.664291  0.997118  0.131907  1
  S  S17  1  0.668967  0.669861  0.619262  1
  S  S18  1  0.000896  0.331033  0.619262  1
  S  S19  1  0.002882  0.667174  0.131907  1
