# generated using pymatgen
data_La4Pr12Cd4RuPt3
_symmetry_space_group_name_H-M   'P 1'
_cell_length_a   10.12283210
_cell_length_b   10.12282502
_cell_length_c   10.12280119
_cell_angle_alpha   59.69577148
_cell_angle_beta   59.69173623
_cell_angle_gamma   59.69315591
_symmetry_Int_Tables_number   1
_chemical_formula_structural   La4Pr12Cd4RuPt3
_chemical_formula_sum   'La4 Pr12 Cd4 Ru1 Pt3'
_cell_volume   728.37613920
_cell_formula_units_Z   1
loop_
 _symmetry_equiv_pos_site_id
 _symmetry_equiv_pos_as_xyz
  1  'x, y, z'
loop_
 _atom_site_type_symbol
 _atom_site_label
 _atom_site_symmetry_multiplicity
 _atom_site_fract_x
 _atom_site_fract_y
 _atom_site_fract_z
 _atom_site_occupancy
  La  La0  1  0.351048  0.350993  0.351005  1
  La  La1  1  0.345606  0.345534  0.955226  1
  La  La2  1  0.345543  0.955213  0.345634  1
  La  La3  1  0.955251  0.345576  0.345516  1
  Pr  Pr4  1  0.816577  0.188688  0.188614  1
  Pr  Pr5  1  0.189434  0.808432  0.808447  1
  Pr  Pr6  1  0.188644  0.816592  0.188673  1
  Pr  Pr7  1  0.808478  0.189407  0.808437  1
  Pr  Pr8  1  0.188637  0.188698  0.816565  1
  Pr  Pr9  1  0.808442  0.808443  0.189500  1
  Pr  Pr10  1  0.936364  0.564042  0.563941  1
  Pr  Pr11  1  0.559811  0.936143  0.936159  1
  Pr  Pr12  1  0.564040  0.936288  0.564052  1
  Pr  Pr13  1  0.936077  0.559912  0.936112  1
  Pr  Pr14  1  0.564071  0.563979  0.936284  1
  Pr  Pr15  1  0.936071  0.936139  0.559848  1
  Cd  Cd16  1  0.579563  0.579567  0.579573  1
  Cd  Cd17  1  0.580613  0.580642  0.258535  1
  Cd  Cd18  1  0.580614  0.258516  0.580664  1
  Cd  Cd19  1  0.258530  0.580633  0.580633  1
  Ru  Ru20  1  0.144192  0.144207  0.144204  1
  Pt  Pt21  1  0.144982  0.145023  0.572377  1
  Pt  Pt22  1  0.145040  0.572360  0.144988  1
  Pt  Pt23  1  0.572367  0.144974  0.145008  1
