# generated using pymatgen
data_TiNb8BiS16
_symmetry_space_group_name_H-M   'P 1'
_cell_length_a   6.73141000
_cell_length_b   6.73140958
_cell_length_c   13.25037000
_cell_angle_alpha   90.00000000
_cell_angle_beta   90.00000000
_cell_angle_gamma   120.00001190
_symmetry_Int_Tables_number   1
_chemical_formula_structural   TiNb8BiS16
_chemical_formula_sum   'Ti1 Nb8 Bi1 S16'
_cell_volume   519.96085021
_cell_formula_units_Z   1
loop_
 _symmetry_equiv_pos_site_id
 _symmetry_equiv_pos_as_xyz
  1  'x, y, z'
loop_
 _atom_site_type_symbol
 _atom_site_label
 _atom_site_symmetry_multiplicity
 _atom_site_fract_x
 _atom_site_fract_y
 _atom_site_fract_z
 _atom_site_occupancy
  Ti  Ti0  1  0.000000  0.000000  0.000000  1
  Nb  Nb1  1  0.000000  0.000000  0.233335  1
  Nb  Nb2  1  0.000000  0.000000  0.766665  1
  Nb  Nb3  1  0.505660  0.494340  0.231976  1
  Nb  Nb4  1  0.505660  0.011322  0.231976  1
  Nb  Nb5  1  0.988678  0.494340  0.231976  1
  Nb  Nb6  1  0.494340  0.505660  0.768024  1
  Nb  Nb7  1  0.494340  0.988678  0.768024  1
  Nb  Nb8  1  0.011322  0.505660  0.768024  1
  Bi  Bi9  1  0.000000  0.000000  0.500000  1
  S  S10  1  0.333333  0.666667  0.888252  1
  S  S11  1  0.666667  0.333333  0.111748  1
  S  S12  1  0.666667  0.333333  0.353421  1
  S  S13  1  0.333333  0.666667  0.646579  1
  S  S14  1  0.170319  0.829681  0.350554  1
  S  S15  1  0.170319  0.340639  0.350554  1
  S  S16  1  0.659361  0.829681  0.350554  1
  S  S17  1  0.829681  0.170319  0.649446  1
  S  S18  1  0.829681  0.659361  0.649446  1
  S  S19  1  0.340639  0.170319  0.649446  1
  S  S20  1  0.833825  0.166175  0.886296  1
  S  S21  1  0.833825  0.667651  0.886296  1
  S  S22  1  0.332349  0.166175  0.886296  1
  S  S23  1  0.166175  0.833825  0.113704  1
  S  S24  1  0.166175  0.332349  0.113704  1
  S  S25  1  0.667651  0.833825  0.113704  1
