# generated using pymatgen
data_Eu3(CoH6)2
_symmetry_space_group_name_H-M   'P 1'
_cell_length_a   4.92697800
_cell_length_b   4.92697740
_cell_length_c   8.13768500
_cell_angle_alpha   90.00000000
_cell_angle_beta   90.00000000
_cell_angle_gamma   119.99999058
_symmetry_Int_Tables_number   1
_chemical_formula_structural   Eu3(CoH6)2
_chemical_formula_sum   'Eu3 Co2 H12'
_cell_volume   171.07743937
_cell_formula_units_Z   1
loop_
 _symmetry_equiv_pos_site_id
 _symmetry_equiv_pos_as_xyz
  1  'x, y, z'
loop_
 _atom_site_type_symbol
 _atom_site_label
 _atom_site_symmetry_multiplicity
 _atom_site_fract_x
 _atom_site_fract_y
 _atom_site_fract_z
 _atom_site_occupancy
  Eu  Eu0  1  0.000000  0.000000  0.000000  1
  Eu  Eu1  1  0.666667  0.333333  0.359194  1
  Eu  Eu2  1  0.333333  0.666667  0.640806  1
  Co  Co3  1  0.666667  0.333333  0.754536  1
  Co  Co4  1  0.333333  0.666667  0.245464  1
  H  H5  1  0.182236  0.817764  0.355390  1
  H  H6  1  0.635529  0.817764  0.355390  1
  H  H7  1  0.182236  0.364471  0.355390  1
  H  H8  1  0.817764  0.182236  0.644610  1
  H  H9  1  0.364471  0.182236  0.644610  1
  H  H10  1  0.817764  0.635529  0.644610  1
  H  H11  1  0.520936  0.041872  0.869379  1
  H  H12  1  0.520936  0.479064  0.869379  1
  H  H13  1  0.958128  0.479064  0.869379  1
  H  H14  1  0.479064  0.958128  0.130621  1
  H  H15  1  0.479064  0.520936  0.130621  1
  H  H16  1  0.041872  0.520936  0.130621  1
