# generated using pymatgen
data_Er3Sc2In4IrRh
_symmetry_space_group_name_H-M   'P 1'
_cell_length_a   3.52414200
_cell_length_b   7.87271873
_cell_length_c   17.90468924
_cell_angle_alpha   89.90447776
_cell_angle_beta   90.00000000
_cell_angle_gamma   90.00000000
_symmetry_Int_Tables_number   1
_chemical_formula_structural   Er3Sc2In4IrRh
_chemical_formula_sum   'Er6 Sc4 In8 Ir2 Rh2'
_cell_volume   496.75736970
_cell_formula_units_Z   2
loop_
 _symmetry_equiv_pos_site_id
 _symmetry_equiv_pos_as_xyz
  1  'x, y, z'
loop_
 _atom_site_type_symbol
 _atom_site_label
 _atom_site_symmetry_multiplicity
 _atom_site_fract_x
 _atom_site_fract_y
 _atom_site_fract_z
 _atom_site_occupancy
  Er  Er0  1  0.000000  0.000000  0.000000  1
  Er  Er1  1  0.000000  0.500000  0.500000  1
  Er  Er2  1  0.000000  0.749395  0.781743  1
  Er  Er3  1  0.000000  0.250605  0.218257  1
  Er  Er4  1  0.000000  0.247743  0.717819  1
  Er  Er5  1  0.000000  0.752257  0.282181  1
  Sc  Sc6  1  0.000000  0.877463  0.588551  1
  Sc  Sc7  1  0.000000  0.122537  0.411449  1
  Sc  Sc8  1  0.000000  0.377440  0.911314  1
  Sc  Sc9  1  0.000000  0.622560  0.088686  1
  In  In10  1  0.500000  0.808476  0.438258  1
  In  In11  1  0.500000  0.191524  0.561742  1
  In  In12  1  0.500000  0.308778  0.061726  1
  In  In13  1  0.500000  0.691222  0.938274  1
  In  In14  1  0.500000  0.925745  0.149362  1
  In  In15  1  0.500000  0.074255  0.850638  1
  In  In16  1  0.500000  0.425895  0.350544  1
  In  In17  1  0.500000  0.574105  0.649456  1
  Ir  Ir18  1  0.500000  0.963236  0.693156  1
  Ir  Ir19  1  0.500000  0.036764  0.306844  1
  Rh  Rh20  1  0.500000  0.462840  0.807279  1
  Rh  Rh21  1  0.500000  0.537160  0.192721  1
