# generated using pymatgen
data_Sr3LuRhO6
_symmetry_space_group_name_H-M   'P 1'
_cell_length_a   6.81983396
_cell_length_b   6.81983387
_cell_length_c   6.81983430
_cell_angle_alpha   92.38236402
_cell_angle_beta   92.38236453
_cell_angle_gamma   92.38236979
_symmetry_Int_Tables_number   1
_chemical_formula_structural   Sr3LuRhO6
_chemical_formula_sum   'Sr6 Lu2 Rh2 O12'
_cell_volume   316.34538268
_cell_formula_units_Z   2
loop_
 _symmetry_equiv_pos_site_id
 _symmetry_equiv_pos_as_xyz
  1  'x, y, z'
loop_
 _atom_site_type_symbol
 _atom_site_label
 _atom_site_symmetry_multiplicity
 _atom_site_fract_x
 _atom_site_fract_y
 _atom_site_fract_z
 _atom_site_occupancy
  Sr  Sr0  1  0.250000  0.881015  0.618985  1
  Sr  Sr1  1  0.881015  0.618985  0.250000  1
  Sr  Sr2  1  0.750000  0.118985  0.381015  1
  Sr  Sr3  1  0.381015  0.750000  0.118985  1
  Sr  Sr4  1  0.118985  0.381015  0.750000  1
  Sr  Sr5  1  0.618985  0.250000  0.881015  1
  Lu  Lu6  1  0.750000  0.750000  0.750000  1
  Lu  Lu7  1  0.250000  0.250000  0.250000  1
  Rh  Rh8  1  0.500000  0.500000  0.500000  1
  Rh  Rh9  1  0.000000  0.000000  0.000000  1
  O  O10  1  0.593638  0.793027  0.461012  1
  O  O11  1  0.461012  0.593638  0.793027  1
  O  O12  1  0.793027  0.461012  0.593638  1
  O  O13  1  0.906362  0.038988  0.706973  1
  O  O14  1  0.706973  0.906362  0.038988  1
  O  O15  1  0.038988  0.706973  0.906362  1
  O  O16  1  0.406362  0.206973  0.538988  1
  O  O17  1  0.538988  0.406362  0.206973  1
  O  O18  1  0.206973  0.538988  0.406362  1
  O  O19  1  0.093638  0.961012  0.293027  1
  O  O20  1  0.961012  0.293027  0.093638  1
  O  O21  1  0.293027  0.093638  0.961012  1
