# generated using pymatgen
data_DyYTcB6
_symmetry_space_group_name_H-M   'P 1'
_cell_length_a   3.68968000
_cell_length_b   9.17582700
_cell_length_c   11.56514700
_cell_angle_alpha   90.00000000
_cell_angle_beta   90.00000000
_cell_angle_gamma   90.00000000
_symmetry_Int_Tables_number   1
_chemical_formula_structural   DyYTcB6
_chemical_formula_sum   'Dy4 Y4 Tc4 B24'
_cell_volume   391.54805976
_cell_formula_units_Z   4
loop_
 _symmetry_equiv_pos_site_id
 _symmetry_equiv_pos_as_xyz
  1  'x, y, z'
loop_
 _atom_site_type_symbol
 _atom_site_label
 _atom_site_symmetry_multiplicity
 _atom_site_fract_x
 _atom_site_fract_y
 _atom_site_fract_z
 _atom_site_occupancy
  Dy  Dy0  1  0.000000  0.943027  0.369498  1
  Dy  Dy1  1  0.000000  0.056973  0.630502  1
  Dy  Dy2  1  0.000000  0.443027  0.130502  1
  Dy  Dy3  1  0.000000  0.556973  0.869498  1
  Y  Y4  1  0.000000  0.323653  0.414280  1
  Y  Y5  1  0.000000  0.676347  0.585720  1
  Y  Y6  1  0.000000  0.823653  0.085720  1
  Y  Y7  1  0.000000  0.176347  0.914280  1
  Tc  Tc8  1  0.000000  0.638968  0.320382  1
  Tc  Tc9  1  0.000000  0.361032  0.679618  1
  Tc  Tc10  1  0.000000  0.138968  0.179618  1
  Tc  Tc11  1  0.000000  0.861032  0.820382  1
  B  B12  1  0.500000  0.553655  0.432652  1
  B  B13  1  0.500000  0.446345  0.567348  1
  B  B14  1  0.500000  0.053655  0.067348  1
  B  B15  1  0.500000  0.946345  0.932652  1
  B  B16  1  0.500000  0.748643  0.418333  1
  B  B17  1  0.500000  0.251357  0.581667  1
  B  B18  1  0.500000  0.248643  0.081667  1
  B  B19  1  0.500000  0.751357  0.918333  1
  B  B20  1  0.500000  0.791822  0.265616  1
  B  B21  1  0.500000  0.208178  0.734384  1
  B  B22  1  0.500000  0.291822  0.234384  1
  B  B23  1  0.500000  0.708178  0.765616  1
  B  B24  1  0.500000  0.631064  0.185866  1
  B  B25  1  0.500000  0.368936  0.814134  1
  B  B26  1  0.500000  0.131064  0.314134  1
  B  B27  1  0.500000  0.868936  0.685866  1
  B  B28  1  0.500000  0.982679  0.211877  1
  B  B29  1  0.500000  0.017321  0.788123  1
  B  B30  1  0.500000  0.482679  0.288123  1
  B  B31  1  0.500000  0.517321  0.711877  1
  B  B32  1  0.500000  0.600707  0.028078  1
  B  B33  1  0.500000  0.399293  0.971922  1
  B  B34  1  0.500000  0.100707  0.471922  1
  B  B35  1  0.500000  0.899293  0.528078  1
