# generated using pymatgen
data_Tm3In2GaCuPt2
_symmetry_space_group_name_H-M   'P 1'
_cell_length_a   7.48897052
_cell_length_b   7.46170914
_cell_length_c   3.79290600
_cell_angle_alpha   90.00000000
_cell_angle_beta   90.00000000
_cell_angle_gamma   119.87965718
_symmetry_Int_Tables_number   1
_chemical_formula_structural   Tm3In2GaCuPt2
_chemical_formula_sum   'Tm3 In2 Ga1 Cu1 Pt2'
_cell_volume   183.77588424
_cell_formula_units_Z   1
loop_
 _symmetry_equiv_pos_site_id
 _symmetry_equiv_pos_as_xyz
  1  'x, y, z'
loop_
 _atom_site_type_symbol
 _atom_site_label
 _atom_site_symmetry_multiplicity
 _atom_site_fract_x
 _atom_site_fract_y
 _atom_site_fract_z
 _atom_site_occupancy
  Tm  Tm0  1  0.406025  0.408735  0.500000  1
  Tm  Tm1  1  0.593975  0.002710  0.500000  1
  Tm  Tm2  1  0.000000  0.572004  0.500000  1
  In  In3  1  0.755678  0.750869  0.000000  1
  In  In4  1  0.244322  0.995192  0.000000  1
  Ga  Ga5  1  0.000000  0.254353  0.000000  1
  Cu  Cu6  1  0.000000  0.028854  0.500000  1
  Pt  Pt7  1  0.669492  0.328387  0.000000  1
  Pt  Pt8  1  0.330508  0.658896  0.000000  1
