# generated using pymatgen
data_Hf4Tc24Sn
_symmetry_space_group_name_H-M   'P 1'
_cell_length_a   8.40840709
_cell_length_b   8.40840801
_cell_length_c   8.40840800
_cell_angle_alpha   109.47122301
_cell_angle_beta   109.47122525
_cell_angle_gamma   109.47122060
_symmetry_Int_Tables_number   1
_chemical_formula_structural   Hf4Tc24Sn
_chemical_formula_sum   'Hf4 Tc24 Sn1'
_cell_volume   457.63513033
_cell_formula_units_Z   1
loop_
 _symmetry_equiv_pos_site_id
 _symmetry_equiv_pos_as_xyz
  1  'x, y, z'
loop_
 _atom_site_type_symbol
 _atom_site_label
 _atom_site_symmetry_multiplicity
 _atom_site_fract_x
 _atom_site_fract_y
 _atom_site_fract_z
 _atom_site_occupancy
  Hf  Hf0  1  0.625926  0.000000  0.000000  1
  Hf  Hf1  1  0.000000  0.625926  0.000000  1
  Hf  Hf2  1  0.000000  0.000000  0.625926  1
  Hf  Hf3  1  0.374074  0.374074  0.374074  1
  Tc  Tc4  1  0.391632  0.673433  0.000000  1
  Tc  Tc5  1  0.718198  0.326567  0.326567  1
  Tc  Tc6  1  0.391632  0.000000  0.673433  1
  Tc  Tc7  1  0.673433  0.391632  0.000000  1
  Tc  Tc8  1  0.000000  0.391632  0.673433  1
  Tc  Tc9  1  0.326567  0.718198  0.326567  1
  Tc  Tc10  1  0.326567  0.326567  0.718198  1
  Tc  Tc11  1  0.000000  0.673433  0.391632  1
  Tc  Tc12  1  0.673433  0.000000  0.391632  1
  Tc  Tc13  1  0.608368  0.608368  0.281802  1
  Tc  Tc14  1  0.281802  0.608368  0.608368  1
  Tc  Tc15  1  0.608368  0.281802  0.608368  1
  Tc  Tc16  1  0.374425  0.194492  0.000000  1
  Tc  Tc17  1  0.179932  0.805508  0.805508  1
  Tc  Tc18  1  0.374425  0.000000  0.194492  1
  Tc  Tc19  1  0.194492  0.374425  0.000000  1
  Tc  Tc20  1  0.000000  0.374425  0.194492  1
  Tc  Tc21  1  0.805508  0.179932  0.805508  1
  Tc  Tc22  1  0.805508  0.805508  0.179932  1
  Tc  Tc23  1  0.000000  0.194492  0.374425  1
  Tc  Tc24  1  0.194492  0.000000  0.374425  1
  Tc  Tc25  1  0.625575  0.625575  0.820068  1
  Tc  Tc26  1  0.820068  0.625575  0.625575  1
  Tc  Tc27  1  0.625575  0.820068  0.625575  1
  Sn  Sn28  1  0.000000  0.000000  0.000000  1
