# generated using pymatgen
data_Tb4Ga18Ir5Ru
_symmetry_space_group_name_H-M   'P 1'
_cell_length_a   7.58083322
_cell_length_b   7.58083274
_cell_length_c   9.57890295
_cell_angle_alpha   89.97480644
_cell_angle_beta   89.97481286
_cell_angle_gamma   119.79310105
_symmetry_Int_Tables_number   1
_chemical_formula_structural   Tb4Ga18Ir5Ru
_chemical_formula_sum   'Tb4 Ga18 Ir5 Ru1'
_cell_volume   477.72917463
_cell_formula_units_Z   1
loop_
 _symmetry_equiv_pos_site_id
 _symmetry_equiv_pos_as_xyz
  1  'x, y, z'
loop_
 _atom_site_type_symbol
 _atom_site_label
 _atom_site_symmetry_multiplicity
 _atom_site_fract_x
 _atom_site_fract_y
 _atom_site_fract_z
 _atom_site_occupancy
  Tb  Tb0  1  0.998261  0.670455  0.249342  1
  Tb  Tb1  1  0.001729  0.330230  0.750944  1
  Tb  Tb2  1  0.669770  0.998271  0.249056  1
  Tb  Tb3  1  0.329545  0.001739  0.750658  1
  Ga  Ga4  1  0.130522  0.131153  0.249371  1
  Ga  Ga5  1  0.868847  0.869478  0.750629  1
  Ga  Ga6  1  0.000325  0.335012  0.078391  1
  Ga  Ga7  1  0.999103  0.665457  0.920924  1
  Ga  Ga8  1  0.996866  0.662790  0.578639  1
  Ga  Ga9  1  0.337210  0.003134  0.421361  1
  Ga  Ga10  1  0.998097  0.334607  0.421501  1
  Ga  Ga11  1  0.665393  0.001903  0.578499  1
  Ga  Ga12  1  0.664988  0.999675  0.921609  1
  Ga  Ga13  1  0.334543  0.000897  0.079076  1
  Ga  Ga14  1  0.336451  0.333500  0.562962  1
  Ga  Ga15  1  0.666500  0.663549  0.437038  1
  Ga  Ga16  1  0.666719  0.666873  0.063529  1
  Ga  Ga17  1  0.333127  0.333281  0.936471  1
  Ga  Ga18  1  0.338156  0.546150  0.249507  1
  Ga  Ga19  1  0.661788  0.451327  0.748852  1
  Ga  Ga20  1  0.548673  0.338212  0.251148  1
  Ga  Ga21  1  0.453850  0.661844  0.750493  1
  Ir  Ir22  1  0.671724  0.328276  0.000000  1
  Ir  Ir23  1  0.327764  0.672236  0.000000  1
  Ir  Ir24  1  0.328001  0.671999  0.500000  1
  Ir  Ir25  1  0.999925  0.000075  0.000000  1
  Ir  Ir26  1  0.999997  0.000003  0.500000  1
  Ru  Ru27  1  0.672123  0.327877  0.500000  1
