# generated using pymatgen
data_PrGd4YTa2O14
_symmetry_space_group_name_H-M   'P 1'
_cell_length_a   6.56047127
_cell_length_b   6.56572290
_cell_length_c   7.62308707
_cell_angle_alpha   89.89772838
_cell_angle_beta   90.12994765
_cell_angle_gamma   109.20113171
_symmetry_Int_Tables_number   1
_chemical_formula_structural   PrGd4YTa2O14
_chemical_formula_sum   'Pr1 Gd4 Y1 Ta2 O14'
_cell_volume   310.09103637
_cell_formula_units_Z   1
loop_
 _symmetry_equiv_pos_site_id
 _symmetry_equiv_pos_as_xyz
  1  'x, y, z'
loop_
 _atom_site_type_symbol
 _atom_site_label
 _atom_site_symmetry_multiplicity
 _atom_site_fract_x
 _atom_site_fract_y
 _atom_site_fract_z
 _atom_site_occupancy
  Pr  Pr0  1  0.500421  0.500418  0.500854  1
  Gd  Gd1  1  0.471213  0.473452  0.999701  1
  Gd  Gd2  1  0.533337  0.998694  0.754489  1
  Gd  Gd3  1  0.999001  0.533242  0.245573  1
  Gd  Gd4  1  0.467209  0.998640  0.250141  1
  Y  Y5  1  0.998828  0.466030  0.749489  1
  Ta  Ta6  1  0.000195  0.999987  0.500633  1
  Ta  Ta7  1  0.997650  0.996943  0.999481  1
  O  O8  1  0.681081  0.928425  0.470165  1
  O  O9  1  0.933615  0.683028  0.533432  1
  O  O10  1  0.688216  0.938941  0.034408  1
  O  O11  1  0.949830  0.691830  0.961222  1
  O  O12  1  0.318301  0.070310  0.532789  1
  O  O13  1  0.067221  0.318428  0.468777  1
  O  O14  1  0.323060  0.079536  0.972424  1
  O  O15  1  0.076395  0.322937  0.026352  1
  O  O16  1  0.938636  0.064201  0.749838  1
  O  O17  1  0.059489  0.939410  0.250343  1
  O  O18  1  0.363698  0.628829  0.756485  1
  O  O19  1  0.631501  0.368193  0.242540  1
  O  O20  1  0.641840  0.360024  0.757566  1
  O  O21  1  0.359262  0.638503  0.243298  1
