# generated using pymatgen
data_Tb2Er2Ga20Ni11
_symmetry_space_group_name_H-M   'P 1'
_cell_length_a   4.08217785
_cell_length_b   10.58206030
_cell_length_c   12.97594328
_cell_angle_alpha   80.52476000
_cell_angle_beta   80.82280690
_cell_angle_gamma   78.69516833
_symmetry_Int_Tables_number   1
_chemical_formula_structural   Tb2Er2Ga20Ni11
_chemical_formula_sum   'Tb2 Er2 Ga20 Ni11'
_cell_volume   537.44830842
_cell_formula_units_Z   1
loop_
 _symmetry_equiv_pos_site_id
 _symmetry_equiv_pos_as_xyz
  1  'x, y, z'
loop_
 _atom_site_type_symbol
 _atom_site_label
 _atom_site_symmetry_multiplicity
 _atom_site_fract_x
 _atom_site_fract_y
 _atom_site_fract_z
 _atom_site_occupancy
  Tb  Tb0  1  0.774733  0.633577  0.821332  1
  Tb  Tb1  1  0.884175  0.904296  0.333944  1
  Er  Er2  1  0.121124  0.095325  0.665720  1
  Er  Er3  1  0.230129  0.366493  0.177858  1
  Ga  Ga4  1  0.069039  0.666236  0.202769  1
  Ga  Ga5  1  0.299918  0.902435  0.502371  1
  Ga  Ga6  1  0.608063  0.793267  0.002976  1
  Ga  Ga7  1  0.251466  0.796369  0.703745  1
  Ga  Ga8  1  0.890866  0.670635  0.548375  1
  Ga  Ga9  1  0.752939  0.203973  0.295427  1
  Ga  Ga10  1  0.633257  0.940637  0.802340  1
  Ga  Ga11  1  0.703949  0.097621  0.497497  1
  Ga  Ga12  1  0.398589  0.207339  0.996521  1
  Ga  Ga13  1  0.935749  0.334018  0.795870  1
  Ga  Ga14  1  0.462722  0.703496  0.377448  1
  Ga  Ga15  1  0.996893  0.921571  0.089947  1
  Ga  Ga16  1  0.803054  0.397882  0.003164  1
  Ga  Ga17  1  0.542702  0.295529  0.621781  1
  Ga  Ga18  1  0.008794  0.079322  0.909059  1
  Ga  Ga19  1  0.201914  0.602213  0.996489  1
  Ga  Ga20  1  0.110722  0.329401  0.450522  1
  Ga  Ga21  1  0.373042  0.060026  0.197202  1
  Ga  Ga22  1  0.613745  0.471262  0.306957  1
  Ga  Ga23  1  0.391573  0.528498  0.691332  1
  Ni  Ni24  1  0.138582  0.840197  0.894798  1
  Ni  Ni25  1  0.503774  0.183139  0.811513  1
  Ni  Ni26  1  0.868381  0.160452  0.104630  1
  Ni  Ni27  1  0.976118  0.436961  0.612046  1
  Ni  Ni28  1  0.503323  0.499206  0.499176  1
  Ni  Ni29  1  0.655579  0.579369  0.113872  1
  Ni  Ni30  1  0.029451  0.563095  0.386678  1
  Ni  Ni31  1  0.349219  0.420645  0.885263  1
  Ni  Ni32  1  0.249280  0.119726  0.386456  1
  Ni  Ni33  1  0.501201  0.817165  0.187454  1
  Ni  Ni34  1  0.754742  0.880547  0.613110  1
