# generated using pymatgen
data_Ho3Er2PPb3
_symmetry_space_group_name_H-M   'P 1'
_cell_length_a   9.08658410
_cell_length_b   9.08449807
_cell_length_c   6.76401900
_cell_angle_alpha   89.99881800
_cell_angle_beta   90.00171306
_cell_angle_gamma   119.99027170
_symmetry_Int_Tables_number   1
_chemical_formula_structural   Ho3Er2PPb3
_chemical_formula_sum   'Ho6 Er4 P2 Pb6'
_cell_volume   483.59255174
_cell_formula_units_Z   2
loop_
 _symmetry_equiv_pos_site_id
 _symmetry_equiv_pos_as_xyz
  1  'x, y, z'
loop_
 _atom_site_type_symbol
 _atom_site_label
 _atom_site_symmetry_multiplicity
 _atom_site_fract_x
 _atom_site_fract_y
 _atom_site_fract_z
 _atom_site_occupancy
  Ho  Ho0  1  0.762208  0.762211  0.249943  1
  Ho  Ho1  1  0.237716  0.999865  0.249943  1
  Ho  Ho2  1  0.000081  0.237729  0.249947  1
  Ho  Ho3  1  0.237751  0.237769  0.750086  1
  Ho  Ho4  1  0.762194  0.999875  0.750030  1
  Ho  Ho5  1  0.666696  0.333403  0.500048  1
  Er  Er6  1  0.999991  0.762899  0.750069  1
  Er  Er7  1  0.333277  0.666643  0.500011  1
  Er  Er8  1  0.333299  0.666652  0.999992  1
  Er  Er9  1  0.666722  0.333417  0.999978  1
  P  P10  1  0.000002  0.999655  0.500256  1
  P  P11  1  0.999997  0.999675  0.999732  1
  Pb  Pb12  1  0.400275  0.400565  0.249706  1
  Pb  Pb13  1  0.599459  0.999708  0.249766  1
  Pb  Pb14  1  0.000370  0.599765  0.249786  1
  Pb  Pb15  1  0.599882  0.599904  0.750241  1
  Pb  Pb16  1  0.399810  0.999404  0.750271  1
  Pb  Pb17  1  0.000271  0.400862  0.750198  1
