# generated using pymatgen
data_Rb8Y6ZnBr20
_symmetry_space_group_name_H-M   'P 1'
_cell_length_a   12.42596581
_cell_length_b   12.42596637
_cell_length_c   12.42596600
_cell_angle_alpha   60.00000099
_cell_angle_beta   59.99999949
_cell_angle_gamma   59.99999809
_symmetry_Int_Tables_number   1
_chemical_formula_structural   Rb8Y6ZnBr20
_chemical_formula_sum   'Rb8 Y6 Zn1 Br20'
_cell_volume   1356.67395180
_cell_formula_units_Z   1
loop_
 _symmetry_equiv_pos_site_id
 _symmetry_equiv_pos_as_xyz
  1  'x, y, z'
loop_
 _atom_site_type_symbol
 _atom_site_label
 _atom_site_symmetry_multiplicity
 _atom_site_fract_x
 _atom_site_fract_y
 _atom_site_fract_z
 _atom_site_occupancy
  Rb  Rb0  1  0.358631  0.358631  0.358631  1
  Rb  Rb1  1  0.641369  0.641369  0.641369  1
  Rb  Rb2  1  0.358631  0.358631  0.924108  1
  Rb  Rb3  1  0.358631  0.924108  0.358631  1
  Rb  Rb4  1  0.641369  0.641369  0.075892  1
  Rb  Rb5  1  0.641369  0.075892  0.641369  1
  Rb  Rb6  1  0.924108  0.358631  0.358631  1
  Rb  Rb7  1  0.075892  0.641369  0.641369  1
  Y  Y8  1  0.841506  0.158494  0.158494  1
  Y  Y9  1  0.158494  0.841506  0.841506  1
  Y  Y10  1  0.158494  0.841506  0.158494  1
  Y  Y11  1  0.841506  0.158494  0.841506  1
  Y  Y12  1  0.158494  0.158494  0.841506  1
  Y  Y13  1  0.841506  0.841506  0.158494  1
  Zn  Zn14  1  0.000000  0.000000  0.000000  1
  Br  Br15  1  0.329962  0.000000  0.000000  1
  Br  Br16  1  0.670038  0.000000  0.000000  1
  Br  Br17  1  0.000000  0.329962  0.670038  1
  Br  Br18  1  0.000000  0.670038  0.329962  1
  Br  Br19  1  0.000000  0.329962  0.000000  1
  Br  Br20  1  0.670038  0.000000  0.329962  1
  Br  Br21  1  0.000000  0.670038  0.000000  1
  Br  Br22  1  0.329962  0.000000  0.670038  1
  Br  Br23  1  0.000000  0.000000  0.329962  1
  Br  Br24  1  0.000000  0.000000  0.670038  1
  Br  Br25  1  0.670038  0.329962  0.000000  1
  Br  Br26  1  0.329962  0.670038  0.000000  1
  Br  Br27  1  0.677916  0.322084  0.322084  1
  Br  Br28  1  0.322084  0.677916  0.677916  1
  Br  Br29  1  0.322084  0.677916  0.322084  1
  Br  Br30  1  0.677916  0.322084  0.677916  1
  Br  Br31  1  0.322084  0.322084  0.677916  1
  Br  Br32  1  0.677916  0.677916  0.322084  1
  Br  Br33  1  0.250000  0.250000  0.250000  1
  Br  Br34  1  0.750000  0.750000  0.750000  1
