# generated using pymatgen
data_Pr2ZnRh3
_symmetry_space_group_name_H-M   'P 1'
_cell_length_a   5.26930527
_cell_length_b   5.26930590
_cell_length_c   5.26930516
_cell_angle_alpha   65.15349089
_cell_angle_beta   65.15349271
_cell_angle_gamma   65.15347742
_symmetry_Int_Tables_number   1
_chemical_formula_structural   Pr2ZnRh3
_chemical_formula_sum   'Pr2 Zn1 Rh3'
_cell_volume   115.08007839
_cell_formula_units_Z   1
loop_
 _symmetry_equiv_pos_site_id
 _symmetry_equiv_pos_as_xyz
  1  'x, y, z'
loop_
 _atom_site_type_symbol
 _atom_site_label
 _atom_site_symmetry_multiplicity
 _atom_site_fract_x
 _atom_site_fract_y
 _atom_site_fract_z
 _atom_site_occupancy
  Pr  Pr0  1  0.629796  0.629796  0.629796  1
  Pr  Pr1  1  0.370204  0.370204  0.370204  1
  Zn  Zn2  1  0.000000  0.000000  0.000000  1
  Rh  Rh3  1  0.000000  0.000000  0.500000  1
  Rh  Rh4  1  0.500000  0.000000  0.000000  1
  Rh  Rh5  1  0.000000  0.500000  0.000000  1
