# generated using pymatgen
data_Cd3InIr
_symmetry_space_group_name_H-M   'P 1'
_cell_length_a   5.26568166
_cell_length_b   5.51591377
_cell_length_c   5.51591454
_cell_angle_alpha   110.37189514
_cell_angle_beta   108.55480746
_cell_angle_gamma   108.55478595
_symmetry_Int_Tables_number   1
_chemical_formula_structural   Cd3InIr
_chemical_formula_sum   'Cd3 In1 Ir1'
_cell_volume   124.69670747
_cell_formula_units_Z   1
loop_
 _symmetry_equiv_pos_site_id
 _symmetry_equiv_pos_as_xyz
  1  'x, y, z'
loop_
 _atom_site_type_symbol
 _atom_site_label
 _atom_site_symmetry_multiplicity
 _atom_site_fract_x
 _atom_site_fract_y
 _atom_site_fract_z
 _atom_site_occupancy
  Cd  Cd0  1  0.000000  0.500000  0.000000  1
  Cd  Cd1  1  0.000000  0.000000  0.500000  1
  Cd  Cd2  1  0.500000  0.500000  0.500000  1
  In  In3  1  0.500000  0.000000  0.000000  1
  Ir  Ir4  1  0.000000  0.000000  0.000000  1
