# generated using pymatgen
data_La5SiGeSe3
_symmetry_space_group_name_H-M   'P 1'
_cell_length_a   7.57728159
_cell_length_b   7.57728139
_cell_length_c   7.56292685
_cell_angle_alpha   99.28689571
_cell_angle_beta   99.67661259
_cell_angle_gamma   132.15657913
_symmetry_Int_Tables_number   1
_chemical_formula_structural   La5SiGeSe3
_chemical_formula_sum   'La5 Si1 Ge1 Se3'
_cell_volume   294.13492367
_cell_formula_units_Z   1
loop_
 _symmetry_equiv_pos_site_id
 _symmetry_equiv_pos_as_xyz
  1  'x, y, z'
loop_
 _atom_site_type_symbol
 _atom_site_label
 _atom_site_symmetry_multiplicity
 _atom_site_fract_x
 _atom_site_fract_y
 _atom_site_fract_z
 _atom_site_occupancy
  La  La0  1  0.398397  0.792452  0.190848  1
  La  La1  1  0.001204  0.997498  0.998702  1
  La  La2  1  0.597824  0.204913  0.802738  1
  La  La3  1  0.205084  0.405974  0.611058  1
  La  La4  1  0.797492  0.599056  0.396548  1
  Si  Si5  1  0.500760  0.501459  0.002219  1
  Ge  Ge6  1  0.098384  0.698317  0.796700  1
  Se  Se7  1  0.698580  0.899987  0.598567  1
  Se  Se8  1  0.300449  0.099233  0.399682  1
  Se  Se9  1  0.901826  0.301111  0.202938  1
