# generated using pymatgen
data_Ta6Be14Ni8P
_symmetry_space_group_name_H-M   'P 1'
_cell_length_a   7.56337981
_cell_length_b   7.56338015
_cell_length_c   7.56338000
_cell_angle_alpha   60.00000065
_cell_angle_beta   59.99999917
_cell_angle_gamma   59.99999840
_symmetry_Int_Tables_number   1
_chemical_formula_structural   Ta6Be14Ni8P
_chemical_formula_sum   'Ta6 Be14 Ni8 P1'
_cell_volume   305.93753024
_cell_formula_units_Z   1
loop_
 _symmetry_equiv_pos_site_id
 _symmetry_equiv_pos_as_xyz
  1  'x, y, z'
loop_
 _atom_site_type_symbol
 _atom_site_label
 _atom_site_symmetry_multiplicity
 _atom_site_fract_x
 _atom_site_fract_y
 _atom_site_fract_z
 _atom_site_occupancy
  Ta  Ta0  1  0.700753  0.299247  0.299247  1
  Ta  Ta1  1  0.299247  0.700753  0.700753  1
  Ta  Ta2  1  0.299247  0.700753  0.299247  1
  Ta  Ta3  1  0.700753  0.299247  0.700753  1
  Ta  Ta4  1  0.299247  0.299247  0.700753  1
  Ta  Ta5  1  0.700753  0.700753  0.299247  1
  Be  Be6  1  0.325785  0.325785  0.325785  1
  Be  Be7  1  0.674215  0.674215  0.674215  1
  Be  Be8  1  0.325785  0.325785  0.022643  1
  Be  Be9  1  0.325785  0.022643  0.325785  1
  Be  Be10  1  0.674215  0.674215  0.977357  1
  Be  Be11  1  0.674215  0.977357  0.674215  1
  Be  Be12  1  0.022643  0.325785  0.325785  1
  Be  Be13  1  0.977357  0.674215  0.674215  1
  Be  Be14  1  0.500000  0.000000  0.000000  1
  Be  Be15  1  0.000000  0.500000  0.500000  1
  Be  Be16  1  0.000000  0.500000  0.000000  1
  Be  Be17  1  0.500000  0.000000  0.500000  1
  Be  Be18  1  0.000000  0.000000  0.500000  1
  Be  Be19  1  0.500000  0.500000  0.000000  1
  Ni  Ni20  1  0.122512  0.122512  0.122512  1
  Ni  Ni21  1  0.877488  0.877489  0.877488  1
  Ni  Ni22  1  0.122512  0.122512  0.632465  1
  Ni  Ni23  1  0.122512  0.632465  0.122511  1
  Ni  Ni24  1  0.877488  0.877489  0.367535  1
  Ni  Ni25  1  0.877488  0.367535  0.877488  1
  Ni  Ni26  1  0.632465  0.122512  0.122512  1
  Ni  Ni27  1  0.367535  0.877488  0.877488  1
  P  P28  1  0.000000  0.000000  0.000000  1
