# generated using pymatgen
data_LaY15(TmSn4)4
_symmetry_space_group_name_H-M   'P 1'
_cell_length_a   8.03564616
_cell_length_b   8.17342057
_cell_length_c   15.49129900
_cell_angle_alpha   90.00806852
_cell_angle_beta   89.76574369
_cell_angle_gamma   89.94000674
_symmetry_Int_Tables_number   1
_chemical_formula_structural   LaY15(TmSn4)4
_chemical_formula_sum   'La1 Y15 Tm4 Sn16'
_cell_volume   1017.43954909
_cell_formula_units_Z   1
loop_
 _symmetry_equiv_pos_site_id
 _symmetry_equiv_pos_as_xyz
  1  'x, y, z'
loop_
 _atom_site_type_symbol
 _atom_site_label
 _atom_site_symmetry_multiplicity
 _atom_site_fract_x
 _atom_site_fract_y
 _atom_site_fract_z
 _atom_site_occupancy
  La  La0  1  0.017118  0.179463  0.904517  1
  Y  Y1  1  0.366162  0.836867  0.876670  1
  Y  Y2  1  0.867677  0.662914  0.621400  1
  Y  Y3  1  0.632002  0.162296  0.377355  1
  Y  Y4  1  0.134395  0.337758  0.123301  1
  Y  Y5  1  0.634164  0.162792  0.123520  1
  Y  Y6  1  0.132124  0.337439  0.377589  1
  Y  Y7  1  0.368181  0.837418  0.622134  1
  Y  Y8  1  0.866357  0.662460  0.877182  1
  Y  Y9  1  0.521068  0.322417  0.902888  1
  Y  Y10  1  0.022530  0.178957  0.597916  1
  Y  Y11  1  0.478364  0.678602  0.402549  1
  Y  Y12  1  0.979915  0.819919  0.097481  1
  Y  Y13  1  0.479511  0.679242  0.097373  1
  Y  Y14  1  0.978188  0.821442  0.402623  1
  Y  Y15  1  0.521550  0.321745  0.596175  1
  Tm  Tm16  1  0.199000  0.503185  0.749065  1
  Tm  Tm17  1  0.698432  0.996426  0.748817  1
  Tm  Tm18  1  0.801459  0.497125  0.250351  1
  Tm  Tm19  1  0.301901  0.002957  0.250497  1
  Sn  Sn20  1  0.298845  0.033823  0.044407  1
  Sn  Sn21  1  0.792463  0.463678  0.457402  1
  Sn  Sn22  1  0.707921  0.964899  0.542024  1
  Sn  Sn23  1  0.207993  0.539709  0.958668  1
  Sn  Sn24  1  0.699748  0.957952  0.959737  1
  Sn  Sn25  1  0.207489  0.536245  0.541934  1
  Sn  Sn26  1  0.292653  0.036012  0.457776  1
  Sn  Sn27  1  0.793217  0.464285  0.042811  1
  Sn  Sn28  1  0.563884  0.618611  0.749766  1
  Sn  Sn29  1  0.064235  0.879534  0.749019  1
  Sn  Sn30  1  0.436024  0.382304  0.250391  1
  Sn  Sn31  1  0.936381  0.118197  0.250336  1
  Sn  Sn32  1  0.333327  0.149728  0.748939  1
  Sn  Sn33  1  0.826962  0.353282  0.747300  1
  Sn  Sn34  1  0.669604  0.850615  0.249983  1
  Sn  Sn35  1  0.169162  0.649701  0.250108  1
