# generated using pymatgen
data_Tb5Er11In4(IrPd)2
_symmetry_space_group_name_H-M   'P 1'
_cell_length_a   9.66525418
_cell_length_b   9.59264122
_cell_length_c   9.64623771
_cell_angle_alpha   59.99795348
_cell_angle_beta   60.34430566
_cell_angle_gamma   60.27854040
_symmetry_Int_Tables_number   1
_chemical_formula_structural   Tb5Er11In4(IrPd)2
_chemical_formula_sum   'Tb5 Er11 In4 Ir2 Pd2'
_cell_volume   635.35391742
_cell_formula_units_Z   1
loop_
 _symmetry_equiv_pos_site_id
 _symmetry_equiv_pos_as_xyz
  1  'x, y, z'
loop_
 _atom_site_type_symbol
 _atom_site_label
 _atom_site_symmetry_multiplicity
 _atom_site_fract_x
 _atom_site_fract_y
 _atom_site_fract_z
 _atom_site_occupancy
  Tb  Tb0  1  0.193430  0.185014  0.810857  1
  Tb  Tb1  1  0.440947  0.060442  0.060340  1
  Tb  Tb2  1  0.431236  0.066780  0.435646  1
  Tb  Tb3  1  0.060399  0.444823  0.063046  1
  Tb  Tb4  1  0.647706  0.047844  0.653996  1
  Er  Er5  1  0.189695  0.810809  0.809939  1
  Er  Er6  1  0.057253  0.059499  0.445932  1
  Er  Er7  1  0.808808  0.190771  0.191004  1
  Er  Er8  1  0.809469  0.812270  0.185318  1
  Er  Er9  1  0.647801  0.653269  0.051290  1
  Er  Er10  1  0.645284  0.652695  0.649901  1
  Er  Er11  1  0.060479  0.438569  0.436542  1
  Er  Er12  1  0.057529  0.647516  0.649387  1
  Er  Er13  1  0.809220  0.185487  0.811362  1
  Er  Er14  1  0.435954  0.445560  0.058854  1
  Er  Er15  1  0.193936  0.809302  0.186562  1
  In  In16  1  0.417461  0.747748  0.416820  1
  In  In17  1  0.418512  0.416999  0.748597  1
  In  In18  1  0.748974  0.416501  0.417109  1
  In  In19  1  0.417331  0.417738  0.416230  1
  Ir  Ir20  1  0.427033  0.851023  0.861556  1
  Ir  Ir21  1  0.862507  0.854081  0.855461  1
  Pd  Pd22  1  0.856568  0.430440  0.857526  1
  Pd  Pd23  1  0.862468  0.854820  0.426724  1
