# generated using pymatgen
data_Y8Th4CoTc3
_symmetry_space_group_name_H-M   'P 1'
_cell_length_a   6.37210829
_cell_length_b   7.24439310
_cell_length_c   9.63074300
_cell_angle_alpha   90.00000000
_cell_angle_beta   90.00000000
_cell_angle_gamma   89.98785326
_symmetry_Int_Tables_number   1
_chemical_formula_structural   Y8Th4CoTc3
_chemical_formula_sum   'Y8 Th4 Co1 Tc3'
_cell_volume   444.57490092
_cell_formula_units_Z   1
loop_
 _symmetry_equiv_pos_site_id
 _symmetry_equiv_pos_as_xyz
  1  'x, y, z'
loop_
 _atom_site_type_symbol
 _atom_site_label
 _atom_site_symmetry_multiplicity
 _atom_site_fract_x
 _atom_site_fract_y
 _atom_site_fract_z
 _atom_site_occupancy
  Y  Y0  1  0.325302  0.673376  0.067639  1
  Y  Y1  1  0.168890  0.174420  0.434161  1
  Y  Y2  1  0.668168  0.332298  0.568471  1
  Y  Y3  1  0.829832  0.823727  0.932235  1
  Y  Y4  1  0.668168  0.332298  0.931529  1
  Y  Y5  1  0.829832  0.823727  0.567765  1
  Y  Y6  1  0.325302  0.673376  0.432361  1
  Y  Y7  1  0.168890  0.174420  0.065839  1
  Th  Th8  1  0.850752  0.549603  0.250000  1
  Th  Th9  1  0.641516  0.049518  0.250000  1
  Th  Th10  1  0.160916  0.449101  0.750000  1
  Th  Th11  1  0.355582  0.942729  0.750000  1
  Co  Co12  1  0.523738  0.630976  0.750000  1
  Tc  Tc13  1  0.012284  0.871618  0.250000  1
  Tc  Tc14  1  0.482615  0.372421  0.250000  1
  Tc  Tc15  1  0.988215  0.126393  0.750000  1
