# generated using pymatgen
data_Ni3Mo2PtRh2
_symmetry_space_group_name_H-M   'P 1'
_cell_length_a   4.30827100
_cell_length_b   4.67922437
_cell_length_c   5.34341819
_cell_angle_alpha   90.41394277
_cell_angle_beta   90.00000000
_cell_angle_gamma   90.00000000
_symmetry_Int_Tables_number   1
_chemical_formula_structural   Ni3Mo2PtRh2
_chemical_formula_sum   'Ni3 Mo2 Pt1 Rh2'
_cell_volume   107.71711533
_cell_formula_units_Z   1
loop_
 _symmetry_equiv_pos_site_id
 _symmetry_equiv_pos_as_xyz
  1  'x, y, z'
loop_
 _atom_site_type_symbol
 _atom_site_label
 _atom_site_symmetry_multiplicity
 _atom_site_fract_x
 _atom_site_fract_y
 _atom_site_fract_z
 _atom_site_occupancy
  Ni  Ni0  1  0.500000  0.171677  0.248489  1
  Ni  Ni1  1  0.000000  0.336888  0.490212  1
  Ni  Ni2  1  0.500000  0.659998  0.007871  1
  Mo  Mo3  1  0.500000  0.655380  0.491727  1
  Mo  Mo4  1  0.000000  0.345807  0.009292  1
  Pt  Pt5  1  0.500000  0.170676  0.745092  1
  Rh  Rh6  1  0.000000  0.821950  0.755232  1
  Rh  Rh7  1  0.000000  0.837623  0.252087  1
