# generated using pymatgen
data_NdSm2PaIn2Rh3
_symmetry_space_group_name_H-M   'P 1'
_cell_length_a   7.55835605
_cell_length_b   7.55260391
_cell_length_c   4.30781300
_cell_angle_alpha   90.00000000
_cell_angle_beta   90.00000000
_cell_angle_gamma   120.96525321
_symmetry_Int_Tables_number   1
_chemical_formula_structural   NdSm2PaIn2Rh3
_chemical_formula_sum   'Nd1 Sm2 Pa1 In2 Rh3'
_cell_volume   210.86506640
_cell_formula_units_Z   1
loop_
 _symmetry_equiv_pos_site_id
 _symmetry_equiv_pos_as_xyz
  1  'x, y, z'
loop_
 _atom_site_type_symbol
 _atom_site_label
 _atom_site_symmetry_multiplicity
 _atom_site_fract_x
 _atom_site_fract_y
 _atom_site_fract_z
 _atom_site_occupancy
  Nd  Nd0  1  0.972087  0.406432  0.500000  1
  Sm  Sm1  1  0.626878  0.627156  0.500000  1
  Sm  Sm2  1  0.406196  0.972357  0.500000  1
  Pa  Pa3  1  0.269041  0.268709  0.000000  1
  In  In4  1  0.003553  0.748961  0.000000  1
  In  In5  1  0.747192  0.002300  0.000000  1
  Rh  Rh6  1  0.322230  0.628239  0.000000  1
  Rh  Rh7  1  0.026443  0.025335  0.500000  1
  Rh  Rh8  1  0.626381  0.320512  0.000000  1
