# generated using pymatgen
data_In6Ga2PdO8
_symmetry_space_group_name_H-M   'P 1'
_cell_length_a   7.17345366
_cell_length_b   7.17345433
_cell_length_c   7.17345400
_cell_angle_alpha   60.00000153
_cell_angle_beta   59.99999842
_cell_angle_gamma   59.99999940
_symmetry_Int_Tables_number   1
_chemical_formula_structural   In6Ga2PdO8
_chemical_formula_sum   'In6 Ga2 Pd1 O8'
_cell_volume   261.01769638
_cell_formula_units_Z   1
loop_
 _symmetry_equiv_pos_site_id
 _symmetry_equiv_pos_as_xyz
  1  'x, y, z'
loop_
 _atom_site_type_symbol
 _atom_site_label
 _atom_site_symmetry_multiplicity
 _atom_site_fract_x
 _atom_site_fract_y
 _atom_site_fract_z
 _atom_site_occupancy
  In  In0  1  0.747695  0.747695  0.252305  1
  In  In1  1  0.747695  0.252305  0.747695  1
  In  In2  1  0.252305  0.747695  0.252305  1
  In  In3  1  0.747695  0.252305  0.252305  1
  In  In4  1  0.252305  0.747695  0.747695  1
  In  In5  1  0.252305  0.252305  0.747695  1
  Ga  Ga6  1  0.250000  0.250000  0.250000  1
  Ga  Ga7  1  0.750000  0.750000  0.750000  1
  Pd  Pd8  1  0.000000  0.000000  0.000000  1
  O  O9  1  0.358660  0.924020  0.358660  1
  O  O10  1  0.641340  0.641340  0.075980  1
  O  O11  1  0.641340  0.641340  0.641340  1
  O  O12  1  0.075980  0.641340  0.641340  1
  O  O13  1  0.358660  0.358660  0.358660  1
  O  O14  1  0.924020  0.358660  0.358660  1
  O  O15  1  0.358660  0.358660  0.924020  1
  O  O16  1  0.641340  0.075980  0.641340  1
