# generated using pymatgen
data_Rb6O2F
_symmetry_space_group_name_H-M   'P 1'
_cell_length_a   7.19898000
_cell_length_b   7.19897865
_cell_length_c   8.15302800
_cell_angle_alpha   90.00000000
_cell_angle_beta   90.00000000
_cell_angle_gamma   120.00000621
_symmetry_Int_Tables_number   1
_chemical_formula_structural   Rb6O2F
_chemical_formula_sum   'Rb6 O2 F1'
_cell_volume   365.92441803
_cell_formula_units_Z   1
loop_
 _symmetry_equiv_pos_site_id
 _symmetry_equiv_pos_as_xyz
  1  'x, y, z'
loop_
 _atom_site_type_symbol
 _atom_site_label
 _atom_site_symmetry_multiplicity
 _atom_site_fract_x
 _atom_site_fract_y
 _atom_site_fract_z
 _atom_site_occupancy
  Rb  Rb0  1  0.678599  0.012169  0.832744  1
  Rb  Rb1  1  0.987270  0.320125  0.478837  1
  Rb  Rb2  1  0.679875  0.667145  0.478837  1
  Rb  Rb3  1  0.333570  0.321401  0.832744  1
  Rb  Rb4  1  0.332855  0.012730  0.478837  1
  Rb  Rb5  1  0.987831  0.666430  0.832744  1
  O  O6  1  0.000000  0.000000  0.657271  1
  O  O7  1  0.666667  0.333333  0.655615  1
  F  F8  1  0.333333  0.666667  0.653720  1
