# generated using pymatgen
data_KRb2Mn3F12
_symmetry_space_group_name_H-M   'P 1'
_cell_length_a   7.67428150
_cell_length_b   7.67428115
_cell_length_c   12.65178671
_cell_angle_alpha   73.67496693
_cell_angle_beta   73.67496761
_cell_angle_gamma   59.69680711
_symmetry_Int_Tables_number   1
_chemical_formula_structural   KRb2Mn3F12
_chemical_formula_sum   'K2 Rb4 Mn6 F24'
_cell_volume   608.59489480
_cell_formula_units_Z   2
loop_
 _symmetry_equiv_pos_site_id
 _symmetry_equiv_pos_as_xyz
  1  'x, y, z'
loop_
 _atom_site_type_symbol
 _atom_site_label
 _atom_site_symmetry_multiplicity
 _atom_site_fract_x
 _atom_site_fract_y
 _atom_site_fract_z
 _atom_site_occupancy
  K  K0  1  0.225393  0.774607  0.750000  1
  K  K1  1  0.774607  0.225393  0.250000  1
  Rb  Rb2  1  0.887408  0.482267  0.689445  1
  Rb  Rb3  1  0.112592  0.517733  0.310555  1
  Rb  Rb4  1  0.517733  0.112592  0.810555  1
  Rb  Rb5  1  0.482267  0.887408  0.189445  1
  Mn  Mn6  1  0.500000  0.000000  0.500000  1
  Mn  Mn7  1  0.000000  0.500000  0.000000  1
  Mn  Mn8  1  0.000000  0.000000  0.500000  1
  Mn  Mn9  1  0.000000  0.000000  0.000000  1
  Mn  Mn10  1  0.500000  0.500000  0.500000  1
  Mn  Mn11  1  0.500000  0.500000  0.000000  1
  F  F12  1  0.881960  0.969469  0.649804  1
  F  F13  1  0.523306  0.886991  0.650309  1
  F  F14  1  0.263132  0.409963  0.032589  1
  F  F15  1  0.680024  0.212570  0.037418  1
  F  F16  1  0.886991  0.523306  0.150309  1
  F  F17  1  0.113009  0.476694  0.849691  1
  F  F18  1  0.476694  0.113009  0.349691  1
  F  F19  1  0.787430  0.319976  0.462582  1
  F  F20  1  0.118040  0.030531  0.350196  1
  F  F21  1  0.590037  0.736868  0.467411  1
  F  F22  1  0.446851  0.525687  0.148140  1
  F  F23  1  0.409963  0.263132  0.532589  1
  F  F24  1  0.525687  0.446851  0.648140  1
  F  F25  1  0.822096  0.932016  0.457620  1
  F  F26  1  0.177904  0.067984  0.542380  1
  F  F27  1  0.553149  0.474313  0.851860  1
  F  F28  1  0.932016  0.822096  0.957620  1
  F  F29  1  0.474313  0.553149  0.351860  1
  F  F30  1  0.736868  0.590037  0.967411  1
  F  F31  1  0.969469  0.881960  0.149804  1
  F  F32  1  0.067984  0.177904  0.042380  1
  F  F33  1  0.319976  0.787430  0.962582  1
  F  F34  1  0.030531  0.118040  0.850196  1
  F  F35  1  0.212570  0.680024  0.537418  1
