# generated using pymatgen
data_Zr4Ni3Ir
_symmetry_space_group_name_H-M   'P 1'
_cell_length_a   4.23273700
_cell_length_b   5.23216040
_cell_length_c   6.30429863
_cell_angle_alpha   90.19173313
_cell_angle_beta   90.00000000
_cell_angle_gamma   90.00000000
_symmetry_Int_Tables_number   1
_chemical_formula_structural   Zr4Ni3Ir
_chemical_formula_sum   'Zr4 Ni3 Ir1'
_cell_volume   139.61647856
_cell_formula_units_Z   1
loop_
 _symmetry_equiv_pos_site_id
 _symmetry_equiv_pos_as_xyz
  1  'x, y, z'
loop_
 _atom_site_type_symbol
 _atom_site_label
 _atom_site_symmetry_multiplicity
 _atom_site_fract_x
 _atom_site_fract_y
 _atom_site_fract_z
 _atom_site_occupancy
  Zr  Zr0  1  0.750000  0.860094  0.824731  1
  Zr  Zr1  1  0.250000  0.363345  0.680695  1
  Zr  Zr2  1  0.750000  0.639954  0.315013  1
  Zr  Zr3  1  0.250000  0.140670  0.177754  1
  Ni  Ni4  1  0.250000  0.842810  0.549658  1
  Ni  Ni5  1  0.250000  0.642565  0.035868  1
  Ni  Ni6  1  0.750000  0.359274  0.957471  1
  Ir  Ir7  1  0.750000  0.151286  0.458811  1
