# generated using pymatgen
data_Pr4Tm4Re(B8Ru)3
_symmetry_space_group_name_H-M   'P 1'
_cell_length_a   3.71207200
_cell_length_b   9.21833531
_cell_length_c   11.67383544
_cell_angle_alpha   89.88927353
_cell_angle_beta   90.00000000
_cell_angle_gamma   90.00000000
_symmetry_Int_Tables_number   1
_chemical_formula_structural   Pr4Tm4Re(B8Ru)3
_chemical_formula_sum   'Pr4 Tm4 Re1 B24 Ru3'
_cell_volume   399.46768114
_cell_formula_units_Z   1
loop_
 _symmetry_equiv_pos_site_id
 _symmetry_equiv_pos_as_xyz
  1  'x, y, z'
loop_
 _atom_site_type_symbol
 _atom_site_label
 _atom_site_symmetry_multiplicity
 _atom_site_fract_x
 _atom_site_fract_y
 _atom_site_fract_z
 _atom_site_occupancy
  Pr  Pr0  1  0.000000  0.323685  0.413817  1
  Pr  Pr1  1  0.000000  0.676946  0.583794  1
  Pr  Pr2  1  0.000000  0.821595  0.086496  1
  Pr  Pr3  1  0.000000  0.176201  0.915545  1
  Tm  Tm4  1  0.000000  0.944255  0.371957  1
  Tm  Tm5  1  0.000000  0.056693  0.628884  1
  Tm  Tm6  1  0.000000  0.444756  0.128585  1
  Tm  Tm7  1  0.000000  0.556124  0.870471  1
  Re  Re8  1  0.000000  0.640179  0.318569  1
  B  B9  1  0.500000  0.555912  0.429423  1
  B  B10  1  0.500000  0.442958  0.571057  1
  B  B11  1  0.500000  0.057499  0.070768  1
  B  B12  1  0.500000  0.942484  0.929508  1
  B  B13  1  0.500000  0.751045  0.415955  1
  B  B14  1  0.500000  0.249131  0.584103  1
  B  B15  1  0.500000  0.250592  0.083622  1
  B  B16  1  0.500000  0.749351  0.916224  1
  B  B17  1  0.500000  0.791968  0.266299  1
  B  B18  1  0.500000  0.208896  0.733815  1
  B  B19  1  0.500000  0.291225  0.232901  1
  B  B20  1  0.500000  0.709304  0.766196  1
  B  B21  1  0.500000  0.630360  0.185444  1
  B  B22  1  0.500000  0.369275  0.815146  1
  B  B23  1  0.500000  0.130318  0.314542  1
  B  B24  1  0.500000  0.870109  0.685048  1
  B  B25  1  0.500000  0.986196  0.214556  1
  B  B26  1  0.500000  0.013773  0.786057  1
  B  B27  1  0.500000  0.484782  0.285468  1
  B  B28  1  0.500000  0.513719  0.714434  1
  B  B29  1  0.500000  0.599702  0.026147  1
  B  B30  1  0.500000  0.399885  0.972467  1
  B  B31  1  0.500000  0.100649  0.473448  1
  B  B32  1  0.500000  0.900965  0.527556  1
  Ru  Ru33  1  0.000000  0.359612  0.682119  1
  Ru  Ru34  1  0.000000  0.140573  0.181503  1
  Ru  Ru35  1  0.000000  0.859281  0.818075  1
