# generated using pymatgen
data_SmZnNi3B
_symmetry_space_group_name_H-M   'P 1'
_cell_length_a   5.18199200
_cell_length_b   5.18287735
_cell_length_c   6.86360000
_cell_angle_alpha   90.00000000
_cell_angle_beta   90.00000000
_cell_angle_gamma   119.99434941
_symmetry_Int_Tables_number   1
_chemical_formula_structural   SmZnNi3B
_chemical_formula_sum   'Sm2 Zn2 Ni6 B2'
_cell_volume   159.65223131
_cell_formula_units_Z   2
loop_
 _symmetry_equiv_pos_site_id
 _symmetry_equiv_pos_as_xyz
  1  'x, y, z'
loop_
 _atom_site_type_symbol
 _atom_site_label
 _atom_site_symmetry_multiplicity
 _atom_site_fract_x
 _atom_site_fract_y
 _atom_site_fract_z
 _atom_site_occupancy
  Sm  Sm0  1  0.999977  0.000000  0.000000  1
  Sm  Sm1  1  0.999982  0.000000  0.500000  1
  Zn  Zn2  1  0.333299  0.666637  0.000000  1
  Zn  Zn3  1  0.666664  0.333363  0.000000  1
  Ni  Ni4  1  0.499987  0.000000  0.298617  1
  Ni  Ni5  1  0.499984  0.500001  0.298683  1
  Ni  Ni6  1  0.999983  0.499999  0.298683  1
  Ni  Ni7  1  0.499987  0.000000  0.701383  1
  Ni  Ni8  1  0.499984  0.500001  0.701317  1
  Ni  Ni9  1  0.999983  0.499999  0.701317  1
  B  B10  1  0.333336  0.666705  0.500000  1
  B  B11  1  0.666631  0.333295  0.500000  1
