# generated using pymatgen
data_Li8Np7TaN16
_symmetry_space_group_name_H-M   'P 1'
_cell_length_a   21.69899295
_cell_length_b   4.30247519
_cell_length_c   4.30309506
_cell_angle_alpha   89.97713684
_cell_angle_beta   89.98047706
_cell_angle_gamma   90.01857333
_symmetry_Int_Tables_number   1
_chemical_formula_structural   Li8Np7TaN16
_chemical_formula_sum   'Li8 Np7 Ta1 N16'
_cell_volume   401.73420601
_cell_formula_units_Z   1
loop_
 _symmetry_equiv_pos_site_id
 _symmetry_equiv_pos_as_xyz
  1  'x, y, z'
loop_
 _atom_site_type_symbol
 _atom_site_label
 _atom_site_symmetry_multiplicity
 _atom_site_fract_x
 _atom_site_fract_y
 _atom_site_fract_z
 _atom_site_occupancy
  Li  Li0  1  0.185978  0.999057  0.747852  1
  Li  Li1  1  0.813054  0.001324  0.251924  1
  Li  Li2  1  0.312346  0.999272  0.248046  1
  Li  Li3  1  0.709561  0.999998  0.753387  1
  Li  Li4  1  0.054228  0.499559  0.748175  1
  Li  Li5  1  0.914972  0.502302  0.249849  1
  Li  Li6  1  0.438873  0.499218  0.249965  1
  Li  Li7  1  0.570634  0.499355  0.750905  1
  Np  Np8  1  0.440840  0.000144  0.750900  1
  Np  Np9  1  0.569032  0.000491  0.251527  1
  Np  Np10  1  0.055989  0.000377  0.249425  1
  Np  Np11  1  0.928272  0.002352  0.749362  1
  Np  Np12  1  0.312567  0.499878  0.748728  1
  Np  Np13  1  0.696815  0.499843  0.253295  1
  Np  Np14  1  0.184056  0.499934  0.248826  1
  Ta  Ta15  1  0.812623  0.504334  0.756426  1
  N  N16  1  0.333329  0.998653  0.748068  1
  N  N17  1  0.680264  0.999748  0.253066  1
  N  N18  1  0.163491  0.998658  0.247446  1
  N  N19  1  0.824049  0.999733  0.751319  1
  N  N20  1  0.419226  0.498385  0.749568  1
  N  N21  1  0.592523  0.498594  0.251112  1
  N  N22  1  0.077384  0.498950  0.247693  1
  N  N23  1  0.909058  0.501844  0.749542  1
  N  N24  1  0.032383  0.999783  0.747598  1
  N  N25  1  0.944583  0.001905  0.249305  1
  N  N26  1  0.461395  0.998750  0.249585  1
  N  N27  1  0.547493  0.999082  0.750203  1
  N  N28  1  0.205923  0.498871  0.746962  1
  N  N29  1  0.801233  0.501085  0.249486  1
  N  N30  1  0.291778  0.498928  0.247496  1
  N  N31  1  0.716047  0.499593  0.752956  1
