# generated using pymatgen
data_Li4Pr6IrPd12
_symmetry_space_group_name_H-M   'P 1'
_cell_length_a   8.40997550
_cell_length_b   8.40997550
_cell_length_c   8.40997700
_cell_angle_alpha   109.47121944
_cell_angle_beta   109.47121943
_cell_angle_gamma   109.47122525
_symmetry_Int_Tables_number   1
_chemical_formula_structural   Li4Pr6IrPd12
_chemical_formula_sum   'Li4 Pr6 Ir1 Pd12'
_cell_volume   457.89127318
_cell_formula_units_Z   1
loop_
 _symmetry_equiv_pos_site_id
 _symmetry_equiv_pos_as_xyz
  1  'x, y, z'
loop_
 _atom_site_type_symbol
 _atom_site_label
 _atom_site_symmetry_multiplicity
 _atom_site_fract_x
 _atom_site_fract_y
 _atom_site_fract_z
 _atom_site_occupancy
  Li  Li0  1  0.000000  0.000000  0.500000  1
  Li  Li1  1  0.500000  0.000000  0.000000  1
  Li  Li2  1  0.000000  0.500000  0.000000  1
  Li  Li3  1  0.500000  0.500000  0.500000  1
  Pr  Pr4  1  0.000000  0.300070  0.300070  1
  Pr  Pr5  1  0.000000  0.699930  0.699930  1
  Pr  Pr6  1  0.300070  0.000000  0.300070  1
  Pr  Pr7  1  0.699930  0.699930  0.000000  1
  Pr  Pr8  1  0.699930  0.000000  0.699930  1
  Pr  Pr9  1  0.300070  0.300070  0.000000  1
  Ir  Ir10  1  0.000000  0.000000  0.000000  1
  Pd  Pd11  1  0.333719  0.666281  0.000000  1
  Pd  Pd12  1  0.000000  0.333719  0.666281  1
  Pd  Pd13  1  0.666281  0.000000  0.333719  1
  Pd  Pd14  1  0.332560  0.666281  0.666281  1
  Pd  Pd15  1  0.666281  0.332560  0.666281  1
  Pd  Pd16  1  0.667440  0.333719  0.333719  1
  Pd  Pd17  1  0.333719  0.667440  0.333719  1
  Pd  Pd18  1  0.333719  0.333719  0.667440  1
  Pd  Pd19  1  0.000000  0.666281  0.333719  1
  Pd  Pd20  1  0.666281  0.666281  0.332560  1
  Pd  Pd21  1  0.333719  0.000000  0.666281  1
  Pd  Pd22  1  0.666281  0.333719  0.000000  1
