# generated using pymatgen
data_NaP2IrRu
_symmetry_space_group_name_H-M   'P 1'
_cell_length_a   6.31783286
_cell_length_b   6.31783362
_cell_length_c   6.31783432
_cell_angle_alpha   143.08909780
_cell_angle_beta   143.08909005
_cell_angle_gamma   53.19161707
_symmetry_Int_Tables_number   1
_chemical_formula_structural   NaP2IrRu
_chemical_formula_sum   'Na1 P2 Ir1 Ru1'
_cell_volume   90.39092860
_cell_formula_units_Z   1
loop_
 _symmetry_equiv_pos_site_id
 _symmetry_equiv_pos_as_xyz
  1  'x, y, z'
loop_
 _atom_site_type_symbol
 _atom_site_label
 _atom_site_symmetry_multiplicity
 _atom_site_fract_x
 _atom_site_fract_y
 _atom_site_fract_z
 _atom_site_occupancy
  Na  Na0  1  0.000000  0.000000  0.000000  1
  P  P1  1  0.357795  0.357795  0.000000  1
  P  P2  1  0.642205  0.642205  0.000000  1
  Ir  Ir3  1  0.750000  0.250000  0.500000  1
  Ru  Ru4  1  0.250000  0.750000  0.500000  1
