# generated using pymatgen
data_Tb7DyRe3B24Ru
_symmetry_space_group_name_H-M   'P 1'
_cell_length_a   3.69636300
_cell_length_b   9.19671178
_cell_length_c   11.58750901
_cell_angle_alpha   90.11488039
_cell_angle_beta   90.00000000
_cell_angle_gamma   90.00000000
_symmetry_Int_Tables_number   1
_chemical_formula_structural   Tb7DyRe3B24Ru
_chemical_formula_sum   'Tb7 Dy1 Re3 B24 Ru1'
_cell_volume   393.90945239
_cell_formula_units_Z   1
loop_
 _symmetry_equiv_pos_site_id
 _symmetry_equiv_pos_as_xyz
  1  'x, y, z'
loop_
 _atom_site_type_symbol
 _atom_site_label
 _atom_site_symmetry_multiplicity
 _atom_site_fract_x
 _atom_site_fract_y
 _atom_site_fract_z
 _atom_site_occupancy
  Tb  Tb0  1  0.000000  0.322423  0.414202  1
  Tb  Tb1  1  0.000000  0.676831  0.587711  1
  Tb  Tb2  1  0.000000  0.825063  0.084200  1
  Tb  Tb3  1  0.000000  0.176364  0.913659  1
  Tb  Tb4  1  0.000000  0.941689  0.369404  1
  Tb  Tb5  1  0.000000  0.056449  0.629599  1
  Tb  Tb6  1  0.000000  0.443209  0.130601  1
  Dy  Dy7  1  0.000000  0.556917  0.870662  1
  Re  Re8  1  0.000000  0.362348  0.678258  1
  Re  Re9  1  0.000000  0.138429  0.179530  1
  Re  Re10  1  0.000000  0.861252  0.820937  1
  B  B11  1  0.500000  0.554173  0.432411  1
  B  B12  1  0.500000  0.446819  0.567153  1
  B  B13  1  0.500000  0.053423  0.067017  1
  B  B14  1  0.500000  0.946641  0.932608  1
  B  B15  1  0.500000  0.747829  0.418185  1
  B  B16  1  0.500000  0.251376  0.581451  1
  B  B17  1  0.500000  0.248806  0.081648  1
  B  B18  1  0.500000  0.751566  0.918460  1
  B  B19  1  0.500000  0.790302  0.265754  1
  B  B20  1  0.500000  0.208654  0.733998  1
  B  B21  1  0.500000  0.291261  0.234635  1
  B  B22  1  0.500000  0.708097  0.766180  1
  B  B23  1  0.500000  0.631852  0.186361  1
  B  B24  1  0.500000  0.369308  0.813646  1
  B  B25  1  0.500000  0.131317  0.314334  1
  B  B26  1  0.500000  0.868293  0.686189  1
  B  B27  1  0.500000  0.983416  0.211596  1
  B  B28  1  0.500000  0.016607  0.787901  1
  B  B29  1  0.500000  0.484463  0.288438  1
  B  B30  1  0.500000  0.517402  0.712092  1
  B  B31  1  0.500000  0.602527  0.028730  1
  B  B32  1  0.500000  0.398337  0.971746  1
  B  B33  1  0.500000  0.101281  0.471173  1
  B  B34  1  0.500000  0.896849  0.528372  1
  Ru  Ru35  1  0.000000  0.638430  0.321159  1
