# generated using pymatgen
data_Ac2B2Ir5
_symmetry_space_group_name_H-M   'P 1'
_cell_length_a   11.29999769
_cell_length_b   11.29999738
_cell_length_c   11.29999804
_cell_angle_alpha   28.98373599
_cell_angle_beta   28.98374154
_cell_angle_gamma   28.98374051
_symmetry_Int_Tables_number   1
_chemical_formula_structural   Ac2B2Ir5
_chemical_formula_sum   'Ac4 B4 Ir10'
_cell_volume   299.65092919
_cell_formula_units_Z   2
loop_
 _symmetry_equiv_pos_site_id
 _symmetry_equiv_pos_as_xyz
  1  'x, y, z'
loop_
 _atom_site_type_symbol
 _atom_site_label
 _atom_site_symmetry_multiplicity
 _atom_site_fract_x
 _atom_site_fract_y
 _atom_site_fract_z
 _atom_site_occupancy
  Ac  Ac0  1  0.151845  0.151845  0.151845  1
  Ac  Ac1  1  0.950089  0.950089  0.950089  1
  Ac  Ac2  1  0.848155  0.848155  0.848155  1
  Ac  Ac3  1  0.049911  0.049911  0.049911  1
  B  B4  1  0.618591  0.618591  0.618591  1
  B  B5  1  0.716607  0.716607  0.716607  1
  B  B6  1  0.381409  0.381409  0.381409  1
  B  B7  1  0.283393  0.283393  0.283393  1
  Ir  Ir8  1  0.410799  0.897853  0.410799  1
  Ir  Ir9  1  0.897853  0.410799  0.410799  1
  Ir  Ir10  1  0.500000  0.500000  0.000000  1
  Ir  Ir11  1  0.500000  0.000000  0.500000  1
  Ir  Ir12  1  0.000000  0.500000  0.500000  1
  Ir  Ir13  1  0.500000  0.500000  0.500000  1
  Ir  Ir14  1  0.589201  0.102147  0.589201  1
  Ir  Ir15  1  0.589201  0.589201  0.102147  1
  Ir  Ir16  1  0.102147  0.589201  0.589201  1
  Ir  Ir17  1  0.410799  0.410799  0.897853  1
