# generated using pymatgen
data_Ca21Al8Sn6Bi
_symmetry_space_group_name_H-M   'P 1'
_cell_length_a   11.54540249
_cell_length_b   11.54540357
_cell_length_c   11.54540200
_cell_angle_alpha   60.00000451
_cell_angle_beta   60.00000142
_cell_angle_gamma   60.00000238
_symmetry_Int_Tables_number   1
_chemical_formula_structural   Ca21Al8Sn6Bi
_chemical_formula_sum   'Ca21 Al8 Sn6 Bi1'
_cell_volume   1088.20892865
_cell_formula_units_Z   1
loop_
 _symmetry_equiv_pos_site_id
 _symmetry_equiv_pos_as_xyz
  1  'x, y, z'
loop_
 _atom_site_type_symbol
 _atom_site_label
 _atom_site_symmetry_multiplicity
 _atom_site_fract_x
 _atom_site_fract_y
 _atom_site_fract_z
 _atom_site_occupancy
  Ca  Ca0  1  0.871616  0.871616  0.385150  1
  Ca  Ca1  1  0.614850  0.128384  0.128384  1
  Ca  Ca2  1  0.871616  0.385150  0.871616  1
  Ca  Ca3  1  0.128384  0.128384  0.128384  1
  Ca  Ca4  1  0.385150  0.871616  0.871616  1
  Ca  Ca5  1  0.871616  0.871616  0.871616  1
  Ca  Ca6  1  0.179550  0.820450  0.500000  1
  Ca  Ca7  1  0.820450  0.500000  0.500000  1
  Ca  Ca8  1  0.128384  0.128384  0.614850  1
  Ca  Ca9  1  0.820450  0.179550  0.500000  1
  Ca  Ca10  1  0.179550  0.500000  0.500000  1
  Ca  Ca11  1  0.128384  0.614850  0.128384  1
  Ca  Ca12  1  0.500000  0.500000  0.179550  1
  Ca  Ca13  1  0.500000  0.179550  0.820450  1
  Ca  Ca14  1  0.500000  0.820450  0.179550  1
  Ca  Ca15  1  0.500000  0.500000  0.820450  1
  Ca  Ca16  1  0.500000  0.179550  0.500000  1
  Ca  Ca17  1  0.179550  0.500000  0.820450  1
  Ca  Ca18  1  0.000000  0.000000  0.000000  1
  Ca  Ca19  1  0.500000  0.820450  0.500000  1
  Ca  Ca20  1  0.820450  0.500000  0.179550  1
  Al  Al21  1  0.691394  0.925820  0.691394  1
  Al  Al22  1  0.691394  0.691394  0.925820  1
  Al  Al23  1  0.691394  0.691394  0.691394  1
  Al  Al24  1  0.308606  0.074180  0.308606  1
  Al  Al25  1  0.925820  0.691394  0.691394  1
  Al  Al26  1  0.308606  0.308606  0.074180  1
  Al  Al27  1  0.074180  0.308606  0.308606  1
  Al  Al28  1  0.308606  0.308606  0.308606  1
  Sn  Sn29  1  0.787756  0.212244  0.787756  1
  Sn  Sn30  1  0.787756  0.212244  0.212244  1
  Sn  Sn31  1  0.212244  0.787756  0.212244  1
  Sn  Sn32  1  0.212244  0.787756  0.787756  1
  Sn  Sn33  1  0.787756  0.787756  0.212244  1
  Sn  Sn34  1  0.212244  0.212244  0.787756  1
  Bi  Bi35  1  0.500000  0.500000  0.500000  1
