# generated using pymatgen
data_Zr3Nb3Re4(Si3Mo)2
_symmetry_space_group_name_H-M   'P 1'
_cell_length_a   7.72047620
_cell_length_b   7.74471707
_cell_length_c   7.72047591
_cell_angle_alpha   126.17874580
_cell_angle_beta   127.67280306
_cell_angle_gamma   78.30658297
_symmetry_Int_Tables_number   1
_chemical_formula_structural   Zr3Nb3Re4(Si3Mo)2
_chemical_formula_sum   'Zr3 Nb3 Re4 Si6 Mo2'
_cell_volume   285.76030695
_cell_formula_units_Z   1
loop_
 _symmetry_equiv_pos_site_id
 _symmetry_equiv_pos_as_xyz
  1  'x, y, z'
loop_
 _atom_site_type_symbol
 _atom_site_label
 _atom_site_symmetry_multiplicity
 _atom_site_fract_x
 _atom_site_fract_y
 _atom_site_fract_z
 _atom_site_occupancy
  Zr  Zr0  1  0.548343  0.089368  0.041024  1
  Zr  Zr1  1  0.452500  0.493968  0.541468  1
  Zr  Zr2  1  0.949988  0.494340  0.044352  1
  Nb  Nb3  1  0.050741  0.092951  0.542210  1
  Nb  Nb4  1  0.748812  0.904589  0.655776  1
  Nb  Nb5  1  0.251673  0.904342  0.152669  1
  Re  Re6  1  0.121424  0.754902  0.622830  1
  Re  Re7  1  0.877994  0.498890  0.630640  1
  Re  Re8  1  0.632071  0.754902  0.133478  1
  Re  Re9  1  0.368250  0.498890  0.120896  1
  Si  Si10  1  0.747937  0.498772  0.250835  1
  Si  Si11  1  0.251435  0.501483  0.750047  1
  Si  Si12  1  0.330914  0.830329  0.491223  1
  Si  Si13  1  0.670094  0.157802  0.496208  1
  Si  Si14  1  0.839106  0.830329  0.999415  1
  Si  Si15  1  0.161594  0.157802  0.987708  1
  Mo  Mo16  1  0.496379  0.239272  0.738527  1
  Mo  Mo17  1  0.000745  0.239272  0.242892  1
