# generated using pymatgen
data_Yb2Fe3Co2P6Ru5
_symmetry_space_group_name_H-M   'P 1'
_cell_length_a   3.76582000
_cell_length_b   10.53297000
_cell_length_c   12.00123400
_cell_angle_alpha   90.00000000
_cell_angle_beta   90.00000000
_cell_angle_gamma   90.00000000
_symmetry_Int_Tables_number   1
_chemical_formula_structural   Yb2Fe3Co2P6Ru5
_chemical_formula_sum   'Yb4 Fe6 Co4 P12 Ru10'
_cell_volume   476.03217597
_cell_formula_units_Z   2
loop_
 _symmetry_equiv_pos_site_id
 _symmetry_equiv_pos_as_xyz
  1  'x, y, z'
loop_
 _atom_site_type_symbol
 _atom_site_label
 _atom_site_symmetry_multiplicity
 _atom_site_fract_x
 _atom_site_fract_y
 _atom_site_fract_z
 _atom_site_occupancy
  Yb  Yb0  1  0.250000  0.585001  0.708877  1
  Yb  Yb1  1  0.250000  0.914999  0.208877  1
  Yb  Yb2  1  0.750000  0.420412  0.291632  1
  Yb  Yb3  1  0.750000  0.079588  0.791632  1
  Fe  Fe4  1  0.250000  0.876538  0.700907  1
  Fe  Fe5  1  0.250000  0.623462  0.200907  1
  Fe  Fe6  1  0.250000  0.462928  0.933879  1
  Fe  Fe7  1  0.250000  0.037072  0.433879  1
  Fe  Fe8  1  0.750000  0.537701  0.064683  1
  Fe  Fe9  1  0.750000  0.962299  0.564683  1
  Co  Co10  1  0.750000  0.771207  0.823092  1
  Co  Co11  1  0.750000  0.728793  0.323092  1
  Co  Co12  1  0.750000  0.113829  0.299107  1
  Co  Co13  1  0.750000  0.386171  0.799107  1
  P  P14  1  0.250000  0.433422  0.113181  1
  P  P15  1  0.250000  0.066578  0.613181  1
  P  P16  1  0.750000  0.573974  0.887125  1
  P  P17  1  0.750000  0.926026  0.387125  1
  P  P18  1  0.250000  0.270585  0.871056  1
  P  P19  1  0.250000  0.229415  0.371056  1
  P  P20  1  0.750000  0.725768  0.137715  1
  P  P21  1  0.750000  0.774232  0.637715  1
  P  P22  1  0.250000  0.608683  0.386635  1
  P  P23  1  0.250000  0.891317  0.886635  1
  P  P24  1  0.750000  0.396477  0.609869  1
  P  P25  1  0.750000  0.103523  0.109869  1
  Ru  Ru26  1  0.250000  0.700392  0.983048  1
  Ru  Ru27  1  0.250000  0.799608  0.483048  1
  Ru  Ru28  1  0.750000  0.297023  0.010347  1
  Ru  Ru29  1  0.750000  0.202977  0.510347  1
  Ru  Ru30  1  0.250000  0.408750  0.486615  1
  Ru  Ru31  1  0.250000  0.091250  0.986615  1
  Ru  Ru32  1  0.750000  0.598949  0.512306  1
  Ru  Ru33  1  0.750000  0.901051  0.012306  1
  Ru  Ru34  1  0.250000  0.227623  0.179930  1
  Ru  Ru35  1  0.250000  0.272377  0.679930  1
