# generated using pymatgen
data_ErTm2Al12Ir3Ru
_symmetry_space_group_name_H-M   'P 1'
_cell_length_a   8.80673804
_cell_length_b   8.80673972
_cell_length_c   9.46724700
_cell_angle_alpha   90.00000000
_cell_angle_beta   90.00000000
_cell_angle_gamma   120.01068654
_symmetry_Int_Tables_number   1
_chemical_formula_structural   ErTm2Al12Ir3Ru
_chemical_formula_sum   'Er2 Tm4 Al24 Ir6 Ru2'
_cell_volume   635.82529652
_cell_formula_units_Z   2
loop_
 _symmetry_equiv_pos_site_id
 _symmetry_equiv_pos_as_xyz
  1  'x, y, z'
loop_
 _atom_site_type_symbol
 _atom_site_label
 _atom_site_symmetry_multiplicity
 _atom_site_fract_x
 _atom_site_fract_y
 _atom_site_fract_z
 _atom_site_occupancy
  Er  Er0  1  0.805865  0.612367  0.750000  1
  Er  Er1  1  0.387633  0.194135  0.750000  1
  Tm  Tm2  1  0.194439  0.805561  0.250000  1
  Tm  Tm3  1  0.194561  0.388737  0.250000  1
  Tm  Tm4  1  0.611263  0.805439  0.250000  1
  Tm  Tm5  1  0.805543  0.194457  0.750000  1
  Al  Al6  1  0.562388  0.437612  0.250000  1
  Al  Al7  1  0.562458  0.124627  0.250000  1
  Al  Al8  1  0.875373  0.437542  0.250000  1
  Al  Al9  1  0.437529  0.562471  0.750000  1
  Al  Al10  1  0.437782  0.875053  0.750000  1
  Al  Al11  1  0.124947  0.562218  0.750000  1
  Al  Al12  1  0.325746  0.162850  0.423106  1
  Al  Al13  1  0.837213  0.162787  0.423491  1
  Al  Al14  1  0.837150  0.674254  0.423106  1
  Al  Al15  1  0.674074  0.837164  0.575797  1
  Al  Al16  1  0.163100  0.836900  0.575597  1
  Al  Al17  1  0.162836  0.325926  0.575797  1
  Al  Al18  1  0.674074  0.837164  0.924203  1
  Al  Al19  1  0.163100  0.836900  0.924403  1
  Al  Al20  1  0.162836  0.325926  0.924203  1
  Al  Al21  1  0.325746  0.162850  0.076894  1
  Al  Al22  1  0.837213  0.162787  0.076509  1
  Al  Al23  1  0.837150  0.674254  0.076894  1
  Al  Al24  1  0.666662  0.333338  0.530070  1
  Al  Al25  1  0.333419  0.666581  0.469356  1
  Al  Al26  1  0.333419  0.666581  0.030644  1
  Al  Al27  1  0.666662  0.333338  0.969930  1
  Al  Al28  1  0.000035  0.999965  0.250000  1
  Al  Al29  1  0.999231  0.000769  0.750000  1
  Ir  Ir30  1  0.499881  0.500119  0.499766  1
  Ir  Ir31  1  0.500107  0.999786  0.499940  1
  Ir  Ir32  1  0.000214  0.499893  0.499940  1
  Ir  Ir33  1  0.499881  0.500119  0.000234  1
  Ir  Ir34  1  0.500107  0.999786  0.000060  1
  Ir  Ir35  1  0.000214  0.499893  0.000060  1
  Ru  Ru36  1  0.000077  0.999923  0.499782  1
  Ru  Ru37  1  0.000077  0.999923  0.000218  1
