# generated using pymatgen
data_Dy20Ir7RuPt4
_symmetry_space_group_name_H-M   'P 1'
_cell_length_a   10.96848501
_cell_length_b   10.96956301
_cell_length_c   6.36638900
_cell_angle_alpha   90.00000000
_cell_angle_beta   90.00000000
_cell_angle_gamma   89.99500119
_symmetry_Int_Tables_number   1
_chemical_formula_structural   Dy20Ir7RuPt4
_chemical_formula_sum   'Dy20 Ir7 Ru1 Pt4'
_cell_volume   766.00065848
_cell_formula_units_Z   1
loop_
 _symmetry_equiv_pos_site_id
 _symmetry_equiv_pos_as_xyz
  1  'x, y, z'
loop_
 _atom_site_type_symbol
 _atom_site_label
 _atom_site_symmetry_multiplicity
 _atom_site_fract_x
 _atom_site_fract_y
 _atom_site_fract_z
 _atom_site_occupancy
  Dy  Dy0  1  0.296087  0.089468  0.372954  1
  Dy  Dy1  1  0.296616  0.910628  0.875829  1
  Dy  Dy2  1  0.703384  0.089372  0.875829  1
  Dy  Dy3  1  0.703913  0.910532  0.372954  1
  Dy  Dy4  1  0.585678  0.792278  0.880908  1
  Dy  Dy5  1  0.585469  0.207907  0.378756  1
  Dy  Dy6  1  0.414531  0.792093  0.378756  1
  Dy  Dy7  1  0.414322  0.207722  0.880908  1
  Dy  Dy8  1  0.209302  0.413412  0.620223  1
  Dy  Dy9  1  0.209042  0.586454  0.120178  1
  Dy  Dy10  1  0.790958  0.413546  0.120178  1
  Dy  Dy11  1  0.790698  0.586588  0.620223  1
  Dy  Dy12  1  0.909192  0.704823  0.125555  1
  Dy  Dy13  1  0.908936  0.294951  0.625960  1
  Dy  Dy14  1  0.091064  0.705049  0.625960  1
  Dy  Dy15  1  0.090808  0.295177  0.125555  1
  Dy  Dy16  1  0.000000  0.000000  0.499090  1
  Dy  Dy17  1  0.000000  0.000000  0.999450  1
  Dy  Dy18  1  0.500000  0.500000  0.998979  1
  Dy  Dy19  1  0.500000  0.500000  0.498876  1
  Ir  Ir20  1  0.654443  0.345760  0.749621  1
  Ir  Ir21  1  0.654637  0.654112  0.249555  1
  Ir  Ir22  1  0.345363  0.345888  0.249555  1
  Ir  Ir23  1  0.345557  0.654240  0.749621  1
  Ir  Ir24  1  0.500000  0.000000  0.625185  1
  Ir  Ir25  1  0.000000  0.500000  0.876199  1
  Ir  Ir26  1  0.000000  0.500000  0.376670  1
  Ru  Ru27  1  0.500000  0.000000  0.127859  1
  Pt  Pt28  1  0.846828  0.153440  0.249686  1
  Pt  Pt29  1  0.846911  0.846935  0.749621  1
  Pt  Pt30  1  0.153089  0.153065  0.749621  1
  Pt  Pt31  1  0.153172  0.846560  0.249686  1
