# generated using pymatgen
data_TmMgScB2Rh5
_symmetry_space_group_name_H-M   'P 1'
_cell_length_a   9.52137003
_cell_length_b   9.52137003
_cell_length_c   3.11151200
_cell_angle_alpha   90.00000000
_cell_angle_beta   90.00000000
_cell_angle_gamma   91.13012327
_symmetry_Int_Tables_number   1
_chemical_formula_structural   TmMgScB2Rh5
_chemical_formula_sum   'Tm2 Mg2 Sc2 B4 Rh10'
_cell_volume   282.02387844
_cell_formula_units_Z   2
loop_
 _symmetry_equiv_pos_site_id
 _symmetry_equiv_pos_as_xyz
  1  'x, y, z'
loop_
 _atom_site_type_symbol
 _atom_site_label
 _atom_site_symmetry_multiplicity
 _atom_site_fract_x
 _atom_site_fract_y
 _atom_site_fract_z
 _atom_site_occupancy
  Tm  Tm0  1  0.176696  0.323304  0.000000  1
  Tm  Tm1  1  0.823304  0.676696  0.000000  1
  Mg  Mg2  1  0.000000  0.000000  0.000000  1
  Mg  Mg3  1  0.500000  0.500000  0.000000  1
  Sc  Sc4  1  0.674720  0.174720  0.000000  1
  Sc  Sc5  1  0.325280  0.825280  0.000000  1
  B  B6  1  0.126113  0.626113  0.000000  1
  B  B7  1  0.873887  0.373887  0.000000  1
  B  B8  1  0.622177  0.877823  0.000000  1
  B  B9  1  0.377823  0.122177  0.000000  1
  Rh  Rh10  1  0.500000  0.000000  0.500000  1
  Rh  Rh11  1  0.000000  0.500000  0.500000  1
  Rh  Rh12  1  0.224371  0.065234  0.500000  1
  Rh  Rh13  1  0.775629  0.934766  0.500000  1
  Rh  Rh14  1  0.076209  0.780224  0.500000  1
  Rh  Rh15  1  0.719776  0.423791  0.500000  1
  Rh  Rh16  1  0.923791  0.219776  0.500000  1
  Rh  Rh17  1  0.280224  0.576209  0.500000  1
  Rh  Rh18  1  0.565234  0.724371  0.500000  1
  Rh  Rh19  1  0.434766  0.275629  0.500000  1
