# generated using pymatgen
data_Ho3Sc2In4PtAu
_symmetry_space_group_name_H-M   'P 1'
_cell_length_a   3.56865100
_cell_length_b   8.03737930
_cell_length_c   17.94211992
_cell_angle_alpha   90.32752283
_cell_angle_beta   90.00000000
_cell_angle_gamma   90.00000000
_symmetry_Int_Tables_number   1
_chemical_formula_structural   Ho3Sc2In4PtAu
_chemical_formula_sum   'Ho6 Sc4 In8 Pt2 Au2'
_cell_volume   514.61827070
_cell_formula_units_Z   2
loop_
 _symmetry_equiv_pos_site_id
 _symmetry_equiv_pos_as_xyz
  1  'x, y, z'
loop_
 _atom_site_type_symbol
 _atom_site_label
 _atom_site_symmetry_multiplicity
 _atom_site_fract_x
 _atom_site_fract_y
 _atom_site_fract_z
 _atom_site_occupancy
  Ho  Ho0  1  0.000000  0.245895  0.210428  1
  Ho  Ho1  1  0.000000  0.754105  0.789572  1
  Ho  Ho2  1  0.000000  0.272916  0.716397  1
  Ho  Ho3  1  0.000000  0.727084  0.283603  1
  Ho  Ho4  1  0.000000  0.000000  0.000000  1
  Ho  Ho5  1  0.000000  0.500000  0.500000  1
  Sc  Sc6  1  0.000000  0.121334  0.419004  1
  Sc  Sc7  1  0.000000  0.878666  0.580996  1
  Sc  Sc8  1  0.000000  0.382390  0.914475  1
  Sc  Sc9  1  0.000000  0.617610  0.085525  1
  In  In10  1  0.500000  0.408743  0.350831  1
  In  In11  1  0.500000  0.591257  0.649169  1
  In  In12  1  0.500000  0.090351  0.851329  1
  In  In13  1  0.500000  0.909649  0.148671  1
  In  In14  1  0.500000  0.309681  0.056780  1
  In  In15  1  0.500000  0.690319  0.943220  1
  In  In16  1  0.500000  0.194584  0.560295  1
  In  In17  1  0.500000  0.805416  0.439705  1
  Pt  Pt18  1  0.500000  0.470503  0.806912  1
  Pt  Pt19  1  0.500000  0.529497  0.193088  1
  Au  Au20  1  0.500000  0.031003  0.305426  1
  Au  Au21  1  0.500000  0.968997  0.694574  1
