# generated using pymatgen
data_Tb2Al16OsPt8
_symmetry_space_group_name_H-M   'P 1'
_cell_length_a   11.12539880
_cell_length_b   11.12539890
_cell_length_c   11.12539938
_cell_angle_alpha   158.41818209
_cell_angle_beta   116.48949490
_cell_angle_gamma   67.91838188
_symmetry_Int_Tables_number   1
_chemical_formula_structural   Tb2Al16OsPt8
_chemical_formula_sum   'Tb2 Al16 Os1 Pt8'
_cell_volume   450.17465183
_cell_formula_units_Z   1
loop_
 _symmetry_equiv_pos_site_id
 _symmetry_equiv_pos_as_xyz
  1  'x, y, z'
loop_
 _atom_site_type_symbol
 _atom_site_label
 _atom_site_symmetry_multiplicity
 _atom_site_fract_x
 _atom_site_fract_y
 _atom_site_fract_z
 _atom_site_occupancy
  Tb  Tb0  1  0.229809  0.229760  0.000049  1
  Tb  Tb1  1  0.770289  0.770240  0.000049  1
  Al  Al2  1  0.274104  0.390826  0.883279  1
  Al  Al3  1  0.089663  0.923485  0.166177  1
  Al  Al4  1  0.507265  0.201930  0.305337  1
  Al  Al5  1  0.242692  0.076515  0.166177  1
  Al  Al6  1  0.909611  0.415753  0.493859  1
  Al  Al7  1  0.725075  0.601389  0.123686  1
  Al  Al8  1  0.899906  0.208041  0.691866  1
  Al  Al9  1  0.483827  0.791959  0.691866  1
  Al  Al10  1  0.388823  0.000000  0.388823  1
  Al  Al11  1  0.626765  0.000000  0.626765  1
  Al  Al12  1  0.492453  0.609174  0.883279  1
  Al  Al13  1  0.103408  0.798070  0.305337  1
  Al  Al14  1  0.905432  0.084351  0.821081  1
  Al  Al15  1  0.736731  0.915649  0.821081  1
  Al  Al16  1  0.522297  0.398611  0.123686  1
  Al  Al17  1  0.078106  0.584247  0.493859  1
  Os  Os18  1  0.775871  0.500000  0.275871  1
  Pt  Pt19  1  0.024114  0.342803  0.681310  1
  Pt  Pt20  1  0.629366  0.126182  0.503184  1
  Pt  Pt21  1  0.255232  0.500000  0.755232  1
  Pt  Pt22  1  0.377002  0.873818  0.503184  1
  Pt  Pt23  1  0.985418  0.000000  0.985418  1
  Pt  Pt24  1  0.650169  0.336051  0.314118  1
  Pt  Pt25  1  0.338508  0.657197  0.681310  1
  Pt  Pt26  1  0.978066  0.663949  0.314118  1
