# generated using pymatgen
data_Tb17Er3Sn9Sb7
_symmetry_space_group_name_H-M   'P 1'
_cell_length_a   8.12624380
_cell_length_b   8.17164625
_cell_length_c   15.49378200
_cell_angle_alpha   90.13650769
_cell_angle_beta   89.66511762
_cell_angle_gamma   89.79432527
_symmetry_Int_Tables_number   1
_chemical_formula_structural   Tb17Er3Sn9Sb7
_chemical_formula_sum   'Tb17 Er3 Sn9 Sb7'
_cell_volume   1028.83416136
_cell_formula_units_Z   1
loop_
 _symmetry_equiv_pos_site_id
 _symmetry_equiv_pos_as_xyz
  1  'x, y, z'
loop_
 _atom_site_type_symbol
 _atom_site_label
 _atom_site_symmetry_multiplicity
 _atom_site_fract_x
 _atom_site_fract_y
 _atom_site_fract_z
 _atom_site_occupancy
  Tb  Tb0  1  0.389060  0.838585  0.880877  1
  Tb  Tb1  1  0.891970  0.663054  0.618745  1
  Tb  Tb2  1  0.608725  0.161251  0.381362  1
  Tb  Tb3  1  0.112080  0.337804  0.120284  1
  Tb  Tb4  1  0.611295  0.162403  0.119207  1
  Tb  Tb5  1  0.109146  0.337802  0.381023  1
  Tb  Tb6  1  0.389941  0.839346  0.619003  1
  Tb  Tb7  1  0.888157  0.663013  0.880271  1
  Tb  Tb8  1  0.553988  0.331120  0.892562  1
  Tb  Tb9  1  0.055556  0.170254  0.607643  1
  Tb  Tb10  1  0.444390  0.669263  0.392036  1
  Tb  Tb11  1  0.947641  0.825033  0.106683  1
  Tb  Tb12  1  0.450954  0.667707  0.106504  1
  Tb  Tb13  1  0.944475  0.829258  0.392024  1
  Tb  Tb14  1  0.555751  0.329805  0.608420  1
  Tb  Tb15  1  0.046711  0.176991  0.895666  1
  Tb  Tb16  1  0.220422  0.500380  0.750468  1
  Er  Er17  1  0.720430  0.002375  0.750548  1
  Er  Er18  1  0.779785  0.499470  0.247859  1
  Er  Er19  1  0.279130  0.998132  0.249285  1
  Sn  Sn20  1  0.773649  0.475350  0.044601  1
  Sn  Sn21  1  0.587417  0.628699  0.748988  1
  Sn  Sn22  1  0.085710  0.875726  0.750390  1
  Sn  Sn23  1  0.414025  0.372208  0.251053  1
  Sn  Sn24  1  0.913387  0.125928  0.250566  1
  Sn  Sn25  1  0.356892  0.142619  0.750843  1
  Sn  Sn26  1  0.857563  0.358026  0.749603  1
  Sn  Sn27  1  0.642185  0.856797  0.249957  1
  Sn  Sn28  1  0.142561  0.642047  0.250244  1
  Sb  Sb29  1  0.268266  0.018052  0.047084  1
  Sb  Sb30  1  0.767804  0.482417  0.452555  1
  Sb  Sb31  1  0.731985  0.983414  0.547707  1
  Sb  Sb32  1  0.229759  0.521889  0.954200  1
  Sb  Sb33  1  0.728502  0.980302  0.952880  1
  Sb  Sb34  1  0.233400  0.517471  0.546819  1
  Sb  Sb35  1  0.267282  0.016014  0.452046  1
