# generated using pymatgen
data_LiCo20(TcB3)2
_symmetry_space_group_name_H-M   'P 1'
_cell_length_a   7.38975787
_cell_length_b   7.38975696
_cell_length_c   7.38975800
_cell_angle_alpha   59.99999533
_cell_angle_beta   59.99999940
_cell_angle_gamma   59.99999812
_symmetry_Int_Tables_number   1
_chemical_formula_structural   LiCo20(TcB3)2
_chemical_formula_sum   'Li1 Co20 Tc2 B6'
_cell_volume   285.34847672
_cell_formula_units_Z   1
loop_
 _symmetry_equiv_pos_site_id
 _symmetry_equiv_pos_as_xyz
  1  'x, y, z'
loop_
 _atom_site_type_symbol
 _atom_site_label
 _atom_site_symmetry_multiplicity
 _atom_site_fract_x
 _atom_site_fract_y
 _atom_site_fract_z
 _atom_site_occupancy
  Li  Li0  1  0.000000  0.000000  0.000000  1
  Co  Co1  1  0.618353  0.618353  0.144943  1
  Co  Co2  1  0.618353  0.144943  0.618353  1
  Co  Co3  1  0.144943  0.618353  0.618353  1
  Co  Co4  1  0.618353  0.618353  0.618353  1
  Co  Co5  1  0.381647  0.381647  0.855057  1
  Co  Co6  1  0.381647  0.855057  0.381647  1
  Co  Co7  1  0.855057  0.381647  0.381647  1
  Co  Co8  1  0.381647  0.381647  0.381647  1
  Co  Co9  1  0.000000  0.000000  0.341676  1
  Co  Co10  1  0.658324  0.000000  0.341676  1
  Co  Co11  1  0.000000  0.658324  0.341676  1
  Co  Co12  1  0.658324  0.341676  0.000000  1
  Co  Co13  1  0.000000  0.341676  0.000000  1
  Co  Co14  1  0.000000  0.341676  0.658324  1
  Co  Co15  1  0.341676  0.658324  0.000000  1
  Co  Co16  1  0.341676  0.000000  0.658324  1
  Co  Co17  1  0.341676  0.000000  0.000000  1
  Co  Co18  1  0.000000  0.000000  0.658324  1
  Co  Co19  1  0.000000  0.658324  0.000000  1
  Co  Co20  1  0.658324  0.000000  0.000000  1
  Tc  Tc21  1  0.750000  0.750000  0.750000  1
  Tc  Tc22  1  0.250000  0.250000  0.250000  1
  B  B23  1  0.726274  0.726274  0.273726  1
  B  B24  1  0.273726  0.726274  0.273726  1
  B  B25  1  0.726274  0.273726  0.273726  1
  B  B26  1  0.273726  0.273726  0.726274  1
  B  B27  1  0.726274  0.273726  0.726274  1
  B  B28  1  0.273726  0.726274  0.726274  1
