# generated using pymatgen
data_Tm8Sc2Rh5Au
_symmetry_space_group_name_H-M   'P 1'
_cell_length_a   10.80678494
_cell_length_b   10.73702500
_cell_length_c   6.20669700
_cell_angle_alpha   90.00000000
_cell_angle_beta   89.90472600
_cell_angle_gamma   90.00000000
_symmetry_Int_Tables_number   1
_chemical_formula_structural   Tm8Sc2Rh5Au
_chemical_formula_sum   'Tm16 Sc4 Rh10 Au2'
_cell_volume   720.17893994
_cell_formula_units_Z   2
loop_
 _symmetry_equiv_pos_site_id
 _symmetry_equiv_pos_as_xyz
  1  'x, y, z'
loop_
 _atom_site_type_symbol
 _atom_site_label
 _atom_site_symmetry_multiplicity
 _atom_site_fract_x
 _atom_site_fract_y
 _atom_site_fract_z
 _atom_site_occupancy
  Tm  Tm0  1  0.289226  0.086972  0.372066  1
  Tm  Tm1  1  0.289226  0.913028  0.872066  1
  Tm  Tm2  1  0.701837  0.090192  0.867857  1
  Tm  Tm3  1  0.701837  0.909808  0.367857  1
  Tm  Tm4  1  0.578875  0.786021  0.876478  1
  Tm  Tm5  1  0.578875  0.213979  0.376478  1
  Tm  Tm6  1  0.410585  0.787315  0.376370  1
  Tm  Tm7  1  0.410585  0.212685  0.876370  1
  Tm  Tm8  1  0.213147  0.413502  0.621894  1
  Tm  Tm9  1  0.213147  0.586498  0.121894  1
  Tm  Tm10  1  0.786841  0.418566  0.123199  1
  Tm  Tm11  1  0.786841  0.581434  0.623199  1
  Tm  Tm12  1  0.918178  0.708875  0.136759  1
  Tm  Tm13  1  0.918178  0.291125  0.636759  1
  Tm  Tm14  1  0.093052  0.706371  0.623933  1
  Tm  Tm15  1  0.093052  0.293629  0.123933  1
  Sc  Sc16  1  0.010459  0.997694  0.500132  1
  Sc  Sc17  1  0.010459  0.002306  0.000132  1
  Sc  Sc18  1  0.499541  0.499037  0.000494  1
  Sc  Sc19  1  0.499541  0.500963  0.500494  1
  Rh  Rh20  1  0.150264  0.150065  0.749952  1
  Rh  Rh21  1  0.150264  0.849935  0.249952  1
  Rh  Rh22  1  0.649573  0.350404  0.749786  1
  Rh  Rh23  1  0.649573  0.649596  0.249786  1
  Rh  Rh24  1  0.350319  0.350935  0.250350  1
  Rh  Rh25  1  0.350319  0.649065  0.750350  1
  Rh  Rh26  1  0.498711  0.999779  0.118617  1
  Rh  Rh27  1  0.498711  0.000221  0.618617  1
  Rh  Rh28  1  0.000606  0.500800  0.881124  1
  Rh  Rh29  1  0.000606  0.499200  0.381124  1
  Au  Au30  1  0.848786  0.150447  0.250987  1
  Au  Au31  1  0.848786  0.849553  0.750987  1
