# generated using pymatgen
data_Np(ZnAs)3
_symmetry_space_group_name_H-M   'P 1'
_cell_length_a   4.19003374
_cell_length_b   4.19250708
_cell_length_c   20.36707400
_cell_angle_alpha   90.00000000
_cell_angle_beta   90.00000000
_cell_angle_gamma   59.98527678
_symmetry_Int_Tables_number   1
_chemical_formula_structural   Np(ZnAs)3
_chemical_formula_sum   'Np2 Zn6 As6'
_cell_volume   309.80337595
_cell_formula_units_Z   2
loop_
 _symmetry_equiv_pos_site_id
 _symmetry_equiv_pos_as_xyz
  1  'x, y, z'
loop_
 _atom_site_type_symbol
 _atom_site_label
 _atom_site_symmetry_multiplicity
 _atom_site_fract_x
 _atom_site_fract_y
 _atom_site_fract_z
 _atom_site_occupancy
  Np  Np0  1  0.997702  0.000887  0.500038  1
  Np  Np1  1  0.997702  0.000887  0.999962  1
  Zn  Zn2  1  0.333347  0.336358  0.126726  1
  Zn  Zn3  1  0.669756  0.665758  0.873226  1
  Zn  Zn4  1  0.669756  0.665758  0.626774  1
  Zn  Zn5  1  0.333347  0.336358  0.373274  1
  Zn  Zn6  1  0.268305  0.364251  0.750000  1
  Zn  Zn7  1  0.635637  0.633549  0.250000  1
  As  As8  1  0.333694  0.333366  0.583444  1
  As  As9  1  0.665344  0.668442  0.416614  1
  As  As10  1  0.665344  0.668442  0.083386  1
  As  As11  1  0.333694  0.333366  0.916556  1
  As  As12  1  0.596710  0.699677  0.750000  1
  As  As13  1  0.300462  0.297999  0.250000  1
