# generated using pymatgen
data_Sm2Ho3Er3(Si3Rh)4
_symmetry_space_group_name_H-M   'P 1'
_cell_length_a   8.16783900
_cell_length_b   8.16784006
_cell_length_c   7.93236300
_cell_angle_alpha   90.00000000
_cell_angle_beta   90.00000000
_cell_angle_gamma   119.99999977
_symmetry_Int_Tables_number   1
_chemical_formula_structural   Sm2Ho3Er3(Si3Rh)4
_chemical_formula_sum   'Sm2 Ho3 Er3 Si12 Rh4'
_cell_volume   458.29762455
_cell_formula_units_Z   1
loop_
 _symmetry_equiv_pos_site_id
 _symmetry_equiv_pos_as_xyz
  1  'x, y, z'
loop_
 _atom_site_type_symbol
 _atom_site_label
 _atom_site_symmetry_multiplicity
 _atom_site_fract_x
 _atom_site_fract_y
 _atom_site_fract_z
 _atom_site_occupancy
  Sm  Sm0  1  0.000000  0.000000  0.250000  1
  Sm  Sm1  1  0.000000  0.000000  0.750000  1
  Ho  Ho2  1  0.492150  0.507850  0.250000  1
  Ho  Ho3  1  0.492150  0.984299  0.250000  1
  Ho  Ho4  1  0.015701  0.507850  0.250000  1
  Er  Er5  1  0.507913  0.492087  0.750000  1
  Er  Er6  1  0.984173  0.492087  0.750000  1
  Er  Er7  1  0.507913  0.015827  0.750000  1
  Si  Si8  1  0.832117  0.167883  0.502608  1
  Si  Si9  1  0.832117  0.664233  0.502608  1
  Si  Si10  1  0.335767  0.167883  0.502608  1
  Si  Si11  1  0.832117  0.167883  0.997392  1
  Si  Si12  1  0.832117  0.664233  0.997392  1
  Si  Si13  1  0.335767  0.167883  0.997392  1
  Si  Si14  1  0.168011  0.831989  0.001427  1
  Si  Si15  1  0.663978  0.831989  0.001427  1
  Si  Si16  1  0.168011  0.336022  0.001427  1
  Si  Si17  1  0.168011  0.831989  0.498573  1
  Si  Si18  1  0.663978  0.831989  0.498573  1
  Si  Si19  1  0.168011  0.336022  0.498573  1
  Rh  Rh20  1  0.666667  0.333333  0.467757  1
  Rh  Rh21  1  0.666667  0.333333  0.032243  1
  Rh  Rh22  1  0.333333  0.666667  0.963233  1
  Rh  Rh23  1  0.333333  0.666667  0.536767  1
