# generated using pymatgen
data_Dy4Er2Al24Os5Rh3
_symmetry_space_group_name_H-M   'P 1'
_cell_length_a   8.77204077
_cell_length_b   8.79346521
_cell_length_c   9.56532620
_cell_angle_alpha   90.00371153
_cell_angle_beta   89.81847143
_cell_angle_gamma   119.37281558
_symmetry_Int_Tables_number   1
_chemical_formula_structural   Dy4Er2Al24Os5Rh3
_chemical_formula_sum   'Dy4 Er2 Al24 Os5 Rh3'
_cell_volume   642.98146703
_cell_formula_units_Z   1
loop_
 _symmetry_equiv_pos_site_id
 _symmetry_equiv_pos_as_xyz
  1  'x, y, z'
loop_
 _atom_site_type_symbol
 _atom_site_label
 _atom_site_symmetry_multiplicity
 _atom_site_fract_x
 _atom_site_fract_y
 _atom_site_fract_z
 _atom_site_occupancy
  Dy  Dy0  1  0.185897  0.382818  0.251633  1
  Dy  Dy1  1  0.814103  0.617182  0.748367  1
  Dy  Dy2  1  0.614754  0.815005  0.251423  1
  Dy  Dy3  1  0.385246  0.184995  0.748577  1
  Er  Er4  1  0.197061  0.808978  0.252075  1
  Er  Er5  1  0.802939  0.191022  0.747925  1
  Al  Al6  1  0.333465  0.667657  0.025063  1
  Al  Al7  1  0.666535  0.332343  0.974937  1
  Al  Al8  1  0.667606  0.332837  0.523137  1
  Al  Al9  1  0.332394  0.667163  0.476863  1
  Al  Al10  1  0.161978  0.325898  0.576710  1
  Al  Al11  1  0.838022  0.674102  0.423290  1
  Al  Al12  1  0.673201  0.836774  0.576255  1
  Al  Al13  1  0.835903  0.674186  0.077203  1
  Al  Al14  1  0.326799  0.163226  0.423745  1
  Al  Al15  1  0.164097  0.325814  0.922797  1
  Al  Al16  1  0.164020  0.834238  0.575385  1
  Al  Al17  1  0.326538  0.162878  0.076437  1
  Al  Al18  1  0.835980  0.165762  0.424615  1
  Al  Al19  1  0.673462  0.837122  0.923563  1
  Al  Al20  1  0.833778  0.163048  0.075885  1
  Al  Al21  1  0.166222  0.836952  0.924115  1
  Al  Al22  1  0.561291  0.126508  0.249603  1
  Al  Al23  1  0.438709  0.873492  0.750397  1
  Al  Al24  1  0.875666  0.439788  0.250119  1
  Al  Al25  1  0.124334  0.560212  0.749881  1
  Al  Al26  1  0.560248  0.440183  0.249694  1
  Al  Al27  1  0.439752  0.559817  0.750306  1
  Al  Al28  1  0.999576  0.001150  0.250071  1
  Al  Al29  1  0.000424  0.998850  0.749929  1
  Os  Os30  1  0.500000  0.000000  0.000000  1
  Os  Os31  1  0.500000  0.000000  0.500000  1
  Os  Os32  1  0.000000  0.500000  0.500000  1
  Os  Os33  1  0.000000  0.000000  0.000000  1
  Os  Os34  1  0.000000  0.000000  0.500000  1
  Rh  Rh35  1  0.000000  0.500000  0.000000  1
  Rh  Rh36  1  0.500000  0.500000  0.000000  1
  Rh  Rh37  1  0.500000  0.500000  0.500000  1
