# generated using pymatgen
data_Ca18TmCd8N7
_symmetry_space_group_name_H-M   'P 1'
_cell_length_a   10.39893803
_cell_length_b   10.39796040
_cell_length_c   10.39890291
_cell_angle_alpha   60.04150292
_cell_angle_beta   60.03204482
_cell_angle_gamma   60.04121446
_symmetry_Int_Tables_number   1
_chemical_formula_structural   Ca18TmCd8N7
_chemical_formula_sum   'Ca18 Tm1 Cd8 N7'
_cell_volume   795.76728944
_cell_formula_units_Z   1
loop_
 _symmetry_equiv_pos_site_id
 _symmetry_equiv_pos_as_xyz
  1  'x, y, z'
loop_
 _atom_site_type_symbol
 _atom_site_label
 _atom_site_symmetry_multiplicity
 _atom_site_fract_x
 _atom_site_fract_y
 _atom_site_fract_z
 _atom_site_occupancy
  Ca  Ca0  1  0.172123  0.499996  0.827873  1
  Ca  Ca1  1  0.500013  0.827856  0.172145  1
  Ca  Ca2  1  0.827862  0.172137  0.499993  1
  Ca  Ca3  1  0.166129  0.833872  0.166129  1
  Ca  Ca4  1  0.827877  0.500004  0.172127  1
  Ca  Ca5  1  0.172138  0.827863  0.500007  1
  Ca  Ca6  1  0.166114  0.166111  0.833889  1
  Ca  Ca7  1  0.172169  0.500005  0.500027  1
  Ca  Ca8  1  0.833886  0.833889  0.166111  1
  Ca  Ca9  1  0.833871  0.166128  0.833871  1
  Ca  Ca10  1  0.499990  0.827852  0.499980  1
  Ca  Ca11  1  0.500019  0.500009  0.172160  1
  Ca  Ca12  1  0.166117  0.833880  0.833878  1
  Ca  Ca13  1  0.499987  0.172144  0.827855  1
  Ca  Ca14  1  0.500010  0.172148  0.500020  1
  Ca  Ca15  1  0.827831  0.499995  0.499973  1
  Ca  Ca16  1  0.833883  0.166120  0.166122  1
  Ca  Ca17  1  0.499981  0.499991  0.827840  1
  Tm  Tm18  1  0.500000  0.500000  0.500000  1
  Cd  Cd19  1  0.174379  0.174345  0.476519  1
  Cd  Cd20  1  0.825664  0.523481  0.825655  1
  Cd  Cd21  1  0.476520  0.174334  0.174379  1
  Cd  Cd22  1  0.174336  0.476519  0.174345  1
  Cd  Cd23  1  0.523480  0.825666  0.825621  1
  Cd  Cd24  1  0.174540  0.174572  0.174529  1
  Cd  Cd25  1  0.825460  0.825428  0.825471  1
  Cd  Cd26  1  0.825621  0.825655  0.523481  1
  N  N27  1  0.666722  0.333327  0.666719  1
  N  N28  1  0.666668  0.333287  0.333286  1
  N  N29  1  0.333332  0.666713  0.666714  1
  N  N30  1  0.333278  0.666673  0.333281  1
  N  N31  1  0.333283  0.333283  0.666671  1
  N  N32  1  0.666717  0.666717  0.333329  1
  N  N33  1  0.000000  0.000000  0.000000  1
