# generated using pymatgen
data_La3TbLuIn3Br
_symmetry_space_group_name_H-M   'P 1'
_cell_length_a   9.60077600
_cell_length_b   9.60077608
_cell_length_c   6.80881400
_cell_angle_alpha   90.00000000
_cell_angle_beta   90.00000000
_cell_angle_gamma   119.99999974
_symmetry_Int_Tables_number   1
_chemical_formula_structural   La3TbLuIn3Br
_chemical_formula_sum   'La6 Tb2 Lu2 In6 Br2'
_cell_volume   543.51906317
_cell_formula_units_Z   2
loop_
 _symmetry_equiv_pos_site_id
 _symmetry_equiv_pos_as_xyz
  1  'x, y, z'
loop_
 _atom_site_type_symbol
 _atom_site_label
 _atom_site_symmetry_multiplicity
 _atom_site_fract_x
 _atom_site_fract_y
 _atom_site_fract_z
 _atom_site_occupancy
  La  La0  1  0.731136  0.731136  0.250962  1
  La  La1  1  0.000000  0.731136  0.749038  1
  La  La2  1  0.731136  0.000000  0.749038  1
  La  La3  1  0.268864  0.268864  0.749038  1
  La  La4  1  0.000000  0.268864  0.250962  1
  La  La5  1  0.268864  0.000000  0.250962  1
  Tb  Tb6  1  0.333333  0.666667  0.000000  1
  Tb  Tb7  1  0.666667  0.333333  0.000000  1
  Lu  Lu8  1  0.333333  0.666667  0.500000  1
  Lu  Lu9  1  0.666667  0.333333  0.500000  1
  In  In10  1  0.394275  0.000000  0.748816  1
  In  In11  1  0.000000  0.605725  0.251184  1
  In  In12  1  0.605725  0.000000  0.251184  1
  In  In13  1  0.000000  0.394275  0.748816  1
  In  In14  1  0.394275  0.394275  0.251184  1
  In  In15  1  0.605725  0.605725  0.748816  1
  Br  Br16  1  0.000000  0.000000  0.500000  1
  Br  Br17  1  0.000000  0.000000  0.000000  1
