# generated using pymatgen
data_SmMgCuNi3
_symmetry_space_group_name_H-M   'P 1'
_cell_length_a   5.05083918
_cell_length_b   5.05083955
_cell_length_c   5.00340350
_cell_angle_alpha   59.68587099
_cell_angle_beta   59.68587218
_cell_angle_gamma   60.00000635
_symmetry_Int_Tables_number   1
_chemical_formula_structural   SmMgCuNi3
_chemical_formula_sum   'Sm1 Mg1 Cu1 Ni3'
_cell_volume   89.82541065
_cell_formula_units_Z   1
loop_
 _symmetry_equiv_pos_site_id
 _symmetry_equiv_pos_as_xyz
  1  'x, y, z'
loop_
 _atom_site_type_symbol
 _atom_site_label
 _atom_site_symmetry_multiplicity
 _atom_site_fract_x
 _atom_site_fract_y
 _atom_site_fract_z
 _atom_site_occupancy
  Sm  Sm0  1  0.249010  0.249010  0.252969  1
  Mg  Mg1  1  0.000286  0.000286  0.999144  1
  Cu  Cu2  1  0.626210  0.626210  0.121370  1
  Ni  Ni3  1  0.626719  0.121056  0.625505  1
  Ni  Ni4  1  0.121056  0.626719  0.625505  1
  Ni  Ni5  1  0.626719  0.626719  0.625505  1
