# generated using pymatgen
data_Dy5Tm5BiPb5
_symmetry_space_group_name_H-M   'P 1'
_cell_length_a   6.51632400
_cell_length_b   9.04484699
_cell_length_c   9.05033600
_cell_angle_alpha   120.05140861
_cell_angle_beta   90.00026237
_cell_angle_gamma   89.99999925
_symmetry_Int_Tables_number   1
_chemical_formula_structural   Dy5Tm5BiPb5
_chemical_formula_sum   'Dy5 Tm5 Bi1 Pb5'
_cell_volume   461.71503796
_cell_formula_units_Z   1
loop_
 _symmetry_equiv_pos_site_id
 _symmetry_equiv_pos_as_xyz
  1  'x, y, z'
loop_
 _atom_site_type_symbol
 _atom_site_label
 _atom_site_symmetry_multiplicity
 _atom_site_fract_x
 _atom_site_fract_y
 _atom_site_fract_z
 _atom_site_occupancy
  Dy  Dy0  1  0.750002  0.235590  0.999828  1
  Dy  Dy1  1  0.750000  0.764118  0.760385  1
  Dy  Dy2  1  0.749999  0.003579  0.239846  1
  Dy  Dy3  1  0.250001  0.762646  0.999777  1
  Dy  Dy4  1  0.250000  0.237202  0.237618  1
  Tm  Tm5  1  0.499139  0.331410  0.664398  1
  Tm  Tm6  1  0.499125  0.667134  0.335723  1
  Tm  Tm7  1  0.000871  0.667149  0.335730  1
  Tm  Tm8  1  0.000858  0.331417  0.664391  1
  Tm  Tm9  1  0.250002  0.999350  0.762076  1
  Bi  Bi10  1  0.749995  0.606125  0.999984  1
  Pb  Pb11  1  0.750001  0.395990  0.395398  1
  Pb  Pb12  1  0.750000  0.000577  0.604608  1
  Pb  Pb13  1  0.249986  0.393772  0.999593  1
  Pb  Pb14  1  0.250008  0.605381  0.606407  1
  Pb  Pb15  1  0.250010  0.998561  0.394238  1
