# generated using pymatgen
data_Sc6Ta5NbRu12
_symmetry_space_group_name_H-M   'P 1'
_cell_length_a   4.50932200
_cell_length_b   6.34357800
_cell_length_c   13.58363300
_cell_angle_alpha   90.00000000
_cell_angle_beta   90.00028318
_cell_angle_gamma   90.00000000
_symmetry_Int_Tables_number   1
_chemical_formula_structural   Sc6Ta5NbRu12
_chemical_formula_sum   'Sc6 Ta5 Nb1 Ru12'
_cell_volume   388.56302545
_cell_formula_units_Z   1
loop_
 _symmetry_equiv_pos_site_id
 _symmetry_equiv_pos_as_xyz
  1  'x, y, z'
loop_
 _atom_site_type_symbol
 _atom_site_label
 _atom_site_symmetry_multiplicity
 _atom_site_fract_x
 _atom_site_fract_y
 _atom_site_fract_z
 _atom_site_occupancy
  Sc  Sc0  1  0.000000  0.000000  0.000000  1
  Sc  Sc1  1  0.499847  0.500000  0.166660  1
  Sc  Sc2  1  0.999843  0.000000  0.333329  1
  Sc  Sc3  1  0.500000  0.500000  0.500000  1
  Sc  Sc4  1  0.000158  0.000000  0.666670  1
  Sc  Sc5  1  0.500154  0.500000  0.833340  1
  Ta  Ta6  1  0.499902  0.000000  0.166564  1
  Ta  Ta7  1  0.999918  0.500000  0.333268  1
  Ta  Ta8  1  0.500000  0.000000  0.500000  1
  Ta  Ta9  1  0.000082  0.500000  0.666732  1
  Ta  Ta10  1  0.500097  0.000000  0.833435  1
  Nb  Nb11  1  0.000000  0.500000  0.000000  1
  Ru  Ru12  1  0.500000  0.249066  0.000000  1
  Ru  Ru13  1  0.500000  0.750935  0.000000  1
  Ru  Ru14  1  0.999827  0.249269  0.167026  1
  Ru  Ru15  1  0.999827  0.750731  0.167026  1
  Ru  Ru16  1  0.499824  0.250267  0.333353  1
  Ru  Ru17  1  0.499824  0.749732  0.333353  1
  Ru  Ru18  1  0.000000  0.249798  0.500000  1
  Ru  Ru19  1  0.000000  0.750202  0.500000  1
  Ru  Ru20  1  0.500175  0.250267  0.666646  1
  Ru  Ru21  1  0.500175  0.749732  0.666646  1
  Ru  Ru22  1  0.000172  0.249269  0.832974  1
  Ru  Ru23  1  0.000172  0.750731  0.832974  1
