# generated using pymatgen
data_Mn2CrB4
_symmetry_space_group_name_H-M   'P 1'
_cell_length_a   2.95710892
_cell_length_b   2.97655660
_cell_length_c   6.68624940
_cell_angle_alpha   102.86107872
_cell_angle_beta   102.77561911
_cell_angle_gamma   90.00000316
_symmetry_Int_Tables_number   1
_chemical_formula_structural   Mn2CrB4
_chemical_formula_sum   'Mn2 Cr1 B4'
_cell_volume   55.88047018
_cell_formula_units_Z   1
loop_
 _symmetry_equiv_pos_site_id
 _symmetry_equiv_pos_as_xyz
  1  'x, y, z'
loop_
 _atom_site_type_symbol
 _atom_site_label
 _atom_site_symmetry_multiplicity
 _atom_site_fract_x
 _atom_site_fract_y
 _atom_site_fract_z
 _atom_site_occupancy
  Mn  Mn0  1  0.185262  0.185262  0.370524  1
  Mn  Mn1  1  0.814739  0.814739  0.629477  1
  Cr  Cr2  1  0.500001  0.000000  0.000000  1
  B  B3  1  0.068109  0.568109  0.136217  1
  B  B4  1  0.643741  0.643741  0.287479  1
  B  B5  1  0.356260  0.356260  0.712521  1
  B  B6  1  0.931892  0.431891  0.863783  1
