# generated using pymatgen
data_Ac2Ir2Br
_symmetry_space_group_name_H-M   'P 1'
_cell_length_a   4.43463900
_cell_length_b   4.43463736
_cell_length_c   17.73661200
_cell_angle_alpha   90.00000000
_cell_angle_beta   90.00000000
_cell_angle_gamma   119.99998987
_symmetry_Int_Tables_number   1
_chemical_formula_structural   Ac2Ir2Br
_chemical_formula_sum   'Ac4 Ir4 Br2'
_cell_volume   302.07704544
_cell_formula_units_Z   2
loop_
 _symmetry_equiv_pos_site_id
 _symmetry_equiv_pos_as_xyz
  1  'x, y, z'
loop_
 _atom_site_type_symbol
 _atom_site_label
 _atom_site_symmetry_multiplicity
 _atom_site_fract_x
 _atom_site_fract_y
 _atom_site_fract_z
 _atom_site_occupancy
  Ac  Ac0  1  0.000000  0.000000  0.109472  1
  Ac  Ac1  1  0.000000  0.000000  0.890528  1
  Ac  Ac2  1  0.000000  0.000000  0.609472  1
  Ac  Ac3  1  0.000000  0.000000  0.390528  1
  Ir  Ir4  1  0.333333  0.666667  0.500238  1
  Ir  Ir5  1  0.666667  0.333333  0.499762  1
  Ir  Ir6  1  0.666667  0.333333  0.000238  1
  Ir  Ir7  1  0.333333  0.666667  0.999762  1
  Br  Br8  1  0.333333  0.666667  0.250000  1
  Br  Br9  1  0.666667  0.333333  0.750000  1
