# generated using pymatgen
data_Y5ErC2I11
_symmetry_space_group_name_H-M   'P 1'
_cell_length_a   9.53295308
_cell_length_b   10.79865941
_cell_length_c   15.06429903
_cell_angle_alpha   89.79550305
_cell_angle_beta   104.33361809
_cell_angle_gamma   109.90656590
_symmetry_Int_Tables_number   1
_chemical_formula_structural   Y5ErC2I11
_chemical_formula_sum   'Y10 Er2 C4 I22'
_cell_volume   1407.15888157
_cell_formula_units_Z   2
loop_
 _symmetry_equiv_pos_site_id
 _symmetry_equiv_pos_as_xyz
  1  'x, y, z'
loop_
 _atom_site_type_symbol
 _atom_site_label
 _atom_site_symmetry_multiplicity
 _atom_site_fract_x
 _atom_site_fract_y
 _atom_site_fract_z
 _atom_site_occupancy
  Y  Y0  1  0.385776  0.479202  0.120685  1
  Y  Y1  1  0.614224  0.520798  0.879315  1
  Y  Y2  1  0.425356  0.781482  0.266670  1
  Y  Y3  1  0.574644  0.218518  0.733330  1
  Y  Y4  1  0.626985  0.581263  0.362182  1
  Y  Y5  1  0.373015  0.418737  0.637818  1
  Y  Y6  1  0.833380  0.648912  0.200992  1
  Y  Y7  1  0.166620  0.351088  0.799008  1
  Y  Y8  1  0.629081  0.843727  0.102932  1
  Y  Y9  1  0.370919  0.156273  0.897068  1
  Er  Er10  1  0.859635  0.944897  0.347010  1
  Er  Er11  1  0.140365  0.055103  0.652990  1
  C  C12  1  0.430288  0.343561  0.796408  1
  C  C13  1  0.569712  0.656439  0.203592  1
  C  C14  1  0.315071  0.231516  0.739915  1
  C  C15  1  0.684929  0.768484  0.260085  1
  I  I16  1  0.385763  0.309345  0.275614  1
  I  I17  1  0.614237  0.690655  0.724386  1
  I  I18  1  0.121555  0.558766  0.150794  1
  I  I19  1  0.878445  0.441234  0.849206  1
  I  I20  1  0.628598  0.375964  0.063618  1
  I  I21  1  0.371402  0.624036  0.936382  1
  I  I22  1  0.118417  0.205294  0.480439  1
  I  I23  1  0.881583  0.794706  0.519561  1
  I  I24  1  0.619345  0.034673  0.390662  1
  I  I25  1  0.380655  0.965327  0.609338  1
  I  I26  1  0.127950  0.871001  0.306814  1
  I  I27  1  0.872050  0.128999  0.693186  1
  I  I28  1  0.129169  0.530024  0.650554  1
  I  I29  1  0.870831  0.469976  0.349446  1
  I  I30  1  0.617908  0.368917  0.563287  1
  I  I31  1  0.382092  0.631083  0.436713  1
  I  I32  1  0.139930  0.221712  0.980864  1
  I  I33  1  0.860070  0.778288  0.019136  1
  I  I34  1  0.626794  0.052659  0.898486  1
  I  I35  1  0.373206  0.947341  0.101514  1
  I  I36  1  0.126040  0.891905  0.815032  1
  I  I37  1  0.873960  0.108095  0.184968  1
