# generated using pymatgen
data_Nd8TiPd23Pt
_symmetry_space_group_name_H-M   'P 1'
_cell_length_a   8.50958400
_cell_length_b   8.51833500
_cell_length_c   8.51833500
_cell_angle_alpha   90.00000000
_cell_angle_beta   90.00000000
_cell_angle_gamma   90.00000000
_symmetry_Int_Tables_number   1
_chemical_formula_structural   Nd8TiPd23Pt
_chemical_formula_sum   'Nd8 Ti1 Pd23 Pt1'
_cell_volume   617.47269947
_cell_formula_units_Z   1
loop_
 _symmetry_equiv_pos_site_id
 _symmetry_equiv_pos_as_xyz
  1  'x, y, z'
loop_
 _atom_site_type_symbol
 _atom_site_label
 _atom_site_symmetry_multiplicity
 _atom_site_fract_x
 _atom_site_fract_y
 _atom_site_fract_z
 _atom_site_occupancy
  Nd  Nd0  1  0.252284  0.252094  0.252094  1
  Nd  Nd1  1  0.747514  0.747095  0.747095  1
  Nd  Nd2  1  0.747514  0.747095  0.252905  1
  Nd  Nd3  1  0.747514  0.252905  0.747095  1
  Nd  Nd4  1  0.252284  0.252094  0.747906  1
  Nd  Nd5  1  0.252284  0.747906  0.252094  1
  Nd  Nd6  1  0.252284  0.747906  0.747906  1
  Nd  Nd7  1  0.747514  0.252905  0.252905  1
  Ti  Ti8  1  0.003785  0.000000  0.000000  1
  Pd  Pd9  1  0.262269  0.500000  0.000000  1
  Pd  Pd10  1  0.737468  0.500000  0.000000  1
  Pd  Pd11  1  0.999967  0.262453  0.500000  1
  Pd  Pd12  1  0.499886  0.262474  0.000000  1
  Pd  Pd13  1  0.999967  0.737547  0.500000  1
  Pd  Pd14  1  0.499886  0.737526  0.000000  1
  Pd  Pd15  1  0.499886  0.000000  0.262474  1
  Pd  Pd16  1  0.262269  0.000000  0.500000  1
  Pd  Pd17  1  0.499886  0.000000  0.737526  1
  Pd  Pd18  1  0.737468  0.000000  0.500000  1
  Pd  Pd19  1  0.999967  0.500000  0.262453  1
  Pd  Pd20  1  0.999967  0.500000  0.737547  1
  Pd  Pd21  1  0.253624  0.500000  0.500000  1
  Pd  Pd22  1  0.746408  0.500000  0.500000  1
  Pd  Pd23  1  0.500024  0.253664  0.500000  1
  Pd  Pd24  1  0.500024  0.746336  0.500000  1
  Pd  Pd25  1  0.500024  0.500000  0.253664  1
  Pd  Pd26  1  0.500024  0.500000  0.746336  1
  Pd  Pd27  1  0.704101  0.000000  0.000000  1
  Pd  Pd28  1  0.999418  0.297134  0.000000  1
  Pd  Pd29  1  0.999418  0.702866  0.000000  1
  Pd  Pd30  1  0.999418  0.000000  0.297134  1
  Pd  Pd31  1  0.999418  0.000000  0.702866  1
  Pt  Pt32  1  0.296237  0.000000  0.000000  1
