# generated using pymatgen
data_Dy9Ho2ErGa20
_symmetry_space_group_name_H-M   'P 1'
_cell_length_a   6.10211902
_cell_length_b   9.65023400
_cell_length_c   11.52764008
_cell_angle_alpha   90.00000000
_cell_angle_beta   89.99797879
_cell_angle_gamma   90.00000000
_symmetry_Int_Tables_number   1
_chemical_formula_structural   Dy9Ho2ErGa20
_chemical_formula_sum   'Dy9 Ho2 Er1 Ga20'
_cell_volume   678.82671706
_cell_formula_units_Z   1
loop_
 _symmetry_equiv_pos_site_id
 _symmetry_equiv_pos_as_xyz
  1  'x, y, z'
loop_
 _atom_site_type_symbol
 _atom_site_label
 _atom_site_symmetry_multiplicity
 _atom_site_fract_x
 _atom_site_fract_y
 _atom_site_fract_z
 _atom_site_occupancy
  Dy  Dy0  1  0.848818  0.750000  0.074515  1
  Dy  Dy1  1  0.890482  0.509438  0.351597  1
  Dy  Dy2  1  0.609462  0.990639  0.851447  1
  Dy  Dy3  1  0.109590  0.009635  0.648458  1
  Dy  Dy4  1  0.390217  0.490304  0.148369  1
  Dy  Dy5  1  0.109590  0.490365  0.648458  1
  Dy  Dy6  1  0.390217  0.009696  0.148369  1
  Dy  Dy7  1  0.890482  0.990562  0.351597  1
  Dy  Dy8  1  0.609462  0.509361  0.851447  1
  Ho  Ho9  1  0.651301  0.750000  0.574490  1
  Ho  Ho10  1  0.348707  0.250000  0.425383  1
  Er  Er11  1  0.151299  0.250000  0.925429  1
  Ga  Ga12  1  0.874978  0.053701  0.090311  1
  Ga  Ga13  1  0.625023  0.446643  0.590283  1
  Ga  Ga14  1  0.125073  0.552986  0.909617  1
  Ga  Ga15  1  0.375031  0.946719  0.409793  1
  Ga  Ga16  1  0.125073  0.947014  0.909617  1
  Ga  Ga17  1  0.375031  0.553281  0.409793  1
  Ga  Ga18  1  0.874978  0.446299  0.090311  1
  Ga  Ga19  1  0.625023  0.053357  0.590283  1
  Ga  Ga20  1  0.173682  0.750000  0.252190  1
  Ga  Ga21  1  0.326940  0.750000  0.751936  1
  Ga  Ga22  1  0.827268  0.250000  0.748122  1
  Ga  Ga23  1  0.673107  0.250000  0.247936  1
  Ga  Ga24  1  0.371744  0.750000  0.004458  1
  Ga  Ga25  1  0.127884  0.750000  0.504816  1
  Ga  Ga26  1  0.627170  0.250000  0.995298  1
  Ga  Ga27  1  0.872158  0.250000  0.495327  1
  Ga  Ga28  1  0.602141  0.750000  0.299871  1
  Ga  Ga29  1  0.897944  0.750000  0.799287  1
  Ga  Ga30  1  0.397788  0.250000  0.700724  1
  Ga  Ga31  1  0.102332  0.250000  0.200467  1
