# generated using pymatgen
data_DyLu3Th6(Ge3C)2
_symmetry_space_group_name_H-M   'P 1'
_cell_length_a   8.77796800
_cell_length_b   8.77792257
_cell_length_c   6.37872601
_cell_angle_alpha   90.00007827
_cell_angle_beta   90.00007394
_cell_angle_gamma   119.99959438
_symmetry_Int_Tables_number   1
_chemical_formula_structural   DyLu3Th6(Ge3C)2
_chemical_formula_sum   'Dy1 Lu3 Th6 Ge6 C2'
_cell_volume   425.64946670
_cell_formula_units_Z   1
loop_
 _symmetry_equiv_pos_site_id
 _symmetry_equiv_pos_as_xyz
  1  'x, y, z'
loop_
 _atom_site_type_symbol
 _atom_site_label
 _atom_site_symmetry_multiplicity
 _atom_site_fract_x
 _atom_site_fract_y
 _atom_site_fract_z
 _atom_site_occupancy
  Dy  Dy0  1  0.666654  0.333329  0.500021  1
  Lu  Lu1  1  0.333335  0.666665  0.500010  1
  Lu  Lu2  1  0.333339  0.666674  0.000005  1
  Lu  Lu3  1  0.666660  0.333320  0.000003  1
  Th  Th4  1  0.767713  0.767732  0.249737  1
  Th  Th5  1  0.232258  0.999975  0.249734  1
  Th  Th6  1  0.000023  0.232294  0.249735  1
  Th  Th7  1  0.232268  0.232301  0.750277  1
  Th  Th8  1  0.767707  0.999972  0.750289  1
  Th  Th9  1  0.000034  0.767724  0.750282  1
  Ge  Ge10  1  0.403083  0.405010  0.248196  1
  Ge  Ge11  1  0.595022  0.998094  0.248252  1
  Ge  Ge12  1  0.001906  0.596923  0.248209  1
  Ge  Ge13  1  0.595056  0.596924  0.751754  1
  Ge  Ge14  1  0.403068  0.998119  0.751736  1
  Ge  Ge15  1  0.001868  0.404941  0.751779  1
  C  C16  1  0.000002  0.000001  0.500008  1
  C  C17  1  0.000002  0.000000  0.999973  1
