# generated using pymatgen
data_PrNd3Zn3Ir11
_symmetry_space_group_name_H-M   'P 1'
_cell_length_a   13.06056532
_cell_length_b   13.06056560
_cell_length_c   13.06056504
_cell_angle_alpha   24.15137050
_cell_angle_beta   24.15137015
_cell_angle_gamma   24.15136918
_symmetry_Int_Tables_number   1
_chemical_formula_structural   PrNd3Zn3Ir11
_chemical_formula_sum   'Pr1 Nd3 Zn3 Ir11'
_cell_volume   327.76190185
_cell_formula_units_Z   1
loop_
 _symmetry_equiv_pos_site_id
 _symmetry_equiv_pos_as_xyz
  1  'x, y, z'
loop_
 _atom_site_type_symbol
 _atom_site_label
 _atom_site_symmetry_multiplicity
 _atom_site_fract_x
 _atom_site_fract_y
 _atom_site_fract_z
 _atom_site_occupancy
  Pr  Pr0  1  0.952343  0.952343  0.952343  1
  Nd  Nd1  1  0.051962  0.051962  0.051962  1
  Nd  Nd2  1  0.853347  0.853347  0.853347  1
  Nd  Nd3  1  0.148579  0.148579  0.148579  1
  Zn  Zn4  1  0.721161  0.721161  0.721161  1
  Zn  Zn5  1  0.278454  0.278454  0.278454  1
  Zn  Zn6  1  0.609859  0.609859  0.609859  1
  Ir  Ir7  1  0.500529  0.500529  0.500529  1
  Ir  Ir8  1  0.387154  0.387154  0.387154  1
  Ir  Ir9  1  0.500958  0.500958  0.996613  1
  Ir  Ir10  1  0.996613  0.500958  0.500958  1
  Ir  Ir11  1  0.500958  0.996613  0.500958  1
  Ir  Ir12  1  0.386438  0.894978  0.386438  1
  Ir  Ir13  1  0.386438  0.386438  0.894978  1
  Ir  Ir14  1  0.894978  0.386438  0.386438  1
  Ir  Ir15  1  0.611675  0.106881  0.611675  1
  Ir  Ir16  1  0.611675  0.611675  0.106881  1
  Ir  Ir17  1  0.106881  0.611675  0.611675  1
