# generated using pymatgen
data_TmLu7Tc(B8Ru)3
_symmetry_space_group_name_H-M   'P 1'
_cell_length_a   3.60251600
_cell_length_b   9.03099559
_cell_length_c   11.40377504
_cell_angle_alpha   89.92105004
_cell_angle_beta   90.00000000
_cell_angle_gamma   90.00000000
_symmetry_Int_Tables_number   1
_chemical_formula_structural   TmLu7Tc(B8Ru)3
_chemical_formula_sum   'Tm1 Lu7 Tc1 B24 Ru3'
_cell_volume   371.01355578
_cell_formula_units_Z   1
loop_
 _symmetry_equiv_pos_site_id
 _symmetry_equiv_pos_as_xyz
  1  'x, y, z'
loop_
 _atom_site_type_symbol
 _atom_site_label
 _atom_site_symmetry_multiplicity
 _atom_site_fract_x
 _atom_site_fract_y
 _atom_site_fract_z
 _atom_site_occupancy
  Tm  Tm0  1  0.000000  0.323493  0.413161  1
  Lu  Lu1  1  0.000000  0.677921  0.583333  1
  Lu  Lu2  1  0.000000  0.819491  0.088112  1
  Lu  Lu3  1  0.000000  0.178240  0.915018  1
  Lu  Lu4  1  0.000000  0.943280  0.372528  1
  Lu  Lu5  1  0.000000  0.056829  0.627916  1
  Lu  Lu6  1  0.000000  0.444456  0.127869  1
  Lu  Lu7  1  0.000000  0.556585  0.871901  1
  Tc  Tc8  1  0.000000  0.638055  0.320895  1
  B  B9  1  0.500000  0.552861  0.433966  1
  B  B10  1  0.500000  0.446626  0.566959  1
  B  B11  1  0.500000  0.053472  0.066222  1
  B  B12  1  0.500000  0.946464  0.933841  1
  B  B13  1  0.500000  0.749443  0.420290  1
  B  B14  1  0.500000  0.250915  0.580058  1
  B  B15  1  0.500000  0.249182  0.079554  1
  B  B16  1  0.500000  0.750774  0.920292  1
  B  B17  1  0.500000  0.792673  0.265450  1
  B  B18  1  0.500000  0.207892  0.734586  1
  B  B19  1  0.500000  0.291805  0.233605  1
  B  B20  1  0.500000  0.708266  0.765448  1
  B  B21  1  0.500000  0.631173  0.184606  1
  B  B22  1  0.500000  0.368532  0.815759  1
  B  B23  1  0.500000  0.131036  0.315031  1
  B  B24  1  0.500000  0.869106  0.684409  1
  B  B25  1  0.500000  0.981866  0.212641  1
  B  B26  1  0.500000  0.018150  0.787614  1
  B  B27  1  0.500000  0.481183  0.287093  1
  B  B28  1  0.500000  0.518005  0.712820  1
  B  B29  1  0.500000  0.605690  0.028635  1
  B  B30  1  0.500000  0.393932  0.970446  1
  B  B31  1  0.500000  0.105833  0.471029  1
  B  B32  1  0.500000  0.895197  0.529588  1
  Ru  Ru33  1  0.000000  0.361661  0.679942  1
  Ru  Ru34  1  0.000000  0.137730  0.178452  1
  Ru  Ru35  1  0.000000  0.862178  0.820931  1
