# generated using pymatgen
data_BaScSiGe3N7
_symmetry_space_group_name_H-M   'P 1'
_cell_length_a   6.18331700
_cell_length_b   6.18331659
_cell_length_c   9.99625100
_cell_angle_alpha   90.00000000
_cell_angle_beta   90.00000000
_cell_angle_gamma   119.99998612
_symmetry_Int_Tables_number   1
_chemical_formula_structural   BaScSiGe3N7
_chemical_formula_sum   'Ba2 Sc2 Si2 Ge6 N14'
_cell_volume   330.98692683
_cell_formula_units_Z   2
loop_
 _symmetry_equiv_pos_site_id
 _symmetry_equiv_pos_as_xyz
  1  'x, y, z'
loop_
 _atom_site_type_symbol
 _atom_site_label
 _atom_site_symmetry_multiplicity
 _atom_site_fract_x
 _atom_site_fract_y
 _atom_site_fract_z
 _atom_site_occupancy
  Ba  Ba0  1  0.666667  0.333333  0.576423  1
  Ba  Ba1  1  0.333333  0.666667  0.076423  1
  Sc  Sc2  1  0.666667  0.333333  0.950694  1
  Sc  Sc3  1  0.333333  0.666667  0.450694  1
  Si  Si4  1  0.000000  0.000000  0.025629  1
  Si  Si5  1  0.000000  0.000000  0.525629  1
  Ge  Ge6  1  0.171832  0.343663  0.761266  1
  Ge  Ge7  1  0.828168  0.171832  0.261266  1
  Ge  Ge8  1  0.343663  0.171832  0.261266  1
  Ge  Ge9  1  0.656337  0.828168  0.761266  1
  Ge  Ge10  1  0.171832  0.828168  0.761266  1
  Ge  Ge11  1  0.828168  0.656337  0.261266  1
  N  N12  1  0.000000  0.000000  0.840583  1
  N  N13  1  0.000000  0.000000  0.340583  1
  N  N14  1  0.844915  0.689831  0.076574  1
  N  N15  1  0.155085  0.844915  0.576574  1
  N  N16  1  0.689831  0.844915  0.576574  1
  N  N17  1  0.310169  0.155085  0.076574  1
  N  N18  1  0.844915  0.155085  0.076574  1
  N  N19  1  0.155085  0.310169  0.576574  1
  N  N20  1  0.498516  0.501484  0.821991  1
  N  N21  1  0.997033  0.498516  0.321991  1
  N  N22  1  0.501484  0.002967  0.321991  1
  N  N23  1  0.498516  0.997033  0.821991  1
  N  N24  1  0.501484  0.498516  0.321991  1
  N  N25  1  0.002967  0.501484  0.821991  1
