# generated using pymatgen
data_LiPrGeO4
_symmetry_space_group_name_H-M   'P 1'
_cell_length_a   6.43755200
_cell_length_b   5.78241865
_cell_length_c   11.55903986
_cell_angle_alpha   67.21643814
_cell_angle_beta   90.00000000
_cell_angle_gamma   90.00000000
_symmetry_Int_Tables_number   1
_chemical_formula_structural   LiPrGeO4
_chemical_formula_sum   'Li4 Pr4 Ge4 O16'
_cell_volume   396.70790515
_cell_formula_units_Z   4
loop_
 _symmetry_equiv_pos_site_id
 _symmetry_equiv_pos_as_xyz
  1  'x, y, z'
loop_
 _atom_site_type_symbol
 _atom_site_label
 _atom_site_symmetry_multiplicity
 _atom_site_fract_x
 _atom_site_fract_y
 _atom_site_fract_z
 _atom_site_occupancy
  Li  Li0  1  0.134391  0.934312  0.429785  1
  Li  Li1  1  0.634391  0.065688  0.070215  1
  Li  Li2  1  0.865609  0.065688  0.570215  1
  Li  Li3  1  0.365609  0.934312  0.929785  1
  Pr  Pr4  1  0.121506  0.445970  0.851246  1
  Pr  Pr5  1  0.878494  0.554030  0.148754  1
  Pr  Pr6  1  0.621506  0.554030  0.648754  1
  Pr  Pr7  1  0.378494  0.445970  0.351246  1
  Ge  Ge8  1  0.653189  0.914353  0.355981  1
  Ge  Ge9  1  0.346811  0.085647  0.644019  1
  Ge  Ge10  1  0.153189  0.085647  0.144019  1
  Ge  Ge11  1  0.846811  0.914353  0.855981  1
  O  O12  1  0.862880  0.244030  0.775578  1
  O  O13  1  0.637120  0.244030  0.275578  1
  O  O14  1  0.154725  0.174794  0.524762  1
  O  O15  1  0.846070  0.769925  0.744334  1
  O  O16  1  0.137120  0.755970  0.224422  1
  O  O17  1  0.577018  0.226706  0.554438  1
  O  O18  1  0.653930  0.769925  0.244334  1
  O  O19  1  0.422982  0.773294  0.445562  1
  O  O20  1  0.077018  0.773294  0.945562  1
  O  O21  1  0.654725  0.825206  0.975238  1
  O  O22  1  0.153930  0.230075  0.255666  1
  O  O23  1  0.922982  0.226706  0.054438  1
  O  O24  1  0.345275  0.174794  0.024762  1
  O  O25  1  0.346070  0.230075  0.755666  1
  O  O26  1  0.362880  0.755970  0.724422  1
  O  O27  1  0.845275  0.825206  0.475238  1
