# generated using pymatgen
data_Rb2Fe3CoS6
_symmetry_space_group_name_H-M   'P 1'
_cell_length_a   7.41399132
_cell_length_b   7.41399082
_cell_length_c   5.13905114
_cell_angle_alpha   89.97962643
_cell_angle_beta   90.02037523
_cell_angle_gamma   102.24049780
_symmetry_Int_Tables_number   1
_chemical_formula_structural   Rb2Fe3CoS6
_chemical_formula_sum   'Rb2 Fe3 Co1 S6'
_cell_volume   276.05773846
_cell_formula_units_Z   1
loop_
 _symmetry_equiv_pos_site_id
 _symmetry_equiv_pos_as_xyz
  1  'x, y, z'
loop_
 _atom_site_type_symbol
 _atom_site_label
 _atom_site_symmetry_multiplicity
 _atom_site_fract_x
 _atom_site_fract_y
 _atom_site_fract_z
 _atom_site_occupancy
  Rb  Rb0  1  0.674622  0.325295  0.249717  1
  Rb  Rb1  1  0.325295  0.674622  0.750283  1
  Fe  Fe2  1  0.860132  0.860132  0.000000  1
  Fe  Fe3  1  0.861228  0.861228  0.500000  1
  Fe  Fe4  1  0.139187  0.139187  0.500000  1
  Co  Co5  1  0.136064  0.136064  0.000000  1
  S  S6  1  0.834906  0.628349  0.750156  1
  S  S7  1  0.172576  0.374636  0.251509  1
  S  S8  1  0.628349  0.834906  0.249844  1
  S  S9  1  0.374636  0.172576  0.748491  1
  S  S10  1  0.891897  0.101109  0.749154  1
  S  S11  1  0.101109  0.891897  0.250846  1
