# generated using pymatgen
data_Er8Re2TcRuC8
_symmetry_space_group_name_H-M   'P 1'
_cell_length_a   5.05003000
_cell_length_b   6.51688201
_cell_length_c   9.77425019
_cell_angle_alpha   90.13086451
_cell_angle_beta   90.00000000
_cell_angle_gamma   90.00000000
_symmetry_Int_Tables_number   1
_chemical_formula_structural   Er8Re2TcRuC8
_chemical_formula_sum   'Er8 Re2 Tc1 Ru1 C8'
_cell_volume   321.67412971
_cell_formula_units_Z   1
loop_
 _symmetry_equiv_pos_site_id
 _symmetry_equiv_pos_as_xyz
  1  'x, y, z'
loop_
 _atom_site_type_symbol
 _atom_site_label
 _atom_site_symmetry_multiplicity
 _atom_site_fract_x
 _atom_site_fract_y
 _atom_site_fract_z
 _atom_site_occupancy
  Er  Er0  1  0.750000  0.532666  0.783049  1
  Er  Er1  1  0.250000  0.967202  0.285321  1
  Er  Er2  1  0.750000  0.673571  0.443948  1
  Er  Er3  1  0.250000  0.823793  0.942945  1
  Er  Er4  1  0.750000  0.178040  0.058226  1
  Er  Er5  1  0.250000  0.321640  0.558306  1
  Er  Er6  1  0.250000  0.464770  0.216400  1
  Er  Er7  1  0.750000  0.033645  0.716595  1
  Re  Re8  1  0.250000  0.781613  0.632105  1
  Re  Re9  1  0.750000  0.717715  0.133013  1
  Tc  Tc10  1  0.250000  0.281806  0.868281  1
  Ru  Ru11  1  0.750000  0.218443  0.367485  1
  C  C12  1  0.250000  0.676391  0.446054  1
  C  C13  1  0.250000  0.550028  0.758457  1
  C  C14  1  0.750000  0.452894  0.240310  1
  C  C15  1  0.750000  0.824450  0.947519  1
  C  C16  1  0.250000  0.048128  0.740243  1
  C  C17  1  0.250000  0.175824  0.052781  1
  C  C18  1  0.750000  0.327044  0.551851  1
  C  C19  1  0.750000  0.950336  0.257110  1
