# generated using pymatgen
data_Li4DyTh3Si8
_symmetry_space_group_name_H-M   'P 1'
_cell_length_a   3.84365800
_cell_length_b   7.75661477
_cell_length_c   10.37920603
_cell_angle_alpha   89.86838630
_cell_angle_beta   90.00000000
_cell_angle_gamma   90.00000000
_symmetry_Int_Tables_number   1
_chemical_formula_structural   Li4DyTh3Si8
_chemical_formula_sum   'Li4 Dy1 Th3 Si8'
_cell_volume   309.44249090
_cell_formula_units_Z   1
loop_
 _symmetry_equiv_pos_site_id
 _symmetry_equiv_pos_as_xyz
  1  'x, y, z'
loop_
 _atom_site_type_symbol
 _atom_site_label
 _atom_site_symmetry_multiplicity
 _atom_site_fract_x
 _atom_site_fract_y
 _atom_site_fract_z
 _atom_site_occupancy
  Li  Li0  1  0.250000  0.991315  0.395725  1
  Li  Li1  1  0.750000  0.011433  0.602197  1
  Li  Li2  1  0.250000  0.488337  0.108436  1
  Li  Li3  1  0.750000  0.508205  0.896380  1
  Dy  Dy4  1  0.750000  0.368553  0.363086  1
  Th  Th5  1  0.250000  0.138275  0.862505  1
  Th  Th6  1  0.750000  0.861856  0.137203  1
  Th  Th7  1  0.250000  0.635650  0.637077  1
  Si  Si8  1  0.750000  0.266856  0.071057  1
  Si  Si9  1  0.250000  0.731590  0.930850  1
  Si  Si10  1  0.750000  0.763023  0.431065  1
  Si  Si11  1  0.250000  0.238630  0.563539  1
  Si  Si12  1  0.750000  0.838601  0.817151  1
  Si  Si13  1  0.250000  0.162511  0.184968  1
  Si  Si14  1  0.750000  0.335998  0.681931  1
  Si  Si15  1  0.250000  0.659166  0.316828  1
