# generated using pymatgen
data_Y2Re8Si3P
_symmetry_space_group_name_H-M   'P 1'
_cell_length_a   7.43028818
_cell_length_b   7.43028818
_cell_length_c   4.09223100
_cell_angle_alpha   90.00000000
_cell_angle_beta   90.00000000
_cell_angle_gamma   89.97449164
_symmetry_Int_Tables_number   1
_chemical_formula_structural   Y2Re8Si3P
_chemical_formula_sum   'Y2 Re8 Si3 P1'
_cell_volume   225.92870572
_cell_formula_units_Z   1
loop_
 _symmetry_equiv_pos_site_id
 _symmetry_equiv_pos_as_xyz
  1  'x, y, z'
loop_
 _atom_site_type_symbol
 _atom_site_label
 _atom_site_symmetry_multiplicity
 _atom_site_fract_x
 _atom_site_fract_y
 _atom_site_fract_z
 _atom_site_occupancy
  Y  Y0  1  0.501225  0.498775  0.000000  1
  Y  Y1  1  0.999757  0.000243  0.499999  1
  Re  Re2  1  0.339657  0.090739  0.000000  1
  Re  Re3  1  0.086299  0.336860  0.000000  1
  Re  Re4  1  0.909262  0.660344  0.000000  1
  Re  Re5  1  0.663141  0.913702  0.000000  1
  Re  Re6  1  0.593140  0.157761  0.499999  1
  Re  Re7  1  0.842240  0.406859  0.499999  1
  Re  Re8  1  0.157312  0.592469  0.499999  1
  Re  Re9  1  0.407530  0.842689  0.499999  1
  Si  Si10  1  0.208492  0.791508  0.000000  1
  Si  Si11  1  0.290905  0.291114  0.499999  1
  Si  Si12  1  0.708887  0.709096  0.499999  1
  P  P13  1  0.792155  0.207845  0.000000  1
