# generated using pymatgen
data_Tb5Y11Cd2(InNi2)2
_symmetry_space_group_name_H-M   'P 1'
_cell_length_a   9.57576384
_cell_length_b   9.60360559
_cell_length_c   9.61153597
_cell_angle_alpha   60.20948566
_cell_angle_beta   60.24535106
_cell_angle_gamma   60.30679851
_symmetry_Int_Tables_number   1
_chemical_formula_structural   Tb5Y11Cd2(InNi2)2
_chemical_formula_sum   'Tb5 Y11 Cd2 In2 Ni4'
_cell_volume   628.59880691
_cell_formula_units_Z   1
loop_
 _symmetry_equiv_pos_site_id
 _symmetry_equiv_pos_as_xyz
  1  'x, y, z'
loop_
 _atom_site_type_symbol
 _atom_site_label
 _atom_site_symmetry_multiplicity
 _atom_site_fract_x
 _atom_site_fract_y
 _atom_site_fract_z
 _atom_site_occupancy
  Tb  Tb0  1  0.595911  0.596292  0.597623  1
  Tb  Tb1  1  0.598654  0.599239  0.204811  1
  Tb  Tb2  1  0.599811  0.203052  0.598841  1
  Tb  Tb3  1  0.202393  0.599623  0.598964  1
  Tb  Tb4  1  0.062481  0.439716  0.438292  1
  Y  Y5  1  0.439411  0.061510  0.060712  1
  Y  Y6  1  0.440894  0.060295  0.439223  1
  Y  Y7  1  0.061430  0.439642  0.060161  1
  Y  Y8  1  0.439123  0.438762  0.062526  1
  Y  Y9  1  0.059725  0.059551  0.440847  1
  Y  Y10  1  0.188051  0.814839  0.813957  1
  Y  Y11  1  0.812909  0.187952  0.185125  1
  Y  Y12  1  0.814660  0.188515  0.813302  1
  Y  Y13  1  0.188657  0.812398  0.185902  1
  Y  Y14  1  0.814179  0.813434  0.186364  1
  Y  Y15  1  0.188982  0.188477  0.810388  1
  Cd  Cd16  1  0.829716  0.505143  0.832300  1
  Cd  Cd17  1  0.505124  0.829894  0.832005  1
  In  In18  1  0.831194  0.832154  0.833236  1
  In  In19  1  0.830701  0.831964  0.503793  1
  Ni  Ni20  1  0.391138  0.392991  0.395358  1
  Ni  Ni21  1  0.391457  0.390992  0.821954  1
  Ni  Ni22  1  0.391067  0.821913  0.391683  1
  Ni  Ni23  1  0.822327  0.391650  0.392636  1
