# generated using pymatgen
data_Ba2Hg(IO)2
_symmetry_space_group_name_H-M   'P 1'
_cell_length_a   6.68684511
_cell_length_b   6.68684559
_cell_length_c   9.01022716
_cell_angle_alpha   59.83319192
_cell_angle_beta   59.83318760
_cell_angle_gamma   39.23297131
_symmetry_Int_Tables_number   1
_chemical_formula_structural   Ba2Hg(IO)2
_chemical_formula_sum   'Ba2 Hg1 I2 O2'
_cell_volume   215.52382972
_cell_formula_units_Z   1
loop_
 _symmetry_equiv_pos_site_id
 _symmetry_equiv_pos_as_xyz
  1  'x, y, z'
loop_
 _atom_site_type_symbol
 _atom_site_label
 _atom_site_symmetry_multiplicity
 _atom_site_fract_x
 _atom_site_fract_y
 _atom_site_fract_z
 _atom_site_occupancy
  Ba  Ba0  1  0.200193  0.200193  0.720714  1
  Ba  Ba1  1  0.799807  0.799807  0.279286  1
  Hg  Hg2  1  0.000000  0.000000  0.500000  1
  I  I3  1  0.574095  0.574095  0.141566  1
  I  I4  1  0.425905  0.425905  0.858434  1
  O  O5  1  0.817958  0.817958  0.562313  1
  O  O6  1  0.182042  0.182042  0.437687  1
