# generated using pymatgen
data_Tm20Cd3Ni2Ag3
_symmetry_space_group_name_H-M   'P 1'
_cell_length_a   9.46552400
_cell_length_b   9.46552465
_cell_length_c   9.43932100
_cell_angle_alpha   90.00000000
_cell_angle_beta   90.00000000
_cell_angle_gamma   119.99999771
_symmetry_Int_Tables_number   1
_chemical_formula_structural   Tm20Cd3Ni2Ag3
_chemical_formula_sum   'Tm20 Cd3 Ni2 Ag3'
_cell_volume   732.42093432
_cell_formula_units_Z   1
loop_
 _symmetry_equiv_pos_site_id
 _symmetry_equiv_pos_as_xyz
  1  'x, y, z'
loop_
 _atom_site_type_symbol
 _atom_site_label
 _atom_site_symmetry_multiplicity
 _atom_site_fract_x
 _atom_site_fract_y
 _atom_site_fract_z
 _atom_site_occupancy
  Tm  Tm0  1  0.000000  0.000000  0.472843  1
  Tm  Tm1  1  0.000000  0.000000  0.027157  1
  Tm  Tm2  1  0.542503  0.457497  0.250000  1
  Tm  Tm3  1  0.542503  0.085005  0.250000  1
  Tm  Tm4  1  0.914995  0.457497  0.250000  1
  Tm  Tm5  1  0.456757  0.543243  0.750000  1
  Tm  Tm6  1  0.456757  0.913515  0.750000  1
  Tm  Tm7  1  0.086485  0.543243  0.750000  1
  Tm  Tm8  1  0.210870  0.789130  0.438896  1
  Tm  Tm9  1  0.210870  0.421740  0.438896  1
  Tm  Tm10  1  0.578260  0.789130  0.438896  1
  Tm  Tm11  1  0.789742  0.210258  0.560483  1
  Tm  Tm12  1  0.789742  0.579484  0.560483  1
  Tm  Tm13  1  0.420516  0.210258  0.560483  1
  Tm  Tm14  1  0.789742  0.210258  0.939517  1
  Tm  Tm15  1  0.789742  0.579484  0.939517  1
  Tm  Tm16  1  0.420516  0.210258  0.939517  1
  Tm  Tm17  1  0.210870  0.789130  0.061104  1
  Tm  Tm18  1  0.210870  0.421740  0.061104  1
  Tm  Tm19  1  0.578260  0.789130  0.061104  1
  Cd  Cd20  1  0.110968  0.889032  0.750000  1
  Cd  Cd21  1  0.110968  0.221935  0.750000  1
  Cd  Cd22  1  0.778065  0.889032  0.750000  1
  Ni  Ni23  1  0.333333  0.666667  0.250000  1
  Ni  Ni24  1  0.666667  0.333333  0.750000  1
  Ag  Ag25  1  0.875316  0.124684  0.250000  1
  Ag  Ag26  1  0.875316  0.750631  0.250000  1
  Ag  Ag27  1  0.249369  0.124684  0.250000  1
