# generated using pymatgen
data_NdTh2(InPt)3
_symmetry_space_group_name_H-M   'P 1'
_cell_length_a   7.70813791
_cell_length_b   7.70813780
_cell_length_c   4.13821900
_cell_angle_alpha   90.00000000
_cell_angle_beta   90.00000000
_cell_angle_gamma   120.18376352
_symmetry_Int_Tables_number   1
_chemical_formula_structural   NdTh2(InPt)3
_chemical_formula_sum   'Nd1 Th2 In3 Pt3'
_cell_volume   212.53764949
_cell_formula_units_Z   1
loop_
 _symmetry_equiv_pos_site_id
 _symmetry_equiv_pos_as_xyz
  1  'x, y, z'
loop_
 _atom_site_type_symbol
 _atom_site_label
 _atom_site_symmetry_multiplicity
 _atom_site_fract_x
 _atom_site_fract_y
 _atom_site_fract_z
 _atom_site_occupancy
  Nd  Nd0  1  0.411565  0.411565  0.500000  1
  Th  Th1  1  0.000340  0.586287  0.500000  1
  Th  Th2  1  0.586287  0.000340  0.500000  1
  In  In3  1  0.008194  0.250616  0.000000  1
  In  In4  1  0.250616  0.008194  0.000000  1
  In  In5  1  0.742660  0.742660  0.000000  1
  Pt  Pt6  1  0.989920  0.989920  0.500000  1
  Pt  Pt7  1  0.678915  0.331505  0.000000  1
  Pt  Pt8  1  0.331505  0.678915  0.000000  1
