# generated using pymatgen
data_OsF8
_symmetry_space_group_name_H-M   'P 1'
_cell_length_a   4.97374810
_cell_length_b   5.15409719
_cell_length_c   5.37374573
_cell_angle_alpha   77.26995651
_cell_angle_beta   77.81582100
_cell_angle_gamma   83.41527616
_symmetry_Int_Tables_number   1
_chemical_formula_structural   OsF8
_chemical_formula_sum   'Os1 F8'
_cell_volume   131.00785698
_cell_formula_units_Z   1
loop_
 _symmetry_equiv_pos_site_id
 _symmetry_equiv_pos_as_xyz
  1  'x, y, z'
loop_
 _atom_site_type_symbol
 _atom_site_label
 _atom_site_symmetry_multiplicity
 _atom_site_fract_x
 _atom_site_fract_y
 _atom_site_fract_z
 _atom_site_occupancy
  Os  Os0  1  0.096393  0.235334  0.779305  1
  F  F1  1  0.845763  0.539731  0.774256  1
  F  F2  1  0.292388  0.434537  0.478025  1
  F  F3  1  0.240129  0.954517  0.603731  1
  F  F4  1  0.823645  0.178076  0.604562  1
  F  F5  1  0.852190  0.088475  0.077047  1
  F  F6  1  0.779181  0.665983  0.262236  1
  F  F7  1  0.235326  0.459659  0.947834  1
  F  F8  1  0.352320  0.022753  0.965939  1
