# generated using pymatgen
data_Ho5MoRhO12
_symmetry_space_group_name_H-M   'P 1'
_cell_length_a   6.82057638
_cell_length_b   6.82057572
_cell_length_c   7.44374402
_cell_angle_alpha   73.91561810
_cell_angle_beta   73.91562369
_cell_angle_gamma   49.90396999
_symmetry_Int_Tables_number   1
_chemical_formula_structural   Ho5MoRhO12
_chemical_formula_sum   'Ho5 Mo1 Rh1 O12'
_cell_volume   252.22570651
_cell_formula_units_Z   1
loop_
 _symmetry_equiv_pos_site_id
 _symmetry_equiv_pos_as_xyz
  1  'x, y, z'
loop_
 _atom_site_type_symbol
 _atom_site_label
 _atom_site_symmetry_multiplicity
 _atom_site_fract_x
 _atom_site_fract_y
 _atom_site_fract_z
 _atom_site_occupancy
  Ho  Ho0  1  0.318756  0.285774  0.359057  1
  Ho  Ho1  1  0.714226  0.681244  0.640943  1
  Ho  Ho2  1  0.319067  0.304941  0.826959  1
  Ho  Ho3  1  0.695059  0.680933  0.173041  1
  Ho  Ho4  1  0.010442  0.989558  0.500000  1
  Mo  Mo5  1  0.202333  0.797667  0.000000  1
  Rh  Rh6  1  0.752624  0.247376  0.000000  1
  O  O7  1  0.911240  0.438080  0.913443  1
  O  O8  1  0.413675  0.904696  0.915006  1
  O  O9  1  0.095304  0.586325  0.084994  1
  O  O10  1  0.561920  0.088760  0.086557  1
  O  O11  1  0.110545  0.589629  0.568707  1
  O  O12  1  0.602515  0.085763  0.576719  1
  O  O13  1  0.914237  0.397485  0.423281  1
  O  O14  1  0.410371  0.889455  0.431293  1
  O  O15  1  0.995342  0.000619  0.800154  1
  O  O16  1  0.999381  0.004658  0.199846  1
  O  O17  1  0.486709  0.513745  0.819547  1
  O  O18  1  0.486255  0.513291  0.180453  1
