# generated using pymatgen
data_Pr2SmMg3Ag2Ru
_symmetry_space_group_name_H-M   'P 1'
_cell_length_a   7.90826076
_cell_length_b   7.88108144
_cell_length_c   4.06015500
_cell_angle_alpha   90.00000000
_cell_angle_beta   90.00000000
_cell_angle_gamma   119.86423491
_symmetry_Int_Tables_number   1
_chemical_formula_structural   Pr2SmMg3Ag2Ru
_chemical_formula_sum   'Pr2 Sm1 Mg3 Ag2 Ru1'
_cell_volume   219.44847011
_cell_formula_units_Z   1
loop_
 _symmetry_equiv_pos_site_id
 _symmetry_equiv_pos_as_xyz
  1  'x, y, z'
loop_
 _atom_site_type_symbol
 _atom_site_label
 _atom_site_symmetry_multiplicity
 _atom_site_fract_x
 _atom_site_fract_y
 _atom_site_fract_z
 _atom_site_occupancy
  Pr  Pr0  1  0.031659  0.430508  0.500000  1
  Pr  Pr1  1  0.569630  0.600780  0.500000  1
  Sm  Sm2  1  0.396180  0.966443  0.500000  1
  Mg  Mg3  1  0.001460  0.749595  0.000000  1
  Mg  Mg4  1  0.252633  0.248791  0.000000  1
  Mg  Mg5  1  0.746241  0.000975  0.000000  1
  Ag  Ag6  1  0.664482  0.329802  0.000000  1
  Ag  Ag7  1  0.002451  0.999992  0.500000  1
  Ru  Ru8  1  0.335262  0.673114  0.000000  1
