# generated using pymatgen
data_Li4Ca2ErLuSi8
_symmetry_space_group_name_H-M   'P 1'
_cell_length_a   3.77271500
_cell_length_b   7.78285642
_cell_length_c   10.36938461
_cell_angle_alpha   89.29635010
_cell_angle_beta   90.00000000
_cell_angle_gamma   90.00000000
_symmetry_Int_Tables_number   1
_chemical_formula_structural   Li4Ca2ErLuSi8
_chemical_formula_sum   'Li4 Ca2 Er1 Lu1 Si8'
_cell_volume   304.44808654
_cell_formula_units_Z   1
loop_
 _symmetry_equiv_pos_site_id
 _symmetry_equiv_pos_as_xyz
  1  'x, y, z'
loop_
 _atom_site_type_symbol
 _atom_site_label
 _atom_site_symmetry_multiplicity
 _atom_site_fract_x
 _atom_site_fract_y
 _atom_site_fract_z
 _atom_site_occupancy
  Li  Li0  1  0.250000  0.998985  0.389759  1
  Li  Li1  1  0.750000  0.000954  0.610000  1
  Li  Li2  1  0.250000  0.488452  0.108657  1
  Li  Li3  1  0.750000  0.511447  0.891582  1
  Ca  Ca4  1  0.250000  0.637577  0.634953  1
  Ca  Ca5  1  0.750000  0.362559  0.364896  1
  Er  Er6  1  0.250000  0.129341  0.864947  1
  Lu  Lu7  1  0.750000  0.871606  0.135130  1
  Si  Si8  1  0.750000  0.258702  0.060370  1
  Si  Si9  1  0.250000  0.740967  0.941570  1
  Si  Si10  1  0.750000  0.773827  0.424111  1
  Si  Si11  1  0.250000  0.226999  0.574651  1
  Si  Si12  1  0.750000  0.845159  0.828017  1
  Si  Si13  1  0.250000  0.152614  0.172683  1
  Si  Si14  1  0.750000  0.332287  0.685776  1
  Si  Si15  1  0.250000  0.668525  0.312898  1
