# generated using pymatgen
data_ErLu(Cu2P)4
_symmetry_space_group_name_H-M   'P 1'
_cell_length_a   7.23075228
_cell_length_b   7.23075308
_cell_length_c   3.76666100
_cell_angle_alpha   90.00000000
_cell_angle_beta   90.00000000
_cell_angle_gamma   90.04099091
_symmetry_Int_Tables_number   1
_chemical_formula_structural   ErLu(Cu2P)4
_chemical_formula_sum   'Er1 Lu1 Cu8 P4'
_cell_volume   196.93524099
_cell_formula_units_Z   1
loop_
 _symmetry_equiv_pos_site_id
 _symmetry_equiv_pos_as_xyz
  1  'x, y, z'
loop_
 _atom_site_type_symbol
 _atom_site_label
 _atom_site_symmetry_multiplicity
 _atom_site_fract_x
 _atom_site_fract_y
 _atom_site_fract_z
 _atom_site_occupancy
  Er  Er0  1  0.500000  0.500000  0.500000  1
  Lu  Lu1  1  0.000000  0.000000  0.000000  1
  Cu  Cu2  1  0.665894  0.916385  0.500000  1
  Cu  Cu3  1  0.166171  0.583924  0.000000  1
  Cu  Cu4  1  0.416076  0.833829  0.000000  1
  Cu  Cu5  1  0.916385  0.665894  0.500000  1
  Cu  Cu6  1  0.833829  0.416076  0.000000  1
  Cu  Cu7  1  0.583924  0.166171  0.000000  1
  Cu  Cu8  1  0.083615  0.334106  0.500000  1
  Cu  Cu9  1  0.334106  0.083615  0.500000  1
  P  P10  1  0.286710  0.286710  0.000000  1
  P  P11  1  0.713290  0.713290  0.000000  1
  P  P12  1  0.788417  0.211583  0.500000  1
  P  P13  1  0.211583  0.788417  0.500000  1
