# generated using pymatgen
data_CaZn10Ag
_symmetry_space_group_name_H-M   'P 1'
_cell_length_a   8.36079859
_cell_length_b   8.36079747
_cell_length_c   8.36079731
_cell_angle_alpha   99.53960745
_cell_angle_beta   99.53959752
_cell_angle_gamma   131.95458302
_symmetry_Int_Tables_number   1
_chemical_formula_structural   CaZn10Ag
_chemical_formula_sum   'Ca2 Zn20 Ag2'
_cell_volume   396.99026274
_cell_formula_units_Z   2
loop_
 _symmetry_equiv_pos_site_id
 _symmetry_equiv_pos_as_xyz
  1  'x, y, z'
loop_
 _atom_site_type_symbol
 _atom_site_label
 _atom_site_symmetry_multiplicity
 _atom_site_fract_x
 _atom_site_fract_y
 _atom_site_fract_z
 _atom_site_occupancy
  Ca  Ca0  1  0.000000  0.000000  0.000000  1
  Ca  Ca1  1  0.250000  0.750000  0.500000  1
  Zn  Zn2  1  0.125000  0.375000  0.750000  1
  Zn  Zn3  1  0.625000  0.875000  0.250000  1
  Zn  Zn4  1  0.625000  0.375000  0.750000  1
  Zn  Zn5  1  0.625000  0.375000  0.250000  1
  Zn  Zn6  1  0.182025  0.509832  0.085434  1
  Zn  Zn7  1  0.182025  0.096591  0.672193  1
  Zn  Zn8  1  0.759832  0.932025  0.585434  1
  Zn  Zn9  1  0.759832  0.174398  0.827807  1
  Zn  Zn10  1  0.424398  0.509832  0.327807  1
  Zn  Zn11  1  0.424398  0.096591  0.914566  1
  Zn  Zn12  1  0.346591  0.932025  0.172193  1
  Zn  Zn13  1  0.346591  0.174398  0.414566  1
  Zn  Zn14  1  0.067975  0.240168  0.414566  1
  Zn  Zn15  1  0.067975  0.653409  0.827807  1
  Zn  Zn16  1  0.490168  0.817975  0.914566  1
  Zn  Zn17  1  0.490168  0.575602  0.672193  1
  Zn  Zn18  1  0.825602  0.240168  0.172193  1
  Zn  Zn19  1  0.825602  0.653409  0.585434  1
  Zn  Zn20  1  0.903409  0.817975  0.327807  1
  Zn  Zn21  1  0.903409  0.575602  0.085434  1
  Ag  Ag22  1  0.750000  0.250000  0.500000  1
  Ag  Ag23  1  0.500000  0.500000  0.000000  1
