# generated using pymatgen
data_K2Ce(CuSe2)2
_symmetry_space_group_name_H-M   'P 1'
_cell_length_a   4.14977900
_cell_length_b   7.79788466
_cell_length_c   7.87857810
_cell_angle_alpha   108.91090087
_cell_angle_beta   90.00000000
_cell_angle_gamma   105.43134873
_symmetry_Int_Tables_number   1
_chemical_formula_structural   K2Ce(CuSe2)2
_chemical_formula_sum   'K2 Ce1 Cu2 Se4'
_cell_volume   231.44909766
_cell_formula_units_Z   1
loop_
 _symmetry_equiv_pos_site_id
 _symmetry_equiv_pos_as_xyz
  1  'x, y, z'
loop_
 _atom_site_type_symbol
 _atom_site_label
 _atom_site_symmetry_multiplicity
 _atom_site_fract_x
 _atom_site_fract_y
 _atom_site_fract_z
 _atom_site_occupancy
  K  K0  1  0.862595  0.725188  0.435053  1
  K  K1  1  0.137406  0.274813  0.564947  1
  Ce  Ce2  1  0.000000  0.000000  0.000000  1
  Cu  Cu3  1  0.319728  0.639457  0.011755  1
  Cu  Cu4  1  0.680272  0.360543  0.988245  1
  Se  Se5  1  0.201229  0.402457  0.177848  1
  Se  Se6  1  0.478774  0.957548  0.239328  1
  Se  Se7  1  0.521226  0.042451  0.760672  1
  Se  Se8  1  0.798772  0.597542  0.822152  1
