# generated using pymatgen
data_Pr3NdLuSn15Rh8
_symmetry_space_group_name_H-M   'P 1'
_cell_length_a   4.55016300
_cell_length_b   7.26607680
_cell_length_c   18.68014707
_cell_angle_alpha   89.98034956
_cell_angle_beta   90.00000000
_cell_angle_gamma   90.00000000
_symmetry_Int_Tables_number   1
_chemical_formula_structural   Pr3NdLuSn15Rh8
_chemical_formula_sum   'Pr3 Nd1 Lu1 Sn15 Rh8'
_cell_volume   617.59988117
_cell_formula_units_Z   1
loop_
 _symmetry_equiv_pos_site_id
 _symmetry_equiv_pos_as_xyz
  1  'x, y, z'
loop_
 _atom_site_type_symbol
 _atom_site_label
 _atom_site_symmetry_multiplicity
 _atom_site_fract_x
 _atom_site_fract_y
 _atom_site_fract_z
 _atom_site_occupancy
  Pr  Pr0  1  0.500000  0.999860  0.856716  1
  Pr  Pr1  1  0.500000  0.501486  0.357476  1
  Pr  Pr2  1  0.000000  0.001232  0.141985  1
  Nd  Nd3  1  0.000000  0.499472  0.642240  1
  Lu  Lu4  1  0.500000  0.488306  0.931311  1
  Sn  Sn5  1  0.000000  0.718142  0.807282  1
  Sn  Sn6  1  0.000000  0.781021  0.305344  1
  Sn  Sn7  1  0.500000  0.279150  0.193700  1
  Sn  Sn8  1  0.500000  0.220181  0.694450  1
  Sn  Sn9  1  0.000000  0.852673  0.968598  1
  Sn  Sn10  1  0.000000  0.632199  0.468503  1
  Sn  Sn11  1  0.500000  0.134960  0.030385  1
  Sn  Sn12  1  0.500000  0.365897  0.531568  1
  Sn  Sn13  1  0.000000  0.306915  0.821182  1
  Sn  Sn14  1  0.000000  0.200665  0.317535  1
  Sn  Sn15  1  0.500000  0.699068  0.183615  1
  Sn  Sn16  1  0.500000  0.804071  0.680306  1
  Sn  Sn17  1  0.500000  0.019690  0.433126  1
  Sn  Sn18  1  0.000000  0.512379  0.065404  1
  Sn  Sn19  1  0.000000  0.980023  0.568485  1
  Rh  Rh20  1  0.000000  0.236916  0.964828  1
  Rh  Rh21  1  0.000000  0.247650  0.465197  1
  Rh  Rh22  1  0.500000  0.756326  0.040043  1
  Rh  Rh23  1  0.500000  0.749734  0.533558  1
  Rh  Rh24  1  0.000000  0.019181  0.715890  1
  Rh  Rh25  1  0.000000  0.484947  0.212529  1
  Rh  Rh26  1  0.500000  0.988328  0.288684  1
  Rh  Rh27  1  0.500000  0.519526  0.780064  1
