# generated using pymatgen
data_Tb3Er5AlPd24
_symmetry_space_group_name_H-M   'P 1'
_cell_length_a   8.34379302
_cell_length_b   8.34379302
_cell_length_c   8.34365101
_cell_angle_alpha   90.00337843
_cell_angle_beta   89.99662157
_cell_angle_gamma   89.99328425
_symmetry_Int_Tables_number   1
_chemical_formula_structural   Tb3Er5AlPd24
_chemical_formula_sum   'Tb3 Er5 Al1 Pd24'
_cell_volume   580.87564830
_cell_formula_units_Z   1
loop_
 _symmetry_equiv_pos_site_id
 _symmetry_equiv_pos_as_xyz
  1  'x, y, z'
loop_
 _atom_site_type_symbol
 _atom_site_label
 _atom_site_symmetry_multiplicity
 _atom_site_fract_x
 _atom_site_fract_y
 _atom_site_fract_z
 _atom_site_occupancy
  Tb  Tb0  1  0.251522  0.748478  0.251546  1
  Tb  Tb1  1  0.251545  0.748455  0.748441  1
  Tb  Tb2  1  0.748469  0.251531  0.251535  1
  Er  Er3  1  0.251444  0.251429  0.251400  1
  Er  Er4  1  0.748583  0.748606  0.748636  1
  Er  Er5  1  0.748571  0.748556  0.251400  1
  Er  Er6  1  0.748588  0.251412  0.748558  1
  Er  Er7  1  0.251394  0.251417  0.748636  1
  Al  Al8  1  0.999934  0.000066  0.999917  1
  Pd  Pd9  1  0.259977  0.498839  0.999985  1
  Pd  Pd10  1  0.739961  0.500540  0.999315  1
  Pd  Pd11  1  0.000645  0.260006  0.500598  1
  Pd  Pd12  1  0.499460  0.260039  0.999315  1
  Pd  Pd13  1  0.998663  0.740058  0.500036  1
  Pd  Pd14  1  0.501161  0.740023  0.999985  1
  Pd  Pd15  1  0.500023  0.000005  0.259977  1
  Pd  Pd16  1  0.259942  0.001337  0.500036  1
  Pd  Pd17  1  0.500602  0.000701  0.739957  1
  Pd  Pd18  1  0.739994  0.999355  0.500598  1
  Pd  Pd19  1  0.999995  0.499977  0.259977  1
  Pd  Pd20  1  0.999299  0.499398  0.739957  1
  Pd  Pd21  1  0.252975  0.498684  0.500026  1
  Pd  Pd22  1  0.747031  0.500617  0.500662  1
  Pd  Pd23  1  0.499383  0.252969  0.500662  1
  Pd  Pd24  1  0.501316  0.747025  0.500026  1
  Pd  Pd25  1  0.500034  0.499966  0.252970  1
  Pd  Pd26  1  0.500652  0.499348  0.747032  1
  Pd  Pd27  1  0.289586  0.001220  0.999993  1
  Pd  Pd28  1  0.710510  0.999422  0.999371  1
  Pd  Pd29  1  0.000578  0.289490  0.999371  1
  Pd  Pd30  1  0.998780  0.710414  0.999993  1
  Pd  Pd31  1  0.999993  0.000007  0.289601  1
  Pd  Pd32  1  0.999390  0.000610  0.710494  1
