# generated using pymatgen
data_Tm4Al18NiIr5
_symmetry_space_group_name_H-M   'P 1'
_cell_length_a   7.52991794
_cell_length_b   7.52991718
_cell_length_c   9.39555398
_cell_angle_alpha   90.18539556
_cell_angle_beta   90.18539435
_cell_angle_gamma   119.83121681
_symmetry_Int_Tables_number   1
_chemical_formula_structural   Tm4Al18NiIr5
_chemical_formula_sum   'Tm4 Al18 Ni1 Ir5'
_cell_volume   462.12614988
_cell_formula_units_Z   1
loop_
 _symmetry_equiv_pos_site_id
 _symmetry_equiv_pos_as_xyz
  1  'x, y, z'
loop_
 _atom_site_type_symbol
 _atom_site_label
 _atom_site_symmetry_multiplicity
 _atom_site_fract_x
 _atom_site_fract_y
 _atom_site_fract_z
 _atom_site_occupancy
  Tm  Tm0  1  0.995564  0.669081  0.250197  1
  Tm  Tm1  1  0.004436  0.330919  0.749803  1
  Tm  Tm2  1  0.669081  0.995564  0.250197  1
  Tm  Tm3  1  0.330919  0.004436  0.749803  1
  Al  Al4  1  0.123862  0.123862  0.246442  1
  Al  Al5  1  0.876138  0.876138  0.753558  1
  Al  Al6  1  0.000091  0.332143  0.074994  1
  Al  Al7  1  0.999909  0.667857  0.925006  1
  Al  Al8  1  0.999692  0.666227  0.575245  1
  Al  Al9  1  0.333773  0.000308  0.424755  1
  Al  Al10  1  0.000308  0.333773  0.424755  1
  Al  Al11  1  0.666227  0.999692  0.575245  1
  Al  Al12  1  0.667857  0.999909  0.925006  1
  Al  Al13  1  0.332143  0.000091  0.074994  1
  Al  Al14  1  0.333398  0.333398  0.553735  1
  Al  Al15  1  0.666602  0.666602  0.446265  1
  Al  Al16  1  0.669489  0.669489  0.053414  1
  Al  Al17  1  0.330511  0.330511  0.946586  1
  Al  Al18  1  0.338596  0.547435  0.249649  1
  Al  Al19  1  0.661404  0.452565  0.750351  1
  Al  Al20  1  0.547435  0.338596  0.249649  1
  Al  Al21  1  0.452565  0.661404  0.750351  1
  Ni  Ni22  1  0.000000  0.000000  0.000000  1
  Ir  Ir23  1  0.672332  0.327668  0.000000  1
  Ir  Ir24  1  0.327668  0.672332  0.000000  1
  Ir  Ir25  1  0.327683  0.672317  0.500000  1
  Ir  Ir26  1  0.672317  0.327683  0.500000  1
  Ir  Ir27  1  0.000000  0.000000  0.500000  1
