# generated using pymatgen
data_Tb15NdCd4Ir3Pd
_symmetry_space_group_name_H-M   'P 1'
_cell_length_a   9.69174760
_cell_length_b   9.69174755
_cell_length_c   9.69024179
_cell_angle_alpha   60.30032707
_cell_angle_beta   60.30032250
_cell_angle_gamma   60.20906694
_symmetry_Int_Tables_number   1
_chemical_formula_structural   Tb15NdCd4Ir3Pd
_chemical_formula_sum   'Tb15 Nd1 Cd4 Ir3 Pd1'
_cell_volume   647.54220756
_cell_formula_units_Z   1
loop_
 _symmetry_equiv_pos_site_id
 _symmetry_equiv_pos_as_xyz
  1  'x, y, z'
loop_
 _atom_site_type_symbol
 _atom_site_label
 _atom_site_symmetry_multiplicity
 _atom_site_fract_x
 _atom_site_fract_y
 _atom_site_fract_z
 _atom_site_occupancy
  Tb  Tb0  1  0.347306  0.347306  0.347132  1
  Tb  Tb1  1  0.353926  0.353926  0.948048  1
  Tb  Tb2  1  0.354438  0.947926  0.353444  1
  Tb  Tb3  1  0.947926  0.354438  0.353444  1
  Tb  Tb4  1  0.804352  0.191326  0.188983  1
  Tb  Tb5  1  0.188908  0.810444  0.810920  1
  Tb  Tb6  1  0.191326  0.804352  0.188983  1
  Tb  Tb7  1  0.810444  0.188908  0.810920  1
  Tb  Tb8  1  0.190398  0.190398  0.804750  1
  Tb  Tb9  1  0.810617  0.810617  0.187696  1
  Tb  Tb10  1  0.938556  0.561245  0.563460  1
  Tb  Tb11  1  0.562877  0.937263  0.939123  1
  Tb  Tb12  1  0.561245  0.938556  0.563460  1
  Tb  Tb13  1  0.937263  0.562877  0.939123  1
  Tb  Tb14  1  0.563423  0.563423  0.938303  1
  Nd  Nd15  1  0.936415  0.936415  0.564825  1
  Cd  Cd16  1  0.581508  0.581508  0.580972  1
  Cd  Cd17  1  0.580907  0.580907  0.255577  1
  Cd  Cd18  1  0.578454  0.258087  0.580719  1
  Cd  Cd19  1  0.258087  0.578454  0.580719  1
  Ir  Ir20  1  0.142560  0.142560  0.574076  1
  Ir  Ir21  1  0.141731  0.573772  0.141723  1
  Ir  Ir22  1  0.573772  0.141731  0.141723  1
  Pd  Pd23  1  0.143558  0.143558  0.141873  1
