# generated using pymatgen
data_TbDyVIr3
_symmetry_space_group_name_H-M   'P 1'
_cell_length_a   5.57979010
_cell_length_b   5.11964174
_cell_length_c   5.57979000
_cell_angle_alpha   56.97947079
_cell_angle_beta   60.00000058
_cell_angle_gamma   56.97946672
_symmetry_Int_Tables_number   1
_chemical_formula_structural   TbDyVIr3
_chemical_formula_sum   'Tb1 Dy1 V1 Ir3'
_cell_volume   107.28623388
_cell_formula_units_Z   1
loop_
 _symmetry_equiv_pos_site_id
 _symmetry_equiv_pos_as_xyz
  1  'x, y, z'
loop_
 _atom_site_type_symbol
 _atom_site_label
 _atom_site_symmetry_multiplicity
 _atom_site_fract_x
 _atom_site_fract_y
 _atom_site_fract_z
 _atom_site_occupancy
  Tb  Tb0  1  0.498906  0.503279  0.498906  1
  Dy  Dy1  1  0.751406  0.745783  0.751406  1
  V  V2  1  0.124982  0.625054  0.124982  1
  Ir  Ir3  1  0.625254  0.125295  0.124725  1
  Ir  Ir4  1  0.124725  0.125295  0.124725  1
  Ir  Ir5  1  0.124725  0.125295  0.625254  1
