# generated using pymatgen
data_Ta5Nb7Cr4(Co2N)4
_symmetry_space_group_name_H-M   'P 1'
_cell_length_a   8.01549828
_cell_length_b   8.01495576
_cell_length_c   8.01182101
_cell_angle_alpha   60.00901180
_cell_angle_beta   60.01199903
_cell_angle_gamma   60.03294425
_symmetry_Int_Tables_number   1
_chemical_formula_structural   Ta5Nb7Cr4(Co2N)4
_chemical_formula_sum   'Ta5 Nb7 Cr4 Co8 N4'
_cell_volume   364.10352528
_cell_formula_units_Z   1
loop_
 _symmetry_equiv_pos_site_id
 _symmetry_equiv_pos_as_xyz
  1  'x, y, z'
loop_
 _atom_site_type_symbol
 _atom_site_label
 _atom_site_symmetry_multiplicity
 _atom_site_fract_x
 _atom_site_fract_y
 _atom_site_fract_z
 _atom_site_occupancy
  Ta  Ta0  1  0.053588  0.053716  0.446296  1
  Ta  Ta1  1  0.446407  0.053626  0.446175  1
  Ta  Ta2  1  0.053560  0.446405  0.053711  1
  Ta  Ta3  1  0.053581  0.446414  0.446237  1
  Ta  Ta4  1  0.446358  0.053635  0.053783  1
  Nb  Nb5  1  0.802836  0.802885  0.197136  1
  Nb  Nb6  1  0.196669  0.196518  0.803446  1
  Nb  Nb7  1  0.803267  0.196508  0.804304  1
  Nb  Nb8  1  0.196524  0.803222  0.196084  1
  Nb  Nb9  1  0.196530  0.803225  0.804253  1
  Nb  Nb10  1  0.803278  0.196525  0.195961  1
  Nb  Nb11  1  0.446712  0.446650  0.053324  1
  Cr  Cr12  1  0.124634  0.625195  0.625102  1
  Cr  Cr13  1  0.625245  0.124650  0.625066  1
  Cr  Cr14  1  0.625609  0.625524  0.124201  1
  Cr  Cr15  1  0.625560  0.625511  0.624716  1
  Co  Co16  1  0.728276  0.423854  0.423971  1
  Co  Co17  1  0.423910  0.728289  0.423918  1
  Co  Co18  1  0.423759  0.423912  0.727361  1
  Co  Co19  1  0.423728  0.423863  0.424908  1
  Co  Co20  1  0.523157  0.826634  0.825051  1
  Co  Co21  1  0.826605  0.523169  0.825079  1
  Co  Co22  1  0.826016  0.825927  0.522616  1
  Co  Co23  1  0.826057  0.825995  0.825433  1
  N  N24  1  0.622329  0.123707  0.126986  1
  N  N25  1  0.123705  0.622351  0.126979  1
  N  N26  1  0.126048  0.126056  0.621584  1
  N  N27  1  0.126051  0.126034  0.126322  1
