# generated using pymatgen
data_Tm2FeSi2Ni
_symmetry_space_group_name_H-M   'P 1'
_cell_length_a   4.12657300
_cell_length_b   6.75216018
_cell_length_c   7.02124481
_cell_angle_alpha   91.17782716
_cell_angle_beta   90.00000000
_cell_angle_gamma   90.00000000
_symmetry_Int_Tables_number   1
_chemical_formula_structural   Tm2FeSi2Ni
_chemical_formula_sum   'Tm4 Fe2 Si4 Ni2'
_cell_volume   195.59358831
_cell_formula_units_Z   2
loop_
 _symmetry_equiv_pos_site_id
 _symmetry_equiv_pos_as_xyz
  1  'x, y, z'
loop_
 _atom_site_type_symbol
 _atom_site_label
 _atom_site_symmetry_multiplicity
 _atom_site_fract_x
 _atom_site_fract_y
 _atom_site_fract_z
 _atom_site_occupancy
  Tm  Tm0  1  0.250000  0.987235  0.802942  1
  Tm  Tm1  1  0.750000  0.012765  0.197058  1
  Tm  Tm2  1  0.250000  0.491354  0.692356  1
  Tm  Tm3  1  0.750000  0.508646  0.307644  1
  Fe  Fe4  1  0.750000  0.345324  0.932009  1
  Fe  Fe5  1  0.250000  0.654676  0.067991  1
  Si  Si6  1  0.250000  0.304683  0.091127  1
  Si  Si7  1  0.750000  0.695317  0.908873  1
  Si  Si8  1  0.250000  0.800376  0.392526  1
  Si  Si9  1  0.750000  0.199624  0.607474  1
  Ni  Ni10  1  0.750000  0.835271  0.573980  1
  Ni  Ni11  1  0.250000  0.164729  0.426020  1
