# generated using pymatgen
data_NaLa2Pr4OsBr12
_symmetry_space_group_name_H-M   'P 1'
_cell_length_a   9.67580333
_cell_length_b   9.69682454
_cell_length_c   9.69854670
_cell_angle_alpha   107.02971963
_cell_angle_beta   107.29900584
_cell_angle_gamma   107.28238507
_symmetry_Int_Tables_number   1
_chemical_formula_structural   NaLa2Pr4OsBr12
_chemical_formula_sum   'Na1 La2 Pr4 Os1 Br12'
_cell_volume   753.57024676
_cell_formula_units_Z   1
loop_
 _symmetry_equiv_pos_site_id
 _symmetry_equiv_pos_as_xyz
  1  'x, y, z'
loop_
 _atom_site_type_symbol
 _atom_site_label
 _atom_site_symmetry_multiplicity
 _atom_site_fract_x
 _atom_site_fract_y
 _atom_site_fract_z
 _atom_site_occupancy
  Na  Na0  1  0.499784  0.499866  0.499998  1
  La  La1  1  0.112634  0.319793  0.030325  1
  La  La2  1  0.320795  0.031484  0.113705  1
  Pr  Pr3  1  0.031032  0.112202  0.318904  1
  Pr  Pr4  1  0.969110  0.886917  0.680742  1
  Pr  Pr5  1  0.682917  0.969467  0.887143  1
  Pr  Pr6  1  0.886027  0.682101  0.969207  1
  Os  Os7  1  0.004190  0.003021  0.001001  1
  Br  Br8  1  0.212332  0.682481  0.069817  1
  Br  Br9  1  0.456008  0.373806  0.159451  1
  Br  Br10  1  0.685466  0.070099  0.214205  1
  Br  Br11  1  0.928659  0.783807  0.313938  1
  Br  Br12  1  0.157213  0.452414  0.373174  1
  Br  Br13  1  0.370168  0.158081  0.455562  1
  Br  Br14  1  0.629102  0.842774  0.547406  1
  Br  Br15  1  0.842405  0.547241  0.630370  1
  Br  Br16  1  0.069588  0.212963  0.681816  1
  Br  Br17  1  0.314409  0.928064  0.782332  1
  Br  Br18  1  0.546926  0.629698  0.842928  1
  Br  Br19  1  0.781235  0.313722  0.927978  1
