# generated using pymatgen
data_Ho8ZrSi16W11
_symmetry_space_group_name_H-M   'P 1'
_cell_length_a   6.89279102
_cell_length_b   6.89279035
_cell_length_c   12.81922156
_cell_angle_alpha   90.01549022
_cell_angle_beta   89.98450962
_cell_angle_gamma   90.13393385
_symmetry_Int_Tables_number   1
_chemical_formula_structural   Ho8ZrSi16W11
_chemical_formula_sum   'Ho8 Zr1 Si16 W11'
_cell_volume   609.04673113
_cell_formula_units_Z   1
loop_
 _symmetry_equiv_pos_site_id
 _symmetry_equiv_pos_as_xyz
  1  'x, y, z'
loop_
 _atom_site_type_symbol
 _atom_site_label
 _atom_site_symmetry_multiplicity
 _atom_site_fract_x
 _atom_site_fract_y
 _atom_site_fract_z
 _atom_site_occupancy
  Ho  Ho0  1  0.334826  0.000733  0.468967  1
  Ho  Ho1  1  0.499465  0.838929  0.720435  1
  Ho  Ho2  1  0.496459  0.163137  0.217942  1
  Ho  Ho3  1  0.838929  0.499465  0.279565  1
  Ho  Ho4  1  0.163137  0.496459  0.782058  1
  Ho  Ho5  1  0.662957  0.002254  0.969189  1
  Ho  Ho6  1  0.000733  0.334826  0.531033  1
  Ho  Ho7  1  0.002254  0.662957  0.030811  1
  Zr  Zr8  1  0.668180  0.668180  0.500000  1
  Si  Si9  1  0.200136  0.125533  0.683622  1
  Si  Si10  1  0.374695  0.700751  0.933613  1
  Si  Si11  1  0.627639  0.291463  0.432349  1
  Si  Si12  1  0.700751  0.374695  0.066387  1
  Si  Si13  1  0.291463  0.627639  0.567651  1
  Si  Si14  1  0.798216  0.874456  0.183736  1
  Si  Si15  1  0.125533  0.200136  0.316378  1
  Si  Si16  1  0.874456  0.798216  0.816264  1
  Si  Si17  1  0.287444  0.965759  0.062724  1
  Si  Si18  1  0.531309  0.791361  0.309520  1
  Si  Si19  1  0.464505  0.211522  0.813589  1
  Si  Si20  1  0.791361  0.531309  0.690480  1
  Si  Si21  1  0.211522  0.464505  0.186411  1
  Si  Si22  1  0.709151  0.044424  0.567179  1
  Si  Si23  1  0.965759  0.287444  0.937276  1
  Si  Si24  1  0.044424  0.709151  0.432821  1
  W  W25  1  0.332571  0.332571  0.000000  1
  W  W26  1  0.166141  0.835466  0.247047  1
  W  W27  1  0.835466  0.166141  0.752953  1
  W  W28  1  0.165856  0.997784  0.872839  1
  W  W29  1  0.499309  0.666569  0.122508  1
  W  W30  1  0.498521  0.339356  0.624065  1
  W  W31  1  0.666569  0.499309  0.877492  1
  W  W32  1  0.339356  0.498521  0.375935  1
  W  W33  1  0.835091  0.998028  0.374464  1
  W  W34  1  0.997784  0.165856  0.127161  1
  W  W35  1  0.998028  0.835091  0.625536  1
