# generated using pymatgen
data_Ac8Pr11ErPb16
_symmetry_space_group_name_H-M   'P 1'
_cell_length_a   8.65881119
_cell_length_b   8.75964464
_cell_length_c   16.69014400
_cell_angle_alpha   90.00000000
_cell_angle_beta   90.00000000
_cell_angle_gamma   90.32857311
_symmetry_Int_Tables_number   1
_chemical_formula_structural   Ac8Pr11ErPb16
_chemical_formula_sum   'Ac8 Pr11 Er1 Pb16'
_cell_volume   1265.89504554
_cell_formula_units_Z   1
loop_
 _symmetry_equiv_pos_site_id
 _symmetry_equiv_pos_as_xyz
  1  'x, y, z'
loop_
 _atom_site_type_symbol
 _atom_site_label
 _atom_site_symmetry_multiplicity
 _atom_site_fract_x
 _atom_site_fract_y
 _atom_site_fract_z
 _atom_site_occupancy
  Ac  Ac0  1  0.528812  0.321793  0.901282  1
  Ac  Ac1  1  0.028818  0.179052  0.597960  1
  Ac  Ac2  1  0.470443  0.679359  0.400661  1
  Ac  Ac3  1  0.971336  0.821939  0.099542  1
  Ac  Ac4  1  0.470443  0.679359  0.099339  1
  Ac  Ac5  1  0.971336  0.821939  0.400458  1
  Ac  Ac6  1  0.528812  0.321793  0.598718  1
  Ac  Ac7  1  0.028818  0.179052  0.902040  1
  Pr  Pr8  1  0.374188  0.843870  0.881933  1
  Pr  Pr9  1  0.874146  0.656838  0.618996  1
  Pr  Pr10  1  0.624957  0.155503  0.380299  1
  Pr  Pr11  1  0.126854  0.343375  0.120279  1
  Pr  Pr12  1  0.624957  0.155503  0.119701  1
  Pr  Pr13  1  0.126854  0.343375  0.379721  1
  Pr  Pr14  1  0.374188  0.843870  0.618067  1
  Pr  Pr15  1  0.874146  0.656838  0.881004  1
  Pr  Pr16  1  0.210240  0.503189  0.750000  1
  Pr  Pr17  1  0.710672  0.996670  0.750000  1
  Pr  Pr18  1  0.789622  0.497206  0.250000  1
  Er  Er19  1  0.288677  0.004707  0.250000  1
  Pb  Pb20  1  0.288016  0.037481  0.048403  1
  Pb  Pb21  1  0.789487  0.460328  0.454199  1
  Pb  Pb22  1  0.711175  0.961377  0.545254  1
  Pb  Pb23  1  0.210852  0.538676  0.954900  1
  Pb  Pb24  1  0.711175  0.961377  0.954746  1
  Pb  Pb25  1  0.210852  0.538676  0.545100  1
  Pb  Pb26  1  0.288016  0.037481  0.451597  1
  Pb  Pb27  1  0.789487  0.460328  0.045801  1
  Pb  Pb28  1  0.572222  0.631221  0.750000  1
  Pb  Pb29  1  0.073469  0.869346  0.750000  1
  Pb  Pb30  1  0.426423  0.364370  0.250000  1
  Pb  Pb31  1  0.930984  0.128771  0.250000  1
  Pb  Pb32  1  0.337629  0.141161  0.750000  1
  Pb  Pb33  1  0.837623  0.357515  0.750000  1
  Pb  Pb34  1  0.660151  0.858970  0.250000  1
  Pb  Pb35  1  0.164117  0.647698  0.250000  1
