# generated using pymatgen
data_Dy2Si5Os3
_symmetry_space_group_name_H-M   'P 1'
_cell_length_a   8.13569828
_cell_length_b   8.13569732
_cell_length_c   5.80076019
_cell_angle_alpha   70.47782229
_cell_angle_beta   70.47782323
_cell_angle_gamma   93.95570979
_symmetry_Int_Tables_number   1
_chemical_formula_structural   Dy2Si5Os3
_chemical_formula_sum   'Dy4 Si10 Os6'
_cell_volume   333.94641268
_cell_formula_units_Z   2
loop_
 _symmetry_equiv_pos_site_id
 _symmetry_equiv_pos_as_xyz
  1  'x, y, z'
loop_
 _atom_site_type_symbol
 _atom_site_label
 _atom_site_symmetry_multiplicity
 _atom_site_fract_x
 _atom_site_fract_y
 _atom_site_fract_z
 _atom_site_occupancy
  Dy  Dy0  1  0.868431  0.601385  0.754301  1
  Dy  Dy1  1  0.398615  0.131569  0.745699  1
  Dy  Dy2  1  0.131569  0.398615  0.245699  1
  Dy  Dy3  1  0.601385  0.868431  0.254301  1
  Si  Si4  1  0.067786  0.261682  0.834144  1
  Si  Si5  1  0.738318  0.932214  0.665856  1
  Si  Si6  1  0.932214  0.738318  0.165856  1
  Si  Si7  1  0.261682  0.067786  0.334144  1
  Si  Si8  1  0.206432  0.793568  0.750000  1
  Si  Si9  1  0.793568  0.206432  0.250000  1
  Si  Si10  1  0.512651  0.487349  0.750000  1
  Si  Si11  1  0.487349  0.512651  0.250000  1
  Si  Si12  1  0.774473  0.225527  0.750000  1
  Si  Si13  1  0.225527  0.774473  0.250000  1
  Os  Os14  1  0.255801  0.543855  0.631332  1
  Os  Os15  1  0.456145  0.744199  0.868668  1
  Os  Os16  1  0.744199  0.456145  0.368668  1
  Os  Os17  1  0.543855  0.255801  0.131332  1
  Os  Os18  1  0.001921  0.998079  0.750000  1
  Os  Os19  1  0.998079  0.001921  0.250000  1
