# generated using pymatgen
data_Ho5Lu11(In3Pd)2
_symmetry_space_group_name_H-M   'P 1'
_cell_length_a   10.39859733
_cell_length_b   10.39859746
_cell_length_c   6.75247000
_cell_angle_alpha   89.96164522
_cell_angle_beta   90.03835478
_cell_angle_gamma   120.05325925
_symmetry_Int_Tables_number   1
_chemical_formula_structural   Ho5Lu11(In3Pd)2
_chemical_formula_sum   'Ho5 Lu11 In6 Pd2'
_cell_volume   631.98877933
_cell_formula_units_Z   1
loop_
 _symmetry_equiv_pos_site_id
 _symmetry_equiv_pos_as_xyz
  1  'x, y, z'
loop_
 _atom_site_type_symbol
 _atom_site_label
 _atom_site_symmetry_multiplicity
 _atom_site_fract_x
 _atom_site_fract_y
 _atom_site_fract_z
 _atom_site_occupancy
  Ho  Ho0  1  0.824004  0.175996  0.224252  1
  Ho  Ho1  1  0.666437  0.333563  0.875867  1
  Ho  Ho2  1  0.333383  0.666617  0.375439  1
  Ho  Ho3  1  0.001262  0.998738  0.490304  1
  Ho  Ho4  1  0.000705  0.999295  0.989279  1
  Lu  Lu5  1  0.523804  0.049917  0.510034  1
  Lu  Lu6  1  0.950083  0.476196  0.510034  1
  Lu  Lu7  1  0.524489  0.475511  0.508631  1
  Lu  Lu8  1  0.473433  0.948345  0.008654  1
  Lu  Lu9  1  0.051655  0.526567  0.008654  1
  Lu  Lu10  1  0.474971  0.525029  0.008058  1
  Lu  Lu11  1  0.175404  0.351708  0.722549  1
  Lu  Lu12  1  0.648292  0.824596  0.722549  1
  Lu  Lu13  1  0.176189  0.823811  0.721741  1
  Lu  Lu14  1  0.824010  0.647386  0.221560  1
  Lu  Lu15  1  0.352614  0.175990  0.221560  1
  In  In16  1  0.836809  0.674118  0.744056  1
  In  In17  1  0.325882  0.163191  0.744056  1
  In  In18  1  0.836977  0.163023  0.743735  1
  In  In19  1  0.165265  0.326776  0.244521  1
  In  In20  1  0.673224  0.834735  0.244521  1
  In  In21  1  0.163103  0.836897  0.244302  1
  Pd  Pd22  1  0.664420  0.335580  0.288325  1
  Pd  Pd23  1  0.333585  0.666415  0.785361  1
