# generated using pymatgen
data_Cs11LiCr4O16
_symmetry_space_group_name_H-M   'P 1'
_cell_length_a   8.53883767
_cell_length_b   8.59323273
_cell_length_c   11.55165718
_cell_angle_alpha   111.78868837
_cell_angle_beta   111.69636349
_cell_angle_gamma   90.02689737
_symmetry_Int_Tables_number   1
_chemical_formula_structural   Cs11LiCr4O16
_chemical_formula_sum   'Cs11 Li1 Cr4 O16'
_cell_volume   721.93078767
_cell_formula_units_Z   1
loop_
 _symmetry_equiv_pos_site_id
 _symmetry_equiv_pos_as_xyz
  1  'x, y, z'
loop_
 _atom_site_type_symbol
 _atom_site_label
 _atom_site_symmetry_multiplicity
 _atom_site_fract_x
 _atom_site_fract_y
 _atom_site_fract_z
 _atom_site_occupancy
  Cs  Cs0  1  0.292202  0.291876  0.583511  1
  Cs  Cs1  1  0.499530  0.000147  0.000085  1
  Cs  Cs2  1  0.249663  0.749147  0.498479  1
  Cs  Cs3  1  0.929093  0.929448  0.240830  1
  Cs  Cs4  1  0.070836  0.688334  0.758771  1
  Cs  Cs5  1  0.708237  0.708004  0.416436  1
  Cs  Cs6  1  0.000066  0.500118  0.999993  1
  Cs  Cs7  1  0.688342  0.070666  0.759355  1
  Cs  Cs8  1  0.311992  0.311805  0.241433  1
  Cs  Cs9  1  0.751065  0.250751  0.501568  1
  Cs  Cs10  1  0.500079  0.499894  0.000022  1
  Li  Li11  1  0.000592  0.999937  0.000049  1
  Cr  Cr12  1  0.872940  0.368490  0.240527  1
  Cr  Cr13  1  0.126997  0.128219  0.759502  1
  Cr  Cr14  1  0.632198  0.631582  0.759312  1
  Cr  Cr15  1  0.367604  0.871705  0.240525  1
  O  O16  1  0.388134  0.006415  0.401826  1
  O  O17  1  0.795846  0.797872  0.887864  1
  O  O18  1  0.666371  0.326829  0.225563  1
  O  O19  1  0.329849  0.667665  0.229453  1
  O  O20  1  0.012763  0.395352  0.402330  1
  O  O21  1  0.559025  0.897369  0.225031  1
  O  O22  1  0.333834  0.102481  0.774900  1
  O  O23  1  0.204865  0.912099  0.112953  1
  O  O24  1  0.608554  0.604210  0.597090  1
  O  O25  1  0.091977  0.088082  0.887221  1
  O  O26  1  0.672143  0.439398  0.771276  1
  O  O27  1  0.986242  0.993486  0.598128  1
  O  O28  1  0.900445  0.561155  0.229154  1
  O  O29  1  0.907776  0.201384  0.112433  1
  O  O30  1  0.100282  0.332246  0.770571  1
  O  O31  1  0.440458  0.673831  0.773810  1
