# generated using pymatgen
data_Tb9Ho3Ga2(NiRu)2
_symmetry_space_group_name_H-M   'P 1'
_cell_length_a   8.36032057
_cell_length_b   8.36121149
_cell_length_c   8.36032117
_cell_angle_alpha   112.96110172
_cell_angle_beta   110.19226706
_cell_angle_gamma   105.34630143
_symmetry_Int_Tables_number   1
_chemical_formula_structural   Tb9Ho3Ga2(NiRu)2
_chemical_formula_sum   'Tb9 Ho3 Ga2 Ni2 Ru2'
_cell_volume   447.88585277
_cell_formula_units_Z   1
loop_
 _symmetry_equiv_pos_site_id
 _symmetry_equiv_pos_as_xyz
  1  'x, y, z'
loop_
 _atom_site_type_symbol
 _atom_site_label
 _atom_site_symmetry_multiplicity
 _atom_site_fract_x
 _atom_site_fract_y
 _atom_site_fract_z
 _atom_site_occupancy
  Tb  Tb0  1  0.435437  0.241483  0.193635  1
  Tb  Tb1  1  0.564834  0.758325  0.806809  1
  Tb  Tb2  1  0.047847  0.241483  0.806045  1
  Tb  Tb3  1  0.951516  0.758325  0.193491  1
  Tb  Tb4  1  0.180104  0.279220  0.459633  1
  Tb  Tb5  1  0.820188  0.720752  0.540705  1
  Tb  Tb6  1  0.180048  0.720752  0.900564  1
  Tb  Tb7  1  0.819586  0.279220  0.099116  1
  Tb  Tb8  1  0.329252  0.640732  0.311481  1
  Ho  Ho9  1  0.670626  0.358453  0.687826  1
  Ho  Ho10  1  0.329368  0.017527  0.688158  1
  Ho  Ho11  1  0.670872  0.983015  0.312143  1
  Ga  Ga12  1  0.500129  0.499935  0.999806  1
  Ga  Ga13  1  0.000041  0.000029  0.999988  1
  Ni  Ni14  1  0.118096  0.618298  0.500202  1
  Ni  Ni15  1  0.881582  0.381523  0.499942  1
  Ru  Ru16  1  0.330310  0.000464  0.330301  1
  Ru  Ru17  1  0.670163  0.000464  0.670154  1
