# generated using pymatgen
data_Zr10Sn5SbSe
_symmetry_space_group_name_H-M   'P 1'
_cell_length_a   5.86473353
_cell_length_b   8.63935783
_cell_length_c   8.62997577
_cell_angle_alpha   120.03385867
_cell_angle_beta   89.97930494
_cell_angle_gamma   90.04828322
_symmetry_Int_Tables_number   1
_chemical_formula_structural   Zr10Sn5SbSe
_chemical_formula_sum   'Zr10 Sn5 Sb1 Se1'
_cell_volume   378.54849556
_cell_formula_units_Z   1
loop_
 _symmetry_equiv_pos_site_id
 _symmetry_equiv_pos_as_xyz
  1  'x, y, z'
loop_
 _atom_site_type_symbol
 _atom_site_label
 _atom_site_symmetry_multiplicity
 _atom_site_fract_x
 _atom_site_fract_y
 _atom_site_fract_z
 _atom_site_occupancy
  Zr  Zr0  1  0.499894  0.334180  0.667834  1
  Zr  Zr1  1  0.499900  0.666372  0.332171  1
  Zr  Zr2  1  0.000393  0.666399  0.332416  1
  Zr  Zr3  1  0.000411  0.333996  0.667589  1
  Zr  Zr4  1  0.763585  0.257888  0.999987  1
  Zr  Zr5  1  0.763694  0.742948  0.742854  1
  Zr  Zr6  1  0.763698  0.000091  0.257132  1
  Zr  Zr7  1  0.236100  0.741830  0.999998  1
  Zr  Zr8  1  0.236063  0.256988  0.257104  1
  Zr  Zr9  1  0.236054  0.999902  0.742921  1
  Sn  Sn10  1  0.748651  0.392097  0.392143  1
  Sn  Sn11  1  0.748649  0.999938  0.607844  1
  Sn  Sn12  1  0.251304  0.390822  0.000005  1
  Sn  Sn13  1  0.251062  0.607939  0.607408  1
  Sn  Sn14  1  0.251062  0.000544  0.392604  1
  Sb  Sb15  1  0.749711  0.607875  0.999994  1
  Se  Se16  1  0.499765  0.000193  0.999998  1
