# generated using pymatgen
data_Nd20Ir6Ru5Pt
_symmetry_space_group_name_H-M   'P 1'
_cell_length_a   11.22901870
_cell_length_b   11.22901854
_cell_length_c   6.63313891
_cell_angle_alpha   90.08793752
_cell_angle_beta   90.08793802
_cell_angle_gamma   89.93121257
_symmetry_Int_Tables_number   1
_chemical_formula_structural   Nd20Ir6Ru5Pt
_chemical_formula_sum   'Nd20 Ir6 Ru5 Pt1'
_cell_volume   836.37561385
_cell_formula_units_Z   1
loop_
 _symmetry_equiv_pos_site_id
 _symmetry_equiv_pos_as_xyz
  1  'x, y, z'
loop_
 _atom_site_type_symbol
 _atom_site_label
 _atom_site_symmetry_multiplicity
 _atom_site_fract_x
 _atom_site_fract_y
 _atom_site_fract_z
 _atom_site_occupancy
  Nd  Nd0  1  0.091082  0.294671  0.114747  1
  Nd  Nd1  1  0.793513  0.414858  0.115354  1
  Nd  Nd2  1  0.206745  0.589594  0.115283  1
  Nd  Nd3  1  0.912173  0.707118  0.116142  1
  Nd  Nd4  1  0.410406  0.793255  0.384717  1
  Nd  Nd5  1  0.585142  0.206487  0.384646  1
  Nd  Nd6  1  0.292882  0.087827  0.383858  1
  Nd  Nd7  1  0.705329  0.908918  0.385253  1
  Nd  Nd8  1  0.411625  0.206513  0.884808  1
  Nd  Nd9  1  0.704819  0.086905  0.879361  1
  Nd  Nd10  1  0.293191  0.911159  0.885019  1
  Nd  Nd11  1  0.588123  0.793412  0.884224  1
  Nd  Nd12  1  0.088841  0.706809  0.614981  1
  Nd  Nd13  1  0.913095  0.295181  0.620639  1
  Nd  Nd14  1  0.206588  0.411877  0.615776  1
  Nd  Nd15  1  0.793487  0.588375  0.615192  1
  Nd  Nd16  1  0.002818  0.998060  0.999607  1
  Nd  Nd17  1  0.499873  0.500106  0.999839  1
  Nd  Nd18  1  0.499894  0.500127  0.500161  1
  Nd  Nd19  1  0.001940  0.997182  0.500393  1
  Ir  Ir20  1  0.347221  0.347354  0.249433  1
  Ir  Ir21  1  0.652646  0.652779  0.250567  1
  Ir  Ir22  1  0.347901  0.652099  0.750000  1
  Ir  Ir23  1  0.152577  0.153273  0.749594  1
  Ir  Ir24  1  0.846727  0.847423  0.750406  1
  Ir  Ir25  1  0.653373  0.346627  0.750000  1
  Ru  Ru26  1  0.150754  0.849246  0.250000  1
  Ru  Ru27  1  0.999923  0.499892  0.377875  1
  Ru  Ru28  1  0.500108  0.000077  0.122125  1
  Ru  Ru29  1  0.500569  0.999742  0.621981  1
  Ru  Ru30  1  0.000258  0.499431  0.878019  1
  Pt  Pt31  1  0.846379  0.153621  0.250000  1
