# generated using pymatgen
data_DyYFe3P7Ru9
_symmetry_space_group_name_H-M   'P 1'
_cell_length_a   9.30358900
_cell_length_b   9.30358925
_cell_length_c   3.85711900
_cell_angle_alpha   90.00000000
_cell_angle_beta   90.00000000
_cell_angle_gamma   119.99999555
_symmetry_Int_Tables_number   1
_chemical_formula_structural   DyYFe3P7Ru9
_chemical_formula_sum   'Dy1 Y1 Fe3 P7 Ru9'
_cell_volume   289.13105038
_cell_formula_units_Z   1
loop_
 _symmetry_equiv_pos_site_id
 _symmetry_equiv_pos_as_xyz
  1  'x, y, z'
loop_
 _atom_site_type_symbol
 _atom_site_label
 _atom_site_symmetry_multiplicity
 _atom_site_fract_x
 _atom_site_fract_y
 _atom_site_fract_z
 _atom_site_occupancy
  Dy  Dy0  1  0.000000  0.000000  0.500000  1
  Y  Y1  1  0.333333  0.666667  0.000000  1
  Fe  Fe2  1  0.934089  0.490540  0.000000  1
  Fe  Fe3  1  0.509460  0.443549  0.000000  1
  Fe  Fe4  1  0.556451  0.065911  0.000000  1
  P  P5  1  0.970547  0.745628  0.000000  1
  P  P6  1  0.254372  0.224919  0.000000  1
  P  P7  1  0.775081  0.029453  0.000000  1
  P  P8  1  0.062771  0.448653  0.500000  1
  P  P9  1  0.551347  0.614117  0.500000  1
  P  P10  1  0.385883  0.937229  0.500000  1
  P  P11  1  0.666667  0.333333  0.000000  1
  Ru  Ru12  1  0.726741  0.754472  0.000000  1
  Ru  Ru13  1  0.245528  0.972269  0.000000  1
  Ru  Ru14  1  0.027731  0.273259  0.000000  1
  Ru  Ru15  1  0.104241  0.718702  0.500000  1
  Ru  Ru16  1  0.281298  0.385539  0.500000  1
  Ru  Ru17  1  0.614461  0.895759  0.500000  1
  Ru  Ru18  1  0.754758  0.537874  0.500000  1
  Ru  Ru19  1  0.462126  0.216885  0.500000  1
  Ru  Ru20  1  0.783115  0.245242  0.500000  1
