# generated using pymatgen
data_Dy4Lu4Cr(B8Rh)3
_symmetry_space_group_name_H-M   'P 1'
_cell_length_a   3.60974500
_cell_length_b   9.09830920
_cell_length_c   11.47053548
_cell_angle_alpha   90.12850198
_cell_angle_beta   90.00000000
_cell_angle_gamma   90.00000000
_symmetry_Int_Tables_number   1
_chemical_formula_structural   Dy4Lu4Cr(B8Rh)3
_chemical_formula_sum   'Dy4 Lu4 Cr1 B24 Rh3'
_cell_volume   376.72098750
_cell_formula_units_Z   1
loop_
 _symmetry_equiv_pos_site_id
 _symmetry_equiv_pos_as_xyz
  1  'x, y, z'
loop_
 _atom_site_type_symbol
 _atom_site_label
 _atom_site_symmetry_multiplicity
 _atom_site_fract_x
 _atom_site_fract_y
 _atom_site_fract_z
 _atom_site_occupancy
  Dy  Dy0  1  0.500000  0.318418  0.410732  1
  Dy  Dy1  1  0.500000  0.677880  0.585287  1
  Dy  Dy2  1  0.500000  0.178360  0.917934  1
  Dy  Dy3  1  0.500000  0.825225  0.087404  1
  Lu  Lu4  1  0.500000  0.441975  0.126387  1
  Lu  Lu5  1  0.500000  0.556371  0.873082  1
  Lu  Lu6  1  0.500000  0.055893  0.627749  1
  Lu  Lu7  1  0.500000  0.947357  0.371758  1
  Cr  Cr8  1  0.500000  0.139565  0.179900  1
  B  B9  1  0.000000  0.104632  0.472194  1
  B  B10  1  0.000000  0.895155  0.528811  1
  B  B11  1  0.000000  0.396189  0.970884  1
  B  B12  1  0.000000  0.605253  0.028396  1
  B  B13  1  0.000000  0.131494  0.315134  1
  B  B14  1  0.000000  0.867829  0.683438  1
  B  B15  1  0.000000  0.368623  0.816986  1
  B  B16  1  0.000000  0.631798  0.183341  1
  B  B17  1  0.000000  0.053859  0.067598  1
  B  B18  1  0.000000  0.946355  0.933979  1
  B  B19  1  0.000000  0.444968  0.565639  1
  B  B20  1  0.000000  0.553383  0.433061  1
  B  B21  1  0.000000  0.482268  0.285996  1
  B  B22  1  0.000000  0.517520  0.713329  1
  B  B23  1  0.000000  0.017540  0.786882  1
  B  B24  1  0.000000  0.983713  0.213532  1
  B  B25  1  0.000000  0.249593  0.081381  1
  B  B26  1  0.000000  0.749763  0.919904  1
  B  B27  1  0.000000  0.248845  0.579514  1
  B  B28  1  0.000000  0.751286  0.419671  1
  B  B29  1  0.000000  0.292907  0.234426  1
  B  B30  1  0.000000  0.705368  0.764215  1
  B  B31  1  0.000000  0.206628  0.735756  1
  B  B32  1  0.000000  0.793962  0.265403  1
  Rh  Rh33  1  0.500000  0.860403  0.820175  1
  Rh  Rh34  1  0.500000  0.360010  0.679982  1
  Rh  Rh35  1  0.500000  0.639611  0.320138  1
