# generated using pymatgen
data_Ta2W3
_symmetry_space_group_name_H-M   'P 1'
_cell_length_a   4.55600861
_cell_length_b   4.55593122
_cell_length_c   5.39513788
_cell_angle_alpha   64.92449842
_cell_angle_beta   64.91298630
_cell_angle_gamma   59.98167842
_symmetry_Int_Tables_number   1
_chemical_formula_structural   Ta2W3
_chemical_formula_sum   'Ta2 W3'
_cell_volume   84.55721307
_cell_formula_units_Z   1
loop_
 _symmetry_equiv_pos_site_id
 _symmetry_equiv_pos_as_xyz
  1  'x, y, z'
loop_
 _atom_site_type_symbol
 _atom_site_label
 _atom_site_symmetry_multiplicity
 _atom_site_fract_x
 _atom_site_fract_y
 _atom_site_fract_z
 _atom_site_occupancy
  Ta  Ta0  1  0.640041  0.248019  0.735807  1
  Ta  Ta1  1  0.845061  0.453255  0.120085  1
  W  W2  1  0.242502  0.850620  0.927979  1
  W  W3  1  0.438736  0.046860  0.339468  1
  W  W4  1  0.046358  0.654400  0.516475  1
