# generated using pymatgen
data_Li8Pr7NdInSn3Bi4
_symmetry_space_group_name_H-M   'P 1'
_cell_length_a   9.67160000
_cell_length_b   9.67979724
_cell_length_c   7.69060200
_cell_angle_alpha   89.93443401
_cell_angle_beta   90.00000000
_cell_angle_gamma   119.97199071
_symmetry_Int_Tables_number   1
_chemical_formula_structural   Li8Pr7NdInSn3Bi4
_chemical_formula_sum   'Li8 Pr7 Nd1 In1 Sn3 Bi4'
_cell_volume   623.70278372
_cell_formula_units_Z   1
loop_
 _symmetry_equiv_pos_site_id
 _symmetry_equiv_pos_as_xyz
  1  'x, y, z'
loop_
 _atom_site_type_symbol
 _atom_site_label
 _atom_site_symmetry_multiplicity
 _atom_site_fract_x
 _atom_site_fract_y
 _atom_site_fract_z
 _atom_site_occupancy
  Li  Li0  1  0.167104  0.333859  0.270869  1
  Li  Li1  1  0.170367  0.834535  0.278123  1
  Li  Li2  1  0.663981  0.834228  0.278111  1
  Li  Li3  1  0.831441  0.663337  0.779317  1
  Li  Li4  1  0.831165  0.168085  0.785331  1
  Li  Li5  1  0.336989  0.168343  0.785525  1
  Li  Li6  1  0.333854  0.667438  0.672158  1
  Li  Li7  1  0.664876  0.330204  0.179061  1
  Pr  Pr8  1  0.513408  0.027015  0.490585  1
  Pr  Pr9  1  0.507320  0.483956  0.491815  1
  Pr  Pr10  1  0.976910  0.484089  0.491644  1
  Pr  Pr11  1  0.491864  0.982616  0.000544  1
  Pr  Pr12  1  0.488077  0.506810  0.997952  1
  Pr  Pr13  1  0.018012  0.505902  0.998613  1
  Pr  Pr14  1  0.002502  0.005603  0.494867  1
  Nd  Nd15  1  0.001740  0.003990  0.006155  1
  In  In16  1  0.833904  0.166331  0.232806  1
  Sn  Sn17  1  0.332601  0.166414  0.233437  1
  Sn  Sn18  1  0.333067  0.665749  0.263768  1
  Sn  Sn19  1  0.667133  0.334276  0.763712  1
  Bi  Bi20  1  0.166455  0.332872  0.738339  1
  Bi  Bi21  1  0.166072  0.833523  0.736263  1
  Bi  Bi22  1  0.667577  0.833523  0.736679  1
  Bi  Bi23  1  0.833576  0.667303  0.236304  1
