# generated using pymatgen
data_Nb12Fe7Ir2Ru3N4
_symmetry_space_group_name_H-M   'P 1'
_cell_length_a   8.16813827
_cell_length_b   8.18836315
_cell_length_c   8.18313200
_cell_angle_alpha   60.02113886
_cell_angle_beta   59.93926715
_cell_angle_gamma   59.95429386
_symmetry_Int_Tables_number   1
_chemical_formula_structural   Nb12Fe7Ir2Ru3N4
_chemical_formula_sum   'Nb12 Fe7 Ir2 Ru3 N4'
_cell_volume   386.76228798
_cell_formula_units_Z   1
loop_
 _symmetry_equiv_pos_site_id
 _symmetry_equiv_pos_as_xyz
  1  'x, y, z'
loop_
 _atom_site_type_symbol
 _atom_site_label
 _atom_site_symmetry_multiplicity
 _atom_site_fract_x
 _atom_site_fract_y
 _atom_site_fract_z
 _atom_site_occupancy
  Nb  Nb0  1  0.806401  0.807922  0.192838  1
  Nb  Nb1  1  0.190743  0.194942  0.807157  1
  Nb  Nb2  1  0.806647  0.192228  0.808637  1
  Nb  Nb3  1  0.191045  0.806467  0.195720  1
  Nb  Nb4  1  0.191045  0.806467  0.806769  1
  Nb  Nb5  1  0.806647  0.192228  0.192487  1
  Nb  Nb6  1  0.442452  0.443264  0.057142  1
  Nb  Nb7  1  0.053422  0.055083  0.445748  1
  Nb  Nb8  1  0.442894  0.057760  0.444076  1
  Nb  Nb9  1  0.055386  0.445034  0.054143  1
  Nb  Nb10  1  0.055386  0.445034  0.445437  1
  Nb  Nb11  1  0.442894  0.057760  0.055270  1
  Fe  Fe12  1  0.106559  0.630260  0.631591  1
  Fe  Fe13  1  0.634148  0.113872  0.625990  1
  Fe  Fe14  1  0.635179  0.625307  0.112863  1
  Fe  Fe15  1  0.635179  0.625307  0.626652  1
  Fe  Fe16  1  0.833576  0.503372  0.831526  1
  Fe  Fe17  1  0.833546  0.831209  0.503715  1
  Fe  Fe18  1  0.833546  0.831209  0.831529  1
  Ir  Ir19  1  0.750473  0.416436  0.416546  1
  Ir  Ir20  1  0.415071  0.749566  0.417682  1
  Ru  Ru21  1  0.416757  0.418477  0.746055  1
  Ru  Ru22  1  0.416757  0.418477  0.418712  1
  Ru  Ru23  1  0.505938  0.831581  0.831240  1
  N  N24  1  0.625302  0.124699  0.124999  1
  N  N25  1  0.124176  0.625593  0.125115  1
  N  N26  1  0.124417  0.125222  0.624950  1
  N  N27  1  0.124417  0.125222  0.125409  1
