# generated using pymatgen
data_Ho5ErFe2(Co4P3)4
_symmetry_space_group_name_H-M   'P 1'
_cell_length_a   3.69131900
_cell_length_b   10.50740101
_cell_length_c   12.14667201
_cell_angle_alpha   90.00356612
_cell_angle_beta   90.00000000
_cell_angle_gamma   90.00000000
_symmetry_Int_Tables_number   1
_chemical_formula_structural   Ho5ErFe2(Co4P3)4
_chemical_formula_sum   'Ho5 Er1 Fe2 Co16 P12'
_cell_volume   471.12287194
_cell_formula_units_Z   1
loop_
 _symmetry_equiv_pos_site_id
 _symmetry_equiv_pos_as_xyz
  1  'x, y, z'
loop_
 _atom_site_type_symbol
 _atom_site_label
 _atom_site_symmetry_multiplicity
 _atom_site_fract_x
 _atom_site_fract_y
 _atom_site_fract_z
 _atom_site_occupancy
  Ho  Ho0  1  0.750000  0.249974  0.477828  1
  Ho  Ho1  1  0.250000  0.750024  0.522018  1
  Ho  Ho2  1  0.250000  0.932349  0.794747  1
  Ho  Ho3  1  0.250000  0.567669  0.794750  1
  Ho  Ho4  1  0.750000  0.067727  0.205315  1
  Er  Er5  1  0.750000  0.432445  0.205206  1
  Fe  Fe6  1  0.250000  0.250026  0.842817  1
  Fe  Fe7  1  0.750000  0.749945  0.157266  1
  Co  Co8  1  0.250000  0.250349  0.298033  1
  Co  Co9  1  0.750000  0.749967  0.701801  1
  Co  Co10  1  0.750000  0.250159  0.014223  1
  Co  Co11  1  0.250000  0.749840  0.986092  1
  Co  Co12  1  0.250000  0.417058  0.006095  1
  Co  Co13  1  0.250000  0.083093  0.005907  1
  Co  Co14  1  0.750000  0.582830  0.994379  1
  Co  Co15  1  0.750000  0.917021  0.994215  1
  Co  Co16  1  0.250000  0.453222  0.569042  1
  Co  Co17  1  0.250000  0.046815  0.569184  1
  Co  Co18  1  0.750000  0.546730  0.430557  1
  Co  Co19  1  0.750000  0.953200  0.430786  1
  Co  Co20  1  0.250000  0.871237  0.291215  1
  Co  Co21  1  0.250000  0.628379  0.291011  1
  Co  Co22  1  0.750000  0.128680  0.708787  1
  Co  Co23  1  0.750000  0.371283  0.708757  1
  P  P24  1  0.250000  0.250326  0.118260  1
  P  P25  1  0.750000  0.749944  0.881992  1
  P  P26  1  0.250000  0.249975  0.656940  1
  P  P27  1  0.750000  0.750034  0.343037  1
  P  P28  1  0.250000  0.439300  0.383545  1
  P  P29  1  0.250000  0.060710  0.383923  1
  P  P30  1  0.750000  0.560624  0.615962  1
  P  P31  1  0.750000  0.939342  0.616026  1
  P  P32  1  0.250000  0.902559  0.107407  1
  P  P33  1  0.250000  0.597127  0.107602  1
  P  P34  1  0.750000  0.097528  0.892668  1
  P  P35  1  0.750000  0.402508  0.892607  1
