# generated using pymatgen
data_Ca6HoTh(Si3Pd)4
_symmetry_space_group_name_H-M   'P 1'
_cell_length_a   8.27559200
_cell_length_b   8.27559258
_cell_length_c   8.33425900
_cell_angle_alpha   90.00000000
_cell_angle_beta   90.00000000
_cell_angle_gamma   120.00000566
_symmetry_Int_Tables_number   1
_chemical_formula_structural   Ca6HoTh(Si3Pd)4
_chemical_formula_sum   'Ca6 Ho1 Th1 Si12 Pd4'
_cell_volume   494.30587526
_cell_formula_units_Z   1
loop_
 _symmetry_equiv_pos_site_id
 _symmetry_equiv_pos_as_xyz
  1  'x, y, z'
loop_
 _atom_site_type_symbol
 _atom_site_label
 _atom_site_symmetry_multiplicity
 _atom_site_fract_x
 _atom_site_fract_y
 _atom_site_fract_z
 _atom_site_occupancy
  Ca  Ca0  1  0.501013  0.002026  0.250000  1
  Ca  Ca1  1  0.498962  0.997925  0.750000  1
  Ca  Ca2  1  0.997974  0.498987  0.250000  1
  Ca  Ca3  1  0.002075  0.501038  0.750000  1
  Ca  Ca4  1  0.501013  0.498987  0.250000  1
  Ca  Ca5  1  0.498962  0.501038  0.750000  1
  Ho  Ho6  1  0.000000  0.000000  0.750000  1
  Th  Th7  1  0.000000  0.000000  0.250000  1
  Si  Si8  1  0.164803  0.329604  0.998160  1
  Si  Si9  1  0.835224  0.670449  0.996435  1
  Si  Si10  1  0.670396  0.835197  0.998160  1
  Si  Si11  1  0.835224  0.670449  0.503565  1
  Si  Si12  1  0.329551  0.164776  0.996435  1
  Si  Si13  1  0.164803  0.329604  0.501840  1
  Si  Si14  1  0.164803  0.835197  0.998160  1
  Si  Si15  1  0.329551  0.164776  0.503565  1
  Si  Si16  1  0.835224  0.164776  0.996435  1
  Si  Si17  1  0.670396  0.835197  0.501840  1
  Si  Si18  1  0.835224  0.164776  0.503565  1
  Si  Si19  1  0.164803  0.835197  0.501840  1
  Pd  Pd20  1  0.333333  0.666667  0.000556  1
  Pd  Pd21  1  0.666667  0.333333  0.995791  1
  Pd  Pd22  1  0.666667  0.333333  0.504209  1
  Pd  Pd23  1  0.333333  0.666667  0.499444  1
