# generated using pymatgen
data_Tm16In4Os3Pt
_symmetry_space_group_name_H-M   'P 1'
_cell_length_a   9.57344562
_cell_length_b   9.53039822
_cell_length_c   9.57344500
_cell_angle_alpha   59.85046960
_cell_angle_beta   59.99999869
_cell_angle_gamma   59.85047405
_symmetry_Int_Tables_number   1
_chemical_formula_structural   Tm16In4Os3Pt
_chemical_formula_sum   'Tm16 In4 Os3 Pt1'
_cell_volume   616.23633796
_cell_formula_units_Z   1
loop_
 _symmetry_equiv_pos_site_id
 _symmetry_equiv_pos_as_xyz
  1  'x, y, z'
loop_
 _atom_site_type_symbol
 _atom_site_label
 _atom_site_symmetry_multiplicity
 _atom_site_fract_x
 _atom_site_fract_y
 _atom_site_fract_z
 _atom_site_occupancy
  Tm  Tm0  1  0.052702  0.054769  0.446265  1
  Tm  Tm1  1  0.446265  0.054769  0.446265  1
  Tm  Tm2  1  0.056819  0.449803  0.056819  1
  Tm  Tm3  1  0.049989  0.651692  0.649160  1
  Tm  Tm4  1  0.436559  0.449803  0.056819  1
  Tm  Tm5  1  0.651572  0.045283  0.651572  1
  Tm  Tm6  1  0.191749  0.809580  0.191749  1
  Tm  Tm7  1  0.196878  0.187284  0.807919  1
  Tm  Tm8  1  0.806923  0.809580  0.191749  1
  Tm  Tm9  1  0.446265  0.054769  0.052702  1
  Tm  Tm10  1  0.807919  0.187284  0.196878  1
  Tm  Tm11  1  0.056819  0.449803  0.436559  1
  Tm  Tm12  1  0.807919  0.187284  0.807919  1
  Tm  Tm13  1  0.191749  0.809580  0.806923  1
  Tm  Tm14  1  0.649160  0.651692  0.049989  1
  Tm  Tm15  1  0.649160  0.651692  0.649160  1
  In  In16  1  0.415966  0.417046  0.415966  1
  In  In17  1  0.751020  0.417046  0.415966  1
  In  In18  1  0.415521  0.753435  0.415521  1
  In  In19  1  0.415966  0.417046  0.751020  1
  Os  Os20  1  0.860669  0.856356  0.422305  1
  Os  Os21  1  0.860669  0.856356  0.860669  1
  Os  Os22  1  0.422305  0.856356  0.860669  1
  Pt  Pt23  1  0.859436  0.421691  0.859436  1
