# generated using pymatgen
data_BaMnNi(Sb6Os)2
_symmetry_space_group_name_H-M   'P 1'
_cell_length_a   8.15856068
_cell_length_b   8.15869009
_cell_length_c   8.17559561
_cell_angle_alpha   109.51285186
_cell_angle_beta   109.63263698
_cell_angle_gamma   109.42382238
_symmetry_Int_Tables_number   1
_chemical_formula_structural   BaMnNi(Sb6Os)2
_chemical_formula_sum   'Ba1 Mn1 Ni1 Sb12 Os2'
_cell_volume   418.11268902
_cell_formula_units_Z   1
loop_
 _symmetry_equiv_pos_site_id
 _symmetry_equiv_pos_as_xyz
  1  'x, y, z'
loop_
 _atom_site_type_symbol
 _atom_site_label
 _atom_site_symmetry_multiplicity
 _atom_site_fract_x
 _atom_site_fract_y
 _atom_site_fract_z
 _atom_site_occupancy
  Ba  Ba0  1  0.000000  0.000000  0.000000  1
  Mn  Mn1  1  0.000000  0.500000  0.000000  1
  Ni  Ni2  1  0.000000  0.000000  0.500000  1
  Sb  Sb3  1  0.340205  0.182883  0.839261  1
  Sb  Sb4  1  0.659795  0.817117  0.160739  1
  Sb  Sb5  1  0.662144  0.499174  0.842511  1
  Sb  Sb6  1  0.337856  0.500826  0.157489  1
  Sb  Sb7  1  0.180673  0.838239  0.339591  1
  Sb  Sb8  1  0.819327  0.161761  0.660409  1
  Sb  Sb9  1  0.500063  0.842285  0.658322  1
  Sb  Sb10  1  0.499937  0.157715  0.341678  1
  Sb  Sb11  1  0.842019  0.343188  0.180369  1
  Sb  Sb12  1  0.157981  0.656812  0.819631  1
  Sb  Sb13  1  0.842175  0.659565  0.499017  1
  Sb  Sb14  1  0.157825  0.340435  0.500983  1
  Os  Os15  1  0.500000  0.000000  0.000000  1
  Os  Os16  1  0.500000  0.500000  0.500000  1
