# generated using pymatgen
data_Dy3Ho5Al4
_symmetry_space_group_name_H-M   'P 1'
_cell_length_a   5.09691400
_cell_length_b   6.54950416
_cell_length_c   9.40961823
_cell_angle_alpha   89.97478009
_cell_angle_beta   90.00000000
_cell_angle_gamma   90.00000000
_symmetry_Int_Tables_number   1
_chemical_formula_structural   Dy3Ho5Al4
_chemical_formula_sum   'Dy3 Ho5 Al4'
_cell_volume   314.11428648
_cell_formula_units_Z   1
loop_
 _symmetry_equiv_pos_site_id
 _symmetry_equiv_pos_as_xyz
  1  'x, y, z'
loop_
 _atom_site_type_symbol
 _atom_site_label
 _atom_site_symmetry_multiplicity
 _atom_site_fract_x
 _atom_site_fract_y
 _atom_site_fract_z
 _atom_site_occupancy
  Dy  Dy0  1  0.750000  0.687912  0.427164  1
  Dy  Dy1  1  0.250000  0.312222  0.572757  1
  Dy  Dy2  1  0.750000  0.187350  0.072832  1
  Ho  Ho3  1  0.250000  0.812254  0.927254  1
  Ho  Ho4  1  0.750000  0.528270  0.789705  1
  Ho  Ho5  1  0.250000  0.472429  0.210342  1
  Ho  Ho6  1  0.750000  0.027689  0.710490  1
  Ho  Ho7  1  0.250000  0.972016  0.289471  1
  Al  Al8  1  0.750000  0.208332  0.397513  1
  Al  Al9  1  0.250000  0.791575  0.602788  1
  Al  Al10  1  0.750000  0.708565  0.102106  1
  Al  Al11  1  0.250000  0.291385  0.897577  1
