# generated using pymatgen
data_CaPrPa2(Al3Rh)6
_symmetry_space_group_name_H-M   'P 1'
_cell_length_a   7.63249926
_cell_length_b   7.61858726
_cell_length_c   9.44707800
_cell_angle_alpha   90.00000000
_cell_angle_beta   90.00000000
_cell_angle_gamma   119.49132444
_symmetry_Int_Tables_number   1
_chemical_formula_structural   CaPrPa2(Al3Rh)6
_chemical_formula_sum   'Ca1 Pr1 Pa2 Al18 Rh6'
_cell_volume   478.15939435
_cell_formula_units_Z   1
loop_
 _symmetry_equiv_pos_site_id
 _symmetry_equiv_pos_as_xyz
  1  'x, y, z'
loop_
 _atom_site_type_symbol
 _atom_site_label
 _atom_site_symmetry_multiplicity
 _atom_site_fract_x
 _atom_site_fract_y
 _atom_site_fract_z
 _atom_site_occupancy
  Ca  Ca0  1  0.671432  0.993966  0.750000  1
  Pr  Pr1  1  0.330570  0.006415  0.250000  1
  Pa  Pa2  1  0.997091  0.672624  0.750000  1
  Pa  Pa3  1  0.002491  0.327354  0.250000  1
  Al  Al4  1  0.130344  0.126552  0.750000  1
  Al  Al5  1  0.867275  0.872000  0.250000  1
  Al  Al6  1  0.999501  0.332323  0.577754  1
  Al  Al7  1  0.997320  0.664806  0.424369  1
  Al  Al8  1  0.997320  0.664806  0.075631  1
  Al  Al9  1  0.339028  0.003066  0.921728  1
  Al  Al10  1  0.999501  0.332323  0.922246  1
  Al  Al11  1  0.664135  0.996944  0.072352  1
  Al  Al12  1  0.664135  0.996944  0.427648  1
  Al  Al13  1  0.339028  0.003066  0.578272  1
  Al  Al14  1  0.334473  0.334760  0.048744  1
  Al  Al15  1  0.665149  0.667111  0.948459  1
  Al  Al16  1  0.665149  0.667111  0.551541  1
  Al  Al17  1  0.334473  0.334760  0.451256  1
  Al  Al18  1  0.337892  0.548641  0.750000  1
  Al  Al19  1  0.663106  0.454186  0.250000  1
  Al  Al20  1  0.552055  0.346520  0.750000  1
  Al  Al21  1  0.450159  0.654908  0.250000  1
  Rh  Rh22  1  0.675122  0.330831  0.499152  1
  Rh  Rh23  1  0.323919  0.668915  0.500047  1
  Rh  Rh24  1  0.323919  0.668915  0.999953  1
  Rh  Rh25  1  0.675122  0.330831  0.000848  1
  Rh  Rh26  1  0.000145  0.999661  0.500033  1
  Rh  Rh27  1  0.000145  0.999661  0.999967  1
