# generated using pymatgen
data_NaGd(CN2)2
_symmetry_space_group_name_H-M   'P 1'
_cell_length_a   6.43675900
_cell_length_b   7.48857700
_cell_length_c   10.02242400
_cell_angle_alpha   90.00000000
_cell_angle_beta   90.00000000
_cell_angle_gamma   90.00000000
_symmetry_Int_Tables_number   1
_chemical_formula_structural   NaGd(CN2)2
_chemical_formula_sum   'Na4 Gd4 C8 N16'
_cell_volume   483.10253938
_cell_formula_units_Z   4
loop_
 _symmetry_equiv_pos_site_id
 _symmetry_equiv_pos_as_xyz
  1  'x, y, z'
loop_
 _atom_site_type_symbol
 _atom_site_label
 _atom_site_symmetry_multiplicity
 _atom_site_fract_x
 _atom_site_fract_y
 _atom_site_fract_z
 _atom_site_occupancy
  Na  Na0  1  0.250000  0.623460  0.000000  1
  Na  Na1  1  0.750000  0.876540  0.500000  1
  Na  Na2  1  0.750000  0.376540  0.000000  1
  Na  Na3  1  0.250000  0.123460  0.500000  1
  Gd  Gd4  1  0.250000  0.132404  0.000000  1
  Gd  Gd5  1  0.750000  0.367596  0.500000  1
  Gd  Gd6  1  0.750000  0.867596  0.000000  1
  Gd  Gd7  1  0.250000  0.632404  0.500000  1
  C  C8  1  0.916716  0.119184  0.247853  1
  C  C9  1  0.416716  0.380816  0.252147  1
  C  C10  1  0.083284  0.380816  0.747853  1
  C  C11  1  0.583284  0.119184  0.752147  1
  C  C12  1  0.083284  0.880816  0.752147  1
  C  C13  1  0.583284  0.619184  0.747853  1
  C  C14  1  0.916716  0.619184  0.252147  1
  C  C15  1  0.416716  0.880816  0.247853  1
  N  N16  1  0.932986  0.099429  0.124780  1
  N  N17  1  0.432986  0.400571  0.375220  1
  N  N18  1  0.067014  0.400571  0.624780  1
  N  N19  1  0.567014  0.099429  0.875220  1
  N  N20  1  0.067014  0.900571  0.875220  1
  N  N21  1  0.567014  0.599429  0.624780  1
  N  N22  1  0.932986  0.599429  0.375220  1
  N  N23  1  0.432986  0.900571  0.124780  1
  N  N24  1  0.400828  0.361851  0.131250  1
  N  N25  1  0.900828  0.138149  0.368750  1
  N  N26  1  0.599172  0.138149  0.631250  1
  N  N27  1  0.099172  0.361851  0.868750  1
  N  N28  1  0.599172  0.638149  0.868750  1
  N  N29  1  0.099172  0.861851  0.631250  1
  N  N30  1  0.400828  0.861851  0.368750  1
  N  N31  1  0.900828  0.638149  0.131250  1
