# generated using pymatgen
data_ErSc2Fe9
_symmetry_space_group_name_H-M   'P 1'
_cell_length_a   8.43603609
_cell_length_b   8.43603573
_cell_length_c   8.43603562
_cell_angle_alpha   34.37057415
_cell_angle_beta   34.37058028
_cell_angle_gamma   34.37056664
_symmetry_Int_Tables_number   1
_chemical_formula_structural   ErSc2Fe9
_chemical_formula_sum   'Er1 Sc2 Fe9'
_cell_volume   170.66313487
_cell_formula_units_Z   1
loop_
 _symmetry_equiv_pos_site_id
 _symmetry_equiv_pos_as_xyz
  1  'x, y, z'
loop_
 _atom_site_type_symbol
 _atom_site_label
 _atom_site_symmetry_multiplicity
 _atom_site_fract_x
 _atom_site_fract_y
 _atom_site_fract_z
 _atom_site_occupancy
  Er  Er0  1  0.000000  0.000000  0.000000  1
  Sc  Sc1  1  0.143185  0.143185  0.143185  1
  Sc  Sc2  1  0.856815  0.856815  0.856815  1
  Fe  Fe3  1  0.414879  0.414879  0.917500  1
  Fe  Fe4  1  0.917500  0.414879  0.414879  1
  Fe  Fe5  1  0.585121  0.082500  0.585121  1
  Fe  Fe6  1  0.585121  0.585121  0.082500  1
  Fe  Fe7  1  0.414879  0.917500  0.414879  1
  Fe  Fe8  1  0.082500  0.585121  0.585121  1
  Fe  Fe9  1  0.332813  0.332813  0.332813  1
  Fe  Fe10  1  0.667187  0.667187  0.667187  1
  Fe  Fe11  1  0.500000  0.500000  0.500000  1
