# generated using pymatgen
data_Ho3Tm17(Ir2Os)4
_symmetry_space_group_name_H-M   'P 1'
_cell_length_a   10.72407509
_cell_length_b   10.72004100
_cell_length_c   6.33904205
_cell_angle_alpha   89.99869711
_cell_angle_beta   90.01442915
_cell_angle_gamma   90.00094592
_symmetry_Int_Tables_number   1
_chemical_formula_structural   Ho3Tm17(Ir2Os)4
_chemical_formula_sum   'Ho3 Tm17 Ir8 Os4'
_cell_volume   728.75225438
_cell_formula_units_Z   1
loop_
 _symmetry_equiv_pos_site_id
 _symmetry_equiv_pos_as_xyz
  1  'x, y, z'
loop_
 _atom_site_type_symbol
 _atom_site_label
 _atom_site_symmetry_multiplicity
 _atom_site_fract_x
 _atom_site_fract_y
 _atom_site_fract_z
 _atom_site_occupancy
  Ho  Ho0  1  0.293098  0.086538  0.375752  1
  Ho  Ho1  1  0.293063  0.913455  0.875687  1
  Ho  Ho2  1  0.707002  0.086319  0.875719  1
  Tm  Tm3  1  0.706373  0.913645  0.376308  1
  Tm  Tm4  1  0.586345  0.793226  0.876362  1
  Tm  Tm5  1  0.586302  0.206577  0.376369  1
  Tm  Tm6  1  0.414226  0.793237  0.376329  1
  Tm  Tm7  1  0.413901  0.206848  0.876326  1
  Tm  Tm8  1  0.206167  0.414037  0.623801  1
  Tm  Tm9  1  0.206162  0.585987  0.123782  1
  Tm  Tm10  1  0.793819  0.414027  0.123759  1
  Tm  Tm11  1  0.793812  0.586070  0.623718  1
  Tm  Tm12  1  0.913928  0.706202  0.123681  1
  Tm  Tm13  1  0.914140  0.293993  0.623442  1
  Tm  Tm14  1  0.085807  0.706000  0.623504  1
  Tm  Tm15  1  0.085830  0.293970  0.123472  1
  Tm  Tm16  1  0.999655  0.999838  0.500074  1
  Tm  Tm17  1  0.999929  0.999977  0.000256  1
  Tm  Tm18  1  0.500031  0.500034  0.000152  1
  Tm  Tm19  1  0.500060  0.500027  0.500015  1
  Ir  Ir20  1  0.847927  0.152571  0.251148  1
  Ir  Ir21  1  0.847848  0.847196  0.749735  1
  Ir  Ir22  1  0.151779  0.153012  0.750875  1
  Ir  Ir23  1  0.151781  0.846978  0.250878  1
  Ir  Ir24  1  0.652233  0.348224  0.749658  1
  Ir  Ir25  1  0.652316  0.652396  0.250038  1
  Ir  Ir26  1  0.347753  0.348270  0.249688  1
  Ir  Ir27  1  0.347772  0.651773  0.749673  1
  Os  Os28  1  0.500422  0.999799  0.123532  1
  Os  Os29  1  0.500519  0.999784  0.622361  1
  Os  Os30  1  0.000000  0.499975  0.876961  1
  Os  Os31  1  0.999998  0.500016  0.376943  1
