# generated using pymatgen
data_La5Y(ScAu5)2
_symmetry_space_group_name_H-M   'P 1'
_cell_length_a   8.16904171
_cell_length_b   8.25802504
_cell_length_c   8.14806044
_cell_angle_alpha   65.77690985
_cell_angle_beta   66.41064214
_cell_angle_gamma   65.97481649
_symmetry_Int_Tables_number   1
_chemical_formula_structural   La5Y(ScAu5)2
_chemical_formula_sum   'La5 Y1 Sc2 Au10'
_cell_volume   439.54747702
_cell_formula_units_Z   1
loop_
 _symmetry_equiv_pos_site_id
 _symmetry_equiv_pos_as_xyz
  1  'x, y, z'
loop_
 _atom_site_type_symbol
 _atom_site_label
 _atom_site_symmetry_multiplicity
 _atom_site_fract_x
 _atom_site_fract_y
 _atom_site_fract_z
 _atom_site_occupancy
  La  La0  1  0.890973  0.184052  0.621113  1
  La  La1  1  0.623502  0.892711  0.185334  1
  La  La2  1  0.184478  0.623787  0.893569  1
  La  La3  1  0.109090  0.811869  0.376414  1
  La  La4  1  0.377175  0.105272  0.814563  1
  Y  Y5  1  0.811578  0.376983  0.108835  1
  Sc  Sc6  1  0.658072  0.652869  0.658972  1
  Sc  Sc7  1  0.343898  0.345078  0.340557  1
  Au  Au8  1  0.993148  0.012926  0.003508  1
  Au  Au9  1  0.507173  0.496755  0.494899  1
  Au  Au10  1  0.799563  0.795621  0.804040  1
  Au  Au11  1  0.191501  0.205942  0.196275  1
  Au  Au12  1  0.936403  0.543331  0.326586  1
  Au  Au13  1  0.330600  0.939837  0.546120  1
  Au  Au14  1  0.551271  0.328175  0.942421  1
  Au  Au15  1  0.056946  0.451186  0.677599  1
  Au  Au16  1  0.674821  0.067835  0.445893  1
  Au  Au17  1  0.459807  0.665768  0.063303  1
