# generated using pymatgen
data_CaTb9(IrPb3)2
_symmetry_space_group_name_H-M   'P 1'
_cell_length_a   9.27991900
_cell_length_b   9.27991910
_cell_length_c   6.89633900
_cell_angle_alpha   90.00000000
_cell_angle_beta   90.00000000
_cell_angle_gamma   119.99999609
_symmetry_Int_Tables_number   1
_chemical_formula_structural   CaTb9(IrPb3)2
_chemical_formula_sum   'Ca1 Tb9 Ir2 Pb6'
_cell_volume   514.32498972
_cell_formula_units_Z   1
loop_
 _symmetry_equiv_pos_site_id
 _symmetry_equiv_pos_as_xyz
  1  'x, y, z'
loop_
 _atom_site_type_symbol
 _atom_site_label
 _atom_site_symmetry_multiplicity
 _atom_site_fract_x
 _atom_site_fract_y
 _atom_site_fract_z
 _atom_site_occupancy
  Ca  Ca0  1  0.333333  0.666667  0.500000  1
  Tb  Tb1  1  0.234870  0.234920  0.750222  1
  Tb  Tb2  1  0.000050  0.765130  0.750222  1
  Tb  Tb3  1  0.234870  0.999950  0.249778  1
  Tb  Tb4  1  0.765080  0.999950  0.750222  1
  Tb  Tb5  1  0.666667  0.333333  0.500000  1
  Tb  Tb6  1  0.765080  0.765130  0.249778  1
  Tb  Tb7  1  0.000050  0.234920  0.249778  1
  Tb  Tb8  1  0.333333  0.666667  0.000000  1
  Tb  Tb9  1  0.666667  0.333333  0.000000  1
  Ir  Ir10  1  0.000000  0.000000  0.000000  1
  Ir  Ir11  1  0.000000  0.000000  0.500000  1
  Pb  Pb12  1  0.595026  0.001000  0.247606  1
  Pb  Pb13  1  0.999000  0.594026  0.247606  1
  Pb  Pb14  1  0.595026  0.594026  0.752394  1
  Pb  Pb15  1  0.405974  0.404974  0.247606  1
  Pb  Pb16  1  0.999000  0.404974  0.752394  1
  Pb  Pb17  1  0.405974  0.001000  0.752394  1
