# generated using pymatgen
data_Ce4AlZn3IrRu3
_symmetry_space_group_name_H-M   'P 1'
_cell_length_a   3.92046300
_cell_length_b   7.38417496
_cell_length_c   16.07155157
_cell_angle_alpha   90.27767262
_cell_angle_beta   90.00000000
_cell_angle_gamma   90.00000000
_symmetry_Int_Tables_number   1
_chemical_formula_structural   Ce4AlZn3IrRu3
_chemical_formula_sum   'Ce8 Al2 Zn6 Ir2 Ru6'
_cell_volume   465.25606583
_cell_formula_units_Z   2
loop_
 _symmetry_equiv_pos_site_id
 _symmetry_equiv_pos_as_xyz
  1  'x, y, z'
loop_
 _atom_site_type_symbol
 _atom_site_label
 _atom_site_symmetry_multiplicity
 _atom_site_fract_x
 _atom_site_fract_y
 _atom_site_fract_z
 _atom_site_occupancy
  Ce  Ce0  1  0.750000  0.946962  0.218378  1
  Ce  Ce1  1  0.250000  0.173474  0.562769  1
  Ce  Ce2  1  0.750000  0.823277  0.441907  1
  Ce  Ce3  1  0.750000  0.450866  0.279064  1
  Ce  Ce4  1  0.750000  0.321653  0.058469  1
  Ce  Ce5  1  0.250000  0.670999  0.942984  1
  Ce  Ce6  1  0.250000  0.052885  0.784285  1
  Ce  Ce7  1  0.250000  0.550905  0.715693  1
  Al  Al8  1  0.250000  0.622291  0.149826  1
  Al  Al9  1  0.250000  0.121903  0.349975  1
  Zn  Zn10  1  0.750000  0.500036  0.559910  1
  Zn  Zn11  1  0.750000  0.380355  0.848621  1
  Zn  Zn12  1  0.750000  0.999517  0.939809  1
  Zn  Zn13  1  0.750000  0.877828  0.651361  1
  Zn  Zn14  1  0.250000  0.495540  0.437410  1
  Zn  Zn15  1  0.250000  0.998634  0.062431  1
  Ir  Ir16  1  0.750000  0.752715  0.813788  1
  Ir  Ir17  1  0.750000  0.244366  0.433391  1
  Ru  Ru18  1  0.250000  0.249564  0.940461  1
  Ru  Ru19  1  0.250000  0.761662  0.312818  1
  Ru  Ru20  1  0.750000  0.746291  0.065969  1
  Ru  Ru21  1  0.750000  0.248632  0.682781  1
  Ru  Ru22  1  0.250000  0.261626  0.189372  1
  Ru  Ru23  1  0.250000  0.748019  0.558529  1
