# generated using pymatgen
data_Ca3Tb3Si24Os3Ru5
_symmetry_space_group_name_H-M   'P 1'
_cell_length_a   10.15750747
_cell_length_b   10.15795281
_cell_length_c   8.15863543
_cell_angle_alpha   89.92595715
_cell_angle_beta   90.08352763
_cell_angle_gamma   132.63824807
_symmetry_Int_Tables_number   1
_chemical_formula_structural   Ca3Tb3Si24Os3Ru5
_chemical_formula_sum   'Ca3 Tb3 Si24 Os3 Ru5'
_cell_volume   619.26808566
_cell_formula_units_Z   1
loop_
 _symmetry_equiv_pos_site_id
 _symmetry_equiv_pos_as_xyz
  1  'x, y, z'
loop_
 _atom_site_type_symbol
 _atom_site_label
 _atom_site_symmetry_multiplicity
 _atom_site_fract_x
 _atom_site_fract_y
 _atom_site_fract_z
 _atom_site_occupancy
  Ca  Ca0  1  0.500240  0.500080  0.500195  1
  Ca  Ca1  1  0.000042  0.000306  0.999810  1
  Ca  Ca2  1  0.501057  0.000878  0.750095  1
  Tb  Tb3  1  0.000099  0.500052  0.249986  1
  Tb  Tb4  1  0.499433  0.999514  0.249933  1
  Tb  Tb5  1  0.000500  0.500595  0.750123  1
  Si  Si6  1  0.795330  0.202674  0.500968  1
  Si  Si7  1  0.297554  0.705286  0.998452  1
  Si  Si8  1  0.205237  0.797533  0.501548  1
  Si  Si9  1  0.703348  0.295014  0.999211  1
  Si  Si10  1  0.333268  0.333787  0.832126  1
  Si  Si11  1  0.666450  0.668062  0.167667  1
  Si  Si12  1  0.168483  0.166408  0.332414  1
  Si  Si13  1  0.833902  0.832882  0.667768  1
  Si  Si14  1  0.121991  0.889775  0.730417  1
  Si  Si15  1  0.108845  0.877460  0.270772  1
  Si  Si16  1  0.609039  0.377543  0.228536  1
  Si  Si17  1  0.622946  0.390675  0.770373  1
  Si  Si18  1  0.876471  0.108376  0.269907  1
  Si  Si19  1  0.891567  0.123913  0.730990  1
  Si  Si20  1  0.390088  0.622298  0.769803  1
  Si  Si21  1  0.377120  0.608452  0.229032  1
  Si  Si22  1  0.346192  0.113794  0.505809  1
  Si  Si23  1  0.886566  0.654688  0.493292  1
  Si  Si24  1  0.386370  0.153886  0.006265  1
  Si  Si25  1  0.844516  0.612999  0.993322  1
  Si  Si26  1  0.653454  0.885813  0.492450  1
  Si  Si27  1  0.113498  0.344966  0.507985  1
  Si  Si28  1  0.614030  0.846746  0.994409  1
  Si  Si29  1  0.153702  0.386149  0.006689  1
  Os  Os30  1  0.672284  0.329944  0.498422  1
  Os  Os31  1  0.169055  0.827235  0.001888  1
  Os  Os32  1  0.327252  0.669081  0.498077  1
  Ru  Ru33  1  0.829798  0.172139  0.001443  1
  Ru  Ru34  1  0.126164  0.126059  0.625468  1
  Ru  Ru35  1  0.874056  0.874460  0.374793  1
  Ru  Ru36  1  0.374058  0.374048  0.125031  1
  Ru  Ru37  1  0.625992  0.626433  0.874533  1
