# generated using pymatgen
data_La16Cd4FeRu2Au
_symmetry_space_group_name_H-M   'P 1'
_cell_length_a   10.13020647
_cell_length_b   10.14609217
_cell_length_c   10.05550978
_cell_angle_alpha   59.82538460
_cell_angle_beta   59.85052224
_cell_angle_gamma   59.97985187
_symmetry_Int_Tables_number   1
_chemical_formula_structural   La16Cd4FeRu2Au
_chemical_formula_sum   'La16 Cd4 Fe1 Ru2 Au1'
_cell_volume   728.90716647
_cell_formula_units_Z   1
loop_
 _symmetry_equiv_pos_site_id
 _symmetry_equiv_pos_as_xyz
  1  'x, y, z'
loop_
 _atom_site_type_symbol
 _atom_site_label
 _atom_site_symmetry_multiplicity
 _atom_site_fract_x
 _atom_site_fract_y
 _atom_site_fract_z
 _atom_site_occupancy
  La  La0  1  0.895952  0.895331  0.912187  1
  La  La1  1  0.439211  0.438766  0.059983  1
  La  La2  1  0.059954  0.059497  0.418975  1
  La  La3  1  0.433832  0.062509  0.060917  1
  La  La4  1  0.308637  0.689070  0.312356  1
  La  La5  1  0.689610  0.688888  0.311591  1
  La  La6  1  0.688788  0.310187  0.312213  1
  La  La7  1  0.295469  0.898365  0.914424  1
  La  La8  1  0.898936  0.294185  0.915350  1
  La  La9  1  0.308133  0.688198  0.693672  1
  La  La10  1  0.907645  0.906641  0.284454  1
  La  La11  1  0.062721  0.433922  0.060100  1
  La  La12  1  0.309418  0.310549  0.692465  1
  La  La13  1  0.057757  0.457024  0.426935  1
  La  La14  1  0.457418  0.057225  0.427199  1
  La  La15  1  0.687779  0.309798  0.692411  1
  Cd  Cd16  1  0.670130  0.669869  0.989941  1
  Cd  Cd17  1  0.987923  0.670919  0.670245  1
  Cd  Cd18  1  0.671253  0.987076  0.670395  1
  Cd  Cd19  1  0.671332  0.671235  0.670670  1
  Fe  Fe20  1  0.111495  0.111926  0.111404  1
  Ru  Ru21  1  0.112352  0.667304  0.109252  1
  Ru  Ru22  1  0.666508  0.112713  0.109322  1
  Au  Au23  1  0.107748  0.108802  0.673537  1
