# generated using pymatgen
data_Ba10Sn4Bi2F
_symmetry_space_group_name_H-M   'P 1'
_cell_length_a   10.81149534
_cell_length_b   10.81151249
_cell_length_c   10.81121400
_cell_angle_alpha   129.84772903
_cell_angle_beta   129.84786008
_cell_angle_gamma   73.65230548
_symmetry_Int_Tables_number   1
_chemical_formula_structural   Ba10Sn4Bi2F
_chemical_formula_sum   'Ba10 Sn4 Bi2 F1'
_cell_volume   726.79427557
_cell_formula_units_Z   1
loop_
 _symmetry_equiv_pos_site_id
 _symmetry_equiv_pos_as_xyz
  1  'x, y, z'
loop_
 _atom_site_type_symbol
 _atom_site_label
 _atom_site_symmetry_multiplicity
 _atom_site_fract_x
 _atom_site_fract_y
 _atom_site_fract_z
 _atom_site_occupancy
  Ba  Ba0  1  0.764750  0.437373  0.999999  1
  Ba  Ba1  1  0.437377  0.764748  0.000002  1
  Ba  Ba2  1  0.941073  0.941073  0.660536  1
  Ba  Ba3  1  0.280536  0.280536  0.339466  1
  Ba  Ba4  1  0.719449  0.058930  0.000004  1
  Ba  Ba5  1  0.058933  0.719453  0.000011  1
  Ba  Ba6  1  0.562632  0.562631  0.327373  1
  Ba  Ba7  1  0.235254  0.235256  0.672621  1
  Ba  Ba8  1  0.250004  0.750006  0.500000  1
  Ba  Ba9  1  0.750007  0.250008  0.500001  1
  Sn  Sn10  1  0.131684  0.369818  0.000001  1
  Sn  Sn11  1  0.369818  0.131684  0.000001  1
  Sn  Sn12  1  0.868344  0.868344  0.238186  1
  Sn  Sn13  1  0.630159  0.630158  0.761814  1
  Bi  Bi14  1  0.999987  0.499983  0.499997  1
  Bi  Bi15  1  0.499983  0.999988  0.499999  1
  F  F16  1  0.500011  0.500011  0.999994  1
