# generated using pymatgen
data_Zn22FeCoNi
_symmetry_space_group_name_H-M   'P 1'
_cell_length_a   7.69358618
_cell_length_b   7.69358556
_cell_length_c   7.69571900
_cell_angle_alpha   71.81132106
_cell_angle_beta   71.81131948
_cell_angle_gamma   57.78869888
_symmetry_Int_Tables_number   1
_chemical_formula_structural   Zn22FeCoNi
_chemical_formula_sum   'Zn22 Fe1 Co1 Ni1'
_cell_volume   360.08169918
_cell_formula_units_Z   1
loop_
 _symmetry_equiv_pos_site_id
 _symmetry_equiv_pos_as_xyz
  1  'x, y, z'
loop_
 _atom_site_type_symbol
 _atom_site_label
 _atom_site_symmetry_multiplicity
 _atom_site_fract_x
 _atom_site_fract_y
 _atom_site_fract_z
 _atom_site_occupancy
  Zn  Zn0  1  0.344660  0.742144  0.310580  1
  Zn  Zn1  1  0.656417  0.257709  0.688550  1
  Zn  Zn2  1  0.257709  0.656417  0.688550  1
  Zn  Zn3  1  0.742144  0.344660  0.310580  1
  Zn  Zn4  1  0.676441  0.324308  0.000460  1
  Zn  Zn5  1  0.324308  0.676441  0.000460  1
  Zn  Zn6  1  0.829867  0.829867  0.784352  1
  Zn  Zn7  1  0.169450  0.169450  0.216246  1
  Zn  Zn8  1  0.977567  0.977567  0.176269  1
  Zn  Zn9  1  0.022271  0.022271  0.824191  1
  Zn  Zn10  1  0.351543  0.351543  0.272686  1
  Zn  Zn11  1  0.648735  0.648735  0.727602  1
  Zn  Zn12  1  0.685931  0.685931  0.374730  1
  Zn  Zn13  1  0.313713  0.313713  0.624728  1
  Zn  Zn14  1  0.661887  0.024139  0.463646  1
  Zn  Zn15  1  0.337671  0.976307  0.536399  1
  Zn  Zn16  1  0.976307  0.337671  0.536399  1
  Zn  Zn17  1  0.024139  0.661887  0.463646  1
  Zn  Zn18  1  0.616112  0.998695  0.098653  1
  Zn  Zn19  1  0.384502  0.000114  0.901523  1
  Zn  Zn20  1  0.000114  0.384502  0.901523  1
  Zn  Zn21  1  0.998695  0.616112  0.098653  1
  Fe  Fe22  1  0.000147  0.000147  0.499771  1
  Co  Co23  1  0.657158  0.657158  0.055382  1
  Ni  Ni24  1  0.342510  0.342510  0.944420  1
