# generated using pymatgen
data_Yb15Er(LuPt4)4
_symmetry_space_group_name_H-M   'P 1'
_cell_length_a   7.45438755
_cell_length_b   7.53077955
_cell_length_c   14.48012519
_cell_angle_alpha   90.04036778
_cell_angle_beta   90.01521261
_cell_angle_gamma   89.99718632
_symmetry_Int_Tables_number   1
_chemical_formula_structural   Yb15Er(LuPt4)4
_chemical_formula_sum   'Yb15 Er1 Lu4 Pt16'
_cell_volume   812.87561428
_cell_formula_units_Z   1
loop_
 _symmetry_equiv_pos_site_id
 _symmetry_equiv_pos_as_xyz
  1  'x, y, z'
loop_
 _atom_site_type_symbol
 _atom_site_label
 _atom_site_symmetry_multiplicity
 _atom_site_fract_x
 _atom_site_fract_y
 _atom_site_fract_z
 _atom_site_occupancy
  Yb  Yb0  1  0.851299  0.665854  0.122051  1
  Yb  Yb1  1  0.647669  0.166164  0.878206  1
  Yb  Yb2  1  0.147676  0.333699  0.621167  1
  Yb  Yb3  1  0.490891  0.675335  0.594837  1
  Yb  Yb4  1  0.990797  0.823304  0.905745  1
  Yb  Yb5  1  0.509376  0.322286  0.093633  1
  Yb  Yb6  1  0.007616  0.177956  0.405718  1
  Yb  Yb7  1  0.508915  0.322839  0.404935  1
  Yb  Yb8  1  0.007546  0.179968  0.093924  1
  Yb  Yb9  1  0.490953  0.678885  0.904899  1
  Yb  Yb10  1  0.991352  0.820312  0.595626  1
  Yb  Yb11  1  0.809163  0.506122  0.750224  1
  Yb  Yb12  1  0.308202  0.992514  0.750161  1
  Yb  Yb13  1  0.189436  0.490194  0.249115  1
  Yb  Yb14  1  0.694726  0.008245  0.249452  1
  Er  Er15  1  0.648567  0.162245  0.622941  1
  Lu  Lu16  1  0.149024  0.335998  0.876127  1
  Lu  Lu17  1  0.352217  0.835817  0.124113  1
  Lu  Lu18  1  0.852472  0.664712  0.376897  1
  Lu  Lu19  1  0.352287  0.834093  0.376748  1
  Pt  Pt20  1  0.683383  0.956981  0.458860  1
  Pt  Pt21  1  0.190093  0.540919  0.038968  1
  Pt  Pt22  1  0.309428  0.041187  0.961541  1
  Pt  Pt23  1  0.812313  0.457988  0.538184  1
  Pt  Pt24  1  0.324307  0.030751  0.540178  1
  Pt  Pt25  1  0.828955  0.465782  0.956686  1
  Pt  Pt26  1  0.671692  0.965679  0.043988  1
  Pt  Pt27  1  0.177085  0.544744  0.456369  1
  Pt  Pt28  1  0.442731  0.377833  0.747419  1
  Pt  Pt29  1  0.943429  0.120603  0.751608  1
  Pt  Pt30  1  0.553338  0.624917  0.252612  1
  Pt  Pt31  1  0.060889  0.877256  0.253958  1
  Pt  Pt32  1  0.679840  0.863597  0.746443  1
  Pt  Pt33  1  0.180154  0.635105  0.753912  1
  Pt  Pt34  1  0.325202  0.132827  0.249418  1
  Pt  Pt35  1  0.816975  0.367292  0.253333  1
