# generated using pymatgen
data_Cu4AgO5
_symmetry_space_group_name_H-M   'P 1'
_cell_length_a   2.92222100
_cell_length_b   6.02549678
_cell_length_c   13.84905211
_cell_angle_alpha   79.96273765
_cell_angle_beta   90.00000000
_cell_angle_gamma   90.00000000
_symmetry_Int_Tables_number   1
_chemical_formula_structural   Cu4AgO5
_chemical_formula_sum   'Cu8 Ag2 O10'
_cell_volume   240.11955368
_cell_formula_units_Z   2
loop_
 _symmetry_equiv_pos_site_id
 _symmetry_equiv_pos_as_xyz
  1  'x, y, z'
loop_
 _atom_site_type_symbol
 _atom_site_label
 _atom_site_symmetry_multiplicity
 _atom_site_fract_x
 _atom_site_fract_y
 _atom_site_fract_z
 _atom_site_occupancy
  Cu  Cu0  1  0.500000  0.703657  0.703156  1
  Cu  Cu1  1  0.500000  0.092327  0.088964  1
  Cu  Cu2  1  0.500000  0.296343  0.296844  1
  Cu  Cu3  1  0.500000  0.907673  0.911036  1
  Cu  Cu4  1  0.500000  0.500000  0.500000  1
  Cu  Cu5  1  0.000000  0.000000  0.500000  1
  Cu  Cu6  1  0.000000  0.592491  0.093796  1
  Cu  Cu7  1  0.000000  0.407509  0.906204  1
  Ag  Ag8  1  0.000000  0.201145  0.704626  1
  Ag  Ag9  1  0.000000  0.798855  0.295374  1
  O  O10  1  0.000000  0.873784  0.637002  1
  O  O11  1  0.000000  0.126216  0.362998  1
  O  O12  1  0.000000  0.533327  0.769898  1
  O  O13  1  0.000000  0.706004  0.462465  1
  O  O14  1  0.000000  0.888263  0.128501  1
  O  O15  1  0.000000  0.111737  0.871499  1
  O  O16  1  0.000000  0.293996  0.537535  1
  O  O17  1  0.000000  0.466673  0.230102  1
  O  O18  1  0.000000  0.696323  0.951473  1
  O  O19  1  0.000000  0.303677  0.048527  1
