# generated using pymatgen
data_Lu4CuNi3Hg2
_symmetry_space_group_name_H-M   'P 1'
_cell_length_a   7.26973881
_cell_length_b   7.26973881
_cell_length_c   3.53753100
_cell_angle_alpha   90.00000000
_cell_angle_beta   90.00000000
_cell_angle_gamma   90.31695912
_symmetry_Int_Tables_number   1
_chemical_formula_structural   Lu4CuNi3Hg2
_chemical_formula_sum   'Lu4 Cu1 Ni3 Hg2'
_cell_volume   186.95247723
_cell_formula_units_Z   1
loop_
 _symmetry_equiv_pos_site_id
 _symmetry_equiv_pos_as_xyz
  1  'x, y, z'
loop_
 _atom_site_type_symbol
 _atom_site_label
 _atom_site_symmetry_multiplicity
 _atom_site_fract_x
 _atom_site_fract_y
 _atom_site_fract_z
 _atom_site_occupancy
  Lu  Lu0  1  0.687705  0.172653  0.499999  1
  Lu  Lu1  1  0.165094  0.334906  0.499999  1
  Lu  Lu2  1  0.821502  0.678498  0.499999  1
  Lu  Lu3  1  0.327347  0.812295  0.499999  1
  Cu  Cu4  1  0.380896  0.119104  0.000000  1
  Ni  Ni5  1  0.878277  0.383713  0.000000  1
  Ni  Ni6  1  0.116287  0.621723  0.000000  1
  Ni  Ni7  1  0.617153  0.882847  0.000000  1
  Hg  Hg8  1  0.005322  0.999583  0.000000  1
  Hg  Hg9  1  0.500417  0.494678  0.000000  1
