# generated using pymatgen
data_HoSn5SbRu4
_symmetry_space_group_name_H-M   'P 1'
_cell_length_a   6.95782567
_cell_length_b   6.95782598
_cell_length_c   6.95782616
_cell_angle_alpha   120.43151913
_cell_angle_beta   121.23883003
_cell_angle_gamma   88.56088481
_symmetry_Int_Tables_number   1
_chemical_formula_structural   HoSn5SbRu4
_chemical_formula_sum   'Ho1 Sn5 Sb1 Ru4'
_cell_volume   235.07798410
_cell_formula_units_Z   1
loop_
 _symmetry_equiv_pos_site_id
 _symmetry_equiv_pos_as_xyz
  1  'x, y, z'
loop_
 _atom_site_type_symbol
 _atom_site_label
 _atom_site_symmetry_multiplicity
 _atom_site_fract_x
 _atom_site_fract_y
 _atom_site_fract_z
 _atom_site_occupancy
  Ho  Ho0  1  0.000000  0.000000  0.000000  1
  Sn  Sn1  1  0.466101  0.467266  0.348603  1
  Sn  Sn2  1  0.533899  0.882502  0.001165  1
  Sn  Sn3  1  0.881337  0.532734  0.998835  1
  Sn  Sn4  1  0.118663  0.117498  0.651397  1
  Sn  Sn5  1  0.500000  0.000000  0.500000  1
  Sb  Sb6  1  0.000000  0.500000  0.500000  1
  Ru  Ru7  1  0.400175  0.403861  0.650741  1
  Ru  Ru8  1  0.753120  0.749435  0.349259  1
  Ru  Ru9  1  0.246880  0.596139  0.996314  1
  Ru  Ru10  1  0.599825  0.250565  0.003686  1
