# generated using pymatgen
data_Tb5Y3Sc12Si15Os
_symmetry_space_group_name_H-M   'P 1'
_cell_length_a   7.08794044
_cell_length_b   7.44150059
_cell_length_c   13.97093937
_cell_angle_alpha   90.01818697
_cell_angle_beta   89.98097412
_cell_angle_gamma   90.19111732
_symmetry_Int_Tables_number   1
_chemical_formula_structural   Tb5Y3Sc12Si15Os
_chemical_formula_sum   'Tb5 Y3 Sc12 Si15 Os1'
_cell_volume   736.89180408
_cell_formula_units_Z   1
loop_
 _symmetry_equiv_pos_site_id
 _symmetry_equiv_pos_as_xyz
  1  'x, y, z'
loop_
 _atom_site_type_symbol
 _atom_site_label
 _atom_site_symmetry_multiplicity
 _atom_site_fract_x
 _atom_site_fract_y
 _atom_site_fract_z
 _atom_site_occupancy
  Tb  Tb0  1  0.990594  0.827995  0.596851  1
  Tb  Tb1  1  0.511316  0.323461  0.096313  1
  Tb  Tb2  1  0.011425  0.178327  0.403782  1
  Tb  Tb3  1  0.511011  0.323514  0.403623  1
  Tb  Tb4  1  0.488229  0.675992  0.596155  1
  Y  Y5  1  0.011283  0.178280  0.096247  1
  Y  Y6  1  0.990736  0.826855  0.903467  1
  Y  Y7  1  0.488473  0.676474  0.903892  1
  Sc  Sc8  1  0.155449  0.495584  0.750034  1
  Sc  Sc9  1  0.838178  0.495726  0.250035  1
  Sc  Sc10  1  0.339248  0.005115  0.249969  1
  Sc  Sc11  1  0.668969  0.998771  0.750054  1
  Sc  Sc12  1  0.318129  0.172137  0.627448  1
  Sc  Sc13  1  0.672136  0.825562  0.373844  1
  Sc  Sc14  1  0.171524  0.678196  0.374115  1
  Sc  Sc15  1  0.671996  0.825552  0.125871  1
  Sc  Sc16  1  0.836785  0.318957  0.627421  1
  Sc  Sc17  1  0.317814  0.172065  0.872799  1
  Sc  Sc18  1  0.837091  0.318567  0.872541  1
  Sc  Sc19  1  0.171816  0.678134  0.125690  1
  Si  Si20  1  0.968702  0.884144  0.249950  1
  Si  Si21  1  0.468864  0.615591  0.249901  1
  Si  Si22  1  0.529390  0.388572  0.750137  1
  Si  Si23  1  0.286022  0.868560  0.750258  1
  Si  Si24  1  0.713328  0.128730  0.249783  1
  Si  Si25  1  0.213877  0.372050  0.249926  1
  Si  Si26  1  0.778505  0.625951  0.750136  1
  Si  Si27  1  0.158965  0.468719  0.536910  1
  Si  Si28  1  0.845261  0.536388  0.461499  1
  Si  Si29  1  0.345752  0.965555  0.459949  1
  Si  Si30  1  0.845142  0.536364  0.038576  1
  Si  Si31  1  0.654702  0.034202  0.538281  1
  Si  Si32  1  0.159145  0.468813  0.962929  1
  Si  Si33  1  0.655122  0.034051  0.961534  1
  Si  Si34  1  0.345292  0.965382  0.040113  1
  Os  Os35  1  0.029726  0.111663  0.749967  1
