# generated using pymatgen
data_Y3Zn3NiGe2
_symmetry_space_group_name_H-M   'P 1'
_cell_length_a   6.89367800
_cell_length_b   6.89367726
_cell_length_c   4.22611900
_cell_angle_alpha   90.00000000
_cell_angle_beta   90.00000000
_cell_angle_gamma   119.99999394
_symmetry_Int_Tables_number   1
_chemical_formula_structural   Y3Zn3NiGe2
_chemical_formula_sum   'Y3 Zn3 Ni1 Ge2'
_cell_volume   173.92992970
_cell_formula_units_Z   1
loop_
 _symmetry_equiv_pos_site_id
 _symmetry_equiv_pos_as_xyz
  1  'x, y, z'
loop_
 _atom_site_type_symbol
 _atom_site_label
 _atom_site_symmetry_multiplicity
 _atom_site_fract_x
 _atom_site_fract_y
 _atom_site_fract_z
 _atom_site_occupancy
  Y  Y0  1  0.000000  0.595460  0.000000  1
  Y  Y1  1  0.404540  0.404540  0.000000  1
  Y  Y2  1  0.595460  0.000000  0.000000  1
  Zn  Zn3  1  0.228969  0.000000  0.500000  1
  Zn  Zn4  1  0.771031  0.771031  0.500000  1
  Zn  Zn5  1  0.000000  0.228969  0.500000  1
  Ni  Ni6  1  0.000000  0.000000  0.000000  1
  Ge  Ge7  1  0.666667  0.333333  0.500000  1
  Ge  Ge8  1  0.333333  0.666667  0.500000  1
