# generated using pymatgen
data_LaNdSn8(IrRh)2
_symmetry_space_group_name_H-M   'P 1'
_cell_length_a   4.56095800
_cell_length_b   7.25944700
_cell_length_c   18.71609700
_cell_angle_alpha   90.00000000
_cell_angle_beta   90.00000000
_cell_angle_gamma   90.00000000
_symmetry_Int_Tables_number   1
_chemical_formula_structural   LaNdSn8(IrRh)2
_chemical_formula_sum   'La2 Nd2 Sn16 Ir4 Rh4'
_cell_volume   619.69058687
_cell_formula_units_Z   2
loop_
 _symmetry_equiv_pos_site_id
 _symmetry_equiv_pos_as_xyz
  1  'x, y, z'
loop_
 _atom_site_type_symbol
 _atom_site_label
 _atom_site_symmetry_multiplicity
 _atom_site_fract_x
 _atom_site_fract_y
 _atom_site_fract_z
 _atom_site_occupancy
  La  La0  1  0.750000  0.003021  0.141378  1
  La  La1  1  0.750000  0.496979  0.641378  1
  Nd  Nd2  1  0.250000  0.997530  0.858288  1
  Nd  Nd3  1  0.250000  0.502470  0.358288  1
  Sn  Sn4  1  0.250000  0.303878  0.182575  1
  Sn  Sn5  1  0.250000  0.196122  0.682575  1
  Sn  Sn6  1  0.750000  0.697362  0.817754  1
  Sn  Sn7  1  0.750000  0.802638  0.317754  1
  Sn  Sn8  1  0.250000  0.721732  0.195203  1
  Sn  Sn9  1  0.250000  0.778268  0.695203  1
  Sn  Sn10  1  0.750000  0.276481  0.806068  1
  Sn  Sn11  1  0.750000  0.223519  0.306068  1
  Sn  Sn12  1  0.250000  0.864585  0.031417  1
  Sn  Sn13  1  0.250000  0.635415  0.531417  1
  Sn  Sn14  1  0.750000  0.135271  0.966867  1
  Sn  Sn15  1  0.750000  0.364729  0.466867  1
  Sn  Sn16  1  0.250000  0.520202  0.932053  1
  Sn  Sn17  1  0.250000  0.979798  0.432053  1
  Sn  Sn18  1  0.750000  0.480305  0.068179  1
  Sn  Sn19  1  0.750000  0.019695  0.568179  1
  Ir  Ir20  1  0.250000  0.250423  0.034184  1
  Ir  Ir21  1  0.250000  0.249577  0.534184  1
  Ir  Ir22  1  0.750000  0.749534  0.964860  1
  Ir  Ir23  1  0.750000  0.750466  0.464860  1
  Rh  Rh24  1  0.250000  0.018030  0.287317  1
  Rh  Rh25  1  0.250000  0.481970  0.787317  1
  Rh  Rh26  1  0.750000  0.982826  0.713857  1
  Rh  Rh27  1  0.750000  0.517174  0.213857  1
