# generated using pymatgen
data_GdRuBr18
_symmetry_space_group_name_H-M   'P 1'
_cell_length_a   9.33520288
_cell_length_b   9.33391959
_cell_length_c   9.26644391
_cell_angle_alpha   87.78164793
_cell_angle_beta   87.87309107
_cell_angle_gamma   88.68288738
_symmetry_Int_Tables_number   1
_chemical_formula_structural   GdRuBr18
_chemical_formula_sum   'Gd1 Ru1 Br18'
_cell_volume   806.07391972
_cell_formula_units_Z   1
loop_
 _symmetry_equiv_pos_site_id
 _symmetry_equiv_pos_as_xyz
  1  'x, y, z'
loop_
 _atom_site_type_symbol
 _atom_site_label
 _atom_site_symmetry_multiplicity
 _atom_site_fract_x
 _atom_site_fract_y
 _atom_site_fract_z
 _atom_site_occupancy
  Gd  Gd0  1  0.000000  0.000000  0.000000  1
  Ru  Ru1  1  0.500000  0.500000  0.500000  1
  Br  Br2  1  0.768096  0.483196  0.505017  1
  Br  Br3  1  0.503084  0.767998  0.466462  1
  Br  Br4  1  0.479075  0.513909  0.769445  1
  Br  Br5  1  0.231904  0.516804  0.494983  1
  Br  Br6  1  0.496916  0.232002  0.533538  1
  Br  Br7  1  0.520925  0.486091  0.230555  1
  Br  Br8  1  0.883432  0.385615  0.736354  1
  Br  Br9  1  0.738111  0.884660  0.381415  1
  Br  Br10  1  0.384207  0.745459  0.881008  1
  Br  Br11  1  0.116568  0.614385  0.263646  1
  Br  Br12  1  0.261889  0.115340  0.618585  1
  Br  Br13  1  0.615793  0.254541  0.118992  1
  Br  Br14  1  0.034595  0.967802  0.695075  1
  Br  Br15  1  0.696959  0.031884  0.971749  1
  Br  Br16  1  0.969208  0.696362  0.039471  1
  Br  Br17  1  0.965405  0.032198  0.304925  1
  Br  Br18  1  0.303041  0.968116  0.028251  1
  Br  Br19  1  0.030792  0.303638  0.960529  1
