# generated using pymatgen
data_Hf5ZrAl7Cu16
_symmetry_space_group_name_H-M   'P 1'
_cell_length_a   8.43216826
_cell_length_b   8.42692903
_cell_length_c   8.42692963
_cell_angle_alpha   60.04113014
_cell_angle_beta   59.97943113
_cell_angle_gamma   59.97942965
_symmetry_Int_Tables_number   1
_chemical_formula_structural   Hf5ZrAl7Cu16
_chemical_formula_sum   'Hf5 Zr1 Al7 Cu16'
_cell_volume   423.41145586
_cell_formula_units_Z   1
loop_
 _symmetry_equiv_pos_site_id
 _symmetry_equiv_pos_as_xyz
  1  'x, y, z'
loop_
 _atom_site_type_symbol
 _atom_site_label
 _atom_site_symmetry_multiplicity
 _atom_site_fract_x
 _atom_site_fract_y
 _atom_site_fract_z
 _atom_site_occupancy
  Hf  Hf0  1  0.704286  0.703782  0.295714  1
  Hf  Hf1  1  0.296218  0.703782  0.295714  1
  Hf  Hf2  1  0.703243  0.296757  0.296757  1
  Hf  Hf3  1  0.296218  0.295714  0.703782  1
  Hf  Hf4  1  0.704286  0.295714  0.703782  1
  Zr  Zr5  1  0.296835  0.703165  0.703165  1
  Al  Al6  1  0.000117  0.999883  0.999883  1
  Al  Al7  1  0.000024  0.999976  0.499751  1
  Al  Al8  1  0.500249  0.999976  0.499751  1
  Al  Al9  1  0.000094  0.499906  0.499906  1
  Al  Al10  1  0.500249  0.499751  0.999976  1
  Al  Al11  1  0.000024  0.499751  0.999976  1
  Al  Al12  1  0.500094  0.999906  0.999906  1
  Cu  Cu13  1  0.880859  0.880970  0.357313  1
  Cu  Cu14  1  0.880859  0.357313  0.880970  1
  Cu  Cu15  1  0.357742  0.881375  0.881375  1
  Cu  Cu16  1  0.879508  0.881375  0.881375  1
  Cu  Cu17  1  0.118625  0.120492  0.642258  1
  Cu  Cu18  1  0.118625  0.642258  0.120492  1
  Cu  Cu19  1  0.642687  0.119141  0.119141  1
  Cu  Cu20  1  0.119030  0.119141  0.119141  1
  Cu  Cu21  1  0.669890  0.669790  0.990429  1
  Cu  Cu22  1  0.669890  0.990429  0.669790  1
  Cu  Cu23  1  0.989167  0.669858  0.669858  1
  Cu  Cu24  1  0.671117  0.669858  0.669858  1
  Cu  Cu25  1  0.330142  0.328883  0.010833  1
  Cu  Cu26  1  0.330142  0.010833  0.328883  1
  Cu  Cu27  1  0.009571  0.330110  0.330110  1
  Cu  Cu28  1  0.330210  0.330110  0.330110  1
