# generated using pymatgen
data_DyTe16
_symmetry_space_group_name_H-M   'P 1'
_cell_length_a   4.44158927
_cell_length_b   4.44158952
_cell_length_c   33.06035941
_cell_angle_alpha   86.14831659
_cell_angle_beta   86.14831640
_cell_angle_gamma   60.00000785
_symmetry_Int_Tables_number   1
_chemical_formula_structural   DyTe16
_chemical_formula_sum   'Dy1 Te16'
_cell_volume   563.12479497
_cell_formula_units_Z   1
loop_
 _symmetry_equiv_pos_site_id
 _symmetry_equiv_pos_as_xyz
  1  'x, y, z'
loop_
 _atom_site_type_symbol
 _atom_site_label
 _atom_site_symmetry_multiplicity
 _atom_site_fract_x
 _atom_site_fract_y
 _atom_site_fract_z
 _atom_site_occupancy
  Dy  Dy0  1  0.000000  0.000000  0.000000  1
  Te  Te1  1  0.290669  0.290669  0.127995  1
  Te  Te2  1  0.709331  0.709331  0.872005  1
  Te  Te3  1  0.233557  0.233557  0.299327  1
  Te  Te4  1  0.766443  0.766443  0.700673  1
  Te  Te5  1  0.470514  0.470514  0.588458  1
  Te  Te6  1  0.529486  0.529486  0.411542  1
  Te  Te7  1  0.350742  0.350742  0.947773  1
  Te  Te8  1  0.649258  0.649258  0.052227  1
  Te  Te9  1  0.059550  0.059550  0.821350  1
  Te  Te10  1  0.940450  0.940450  0.178650  1
  Te  Te11  1  0.411655  0.411655  0.765036  1
  Te  Te12  1  0.588345  0.588345  0.234964  1
  Te  Te13  1  0.117440  0.117440  0.647679  1
  Te  Te14  1  0.882560  0.882560  0.352321  1
  Te  Te15  1  0.175623  0.175623  0.473132  1
  Te  Te16  1  0.824377  0.824377  0.526868  1
