# generated using pymatgen
data_Lu3U(TcB6)2
_symmetry_space_group_name_H-M   'P 1'
_cell_length_a   3.63754400
_cell_length_b   9.03879921
_cell_length_c   11.39377412
_cell_angle_alpha   90.29694173
_cell_angle_beta   90.00000000
_cell_angle_gamma   90.00000000
_symmetry_Int_Tables_number   1
_chemical_formula_structural   Lu3U(TcB6)2
_chemical_formula_sum   'Lu6 U2 Tc4 B24'
_cell_volume   374.61120823
_cell_formula_units_Z   2
loop_
 _symmetry_equiv_pos_site_id
 _symmetry_equiv_pos_as_xyz
  1  'x, y, z'
loop_
 _atom_site_type_symbol
 _atom_site_label
 _atom_site_symmetry_multiplicity
 _atom_site_fract_x
 _atom_site_fract_y
 _atom_site_fract_z
 _atom_site_occupancy
  Lu  Lu0  1  0.000000  0.822891  0.085513  1
  Lu  Lu1  1  0.000000  0.177109  0.914487  1
  Lu  Lu2  1  0.000000  0.944946  0.371817  1
  Lu  Lu3  1  0.000000  0.055054  0.628183  1
  Lu  Lu4  1  0.000000  0.443700  0.126999  1
  Lu  Lu5  1  0.000000  0.556300  0.873001  1
  U  U6  1  0.000000  0.322600  0.413598  1
  U  U7  1  0.000000  0.677400  0.586402  1
  Tc  Tc8  1  0.000000  0.636930  0.323930  1
  Tc  Tc9  1  0.000000  0.363070  0.676070  1
  Tc  Tc10  1  0.000000  0.140800  0.181804  1
  Tc  Tc11  1  0.000000  0.859200  0.818196  1
  B  B12  1  0.500000  0.553299  0.433984  1
  B  B13  1  0.500000  0.446701  0.566016  1
  B  B14  1  0.500000  0.053524  0.066319  1
  B  B15  1  0.500000  0.946476  0.933681  1
  B  B16  1  0.500000  0.750332  0.419991  1
  B  B17  1  0.500000  0.249668  0.580009  1
  B  B18  1  0.500000  0.249538  0.079503  1
  B  B19  1  0.500000  0.750462  0.920497  1
  B  B20  1  0.500000  0.793027  0.264728  1
  B  B21  1  0.500000  0.206973  0.735272  1
  B  B22  1  0.500000  0.293742  0.234626  1
  B  B23  1  0.500000  0.706258  0.765374  1
  B  B24  1  0.500000  0.631251  0.184317  1
  B  B25  1  0.500000  0.368749  0.815683  1
  B  B26  1  0.500000  0.132349  0.315399  1
  B  B27  1  0.500000  0.867651  0.684601  1
  B  B28  1  0.500000  0.981502  0.211935  1
  B  B29  1  0.500000  0.018498  0.788065  1
  B  B30  1  0.500000  0.481800  0.286754  1
  B  B31  1  0.500000  0.518200  0.713246  1
  B  B32  1  0.500000  0.603123  0.028914  1
  B  B33  1  0.500000  0.396877  0.971086  1
  B  B34  1  0.500000  0.106448  0.470589  1
  B  B35  1  0.500000  0.893552  0.529411  1
