# generated using pymatgen
data_Rb4Li2YInSb4
_symmetry_space_group_name_H-M   'P 1'
_cell_length_a   11.14605144
_cell_length_b   11.14605106
_cell_length_c   7.12231700
_cell_angle_alpha   90.00000000
_cell_angle_beta   90.00000000
_cell_angle_gamma   101.22136094
_symmetry_Int_Tables_number   1
_chemical_formula_structural   Rb4Li2YInSb4
_chemical_formula_sum   'Rb8 Li4 Y2 In2 Sb8'
_cell_volume   867.92147312
_cell_formula_units_Z   2
loop_
 _symmetry_equiv_pos_site_id
 _symmetry_equiv_pos_as_xyz
  1  'x, y, z'
loop_
 _atom_site_type_symbol
 _atom_site_label
 _atom_site_symmetry_multiplicity
 _atom_site_fract_x
 _atom_site_fract_y
 _atom_site_fract_z
 _atom_site_occupancy
  Rb  Rb0  1  0.571256  0.928744  0.750000  1
  Rb  Rb1  1  0.928744  0.571256  0.250000  1
  Rb  Rb2  1  0.422493  0.077507  0.250000  1
  Rb  Rb3  1  0.077507  0.422493  0.750000  1
  Rb  Rb4  1  0.669778  0.322857  0.774942  1
  Rb  Rb5  1  0.830222  0.177143  0.274942  1
  Rb  Rb6  1  0.322857  0.669778  0.225058  1
  Rb  Rb7  1  0.177143  0.830222  0.725058  1
  Li  Li8  1  0.618437  0.618437  0.000000  1
  Li  Li9  1  0.881563  0.881563  0.500000  1
  Li  Li10  1  0.377020  0.377020  0.000000  1
  Li  Li11  1  0.122980  0.122980  0.500000  1
  Y  Y12  1  0.874509  0.874509  0.000000  1
  Y  Y13  1  0.625491  0.625491  0.500000  1
  In  In14  1  0.130542  0.130542  0.000000  1
  In  In15  1  0.369458  0.369458  0.500000  1
  Sb  Sb16  1  0.346132  0.153868  0.750000  1
  Sb  Sb17  1  0.153868  0.346132  0.250000  1
  Sb  Sb18  1  0.652805  0.847195  0.250000  1
  Sb  Sb19  1  0.847195  0.652805  0.750000  1
  Sb  Sb20  1  0.908194  0.100722  0.761704  1
  Sb  Sb21  1  0.591806  0.399278  0.261704  1
  Sb  Sb22  1  0.100722  0.908194  0.238296  1
  Sb  Sb23  1  0.399278  0.591806  0.738296  1
