# generated using pymatgen
data_Er3Th(Sc3Pt4)2
_symmetry_space_group_name_H-M   'P 1'
_cell_length_a   7.33718398
_cell_length_b   7.38032131
_cell_length_c   13.91914507
_cell_angle_alpha   90.09056286
_cell_angle_beta   90.08407252
_cell_angle_gamma   89.99862663
_symmetry_Int_Tables_number   1
_chemical_formula_structural   Er3Th(Sc3Pt4)2
_chemical_formula_sum   'Er6 Th2 Sc12 Pt16'
_cell_volume   753.73074394
_cell_formula_units_Z   2
loop_
 _symmetry_equiv_pos_site_id
 _symmetry_equiv_pos_as_xyz
  1  'x, y, z'
loop_
 _atom_site_type_symbol
 _atom_site_label
 _atom_site_symmetry_multiplicity
 _atom_site_fract_x
 _atom_site_fract_y
 _atom_site_fract_z
 _atom_site_occupancy
  Er  Er0  1  0.494849  0.673538  0.902974  1
  Er  Er1  1  0.993937  0.824487  0.594669  1
  Er  Er2  1  0.505151  0.326462  0.097026  1
  Er  Er3  1  0.006063  0.175513  0.405331  1
  Er  Er4  1  0.508388  0.323067  0.408167  1
  Er  Er5  1  0.491612  0.676933  0.591833  1
  Th  Th6  1  0.003487  0.179208  0.097277  1
  Th  Th7  1  0.996513  0.820792  0.902723  1
  Sc  Sc8  1  0.169398  0.495385  0.746815  1
  Sc  Sc9  1  0.830602  0.504615  0.253185  1
  Sc  Sc10  1  0.334547  0.997832  0.253687  1
  Sc  Sc11  1  0.665453  0.002168  0.746313  1
  Sc  Sc12  1  0.333224  0.162877  0.622696  1
  Sc  Sc13  1  0.666776  0.837123  0.377304  1
  Sc  Sc14  1  0.165833  0.664093  0.378056  1
  Sc  Sc15  1  0.656652  0.831830  0.124926  1
  Sc  Sc16  1  0.834167  0.335907  0.621944  1
  Sc  Sc17  1  0.343348  0.168170  0.875074  1
  Sc  Sc18  1  0.830627  0.337732  0.873055  1
  Sc  Sc19  1  0.169373  0.662268  0.126945  1
  Pt  Pt20  1  0.034250  0.125474  0.749409  1
  Pt  Pt21  1  0.965750  0.874526  0.250591  1
  Pt  Pt22  1  0.467456  0.622560  0.253040  1
  Pt  Pt23  1  0.532544  0.377440  0.746960  1
  Pt  Pt24  1  0.300084  0.851867  0.748503  1
  Pt  Pt25  1  0.699916  0.148133  0.251497  1
  Pt  Pt26  1  0.202746  0.353384  0.252606  1
  Pt  Pt27  1  0.797254  0.646616  0.747394  1
  Pt  Pt28  1  0.176139  0.455812  0.542025  1
  Pt  Pt29  1  0.823861  0.544188  0.457975  1
  Pt  Pt30  1  0.323790  0.957597  0.457504  1
  Pt  Pt31  1  0.823857  0.544480  0.042348  1
  Pt  Pt32  1  0.676210  0.042403  0.542496  1
  Pt  Pt33  1  0.176143  0.455520  0.957652  1
  Pt  Pt34  1  0.679527  0.042131  0.958909  1
  Pt  Pt35  1  0.320473  0.957869  0.041091  1
