# generated using pymatgen
data_Y3Ho3Al21Si3Os8
_symmetry_space_group_name_H-M   'P 1'
_cell_length_a   8.72653500
_cell_length_b   8.72654783
_cell_length_c   9.65671901
_cell_angle_alpha   90.00310175
_cell_angle_beta   89.99638479
_cell_angle_gamma   119.99946964
_symmetry_Int_Tables_number   1
_chemical_formula_structural   Y3Ho3Al21Si3Os8
_chemical_formula_sum   'Y3 Ho3 Al21 Si3 Os8'
_cell_volume   636.86422652
_cell_formula_units_Z   1
loop_
 _symmetry_equiv_pos_site_id
 _symmetry_equiv_pos_as_xyz
  1  'x, y, z'
loop_
 _atom_site_type_symbol
 _atom_site_label
 _atom_site_symmetry_multiplicity
 _atom_site_fract_x
 _atom_site_fract_y
 _atom_site_fract_z
 _atom_site_occupancy
  Y  Y0  1  0.194888  0.389906  0.247630  1
  Y  Y1  1  0.804480  0.608961  0.752677  1
  Y  Y2  1  0.610099  0.805111  0.247629  1
  Ho  Ho3  1  0.391383  0.195629  0.752702  1
  Ho  Ho4  1  0.195071  0.804924  0.247545  1
  Ho  Ho5  1  0.804242  0.195626  0.752702  1
  Al  Al6  1  0.333272  0.666698  0.475888  1
  Al  Al7  1  0.164292  0.328549  0.574299  1
  Al  Al8  1  0.835075  0.670039  0.423641  1
  Al  Al9  1  0.671431  0.835757  0.574246  1
  Al  Al10  1  0.834937  0.669742  0.076617  1
  Al  Al11  1  0.329969  0.164945  0.423721  1
  Al  Al12  1  0.165506  0.330977  0.922734  1
  Al  Al13  1  0.164345  0.835772  0.574160  1
  Al  Al14  1  0.330271  0.165083  0.076523  1
  Al  Al15  1  0.835024  0.165008  0.423775  1
  Al  Al16  1  0.668997  0.834548  0.922792  1
  Al  Al17  1  0.834866  0.165162  0.076463  1
  Al  Al18  1  0.165575  0.834560  0.922884  1
  Al  Al19  1  0.563407  0.127012  0.248908  1
  Al  Al20  1  0.436894  0.873773  0.748822  1
  Al  Al21  1  0.872990  0.436602  0.248908  1
  Al  Al22  1  0.126381  0.563086  0.748819  1
  Al  Al23  1  0.563587  0.436429  0.248916  1
  Al  Al24  1  0.436716  0.563092  0.748817  1
  Al  Al25  1  0.000131  0.999877  0.248756  1
  Al  Al26  1  0.000122  0.000233  0.749385  1
  Si  Si27  1  0.333219  0.666767  0.039569  1
  Si  Si28  1  0.666557  0.333128  0.961632  1
  Si  Si29  1  0.666566  0.333160  0.539649  1
  Os  Os30  1  0.499932  0.000034  0.998778  1
  Os  Os31  1  0.000041  0.500005  0.998912  1
  Os  Os32  1  0.504259  0.008673  0.501671  1
  Os  Os33  1  0.499906  0.499901  0.998803  1
  Os  Os34  1  0.991403  0.495682  0.501540  1
  Os  Os35  1  0.504228  0.495567  0.501656  1
  Os  Os36  1  0.999970  0.999994  0.998776  1
  Os  Os37  1  0.999968  0.999989  0.499055  1
