# generated using pymatgen
data_La23Al4Ir7
_symmetry_space_group_name_H-M   'P 1'
_cell_length_a   10.23051800
_cell_length_b   10.23051895
_cell_length_c   23.12602400
_cell_angle_alpha   90.00000000
_cell_angle_beta   90.00000000
_cell_angle_gamma   120.00000340
_symmetry_Int_Tables_number   1
_chemical_formula_structural   La23Al4Ir7
_chemical_formula_sum   'La46 Al8 Ir14'
_cell_volume   2096.17181291
_cell_formula_units_Z   2
loop_
 _symmetry_equiv_pos_site_id
 _symmetry_equiv_pos_as_xyz
  1  'x, y, z'
loop_
 _atom_site_type_symbol
 _atom_site_label
 _atom_site_symmetry_multiplicity
 _atom_site_fract_x
 _atom_site_fract_y
 _atom_site_fract_z
 _atom_site_occupancy
  La  La0  1  0.203821  0.407642  0.721196  1
  La  La1  1  0.203821  0.796179  0.721196  1
  La  La2  1  0.796179  0.592358  0.221196  1
  La  La3  1  0.592358  0.796179  0.721196  1
  La  La4  1  0.796179  0.203821  0.221196  1
  La  La5  1  0.407642  0.203821  0.221196  1
  La  La6  1  0.795538  0.591078  0.945485  1
  La  La7  1  0.795538  0.204462  0.945485  1
  La  La8  1  0.204462  0.408922  0.445485  1
  La  La9  1  0.408922  0.204462  0.945485  1
  La  La10  1  0.204462  0.795538  0.445485  1
  La  La11  1  0.591078  0.795538  0.445485  1
  La  La12  1  0.206796  0.413592  0.987398  1
  La  La13  1  0.206796  0.793204  0.987398  1
  La  La14  1  0.793204  0.586408  0.487398  1
  La  La15  1  0.586408  0.793204  0.987398  1
  La  La16  1  0.793204  0.206796  0.487398  1
  La  La17  1  0.413592  0.206796  0.487398  1
  La  La18  1  0.873279  0.746560  0.634541  1
  La  La19  1  0.873279  0.126721  0.634541  1
  La  La20  1  0.126721  0.253440  0.134541  1
  La  La21  1  0.253440  0.126721  0.634541  1
  La  La22  1  0.126721  0.873279  0.134541  1
  La  La23  1  0.746560  0.873279  0.134541  1
  La  La24  1  0.460736  0.921473  0.855676  1
  La  La25  1  0.460736  0.539264  0.855676  1
  La  La26  1  0.539264  0.078527  0.355676  1
  La  La27  1  0.078527  0.539264  0.855676  1
  La  La28  1  0.539264  0.460736  0.355676  1
  La  La29  1  0.921473  0.460736  0.355676  1
  La  La30  1  0.000000  0.000000  0.996883  1
  La  La31  1  0.000000  0.000000  0.496883  1
  La  La32  1  0.459584  0.919169  0.585889  1
  La  La33  1  0.459584  0.540416  0.585889  1
  La  La34  1  0.540416  0.080831  0.085889  1
  La  La35  1  0.080831  0.540416  0.585889  1
  La  La36  1  0.540416  0.459584  0.085889  1
  La  La37  1  0.919169  0.459584  0.085889  1
  La  La38  1  0.798804  0.597608  0.783008  1
  La  La39  1  0.798804  0.201196  0.783008  1
  La  La40  1  0.201196  0.402392  0.283008  1
  La  La41  1  0.402392  0.201196  0.783008  1
  La  La42  1  0.201196  0.798804  0.283008  1
  La  La43  1  0.597608  0.798804  0.283008  1
  La  La44  1  0.666667  0.333333  0.650254  1
  La  La45  1  0.333333  0.666667  0.150254  1
  Al  Al46  1  0.000000  0.000000  0.756417  1
  Al  Al47  1  0.000000  0.000000  0.256417  1
  Al  Al48  1  0.098282  0.196564  0.860578  1
  Al  Al49  1  0.098282  0.901718  0.860578  1
  Al  Al50  1  0.901718  0.803436  0.360578  1
  Al  Al51  1  0.803436  0.901718  0.860578  1
  Al  Al52  1  0.901718  0.098282  0.360578  1
  Al  Al53  1  0.196564  0.098282  0.360578  1
  Ir  Ir54  1  0.519182  0.038365  0.712577  1
  Ir  Ir55  1  0.519182  0.480818  0.712577  1
  Ir  Ir56  1  0.480818  0.961635  0.212577  1
  Ir  Ir57  1  0.961635  0.480818  0.712577  1
  Ir  Ir58  1  0.480818  0.519182  0.212577  1
  Ir  Ir59  1  0.038365  0.519182  0.212577  1
  Ir  Ir60  1  0.666667  0.333333  0.866056  1
  Ir  Ir61  1  0.333333  0.666667  0.366056  1
  Ir  Ir62  1  0.143537  0.287074  0.562690  1
  Ir  Ir63  1  0.143537  0.856463  0.562690  1
  Ir  Ir64  1  0.856463  0.712926  0.062690  1
  Ir  Ir65  1  0.712926  0.856463  0.562690  1
  Ir  Ir66  1  0.856463  0.143537  0.062690  1
  Ir  Ir67  1  0.287074  0.143537  0.062690  1
