# generated using pymatgen
data_Hf2Ga2NiIr
_symmetry_space_group_name_H-M   'P 1'
_cell_length_a   7.14557800
_cell_length_b   7.14557620
_cell_length_c   6.69560500
_cell_angle_alpha   90.00000000
_cell_angle_beta   90.00000000
_cell_angle_gamma   120.00000831
_symmetry_Int_Tables_number   1
_chemical_formula_structural   Hf2Ga2NiIr
_chemical_formula_sum   'Hf6 Ga6 Ni3 Ir3'
_cell_volume   296.07043364
_cell_formula_units_Z   3
loop_
 _symmetry_equiv_pos_site_id
 _symmetry_equiv_pos_as_xyz
  1  'x, y, z'
loop_
 _atom_site_type_symbol
 _atom_site_label
 _atom_site_symmetry_multiplicity
 _atom_site_fract_x
 _atom_site_fract_y
 _atom_site_fract_z
 _atom_site_occupancy
  Hf  Hf0  1  0.398744  0.393075  0.249748  1
  Hf  Hf1  1  0.602549  0.995766  0.750312  1
  Hf  Hf2  1  0.393217  0.397451  0.750312  1
  Hf  Hf3  1  0.004234  0.606783  0.750312  1
  Hf  Hf4  1  0.994330  0.601256  0.249748  1
  Hf  Hf5  1  0.606925  0.005670  0.249748  1
  Ga  Ga6  1  0.256772  0.000094  0.000116  1
  Ga  Ga7  1  0.259776  0.991963  0.500008  1
  Ga  Ga8  1  0.008037  0.267812  0.500008  1
  Ga  Ga9  1  0.999906  0.256678  0.000116  1
  Ga  Ga10  1  0.743322  0.743228  0.000116  1
  Ga  Ga11  1  0.732188  0.740224  0.500008  1
  Ni  Ni12  1  0.000000  0.000000  0.743981  1
  Ni  Ni13  1  0.333333  0.666667  0.492639  1
  Ni  Ni14  1  0.000000  0.000000  0.256440  1
  Ir  Ir15  1  0.666667  0.333333  0.507079  1
  Ir  Ir16  1  0.666667  0.333333  0.993382  1
  Ir  Ir17  1  0.333333  0.666667  0.005927  1
