# generated using pymatgen
data_Zr4Sn2Ir7Rh3
_symmetry_space_group_name_H-M   'P 1'
_cell_length_a   5.69649750
_cell_length_b   5.69648424
_cell_length_c   8.23862400
_cell_angle_alpha   90.00015271
_cell_angle_beta   90.00019845
_cell_angle_gamma   95.96612178
_symmetry_Int_Tables_number   1
_chemical_formula_structural   Zr4Sn2Ir7Rh3
_chemical_formula_sum   'Zr4 Sn2 Ir7 Rh3'
_cell_volume   265.89535862
_cell_formula_units_Z   1
loop_
 _symmetry_equiv_pos_site_id
 _symmetry_equiv_pos_as_xyz
  1  'x, y, z'
loop_
 _atom_site_type_symbol
 _atom_site_label
 _atom_site_symmetry_multiplicity
 _atom_site_fract_x
 _atom_site_fract_y
 _atom_site_fract_z
 _atom_site_occupancy
  Zr  Zr0  1  0.779948  0.219763  0.499989  1
  Zr  Zr1  1  0.223036  0.779973  0.999977  1
  Zr  Zr2  1  0.219762  0.779948  0.499989  1
  Zr  Zr3  1  0.779974  0.223036  0.999978  1
  Sn  Sn4  1  0.499531  0.499530  0.749018  1
  Sn  Sn5  1  0.497497  0.497497  0.251038  1
  Ir  Ir6  1  0.735458  0.735460  0.000530  1
  Ir  Ir7  1  0.500198  0.000008  0.750067  1
  Ir  Ir8  1  0.500229  0.999314  0.249944  1
  Ir  Ir9  1  0.999983  0.999982  0.249663  1
  Ir  Ir10  1  0.999675  0.999676  0.750341  1
  Ir  Ir11  1  0.000006  0.500197  0.750067  1
  Ir  Ir12  1  0.999315  0.500227  0.249944  1
  Rh  Rh13  1  0.731898  0.731896  0.499474  1
  Rh  Rh14  1  0.267217  0.267218  0.999443  1
  Rh  Rh15  1  0.266273  0.266275  0.500538  1
