# generated using pymatgen
data_Ho5Er(MoO7)2
_symmetry_space_group_name_H-M   'P 1'
_cell_length_a   6.34407442
_cell_length_b   6.42217158
_cell_length_c   7.56265916
_cell_angle_alpha   106.73451226
_cell_angle_beta   89.43835671
_cell_angle_gamma   97.82144359
_symmetry_Int_Tables_number   1
_chemical_formula_structural   Ho5Er(MoO7)2
_chemical_formula_sum   'Ho5 Er1 Mo2 O14'
_cell_volume   292.18884702
_cell_formula_units_Z   1
loop_
 _symmetry_equiv_pos_site_id
 _symmetry_equiv_pos_as_xyz
  1  'x, y, z'
loop_
 _atom_site_type_symbol
 _atom_site_label
 _atom_site_symmetry_multiplicity
 _atom_site_fract_x
 _atom_site_fract_y
 _atom_site_fract_z
 _atom_site_occupancy
  Ho  Ho0  1  0.732076  0.462457  0.117786  1
  Ho  Ho1  1  0.737640  0.464907  0.605291  1
  Ho  Ho2  1  0.546204  0.995174  0.753750  1
  Ho  Ho3  1  0.453499  0.004775  0.246362  1
  Ho  Ho4  1  0.262327  0.535505  0.395713  1
  Er  Er5  1  0.268021  0.537750  0.882161  1
  Mo  Mo6  1  0.000274  0.999992  0.999887  1
  Mo  Mo7  1  0.000102  0.000377  0.500292  1
  O  O8  1  0.713730  0.066002  0.481134  1
  O  O9  1  0.924556  0.685902  0.962610  1
  O  O10  1  0.703435  0.077895  0.049277  1
  O  O11  1  0.928069  0.658706  0.388670  1
  O  O12  1  0.897615  0.931304  0.732564  1
  O  O13  1  0.558471  0.353334  0.833165  1
  O  O14  1  0.542827  0.360627  0.344466  1
  O  O15  1  0.456669  0.639536  0.656531  1
  O  O16  1  0.439429  0.646328  0.166280  1
  O  O17  1  0.102207  0.069438  0.267422  1
  O  O18  1  0.072461  0.341530  0.612204  1
  O  O19  1  0.297043  0.921429  0.950951  1
  O  O20  1  0.076656  0.313005  0.034718  1
  O  O21  1  0.286695  0.934027  0.518763  1
