# generated using pymatgen
data_Er3Cd3SnHg2
_symmetry_space_group_name_H-M   'P 1'
_cell_length_a   7.64377400
_cell_length_b   7.64377410
_cell_length_c   4.36986500
_cell_angle_alpha   90.00000000
_cell_angle_beta   90.00000000
_cell_angle_gamma   120.00000823
_symmetry_Int_Tables_number   1
_chemical_formula_structural   Er3Cd3SnHg2
_chemical_formula_sum   'Er3 Cd3 Sn1 Hg2'
_cell_volume   221.11301044
_cell_formula_units_Z   1
loop_
 _symmetry_equiv_pos_site_id
 _symmetry_equiv_pos_as_xyz
  1  'x, y, z'
loop_
 _atom_site_type_symbol
 _atom_site_label
 _atom_site_symmetry_multiplicity
 _atom_site_fract_x
 _atom_site_fract_y
 _atom_site_fract_z
 _atom_site_occupancy
  Er  Er0  1  0.424218  0.416335  0.500000  1
  Er  Er1  1  0.583665  0.007883  0.500000  1
  Er  Er2  1  0.992117  0.575782  0.500000  1
  Cd  Cd3  1  0.751438  0.746884  0.000000  1
  Cd  Cd4  1  0.253116  0.004553  0.000000  1
  Cd  Cd5  1  0.995447  0.248562  0.000000  1
  Sn  Sn6  1  0.333333  0.666667  0.000000  1
  Hg  Hg7  1  0.666667  0.333333  0.000000  1
  Hg  Hg8  1  0.000000  0.000000  0.500000  1
