# generated using pymatgen
data_Rb7LiNbIn2As5
_symmetry_space_group_name_H-M   'P 1'
_cell_length_a   8.75355096
_cell_length_b   9.42674396
_cell_length_c   14.71101922
_cell_angle_alpha   84.88360344
_cell_angle_beta   82.38482097
_cell_angle_gamma   87.85070424
_symmetry_Int_Tables_number   1
_chemical_formula_structural   Rb7LiNbIn2As5
_chemical_formula_sum   'Rb14 Li2 Nb2 In4 As10'
_cell_volume   1198.01033864
_cell_formula_units_Z   2
loop_
 _symmetry_equiv_pos_site_id
 _symmetry_equiv_pos_as_xyz
  1  'x, y, z'
loop_
 _atom_site_type_symbol
 _atom_site_label
 _atom_site_symmetry_multiplicity
 _atom_site_fract_x
 _atom_site_fract_y
 _atom_site_fract_z
 _atom_site_occupancy
  Rb  Rb0  1  0.240488  0.018613  0.469761  1
  Rb  Rb1  1  0.759823  0.981137  0.529708  1
  Rb  Rb2  1  0.187687  0.187015  0.868623  1
  Rb  Rb3  1  0.812147  0.813164  0.131597  1
  Rb  Rb4  1  0.737797  0.497494  0.975863  1
  Rb  Rb5  1  0.262130  0.502381  0.024212  1
  Rb  Rb6  1  0.329255  0.356687  0.600132  1
  Rb  Rb7  1  0.670635  0.643312  0.399771  1
  Rb  Rb8  1  0.692717  0.085713  0.891426  1
  Rb  Rb9  1  0.307297  0.914547  0.108701  1
  Rb  Rb10  1  0.846806  0.360935  0.644758  1
  Rb  Rb11  1  0.153255  0.639138  0.354924  1
  Rb  Rb12  1  0.733477  0.743006  0.750775  1
  Rb  Rb13  1  0.266463  0.256950  0.249480  1
  Li  Li14  1  0.305973  0.916275  0.712589  1
  Li  Li15  1  0.694296  0.083720  0.287533  1
  Nb  Nb16  1  0.360467  0.614072  0.770422  1
  Nb  Nb17  1  0.639401  0.385825  0.229600  1
  In  In18  1  0.099944  0.724996  0.622558  1
  In  In19  1  0.900033  0.275630  0.377349  1
  In  In20  1  0.056116  0.815481  0.870558  1
  In  In21  1  0.944122  0.184365  0.129562  1
  As  As22  1  0.375820  0.813839  0.875933  1
  As  As23  1  0.624263  0.185984  0.124136  1
  As  As24  1  0.424167  0.722379  0.603673  1
  As  As25  1  0.575860  0.277626  0.396370  1
  As  As26  1  0.081952  0.545274  0.790633  1
  As  As27  1  0.917808  0.454841  0.209252  1
  As  As28  1  0.519741  0.402075  0.805010  1
  As  As29  1  0.480093  0.597747  0.194968  1
  As  As30  1  0.029111  0.007689  0.699036  1
  As  As31  1  0.970860  0.992089  0.301086  1
