# generated using pymatgen
data_Ac2GaIr2
_symmetry_space_group_name_H-M   'P 1'
_cell_length_a   5.98463631
_cell_length_b   5.98463589
_cell_length_c   8.08908428
_cell_angle_alpha   101.79396792
_cell_angle_beta   101.79396392
_cell_angle_gamma   59.52531241
_symmetry_Int_Tables_number   1
_chemical_formula_structural   Ac2GaIr2
_chemical_formula_sum   'Ac4 Ga2 Ir4'
_cell_volume   242.67417844
_cell_formula_units_Z   2
loop_
 _symmetry_equiv_pos_site_id
 _symmetry_equiv_pos_as_xyz
  1  'x, y, z'
loop_
 _atom_site_type_symbol
 _atom_site_label
 _atom_site_symmetry_multiplicity
 _atom_site_fract_x
 _atom_site_fract_y
 _atom_site_fract_z
 _atom_site_occupancy
  Ac  Ac0  1  0.790138  0.504761  0.147316  1
  Ac  Ac1  1  0.495239  0.209862  0.352683  1
  Ac  Ac2  1  0.504761  0.790138  0.647316  1
  Ac  Ac3  1  0.209862  0.495239  0.852684  1
  Ga  Ga4  1  0.113845  0.886155  0.249999  1
  Ga  Ga5  1  0.886155  0.113845  0.750000  1
  Ir  Ir6  1  0.268933  0.996141  0.007867  1
  Ir  Ir7  1  0.003858  0.731067  0.492133  1
  Ir  Ir8  1  0.996141  0.268932  0.507868  1
  Ir  Ir9  1  0.731067  0.003858  0.992133  1
