# generated using pymatgen
data_HoNp3(B6Mo)2
_symmetry_space_group_name_H-M   'P 1'
_cell_length_a   3.65181600
_cell_length_b   9.29720405
_cell_length_c   11.35060007
_cell_angle_alpha   89.98757848
_cell_angle_beta   90.00000000
_cell_angle_gamma   90.00000000
_symmetry_Int_Tables_number   1
_chemical_formula_structural   HoNp3(B6Mo)2
_chemical_formula_sum   'Ho2 Np6 B24 Mo4'
_cell_volume   385.37191544
_cell_formula_units_Z   2
loop_
 _symmetry_equiv_pos_site_id
 _symmetry_equiv_pos_as_xyz
  1  'x, y, z'
loop_
 _atom_site_type_symbol
 _atom_site_label
 _atom_site_symmetry_multiplicity
 _atom_site_fract_x
 _atom_site_fract_y
 _atom_site_fract_z
 _atom_site_occupancy
  Ho  Ho0  1  0.000000  0.338255  0.407771  1
  Ho  Ho1  1  0.000000  0.661745  0.592229  1
  Np  Np2  1  0.000000  0.838422  0.092961  1
  Np  Np3  1  0.000000  0.161578  0.907039  1
  Np  Np4  1  0.000000  0.958820  0.400117  1
  Np  Np5  1  0.000000  0.041180  0.599883  1
  Np  Np6  1  0.000000  0.458791  0.099812  1
  Np  Np7  1  0.000000  0.541209  0.900188  1
  B  B8  1  0.500000  0.552051  0.431779  1
  B  B9  1  0.500000  0.447949  0.568221  1
  B  B10  1  0.500000  0.051428  0.067586  1
  B  B11  1  0.500000  0.948572  0.932414  1
  B  B12  1  0.500000  0.745414  0.423843  1
  B  B13  1  0.500000  0.254586  0.576157  1
  B  B14  1  0.500000  0.245171  0.075870  1
  B  B15  1  0.500000  0.754829  0.924130  1
  B  B16  1  0.500000  0.806825  0.273948  1
  B  B17  1  0.500000  0.193175  0.726052  1
  B  B18  1  0.500000  0.305792  0.224813  1
  B  B19  1  0.500000  0.694208  0.775187  1
  B  B20  1  0.500000  0.645789  0.186765  1
  B  B21  1  0.500000  0.354211  0.813235  1
  B  B22  1  0.500000  0.145028  0.312727  1
  B  B23  1  0.500000  0.854972  0.687273  1
  B  B24  1  0.500000  0.987638  0.221078  1
  B  B25  1  0.500000  0.012362  0.778922  1
  B  B26  1  0.500000  0.488638  0.278909  1
  B  B27  1  0.500000  0.511362  0.721091  1
  B  B28  1  0.500000  0.641596  0.039134  1
  B  B29  1  0.500000  0.358404  0.960866  1
  B  B30  1  0.500000  0.138963  0.461310  1
  B  B31  1  0.500000  0.861037  0.538690  1
  Mo  Mo32  1  0.000000  0.649509  0.316020  1
  Mo  Mo33  1  0.000000  0.350491  0.683980  1
  Mo  Mo34  1  0.000000  0.145068  0.178927  1
  Mo  Mo35  1  0.000000  0.854932  0.821073  1
