# generated using pymatgen
data_K2TmU(CuSe3)2
_symmetry_space_group_name_H-M   'P 1'
_cell_length_a   4.10975600
_cell_length_b   8.00132513
_cell_length_c   10.68196100
_cell_angle_alpha   89.88260599
_cell_angle_beta   90.00000000
_cell_angle_gamma   75.11870247
_symmetry_Int_Tables_number   1
_chemical_formula_structural   K2TmU(CuSe3)2
_chemical_formula_sum   'K2 Tm1 U1 Cu2 Se6'
_cell_volume   339.47815654
_cell_formula_units_Z   1
loop_
 _symmetry_equiv_pos_site_id
 _symmetry_equiv_pos_as_xyz
  1  'x, y, z'
loop_
 _atom_site_type_symbol
 _atom_site_label
 _atom_site_symmetry_multiplicity
 _atom_site_fract_x
 _atom_site_fract_y
 _atom_site_fract_z
 _atom_site_occupancy
  K  K0  1  0.746292  0.507420  0.221661  1
  K  K1  1  0.253709  0.492580  0.778339  1
  Tm  Tm2  1  0.000000  0.000000  0.000000  1
  U  U3  1  0.000000  0.000000  0.500000  1
  Cu  Cu4  1  0.466291  0.067419  0.252034  1
  Cu  Cu5  1  0.533710  0.932582  0.747966  1
  Se  Se6  1  0.380221  0.239559  0.061202  1
  Se  Se7  1  0.060676  0.878647  0.257556  1
  Se  Se8  1  0.381557  0.236889  0.441775  1
  Se  Se9  1  0.618444  0.763111  0.558225  1
  Se  Se10  1  0.939325  0.121353  0.742444  1
  Se  Se11  1  0.619780  0.760441  0.938798  1
