# generated using pymatgen
data_NaTmGaPt3
_symmetry_space_group_name_H-M   'P 1'
_cell_length_a   5.55045916
_cell_length_b   5.55045899
_cell_length_c   5.17630161
_cell_angle_alpha   57.57864059
_cell_angle_beta   57.57864141
_cell_angle_gamma   59.99998774
_symmetry_Int_Tables_number   1
_chemical_formula_structural   NaTmGaPt3
_chemical_formula_sum   'Na1 Tm1 Ga1 Pt3'
_cell_volume   108.45704285
_cell_formula_units_Z   1
loop_
 _symmetry_equiv_pos_site_id
 _symmetry_equiv_pos_as_xyz
  1  'x, y, z'
loop_
 _atom_site_type_symbol
 _atom_site_label
 _atom_site_symmetry_multiplicity
 _atom_site_fract_x
 _atom_site_fract_y
 _atom_site_fract_z
 _atom_site_occupancy
  Na  Na0  1  0.749948  0.749948  0.750158  1
  Tm  Tm1  1  0.502227  0.502227  0.493318  1
  Ga  Ga2  1  0.124133  0.124133  0.627602  1
  Pt  Pt3  1  0.123872  0.123872  0.126307  1
  Pt  Pt4  1  0.625949  0.123872  0.126307  1
  Pt  Pt5  1  0.123872  0.625949  0.126307  1
