# generated using pymatgen
data_Nd12GaBI17
_symmetry_space_group_name_H-M   'P 1'
_cell_length_a   9.91373045
_cell_length_b   11.72393862
_cell_length_c   11.66880626
_cell_angle_alpha   73.22018305
_cell_angle_beta   74.95252837
_cell_angle_gamma   65.96194794
_symmetry_Int_Tables_number   1
_chemical_formula_structural   Nd12GaBI17
_chemical_formula_sum   'Nd12 Ga1 B1 I17'
_cell_volume   1170.13558324
_cell_formula_units_Z   1
loop_
 _symmetry_equiv_pos_site_id
 _symmetry_equiv_pos_as_xyz
  1  'x, y, z'
loop_
 _atom_site_type_symbol
 _atom_site_label
 _atom_site_symmetry_multiplicity
 _atom_site_fract_x
 _atom_site_fract_y
 _atom_site_fract_z
 _atom_site_occupancy
  Nd  Nd0  1  0.459153  0.489326  0.326542  1
  Nd  Nd1  1  0.551860  0.669420  0.008128  1
  Nd  Nd2  1  0.291640  0.981542  0.095882  1
  Nd  Nd3  1  0.870089  0.292253  0.856092  1
  Nd  Nd4  1  0.386176  0.237715  0.718743  1
  Nd  Nd5  1  0.710413  0.992350  0.916405  1
  Nd  Nd6  1  0.536777  0.529329  0.658959  1
  Nd  Nd7  1  0.437439  0.342787  0.011457  1
  Nd  Nd8  1  0.597608  0.759558  0.274801  1
  Nd  Nd9  1  0.821221  0.184279  0.572203  1
  Nd  Nd10  1  0.191179  0.807026  0.413064  1
  Nd  Nd11  1  0.149787  0.710923  0.147217  1
  Ga  Ga12  1  0.627867  0.262715  0.790378  1
  B  B13  1  0.369760  0.736303  0.213032  1
  I  I14  1  0.055618  0.105482  0.316887  1
  I  I15  1  0.465997  0.940218  0.825634  1
  I  I16  1  0.429927  0.835845  0.530221  1
  I  I17  1  0.566206  0.172990  0.462740  1
  I  I18  1  0.855835  0.685014  0.046224  1
  I  I19  1  0.209884  0.418282  0.262858  1
  I  I20  1  0.698135  0.363798  0.112724  1
  I  I21  1  0.528022  0.058520  0.175502  1
  I  I22  1  0.758348  0.470547  0.410243  1
  I  I23  1  0.893454  0.788921  0.367009  1
  I  I24  1  0.947110  0.891185  0.681765  1
  I  I25  1  0.151711  0.306511  0.959920  1
  I  I26  1  0.306693  0.640493  0.887024  1
  I  I27  1  0.998813  0.999751  0.000479  1
  I  I28  1  0.108524  0.210730  0.628340  1
  I  I29  1  0.781898  0.587027  0.744326  1
  I  I30  1  0.242855  0.529160  0.585200  1
