# generated using pymatgen
data_TbSmBe2(Co3B)2
_symmetry_space_group_name_H-M   'P 1'
_cell_length_a   5.05063716
_cell_length_b   5.04978013
_cell_length_c   6.40526600
_cell_angle_alpha   90.00000000
_cell_angle_beta   90.00000000
_cell_angle_gamma   119.99296417
_symmetry_Int_Tables_number   1
_chemical_formula_structural   TbSmBe2(Co3B)2
_chemical_formula_sum   'Tb1 Sm1 Be2 Co6 B2'
_cell_volume   141.48722444
_cell_formula_units_Z   1
loop_
 _symmetry_equiv_pos_site_id
 _symmetry_equiv_pos_as_xyz
  1  'x, y, z'
loop_
 _atom_site_type_symbol
 _atom_site_label
 _atom_site_symmetry_multiplicity
 _atom_site_fract_x
 _atom_site_fract_y
 _atom_site_fract_z
 _atom_site_occupancy
  Tb  Tb0  1  0.999986  0.000001  0.500000  1
  Sm  Sm1  1  0.999983  0.000000  0.000000  1
  Be  Be2  1  0.333525  0.666997  0.000000  1
  Be  Be3  1  0.666433  0.333007  0.000000  1
  Co  Co4  1  0.499985  0.000000  0.277685  1
  Co  Co5  1  0.499985  0.500000  0.277672  1
  Co  Co6  1  0.999983  0.499999  0.277626  1
  Co  Co7  1  0.499985  0.000000  0.722315  1
  Co  Co8  1  0.499985  0.500000  0.722327  1
  Co  Co9  1  0.999983  0.499999  0.722373  1
  B  B10  1  0.333309  0.666676  0.500000  1
  B  B11  1  0.666657  0.333322  0.500000  1
