# generated using pymatgen
data_Th2Si5Ir2Rh
_symmetry_space_group_name_H-M   'P 1'
_cell_length_a   8.23864231
_cell_length_b   8.23864190
_cell_length_c   8.23864239
_cell_angle_alpha   137.06773844
_cell_angle_beta   105.31993949
_cell_angle_gamma   90.20808656
_symmetry_Int_Tables_number   1
_chemical_formula_structural   Th2Si5Ir2Rh
_chemical_formula_sum   'Th4 Si10 Ir4 Rh2'
_cell_volume   350.43486654
_cell_formula_units_Z   2
loop_
 _symmetry_equiv_pos_site_id
 _symmetry_equiv_pos_as_xyz
  1  'x, y, z'
loop_
 _atom_site_type_symbol
 _atom_site_label
 _atom_site_symmetry_multiplicity
 _atom_site_fract_x
 _atom_site_fract_y
 _atom_site_fract_z
 _atom_site_occupancy
  Th  Th0  1  0.861904  0.630531  0.231373  1
  Th  Th1  1  0.138097  0.369469  0.768627  1
  Th  Th2  1  0.399158  0.130531  0.268627  1
  Th  Th3  1  0.600842  0.869469  0.731373  1
  Si  Si4  1  0.500000  0.750000  0.250000  1
  Si  Si5  1  0.500000  0.250000  0.750000  1
  Si  Si6  1  0.227523  0.977523  0.750000  1
  Si  Si7  1  0.772477  0.522477  0.750000  1
  Si  Si8  1  0.772477  0.022477  0.250000  1
  Si  Si9  1  0.227523  0.477523  0.250000  1
  Si  Si10  1  0.041468  0.892397  0.149071  1
  Si  Si11  1  0.958532  0.107603  0.850929  1
  Si  Si12  1  0.743326  0.392397  0.350929  1
  Si  Si13  1  0.256674  0.607603  0.649071  1
  Ir  Ir14  1  0.248394  0.861808  0.386584  1
  Ir  Ir15  1  0.751606  0.138192  0.613416  1
  Ir  Ir16  1  0.475225  0.361808  0.113416  1
  Ir  Ir17  1  0.524775  0.638192  0.886584  1
  Rh  Rh18  1  0.000000  0.750000  0.750000  1
  Rh  Rh19  1  0.000000  0.250000  0.250000  1
