# generated using pymatgen
data_Yb5Ho3(Si4W3)4
_symmetry_space_group_name_H-M   'P 1'
_cell_length_a   6.70876276
_cell_length_b   6.91785586
_cell_length_c   12.96514054
_cell_angle_alpha   89.92478023
_cell_angle_beta   89.96990711
_cell_angle_gamma   89.95865879
_symmetry_Int_Tables_number   1
_chemical_formula_structural   Yb5Ho3(Si4W3)4
_chemical_formula_sum   'Yb5 Ho3 Si16 W12'
_cell_volume   601.71470423
_cell_formula_units_Z   1
loop_
 _symmetry_equiv_pos_site_id
 _symmetry_equiv_pos_as_xyz
  1  'x, y, z'
loop_
 _atom_site_type_symbol
 _atom_site_label
 _atom_site_symmetry_multiplicity
 _atom_site_fract_x
 _atom_site_fract_y
 _atom_site_fract_z
 _atom_site_occupancy
  Yb  Yb0  1  0.498444  0.334469  0.090165  1
  Yb  Yb1  1  0.998380  0.167795  0.408422  1
  Yb  Yb2  1  0.500964  0.668193  0.591709  1
  Yb  Yb3  1  0.001098  0.831288  0.908131  1
  Yb  Yb4  1  0.501048  0.666880  0.909852  1
  Ho  Ho5  1  0.000195  0.829931  0.593553  1
  Ho  Ho6  1  0.499304  0.331565  0.407162  1
  Ho  Ho7  1  0.999237  0.168920  0.092484  1
  Si  Si8  1  0.662029  0.041481  0.544377  1
  Si  Si9  1  0.161602  0.458426  0.955121  1
  Si  Si10  1  0.338711  0.958130  0.045003  1
  Si  Si11  1  0.838347  0.541657  0.455184  1
  Si  Si12  1  0.337376  0.957543  0.455272  1
  Si  Si13  1  0.838505  0.543375  0.044738  1
  Si  Si14  1  0.661722  0.041171  0.954995  1
  Si  Si15  1  0.162559  0.457236  0.544387  1
  Si  Si16  1  0.534289  0.377489  0.749926  1
  Si  Si17  1  0.035221  0.122768  0.749735  1
  Si  Si18  1  0.465246  0.626018  0.248985  1
  Si  Si19  1  0.965547  0.875514  0.250428  1
  Si  Si20  1  0.797999  0.632883  0.751115  1
  Si  Si21  1  0.302295  0.865172  0.751414  1
  Si  Si22  1  0.199771  0.366452  0.249784  1
  Si  Si23  1  0.699165  0.134311  0.249919  1
  W  W24  1  0.833723  0.333899  0.625821  1
  W  W25  1  0.334294  0.167027  0.873167  1
  W  W26  1  0.165481  0.665174  0.126267  1
  W  W27  1  0.666265  0.834470  0.374370  1
  W  W28  1  0.166382  0.665310  0.373699  1
  W  W29  1  0.666944  0.836077  0.127014  1
  W  W30  1  0.835736  0.331806  0.872971  1
  W  W31  1  0.334300  0.166127  0.625952  1
  W  W32  1  0.661124  0.008982  0.749484  1
  W  W33  1  0.160172  0.490728  0.749013  1
  W  W34  1  0.338009  0.994215  0.250664  1
  W  W35  1  0.838517  0.507519  0.249718  1
