# generated using pymatgen
data_AcNb8GeSe16
_symmetry_space_group_name_H-M   'P 1'
_cell_length_a   7.02237600
_cell_length_b   7.02237736
_cell_length_c   14.71374800
_cell_angle_alpha   90.00000000
_cell_angle_beta   90.00000000
_cell_angle_gamma   120.00000303
_symmetry_Int_Tables_number   1
_chemical_formula_structural   AcNb8GeSe16
_chemical_formula_sum   'Ac1 Nb8 Ge1 Se16'
_cell_volume   628.37974038
_cell_formula_units_Z   1
loop_
 _symmetry_equiv_pos_site_id
 _symmetry_equiv_pos_as_xyz
  1  'x, y, z'
loop_
 _atom_site_type_symbol
 _atom_site_label
 _atom_site_symmetry_multiplicity
 _atom_site_fract_x
 _atom_site_fract_y
 _atom_site_fract_z
 _atom_site_occupancy
  Ac  Ac0  1  0.000000  0.000000  0.500000  1
  Nb  Nb1  1  0.000000  0.000000  0.237969  1
  Nb  Nb2  1  0.000000  0.000000  0.762031  1
  Nb  Nb3  1  0.506877  0.013755  0.236707  1
  Nb  Nb4  1  0.986245  0.493123  0.236707  1
  Nb  Nb5  1  0.506877  0.493123  0.236707  1
  Nb  Nb6  1  0.493123  0.986245  0.763293  1
  Nb  Nb7  1  0.013755  0.506877  0.763293  1
  Nb  Nb8  1  0.493123  0.506877  0.763293  1
  Ge  Ge9  1  0.000000  0.000000  0.000000  1
  Se  Se10  1  0.333333  0.666667  0.879160  1
  Se  Se11  1  0.666667  0.333333  0.120840  1
  Se  Se12  1  0.666667  0.333333  0.355194  1
  Se  Se13  1  0.333333  0.666667  0.644806  1
  Se  Se14  1  0.170330  0.829670  0.348757  1
  Se  Se15  1  0.170330  0.340658  0.348757  1
  Se  Se16  1  0.659342  0.829670  0.348757  1
  Se  Se17  1  0.829670  0.170330  0.651243  1
  Se  Se18  1  0.829670  0.659342  0.651243  1
  Se  Se19  1  0.340658  0.170330  0.651243  1
  Se  Se20  1  0.831012  0.168988  0.874354  1
  Se  Se21  1  0.831012  0.662026  0.874354  1
  Se  Se22  1  0.337974  0.168988  0.874354  1
  Se  Se23  1  0.168988  0.831012  0.125646  1
  Se  Se24  1  0.168988  0.337974  0.125646  1
  Se  Se25  1  0.662026  0.831012  0.125646  1
