# generated using pymatgen
data_Eu2Cd3InCuPd
_symmetry_space_group_name_H-M   'P 1'
_cell_length_a   5.74319926
_cell_length_b   5.74319860
_cell_length_c   8.17283664
_cell_angle_alpha   90.20840701
_cell_angle_beta   89.79159316
_cell_angle_gamma   135.20734464
_symmetry_Int_Tables_number   1
_chemical_formula_structural   Eu2Cd3InCuPd
_chemical_formula_sum   'Eu2 Cd3 In1 Cu1 Pd1'
_cell_volume   189.92617944
_cell_formula_units_Z   1
loop_
 _symmetry_equiv_pos_site_id
 _symmetry_equiv_pos_as_xyz
  1  'x, y, z'
loop_
 _atom_site_type_symbol
 _atom_site_label
 _atom_site_symmetry_multiplicity
 _atom_site_fract_x
 _atom_site_fract_y
 _atom_site_fract_z
 _atom_site_occupancy
  Eu  Eu0  1  0.064330  0.935670  0.254593  1
  Eu  Eu1  1  0.935951  0.064049  0.748403  1
  Cd  Cd2  1  0.645856  0.354144  0.557456  1
  Cd  Cd3  1  0.353614  0.646386  0.452506  1
  Cd  Cd4  1  0.643117  0.356883  0.939683  1
  In  In5  1  0.352025  0.647975  0.050672  1
  Cu  Cu6  1  0.225279  0.774721  0.751524  1
  Pd  Pd7  1  0.779827  0.220173  0.245162  1
