# generated using pymatgen
data_Er9Al(SiB4)4
_symmetry_space_group_name_H-M   'P 1'
_cell_length_a   7.12325800
_cell_length_b   7.12325800
_cell_length_c   7.88172600
_cell_angle_alpha   90.00000000
_cell_angle_beta   90.00000000
_cell_angle_gamma   90.00000000
_symmetry_Int_Tables_number   1
_chemical_formula_structural   Er9Al(SiB4)4
_chemical_formula_sum   'Er9 Al1 Si4 B16'
_cell_volume   399.92511836
_cell_formula_units_Z   1
loop_
 _symmetry_equiv_pos_site_id
 _symmetry_equiv_pos_as_xyz
  1  'x, y, z'
loop_
 _atom_site_type_symbol
 _atom_site_label
 _atom_site_symmetry_multiplicity
 _atom_site_fract_x
 _atom_site_fract_y
 _atom_site_fract_z
 _atom_site_occupancy
  Er  Er0  1  0.682132  0.179302  0.227615  1
  Er  Er1  1  0.317868  0.820698  0.772385  1
  Er  Er2  1  0.317868  0.820698  0.227615  1
  Er  Er3  1  0.820698  0.682132  0.227615  1
  Er  Er4  1  0.820698  0.682132  0.772385  1
  Er  Er5  1  0.682132  0.179302  0.772385  1
  Er  Er6  1  0.179302  0.317868  0.772385  1
  Er  Er7  1  0.179302  0.317868  0.227615  1
  Er  Er8  1  0.500000  0.500000  0.500000  1
  Al  Al9  1  0.000000  0.000000  0.500000  1
  Si  Si10  1  0.114067  0.621264  0.500000  1
  Si  Si11  1  0.885933  0.378736  0.500000  1
  Si  Si12  1  0.378736  0.114067  0.500000  1
  Si  Si13  1  0.621264  0.885933  0.500000  1
  B  B14  1  0.174793  0.039692  0.000000  1
  B  B15  1  0.825207  0.960308  0.000000  1
  B  B16  1  0.960308  0.174793  0.000000  1
  B  B17  1  0.326885  0.539506  0.000000  1
  B  B18  1  0.039692  0.825207  0.000000  1
  B  B19  1  0.673115  0.460494  0.000000  1
  B  B20  1  0.539506  0.673115  0.000000  1
  B  B21  1  0.460494  0.326885  0.000000  1
  B  B22  1  0.089652  0.588320  0.000000  1
  B  B23  1  0.910348  0.411680  0.000000  1
  B  B24  1  0.411680  0.089652  0.000000  1
  B  B25  1  0.588320  0.910348  0.000000  1
  B  B26  1  0.000000  0.000000  0.163857  1
  B  B27  1  0.000000  0.000000  0.836143  1
  B  B28  1  0.500000  0.500000  0.833906  1
  B  B29  1  0.500000  0.500000  0.166094  1
