# generated using pymatgen
data_Rb4Na2HoErSb4
_symmetry_space_group_name_H-M   'P 1'
_cell_length_a   11.32518151
_cell_length_b   11.32518112
_cell_length_c   7.47625900
_cell_angle_alpha   90.00000000
_cell_angle_beta   90.00000000
_cell_angle_gamma   98.53914467
_symmetry_Int_Tables_number   1
_chemical_formula_structural   Rb4Na2HoErSb4
_chemical_formula_sum   'Rb8 Na4 Ho2 Er2 Sb8'
_cell_volume   948.27319794
_cell_formula_units_Z   2
loop_
 _symmetry_equiv_pos_site_id
 _symmetry_equiv_pos_as_xyz
  1  'x, y, z'
loop_
 _atom_site_type_symbol
 _atom_site_label
 _atom_site_symmetry_multiplicity
 _atom_site_fract_x
 _atom_site_fract_y
 _atom_site_fract_z
 _atom_site_occupancy
  Rb  Rb0  1  0.070901  0.429099  0.250000  1
  Rb  Rb1  1  0.429099  0.070901  0.750000  1
  Rb  Rb2  1  0.929113  0.570887  0.750000  1
  Rb  Rb3  1  0.570887  0.929113  0.250000  1
  Rb  Rb4  1  0.676198  0.323795  0.216003  1
  Rb  Rb5  1  0.823802  0.176205  0.716003  1
  Rb  Rb6  1  0.323795  0.676198  0.783997  1
  Rb  Rb7  1  0.176205  0.823802  0.283997  1
  Na  Na8  1  0.382419  0.382419  0.000000  1
  Na  Na9  1  0.117581  0.117581  0.500000  1
  Na  Na10  1  0.617566  0.617566  0.000000  1
  Na  Na11  1  0.882434  0.882434  0.500000  1
  Ho  Ho12  1  0.869399  0.869399  0.000000  1
  Ho  Ho13  1  0.630601  0.630601  0.500000  1
  Er  Er14  1  0.130604  0.130604  0.000000  1
  Er  Er15  1  0.369396  0.369396  0.500000  1
  Sb  Sb16  1  0.846391  0.653608  0.250000  1
  Sb  Sb17  1  0.653608  0.846391  0.750000  1
  Sb  Sb18  1  0.153730  0.346269  0.750000  1
  Sb  Sb19  1  0.346269  0.153730  0.250000  1
  Sb  Sb20  1  0.899901  0.100287  0.211187  1
  Sb  Sb21  1  0.600099  0.399713  0.711187  1
  Sb  Sb22  1  0.100287  0.899901  0.788813  1
  Sb  Sb23  1  0.399713  0.600099  0.288813  1
