# generated using pymatgen
data_Dy12Tc3Ni2Sn
_symmetry_space_group_name_H-M   'P 1'
_cell_length_a   8.42299286
_cell_length_b   8.42296873
_cell_length_c   8.42299300
_cell_angle_alpha   113.53977186
_cell_angle_beta   109.62592311
_cell_angle_gamma   105.35141536
_symmetry_Int_Tables_number   1
_chemical_formula_structural   Dy12Tc3Ni2Sn
_chemical_formula_sum   'Dy12 Tc3 Ni2 Sn1'
_cell_volume   457.67360752
_cell_formula_units_Z   1
loop_
 _symmetry_equiv_pos_site_id
 _symmetry_equiv_pos_as_xyz
  1  'x, y, z'
loop_
 _atom_site_type_symbol
 _atom_site_label
 _atom_site_symmetry_multiplicity
 _atom_site_fract_x
 _atom_site_fract_y
 _atom_site_fract_z
 _atom_site_occupancy
  Dy  Dy0  1  0.823251  0.730196  0.553372  1
  Dy  Dy1  1  0.176749  0.269804  0.446628  1
  Dy  Dy2  1  0.176825  0.730196  0.906945  1
  Dy  Dy3  1  0.823175  0.269804  0.093055  1
  Dy  Dy4  1  0.669983  0.355271  0.685291  1
  Dy  Dy5  1  0.330017  0.644729  0.314709  1
  Dy  Dy6  1  0.670108  0.984823  0.314715  1
  Dy  Dy7  1  0.329892  0.015177  0.685285  1
  Dy  Dy8  1  0.577900  0.766815  0.811050  1
  Dy  Dy9  1  0.422100  0.233185  0.188950  1
  Dy  Dy10  1  0.955765  0.766815  0.188916  1
  Dy  Dy11  1  0.044235  0.233185  0.811084  1
  Tc  Tc12  1  0.667492  0.000000  0.667492  1
  Tc  Tc13  1  0.332508  0.000000  0.332508  1
  Tc  Tc14  1  0.000000  0.000000  0.000000  1
  Ni  Ni15  1  0.113446  0.613450  0.500004  1
  Ni  Ni16  1  0.886554  0.386550  0.499996  1
  Sn  Sn17  1  0.500000  0.500000  0.000000  1
