# generated using pymatgen
data_Tb5Fe15Co(P4Ru)3
_symmetry_space_group_name_H-M   'P 1'
_cell_length_a   12.01658200
_cell_length_b   12.01658089
_cell_length_c   3.74958500
_cell_angle_alpha   90.00000000
_cell_angle_beta   90.00000000
_cell_angle_gamma   120.00000305
_symmetry_Int_Tables_number   1
_chemical_formula_structural   Tb5Fe15Co(P4Ru)3
_chemical_formula_sum   'Tb5 Fe15 Co1 P12 Ru3'
_cell_volume   468.89509558
_cell_formula_units_Z   1
loop_
 _symmetry_equiv_pos_site_id
 _symmetry_equiv_pos_as_xyz
  1  'x, y, z'
loop_
 _atom_site_type_symbol
 _atom_site_label
 _atom_site_symmetry_multiplicity
 _atom_site_fract_x
 _atom_site_fract_y
 _atom_site_fract_z
 _atom_site_occupancy
  Tb  Tb0  1  0.333333  0.666667  0.000000  1
  Tb  Tb1  1  0.666667  0.333333  0.000000  1
  Tb  Tb2  1  0.184605  0.000000  0.500000  1
  Tb  Tb3  1  0.000000  0.184605  0.500000  1
  Tb  Tb4  1  0.815395  0.815395  0.500000  1
  Fe  Fe5  1  0.195185  0.377544  0.000000  1
  Fe  Fe6  1  0.622456  0.817640  0.000000  1
  Fe  Fe7  1  0.182360  0.804815  0.000000  1
  Fe  Fe8  1  0.817640  0.622456  0.000000  1
  Fe  Fe9  1  0.804815  0.182360  0.000000  1
  Fe  Fe10  1  0.377544  0.195185  0.000000  1
  Fe  Fe11  1  0.122275  0.483079  0.500000  1
  Fe  Fe12  1  0.516921  0.639195  0.500000  1
  Fe  Fe13  1  0.360805  0.877725  0.500000  1
  Fe  Fe14  1  0.639195  0.516921  0.500000  1
  Fe  Fe15  1  0.877725  0.360805  0.500000  1
  Fe  Fe16  1  0.483079  0.122275  0.500000  1
  Fe  Fe17  1  0.718191  0.000000  0.500000  1
  Fe  Fe18  1  0.000000  0.718191  0.500000  1
  Fe  Fe19  1  0.281809  0.281809  0.500000  1
  Co  Co20  1  0.000000  0.000000  0.000000  1
  P  P21  1  0.367844  0.000000  0.000000  1
  P  P22  1  0.000000  0.367844  0.000000  1
  P  P23  1  0.632156  0.632156  0.000000  1
  P  P24  1  0.308924  0.475818  0.500000  1
  P  P25  1  0.524182  0.833106  0.500000  1
  P  P26  1  0.166894  0.691076  0.500000  1
  P  P27  1  0.833106  0.524182  0.500000  1
  P  P28  1  0.691076  0.166894  0.500000  1
  P  P29  1  0.475818  0.308924  0.500000  1
  P  P30  1  0.815701  0.000000  0.000000  1
  P  P31  1  0.000000  0.815701  0.000000  1
  P  P32  1  0.184299  0.184299  0.000000  1
  Ru  Ru33  1  0.557654  0.000000  0.000000  1
  Ru  Ru34  1  0.000000  0.557654  0.000000  1
  Ru  Ru35  1  0.442346  0.442346  0.000000  1
