# generated using pymatgen
data_Li3Ho3ZnSn4
_symmetry_space_group_name_H-M   'P 1'
_cell_length_a   8.62584902
_cell_length_b   8.55215815
_cell_length_c   8.55215830
_cell_angle_alpha   149.06913973
_cell_angle_beta   130.97187319
_cell_angle_gamma   59.02315260
_symmetry_Int_Tables_number   1
_chemical_formula_structural   Li3Ho3ZnSn4
_chemical_formula_sum   'Li3 Ho3 Zn1 Sn4'
_cell_volume   242.98076592
_cell_formula_units_Z   1
loop_
 _symmetry_equiv_pos_site_id
 _symmetry_equiv_pos_as_xyz
  1  'x, y, z'
loop_
 _atom_site_type_symbol
 _atom_site_label
 _atom_site_symmetry_multiplicity
 _atom_site_fract_x
 _atom_site_fract_y
 _atom_site_fract_z
 _atom_site_occupancy
  Li  Li0  1  0.013566  0.326005  0.687562  1
  Li  Li1  1  0.983215  0.670825  0.312389  1
  Li  Li2  1  0.638011  0.327053  0.310959  1
  Ho  Ho3  1  0.995404  0.000233  0.995171  1
  Ho  Ho4  1  0.383531  0.874492  0.509039  1
  Ho  Ho5  1  0.621918  0.126930  0.494988  1
  Zn  Zn6  1  0.373228  0.675516  0.697712  1
  Sn  Sn7  1  0.211326  0.215236  0.996088  1
  Sn  Sn8  1  0.700043  0.500172  0.199870  1
  Sn  Sn9  1  0.292199  0.498343  0.793855  1
  Sn  Sn10  1  0.787562  0.785195  0.002367  1
