# generated using pymatgen
data_La6Zn4IrPd12
_symmetry_space_group_name_H-M   'P 1'
_cell_length_a   8.45036123
_cell_length_b   8.45036140
_cell_length_c   8.45036200
_cell_angle_alpha   109.47121967
_cell_angle_beta   109.47122008
_cell_angle_gamma   109.47122416
_symmetry_Int_Tables_number   1
_chemical_formula_structural   La6Zn4IrPd12
_chemical_formula_sum   'La6 Zn4 Ir1 Pd12'
_cell_volume   464.51952132
_cell_formula_units_Z   1
loop_
 _symmetry_equiv_pos_site_id
 _symmetry_equiv_pos_as_xyz
  1  'x, y, z'
loop_
 _atom_site_type_symbol
 _atom_site_label
 _atom_site_symmetry_multiplicity
 _atom_site_fract_x
 _atom_site_fract_y
 _atom_site_fract_z
 _atom_site_occupancy
  La  La0  1  0.700892  0.700892  0.000000  1
  La  La1  1  0.299108  0.000000  0.299108  1
  La  La2  1  0.000000  0.299108  0.299108  1
  La  La3  1  0.299108  0.299108  0.000000  1
  La  La4  1  0.700892  0.000000  0.700892  1
  La  La5  1  0.000000  0.700892  0.700892  1
  Zn  Zn6  1  0.000000  0.000000  0.500000  1
  Zn  Zn7  1  0.000000  0.500000  0.000000  1
  Zn  Zn8  1  0.500000  0.000000  0.000000  1
  Zn  Zn9  1  0.500000  0.500000  0.500000  1
  Ir  Ir10  1  0.000000  0.000000  0.000000  1
  Pd  Pd11  1  0.330604  0.330604  0.661209  1
  Pd  Pd12  1  0.669396  0.000000  0.330604  1
  Pd  Pd13  1  0.000000  0.669396  0.330604  1
  Pd  Pd14  1  0.669396  0.330604  0.000000  1
  Pd  Pd15  1  0.330604  0.661209  0.330604  1
  Pd  Pd16  1  0.000000  0.330604  0.669396  1
  Pd  Pd17  1  0.330604  0.669396  0.000000  1
  Pd  Pd18  1  0.330604  0.000000  0.669396  1
  Pd  Pd19  1  0.661209  0.330604  0.330604  1
  Pd  Pd20  1  0.669396  0.669396  0.338791  1
  Pd  Pd21  1  0.669396  0.338791  0.669396  1
  Pd  Pd22  1  0.338791  0.669396  0.669396  1
