# generated using pymatgen
data_Tm16Ni3Ag4Os
_symmetry_space_group_name_H-M   'P 1'
_cell_length_a   9.39305603
_cell_length_b   9.39305676
_cell_length_c   9.39305662
_cell_angle_alpha   59.32214625
_cell_angle_beta   59.32214336
_cell_angle_gamma   59.32214424
_symmetry_Int_Tables_number   1
_chemical_formula_structural   Tm16Ni3Ag4Os
_chemical_formula_sum   'Tm16 Ni3 Ag4 Os1'
_cell_volume   576.96726498
_cell_formula_units_Z   1
loop_
 _symmetry_equiv_pos_site_id
 _symmetry_equiv_pos_as_xyz
  1  'x, y, z'
loop_
 _atom_site_type_symbol
 _atom_site_label
 _atom_site_symmetry_multiplicity
 _atom_site_fract_x
 _atom_site_fract_y
 _atom_site_fract_z
 _atom_site_occupancy
  Tm  Tm0  1  0.348901  0.348901  0.348901  1
  Tm  Tm1  1  0.354687  0.354687  0.946514  1
  Tm  Tm2  1  0.354687  0.946514  0.354687  1
  Tm  Tm3  1  0.946514  0.354687  0.354687  1
  Tm  Tm4  1  0.810285  0.187912  0.187912  1
  Tm  Tm5  1  0.188033  0.810831  0.810831  1
  Tm  Tm6  1  0.187912  0.810285  0.187912  1
  Tm  Tm7  1  0.810831  0.188033  0.810831  1
  Tm  Tm8  1  0.187912  0.187912  0.810285  1
  Tm  Tm9  1  0.810831  0.810831  0.188033  1
  Tm  Tm10  1  0.935345  0.565323  0.565323  1
  Tm  Tm11  1  0.556478  0.938666  0.938666  1
  Tm  Tm12  1  0.565323  0.935345  0.565323  1
  Tm  Tm13  1  0.938666  0.556478  0.938666  1
  Tm  Tm14  1  0.565323  0.565323  0.935345  1
  Tm  Tm15  1  0.938666  0.938666  0.556478  1
  Ni  Ni16  1  0.142824  0.142824  0.572821  1
  Ni  Ni17  1  0.142824  0.572821  0.142824  1
  Ni  Ni18  1  0.572821  0.142824  0.142824  1
  Ag  Ag19  1  0.582121  0.582121  0.582121  1
  Ag  Ag20  1  0.580847  0.580847  0.253522  1
  Ag  Ag21  1  0.580847  0.253522  0.580847  1
  Ag  Ag22  1  0.253522  0.580847  0.580847  1
  Os  Os23  1  0.143799  0.143799  0.143799  1
