# generated using pymatgen
data_CaNd19Ir12
_symmetry_space_group_name_H-M   'P 1'
_cell_length_a   11.28206100
_cell_length_b   11.28206100
_cell_length_c   6.56383400
_cell_angle_alpha   90.00000000
_cell_angle_beta   90.00000000
_cell_angle_gamma   90.00000000
_symmetry_Int_Tables_number   1
_chemical_formula_structural   CaNd19Ir12
_chemical_formula_sum   'Ca1 Nd19 Ir12'
_cell_volume   835.47695698
_cell_formula_units_Z   1
loop_
 _symmetry_equiv_pos_site_id
 _symmetry_equiv_pos_as_xyz
  1  'x, y, z'
loop_
 _atom_site_type_symbol
 _atom_site_label
 _atom_site_symmetry_multiplicity
 _atom_site_fract_x
 _atom_site_fract_y
 _atom_site_fract_z
 _atom_site_occupancy
  Ca  Ca0  1  0.000000  0.000000  0.000000  1
  Nd  Nd1  1  0.088924  0.288848  0.115168  1
  Nd  Nd2  1  0.791841  0.410349  0.116752  1
  Nd  Nd3  1  0.208159  0.589651  0.116752  1
  Nd  Nd4  1  0.911076  0.711152  0.115168  1
  Nd  Nd5  1  0.410096  0.791250  0.384001  1
  Nd  Nd6  1  0.589904  0.208750  0.384001  1
  Nd  Nd7  1  0.291034  0.089368  0.384762  1
  Nd  Nd8  1  0.708966  0.910632  0.384762  1
  Nd  Nd9  1  0.410349  0.208159  0.883248  1
  Nd  Nd10  1  0.711152  0.088924  0.884832  1
  Nd  Nd11  1  0.288848  0.911076  0.884832  1
  Nd  Nd12  1  0.589651  0.791841  0.883248  1
  Nd  Nd13  1  0.089368  0.708966  0.615238  1
  Nd  Nd14  1  0.910632  0.291034  0.615238  1
  Nd  Nd15  1  0.208750  0.410096  0.615999  1
  Nd  Nd16  1  0.791250  0.589904  0.615999  1
  Nd  Nd17  1  0.500000  0.500000  0.000000  1
  Nd  Nd18  1  0.500000  0.500000  0.500000  1
  Nd  Nd19  1  0.000000  0.000000  0.500000  1
  Ir  Ir20  1  0.156069  0.844408  0.254290  1
  Ir  Ir21  1  0.345845  0.346258  0.248964  1
  Ir  Ir22  1  0.654155  0.653742  0.248964  1
  Ir  Ir23  1  0.843931  0.155592  0.254290  1
  Ir  Ir24  1  0.346258  0.654155  0.751036  1
  Ir  Ir25  1  0.155592  0.156069  0.745710  1
  Ir  Ir26  1  0.844408  0.843931  0.745710  1
  Ir  Ir27  1  0.653742  0.345845  0.751036  1
  Ir  Ir28  1  0.000000  0.500000  0.378866  1
  Ir  Ir29  1  0.500000  0.000000  0.120071  1
  Ir  Ir30  1  0.500000  0.000000  0.621134  1
  Ir  Ir31  1  0.000000  0.500000  0.879929  1
