# generated using pymatgen
data_Tb3Al3Zn2Au
_symmetry_space_group_name_H-M   'P 1'
_cell_length_a   7.09056500
_cell_length_b   7.09056439
_cell_length_c   4.29443600
_cell_angle_alpha   90.00000000
_cell_angle_beta   90.00000000
_cell_angle_gamma   119.99999819
_symmetry_Int_Tables_number   1
_chemical_formula_structural   Tb3Al3Zn2Au
_chemical_formula_sum   'Tb3 Al3 Zn2 Au1'
_cell_volume   186.98140648
_cell_formula_units_Z   1
loop_
 _symmetry_equiv_pos_site_id
 _symmetry_equiv_pos_as_xyz
  1  'x, y, z'
loop_
 _atom_site_type_symbol
 _atom_site_label
 _atom_site_symmetry_multiplicity
 _atom_site_fract_x
 _atom_site_fract_y
 _atom_site_fract_z
 _atom_site_occupancy
  Tb  Tb0  1  0.419799  0.000000  0.000000  1
  Tb  Tb1  1  0.000000  0.419799  0.000000  1
  Tb  Tb2  1  0.580201  0.580201  0.000000  1
  Al  Al3  1  0.759222  0.000000  0.500000  1
  Al  Al4  1  0.240778  0.240777  0.500000  1
  Al  Al5  1  0.000000  0.759223  0.500000  1
  Zn  Zn6  1  0.666666  0.333333  0.500000  1
  Zn  Zn7  1  0.333334  0.666667  0.500000  1
  Au  Au8  1  0.000000  0.000000  0.000000  1
