# generated using pymatgen
data_Er2Tm4ReB14Ru
_symmetry_space_group_name_H-M   'P 1'
_cell_length_a   7.97091103
_cell_length_b   7.97091127
_cell_length_c   9.26931200
_cell_angle_alpha   90.00000000
_cell_angle_beta   90.00000000
_cell_angle_gamma   154.61793351
_symmetry_Int_Tables_number   1
_chemical_formula_structural   Er2Tm4ReB14Ru
_chemical_formula_sum   'Er2 Tm4 Re1 B14 Ru1'
_cell_volume   252.44610011
_cell_formula_units_Z   1
loop_
 _symmetry_equiv_pos_site_id
 _symmetry_equiv_pos_as_xyz
  1  'x, y, z'
loop_
 _atom_site_type_symbol
 _atom_site_label
 _atom_site_symmetry_multiplicity
 _atom_site_fract_x
 _atom_site_fract_y
 _atom_site_fract_z
 _atom_site_occupancy
  Er  Er0  1  0.243925  0.756075  0.250000  1
  Er  Er1  1  0.756218  0.243782  0.750000  1
  Tm  Tm2  1  0.894247  0.105753  0.059478  1
  Tm  Tm3  1  0.105860  0.894140  0.560317  1
  Tm  Tm4  1  0.105860  0.894140  0.939683  1
  Tm  Tm5  1  0.894247  0.105753  0.440522  1
  Re  Re6  1  0.947755  0.052245  0.750000  1
  B  B7  1  0.454517  0.545483  0.250000  1
  B  B8  1  0.546407  0.453593  0.750000  1
  B  B9  1  0.727158  0.272842  0.034502  1
  B  B10  1  0.272258  0.727742  0.533451  1
  B  B11  1  0.272258  0.727742  0.966549  1
  B  B12  1  0.727158  0.272842  0.465498  1
  B  B13  1  0.631756  0.368244  0.349042  1
  B  B14  1  0.367483  0.632517  0.849608  1
  B  B15  1  0.367483  0.632517  0.650392  1
  B  B16  1  0.631756  0.368244  0.150958  1
  B  B17  1  0.519857  0.480143  0.404323  1
  B  B18  1  0.480316  0.519684  0.905563  1
  B  B19  1  0.480316  0.519684  0.594437  1
  B  B20  1  0.519857  0.480143  0.095677  1
  Ru  Ru21  1  0.053309  0.946691  0.250000  1
