# generated using pymatgen
data_Th3Cd3CoCu2
_symmetry_space_group_name_H-M   'P 1'
_cell_length_a   7.56679100
_cell_length_b   7.56679142
_cell_length_c   4.00226200
_cell_angle_alpha   90.00000000
_cell_angle_beta   90.00000000
_cell_angle_gamma   119.99999381
_symmetry_Int_Tables_number   1
_chemical_formula_structural   Th3Cd3CoCu2
_chemical_formula_sum   'Th3 Cd3 Co1 Cu2'
_cell_volume   198.45391704
_cell_formula_units_Z   1
loop_
 _symmetry_equiv_pos_site_id
 _symmetry_equiv_pos_as_xyz
  1  'x, y, z'
loop_
 _atom_site_type_symbol
 _atom_site_label
 _atom_site_symmetry_multiplicity
 _atom_site_fract_x
 _atom_site_fract_y
 _atom_site_fract_z
 _atom_site_occupancy
  Th  Th0  1  0.590569  0.019502  0.000000  1
  Th  Th1  1  0.980498  0.571067  0.000000  1
  Th  Th2  1  0.428933  0.409431  0.000000  1
  Cd  Cd3  1  0.241478  0.994569  0.500000  1
  Cd  Cd4  1  0.005431  0.246909  0.500000  1
  Cd  Cd5  1  0.753091  0.758522  0.500000  1
  Co  Co6  1  0.666667  0.333333  0.500000  1
  Cu  Cu7  1  0.333333  0.666667  0.500000  1
  Cu  Cu8  1  0.000000  0.000000  0.000000  1
