# generated using pymatgen
data_Tb3HfPt2
_symmetry_space_group_name_H-M   'P 1'
_cell_length_a   4.74040900
_cell_length_b   7.20283306
_cell_length_c   8.47334355
_cell_angle_alpha   90.20775042
_cell_angle_beta   90.00000000
_cell_angle_gamma   90.00000000
_symmetry_Int_Tables_number   1
_chemical_formula_structural   Tb3HfPt2
_chemical_formula_sum   'Tb6 Hf2 Pt4'
_cell_volume   289.31511521
_cell_formula_units_Z   2
loop_
 _symmetry_equiv_pos_site_id
 _symmetry_equiv_pos_as_xyz
  1  'x, y, z'
loop_
 _atom_site_type_symbol
 _atom_site_label
 _atom_site_symmetry_multiplicity
 _atom_site_fract_x
 _atom_site_fract_y
 _atom_site_fract_z
 _atom_site_occupancy
  Tb  Tb0  1  0.750000  0.145349  0.083357  1
  Tb  Tb1  1  0.250000  0.854651  0.916643  1
  Tb  Tb2  1  0.750000  0.509040  0.820976  1
  Tb  Tb3  1  0.250000  0.490960  0.179024  1
  Tb  Tb4  1  0.750000  0.017894  0.667583  1
  Tb  Tb5  1  0.250000  0.982106  0.332417  1
  Hf  Hf6  1  0.750000  0.643441  0.424764  1
  Hf  Hf7  1  0.250000  0.356559  0.575236  1
  Pt  Pt8  1  0.750000  0.275643  0.420414  1
  Pt  Pt9  1  0.250000  0.724357  0.579586  1
  Pt  Pt10  1  0.750000  0.743122  0.106835  1
  Pt  Pt11  1  0.250000  0.256878  0.893165  1
