# generated using pymatgen
data_Dy12Ni4PbAu
_symmetry_space_group_name_H-M   'P 1'
_cell_length_a   8.40340400
_cell_length_b   8.40340502
_cell_length_c   8.40340457
_cell_angle_alpha   112.74294571
_cell_angle_beta   108.98551051
_cell_angle_gamma   106.74266266
_symmetry_Int_Tables_number   1
_chemical_formula_structural   Dy12Ni4PbAu
_chemical_formula_sum   'Dy12 Ni4 Pb1 Au1'
_cell_volume   455.53018290
_cell_formula_units_Z   1
loop_
 _symmetry_equiv_pos_site_id
 _symmetry_equiv_pos_as_xyz
  1  'x, y, z'
loop_
 _atom_site_type_symbol
 _atom_site_label
 _atom_site_symmetry_multiplicity
 _atom_site_fract_x
 _atom_site_fract_y
 _atom_site_fract_z
 _atom_site_occupancy
  Dy  Dy0  1  0.020598  0.719269  0.301327  1
  Dy  Dy1  1  0.979402  0.280731  0.698673  1
  Dy  Dy2  1  0.582058  0.280731  0.301327  1
  Dy  Dy3  1  0.417942  0.719269  0.698673  1
  Dy  Dy4  1  0.676161  0.866912  0.190751  1
  Dy  Dy5  1  0.323839  0.514588  0.190751  1
  Dy  Dy6  1  0.323839  0.133088  0.809249  1
  Dy  Dy7  1  0.676161  0.485412  0.809249  1
  Dy  Dy8  1  0.179503  0.205337  0.384841  1
  Dy  Dy9  1  0.820497  0.205337  0.025834  1
  Dy  Dy10  1  0.179503  0.794663  0.974166  1
  Dy  Dy11  1  0.820497  0.794663  0.615159  1
  Ni  Ni12  1  0.639115  0.500000  0.139115  1
  Ni  Ni13  1  0.360885  0.500000  0.860885  1
  Ni  Ni14  1  0.874946  0.874946  0.000000  1
  Ni  Ni15  1  0.125054  0.125054  0.000000  1
  Pb  Pb16  1  0.500000  0.000000  0.500000  1
  Au  Au17  1  0.000000  0.500000  0.500000  1
