# generated using pymatgen
data_Ti8Si6W2C
_symmetry_space_group_name_H-M   'P 1'
_cell_length_a   7.42840800
_cell_length_b   7.42840747
_cell_length_c   5.14356500
_cell_angle_alpha   90.00000000
_cell_angle_beta   90.00000000
_cell_angle_gamma   119.99999347
_symmetry_Int_Tables_number   1
_chemical_formula_structural   Ti8Si6W2C
_chemical_formula_sum   'Ti8 Si6 W2 C1'
_cell_volume   245.80253622
_cell_formula_units_Z   1
loop_
 _symmetry_equiv_pos_site_id
 _symmetry_equiv_pos_as_xyz
  1  'x, y, z'
loop_
 _atom_site_type_symbol
 _atom_site_label
 _atom_site_symmetry_multiplicity
 _atom_site_fract_x
 _atom_site_fract_y
 _atom_site_fract_z
 _atom_site_occupancy
  Ti  Ti0  1  0.000000  0.760861  0.259228  1
  Ti  Ti1  1  0.239139  0.239139  0.259228  1
  Ti  Ti2  1  0.760861  0.000000  0.259228  1
  Ti  Ti3  1  0.000000  0.239139  0.740772  1
  Ti  Ti4  1  0.760861  0.760861  0.740772  1
  Ti  Ti5  1  0.239139  0.000000  0.740772  1
  Ti  Ti6  1  0.333333  0.666667  0.000000  1
  Ti  Ti7  1  0.666667  0.333333  0.000000  1
  Si  Si8  1  0.000000  0.400746  0.248328  1
  Si  Si9  1  0.599254  0.599254  0.248328  1
  Si  Si10  1  0.400746  0.000000  0.248328  1
  Si  Si11  1  0.000000  0.599254  0.751672  1
  Si  Si12  1  0.400746  0.400746  0.751672  1
  Si  Si13  1  0.599254  0.000000  0.751672  1
  W  W14  1  0.666667  0.333333  0.500000  1
  W  W15  1  0.333333  0.666667  0.500000  1
  C  C16  1  0.000000  0.000000  0.500000  1
