# generated using pymatgen
data_Nd2Al20Re3Rh
_symmetry_space_group_name_H-M   'P 1'
_cell_length_a   6.94383855
_cell_length_b   6.92574665
_cell_length_c   9.25607265
_cell_angle_alpha   90.46513333
_cell_angle_beta   90.24410578
_cell_angle_gamma   96.64343617
_symmetry_Int_Tables_number   1
_chemical_formula_structural   Nd2Al20Re3Rh
_chemical_formula_sum   'Nd2 Al20 Re3 Rh1'
_cell_volume   442.12669391
_cell_formula_units_Z   1
loop_
 _symmetry_equiv_pos_site_id
 _symmetry_equiv_pos_as_xyz
  1  'x, y, z'
loop_
 _atom_site_type_symbol
 _atom_site_label
 _atom_site_symmetry_multiplicity
 _atom_site_fract_x
 _atom_site_fract_y
 _atom_site_fract_z
 _atom_site_occupancy
  Nd  Nd0  1  0.869823  0.121933  0.750914  1
  Nd  Nd1  1  0.130177  0.878067  0.249086  1
  Al  Al2  1  0.619521  0.376681  0.545209  1
  Al  Al3  1  0.380479  0.623319  0.454791  1
  Al  Al4  1  0.377473  0.623166  0.043407  1
  Al  Al5  1  0.622527  0.376834  0.956593  1
  Al  Al6  1  0.225834  0.225746  0.499256  1
  Al  Al7  1  0.774166  0.774254  0.500744  1
  Al  Al8  1  0.773545  0.773259  0.998790  1
  Al  Al9  1  0.226455  0.226741  0.001210  1
  Al  Al10  1  0.842187  0.159844  0.099755  1
  Al  Al11  1  0.157813  0.840156  0.900245  1
  Al  Al12  1  0.158529  0.843003  0.600612  1
  Al  Al13  1  0.841471  0.156997  0.399388  1
  Al  Al14  1  0.860409  0.591142  0.749816  1
  Al  Al15  1  0.139591  0.408858  0.250184  1
  Al  Al16  1  0.406860  0.139217  0.750056  1
  Al  Al17  1  0.593140  0.860783  0.249944  1
  Al  Al18  1  0.218311  0.477537  0.753692  1
  Al  Al19  1  0.781689  0.522463  0.246308  1
  Al  Al20  1  0.520868  0.780640  0.748447  1
  Al  Al21  1  0.479132  0.219360  0.251553  1
  Re  Re22  1  0.000000  0.500000  0.000000  1
  Re  Re23  1  0.500000  0.000000  0.000000  1
  Re  Re24  1  0.500000  0.000000  0.500000  1
  Rh  Rh25  1  0.000000  0.500000  0.500000  1
