# generated using pymatgen
data_Ho10Sn5Sb
_symmetry_space_group_name_H-M   'P 1'
_cell_length_a   8.93620400
_cell_length_b   8.92748086
_cell_length_c   6.47285500
_cell_angle_alpha   90.00000000
_cell_angle_beta   90.00000000
_cell_angle_gamma   120.03232043
_symmetry_Int_Tables_number   1
_chemical_formula_structural   Ho10Sn5Sb
_chemical_formula_sum   'Ho10 Sn5 Sb1'
_cell_volume   447.06119873
_cell_formula_units_Z   1
loop_
 _symmetry_equiv_pos_site_id
 _symmetry_equiv_pos_as_xyz
  1  'x, y, z'
loop_
 _atom_site_type_symbol
 _atom_site_label
 _atom_site_symmetry_multiplicity
 _atom_site_fract_x
 _atom_site_fract_y
 _atom_site_fract_z
 _atom_site_occupancy
  Ho  Ho0  1  0.998106  0.760155  0.750000  1
  Ho  Ho1  1  0.000653  0.238908  0.250000  1
  Ho  Ho2  1  0.761746  0.761092  0.250000  1
  Ho  Ho3  1  0.761986  0.000000  0.750000  1
  Ho  Ho4  1  0.237950  0.239845  0.750000  1
  Ho  Ho5  1  0.238915  0.000000  0.250000  1
  Ho  Ho6  1  0.333141  0.665701  0.499839  1
  Ho  Ho7  1  0.667441  0.334299  0.000161  1
  Ho  Ho8  1  0.667441  0.334299  0.499839  1
  Ho  Ho9  1  0.333141  0.665701  0.000161  1
  Sn  Sn10  1  0.395524  0.394810  0.250000  1
  Sn  Sn11  1  0.000714  0.605190  0.250000  1
  Sn  Sn12  1  0.999871  0.395476  0.750000  1
  Sn  Sn13  1  0.604395  0.604524  0.750000  1
  Sn  Sn14  1  0.605333  0.000000  0.250000  1
  Sb  Sb15  1  0.393642  0.000000  0.750000  1
