# generated using pymatgen
data_Pr6InSn5Pt6
_symmetry_space_group_name_H-M   'P 1'
_cell_length_a   7.66491700
_cell_length_b   7.63758158
_cell_length_c   8.45680200
_cell_angle_alpha   89.99353343
_cell_angle_beta   90.00000000
_cell_angle_gamma   120.11846105
_symmetry_Int_Tables_number   1
_chemical_formula_structural   Pr6InSn5Pt6
_chemical_formula_sum   'Pr6 In1 Sn5 Pt6'
_cell_volume   428.23332075
_cell_formula_units_Z   1
loop_
 _symmetry_equiv_pos_site_id
 _symmetry_equiv_pos_as_xyz
  1  'x, y, z'
loop_
 _atom_site_type_symbol
 _atom_site_label
 _atom_site_symmetry_multiplicity
 _atom_site_fract_x
 _atom_site_fract_y
 _atom_site_fract_z
 _atom_site_occupancy
  Pr  Pr0  1  0.415063  0.001382  0.248176  1
  Pr  Pr1  1  0.586613  0.585952  0.249595  1
  Pr  Pr2  1  0.998990  0.413311  0.249198  1
  Pr  Pr3  1  0.413682  0.998618  0.751824  1
  Pr  Pr4  1  0.585677  0.586689  0.750802  1
  Pr  Pr5  1  0.000661  0.414048  0.750405  1
  In  In6  1  0.749416  0.000000  0.000000  1
  Sn  Sn7  1  0.253532  0.252597  0.500142  1
  Sn  Sn8  1  0.000935  0.747403  0.499858  1
  Sn  Sn9  1  0.996989  0.751327  0.000015  1
  Sn  Sn10  1  0.245661  0.248673  0.999985  1
  Sn  Sn11  1  0.749002  0.000000  0.500000  1
  Pt  Pt12  1  0.331066  0.665654  0.001460  1
  Pt  Pt13  1  0.334731  0.667140  0.498348  1
  Pt  Pt14  1  0.665414  0.334346  0.998540  1
  Pt  Pt15  1  0.667592  0.332860  0.501652  1
  Pt  Pt16  1  0.002551  0.000130  0.253299  1
  Pt  Pt17  1  0.002422  0.999870  0.746701  1
