# generated using pymatgen
data_Tb3Yb(Os3Ru)2
_symmetry_space_group_name_H-M   'P 1'
_cell_length_a   5.25849500
_cell_length_b   5.25839387
_cell_length_c   9.07557300
_cell_angle_alpha   90.00046014
_cell_angle_beta   89.99994206
_cell_angle_gamma   119.99741045
_symmetry_Int_Tables_number   1
_chemical_formula_structural   Tb3Yb(Os3Ru)2
_chemical_formula_sum   'Tb3 Yb1 Os6 Ru2'
_cell_volume   217.33546291
_cell_formula_units_Z   1
loop_
 _symmetry_equiv_pos_site_id
 _symmetry_equiv_pos_as_xyz
  1  'x, y, z'
loop_
 _atom_site_type_symbol
 _atom_site_label
 _atom_site_symmetry_multiplicity
 _atom_site_fract_x
 _atom_site_fract_y
 _atom_site_fract_z
 _atom_site_occupancy
  Tb  Tb0  1  0.666664  0.333339  0.570421  1
  Tb  Tb1  1  0.333341  0.666655  0.433604  1
  Tb  Tb2  1  0.333335  0.666661  0.061434  1
  Yb  Yb3  1  0.666657  0.333342  0.935906  1
  Os  Os4  1  0.170099  0.340231  0.749958  1
  Os  Os5  1  0.170115  0.829897  0.749955  1
  Os  Os6  1  0.659781  0.829913  0.749959  1
  Os  Os7  1  0.829601  0.659155  0.250043  1
  Os  Os8  1  0.829592  0.170414  0.250036  1
  Os  Os9  1  0.340854  0.170406  0.250044  1
  Ru  Ru10  1  0.999986  0.999991  0.499492  1
  Ru  Ru11  1  0.999974  0.999996  0.999146  1
