# generated using pymatgen
data_Sn4(PtRh)3
_symmetry_space_group_name_H-M   'P 1'
_cell_length_a   5.59739096
_cell_length_b   7.52471600
_cell_length_c   8.79585473
_cell_angle_alpha   90.00000000
_cell_angle_beta   90.41859573
_cell_angle_gamma   90.00000000
_symmetry_Int_Tables_number   1
_chemical_formula_structural   Sn4(PtRh)3
_chemical_formula_sum   'Sn8 Pt6 Rh6'
_cell_volume   370.46075955
_cell_formula_units_Z   2
loop_
 _symmetry_equiv_pos_site_id
 _symmetry_equiv_pos_as_xyz
  1  'x, y, z'
loop_
 _atom_site_type_symbol
 _atom_site_label
 _atom_site_symmetry_multiplicity
 _atom_site_fract_x
 _atom_site_fract_y
 _atom_site_fract_z
 _atom_site_occupancy
  Sn  Sn0  1  0.754467  0.900323  0.865780  1
  Sn  Sn1  1  0.745533  0.400323  0.634220  1
  Sn  Sn2  1  0.252520  0.089646  0.142505  1
  Sn  Sn3  1  0.247480  0.589646  0.357495  1
  Sn  Sn4  1  0.744770  0.939911  0.397146  1
  Sn  Sn5  1  0.755230  0.439911  0.102854  1
  Sn  Sn6  1  0.257320  0.064736  0.596426  1
  Sn  Sn7  1  0.242680  0.564736  0.903574  1
  Pt  Pt8  1  0.998082  0.252810  0.381036  1
  Pt  Pt9  1  0.501918  0.752810  0.118964  1
  Pt  Pt10  1  0.501474  0.748356  0.619946  1
  Pt  Pt11  1  0.998526  0.248356  0.880054  1
  Pt  Pt12  1  0.001778  0.753036  0.615822  1
  Pt  Pt13  1  0.498222  0.253036  0.884178  1
  Rh  Rh14  1  0.745221  0.594885  0.371872  1
  Rh  Rh15  1  0.754779  0.094885  0.128128  1
  Rh  Rh16  1  0.246809  0.409379  0.632042  1
  Rh  Rh17  1  0.253191  0.909379  0.867958  1
  Rh  Rh18  1  0.499532  0.246917  0.382590  1
  Rh  Rh19  1  0.000468  0.746917  0.117410  1
