# generated using pymatgen
data_DyTh(Si2Rh3)2
_symmetry_space_group_name_H-M   'P 1'
_cell_length_a   6.65475434
_cell_length_b   6.65475331
_cell_length_c   6.65475365
_cell_angle_alpha   130.23272893
_cell_angle_beta   114.37778220
_cell_angle_gamma   86.63795074
_symmetry_Int_Tables_number   1
_chemical_formula_structural   DyTh(Si2Rh3)2
_chemical_formula_sum   'Dy1 Th1 Si4 Rh6'
_cell_volume   195.55275534
_cell_formula_units_Z   1
loop_
 _symmetry_equiv_pos_site_id
 _symmetry_equiv_pos_as_xyz
  1  'x, y, z'
loop_
 _atom_site_type_symbol
 _atom_site_label
 _atom_site_symmetry_multiplicity
 _atom_site_fract_x
 _atom_site_fract_y
 _atom_site_fract_z
 _atom_site_occupancy
  Dy  Dy0  1  0.250000  0.953328  0.703328  1
  Th  Th1  1  0.750000  0.042666  0.292666  1
  Si  Si2  1  0.573795  0.380784  0.806989  1
  Si  Si3  1  0.926205  0.733194  0.806989  1
  Si  Si4  1  0.415309  0.611061  0.195752  1
  Si  Si5  1  0.084691  0.280443  0.195752  1
  Rh  Rh6  1  0.215576  0.503395  0.715163  1
  Rh  Rh7  1  0.788232  0.503395  0.287818  1
  Rh  Rh8  1  0.505887  0.496279  0.502167  1
  Rh  Rh9  1  0.994113  0.496279  0.990392  1
  Rh  Rh10  1  0.711768  0.999588  0.715163  1
  Rh  Rh11  1  0.284424  0.999588  0.287818  1
