# generated using pymatgen
data_La5PrEr10(CdIr)4
_symmetry_space_group_name_H-M   'P 1'
_cell_length_a   9.76512584
_cell_length_b   9.76788250
_cell_length_c   9.76788223
_cell_angle_alpha   59.99040665
_cell_angle_beta   60.00933219
_cell_angle_gamma   60.00933277
_symmetry_Int_Tables_number   1
_chemical_formula_structural   La5PrEr10(CdIr)4
_chemical_formula_sum   'La5 Pr1 Er10 Cd4 Ir4'
_cell_volume   658.86043596
_cell_formula_units_Z   1
loop_
 _symmetry_equiv_pos_site_id
 _symmetry_equiv_pos_as_xyz
  1  'x, y, z'
loop_
 _atom_site_type_symbol
 _atom_site_label
 _atom_site_symmetry_multiplicity
 _atom_site_fract_x
 _atom_site_fract_y
 _atom_site_fract_z
 _atom_site_occupancy
  La  La0  1  0.807156  0.192844  0.192844  1
  La  La1  1  0.807708  0.192219  0.807251  1
  La  La2  1  0.192822  0.807251  0.192219  1
  La  La3  1  0.807708  0.807251  0.192219  1
  La  La4  1  0.192822  0.192219  0.807251  1
  Pr  Pr5  1  0.192515  0.807485  0.807485  1
  Er  Er6  1  0.595499  0.596594  0.596594  1
  Er  Er7  1  0.596116  0.596614  0.211153  1
  Er  Er8  1  0.596116  0.211153  0.596614  1
  Er  Er9  1  0.211313  0.596594  0.596594  1
  Er  Er10  1  0.063707  0.436293  0.436293  1
  Er  Er11  1  0.436410  0.063590  0.063590  1
  Er  Er12  1  0.436441  0.063125  0.436358  1
  Er  Er13  1  0.064076  0.436358  0.063125  1
  Er  Er14  1  0.436441  0.436358  0.063125  1
  Er  Er15  1  0.064076  0.063125  0.436358  1
  Cd  Cd16  1  0.828749  0.828534  0.828534  1
  Cd  Cd17  1  0.828500  0.828828  0.514170  1
  Cd  Cd18  1  0.828500  0.514170  0.828828  1
  Cd  Cd19  1  0.514180  0.828534  0.828534  1
  Ir  Ir20  1  0.390519  0.391215  0.391215  1
  Ir  Ir21  1  0.390786  0.391350  0.827079  1
  Ir  Ir22  1  0.390786  0.827079  0.391350  1
  Ir  Ir23  1  0.827052  0.391215  0.391215  1
