# generated using pymatgen
data_KHf4TlBr18
_symmetry_space_group_name_H-M   'P 1'
_cell_length_a   7.92847600
_cell_length_b   10.73673395
_cell_length_c   13.00948600
_cell_angle_alpha   62.61656829
_cell_angle_beta   90.00000000
_cell_angle_gamma   90.00000000
_symmetry_Int_Tables_number   1
_chemical_formula_structural   KHf4TlBr18
_chemical_formula_sum   'K1 Hf4 Tl1 Br18'
_cell_volume   983.35376942
_cell_formula_units_Z   1
loop_
 _symmetry_equiv_pos_site_id
 _symmetry_equiv_pos_as_xyz
  1  'x, y, z'
loop_
 _atom_site_type_symbol
 _atom_site_label
 _atom_site_symmetry_multiplicity
 _atom_site_fract_x
 _atom_site_fract_y
 _atom_site_fract_z
 _atom_site_occupancy
  K  K0  1  0.475230  0.500000  0.250000  1
  Hf  Hf1  1  0.287404  0.816817  0.864723  1
  Hf  Hf2  1  0.716025  0.181274  0.129054  1
  Hf  Hf3  1  0.287404  0.183183  0.635277  1
  Hf  Hf4  1  0.716025  0.818726  0.370946  1
  Tl  Tl5  1  0.504791  0.500000  0.750000  1
  Br  Br6  1  0.156743  0.743886  0.060559  1
  Br  Br7  1  0.838776  0.244004  0.933537  1
  Br  Br8  1  0.156743  0.256114  0.439441  1
  Br  Br9  1  0.838776  0.755996  0.566463  1
  Br  Br10  1  0.159084  0.625576  0.826233  1
  Br  Br11  1  0.847571  0.376020  0.159881  1
  Br  Br12  1  0.159084  0.374424  0.673767  1
  Br  Br13  1  0.847571  0.623980  0.340119  1
  Br  Br14  1  0.030136  0.000000  0.750000  1
  Br  Br15  1  0.971478  0.000000  0.250000  1
  Br  Br16  1  0.412584  0.057969  0.857528  1
  Br  Br17  1  0.587960  0.933321  0.148858  1
  Br  Br18  1  0.412584  0.942031  0.642472  1
  Br  Br19  1  0.587960  0.066679  0.351142  1
  Br  Br20  1  0.571538  0.699344  0.934100  1
  Br  Br21  1  0.431499  0.299682  0.056428  1
  Br  Br22  1  0.571538  0.300656  0.565900  1
  Br  Br23  1  0.431499  0.700318  0.443572  1
