# generated using pymatgen
data_Tl2ZnF4
_symmetry_space_group_name_H-M   'P 1'
_cell_length_a   7.72603800
_cell_length_b   7.72603712
_cell_length_c   6.10176400
_cell_angle_alpha   90.00000000
_cell_angle_beta   90.00000000
_cell_angle_gamma   133.50033736
_symmetry_Int_Tables_number   1
_chemical_formula_structural   Tl2ZnF4
_chemical_formula_sum   'Tl4 Zn2 F8'
_cell_volume   264.19756872
_cell_formula_units_Z   2
loop_
 _symmetry_equiv_pos_site_id
 _symmetry_equiv_pos_as_xyz
  1  'x, y, z'
loop_
 _atom_site_type_symbol
 _atom_site_label
 _atom_site_symmetry_multiplicity
 _atom_site_fract_x
 _atom_site_fract_y
 _atom_site_fract_z
 _atom_site_occupancy
  Tl  Tl0  1  0.643611  0.356389  0.000000  1
  Tl  Tl1  1  0.856389  0.143611  0.500000  1
  Tl  Tl2  1  0.356389  0.643611  0.000000  1
  Tl  Tl3  1  0.143611  0.856389  0.500000  1
  Zn  Zn4  1  0.000000  0.000000  0.000000  1
  Zn  Zn5  1  0.500000  0.500000  0.500000  1
  F  F6  1  0.859035  0.140965  0.000000  1
  F  F7  1  0.640965  0.359035  0.500000  1
  F  F8  1  0.140965  0.859035  0.000000  1
  F  F9  1  0.359035  0.640965  0.500000  1
  F  F10  1  0.251452  0.251452  0.247854  1
  F  F11  1  0.751452  0.751452  0.252146  1
  F  F12  1  0.248548  0.248548  0.747854  1
  F  F13  1  0.748548  0.748548  0.752146  1
