# generated using pymatgen
data_La4Ga3Si
_symmetry_space_group_name_H-M   'P 1'
_cell_length_a   7.18008278
_cell_length_b   7.18008341
_cell_length_c   6.99616028
_cell_angle_alpha   89.72101759
_cell_angle_beta   90.27898080
_cell_angle_gamma   142.73983249
_symmetry_Int_Tables_number   1
_chemical_formula_structural   La4Ga3Si
_chemical_formula_sum   'La4 Ga3 Si1'
_cell_volume   218.36380305
_cell_formula_units_Z   1
loop_
 _symmetry_equiv_pos_site_id
 _symmetry_equiv_pos_as_xyz
  1  'x, y, z'
loop_
 _atom_site_type_symbol
 _atom_site_label
 _atom_site_symmetry_multiplicity
 _atom_site_fract_x
 _atom_site_fract_y
 _atom_site_fract_z
 _atom_site_occupancy
  La  La0  1  0.274030  0.725970  0.253798  1
  La  La1  1  0.723300  0.276700  0.746031  1
  La  La2  1  0.554689  0.445311  0.252642  1
  La  La3  1  0.447661  0.552339  0.749267  1
  Ga  Ga4  1  0.094237  0.905763  0.933748  1
  Ga  Ga5  1  0.905696  0.094304  0.061901  1
  Ga  Ga6  1  0.908495  0.091505  0.439416  1
  Si  Si7  1  0.091891  0.908109  0.563197  1
