# generated using pymatgen
data_Lu4Zn5Ru3
_symmetry_space_group_name_H-M   'P 1'
_cell_length_a   5.26171081
_cell_length_b   5.26171103
_cell_length_c   8.93967800
_cell_angle_alpha   90.00000000
_cell_angle_beta   90.00000000
_cell_angle_gamma   120.83833330
_symmetry_Int_Tables_number   1
_chemical_formula_structural   Lu4Zn5Ru3
_chemical_formula_sum   'Lu4 Zn5 Ru3'
_cell_volume   212.50805260
_cell_formula_units_Z   1
loop_
 _symmetry_equiv_pos_site_id
 _symmetry_equiv_pos_as_xyz
  1  'x, y, z'
loop_
 _atom_site_type_symbol
 _atom_site_label
 _atom_site_symmetry_multiplicity
 _atom_site_fract_x
 _atom_site_fract_y
 _atom_site_fract_z
 _atom_site_occupancy
  Lu  Lu0  1  0.330035  0.669965  0.438754  1
  Lu  Lu1  1  0.666561  0.333439  0.555896  1
  Lu  Lu2  1  0.666561  0.333439  0.944104  1
  Lu  Lu3  1  0.330035  0.669965  0.061246  1
  Zn  Zn4  1  0.166016  0.327995  0.750000  1
  Zn  Zn5  1  0.166217  0.833783  0.750000  1
  Zn  Zn6  1  0.337247  0.165930  0.250000  1
  Zn  Zn7  1  0.834070  0.662753  0.250000  1
  Zn  Zn8  1  0.672005  0.833984  0.750000  1
  Ru  Ru9  1  0.999175  0.000825  0.003237  1
  Ru  Ru10  1  0.832903  0.167097  0.250000  1
  Ru  Ru11  1  0.999175  0.000825  0.496763  1
