# generated using pymatgen
data_Tb5Gd7(DySn2)8
_symmetry_space_group_name_H-M   'P 1'
_cell_length_a   8.13638600
_cell_length_b   8.29918992
_cell_length_c   15.68225700
_cell_angle_alpha   89.99853640
_cell_angle_beta   90.21819442
_cell_angle_gamma   89.72168062
_symmetry_Int_Tables_number   1
_chemical_formula_structural   Tb5Gd7(DySn2)8
_chemical_formula_sum   'Tb5 Gd7 Dy8 Sn16'
_cell_volume   1058.93070257
_cell_formula_units_Z   1
loop_
 _symmetry_equiv_pos_site_id
 _symmetry_equiv_pos_as_xyz
  1  'x, y, z'
loop_
 _atom_site_type_symbol
 _atom_site_label
 _atom_site_symmetry_multiplicity
 _atom_site_fract_x
 _atom_site_fract_y
 _atom_site_fract_z
 _atom_site_occupancy
  Tb  Tb0  1  0.020967  0.180249  0.402505  1
  Tb  Tb1  1  0.364095  0.837582  0.122065  1
  Tb  Tb2  1  0.132848  0.337976  0.622317  1
  Tb  Tb3  1  0.481556  0.679480  0.902249  1
  Tb  Tb4  1  0.865725  0.661714  0.122674  1
  Gd  Gd5  1  0.015600  0.180040  0.095782  1
  Gd  Gd6  1  0.982202  0.818510  0.902500  1
  Gd  Gd7  1  0.635037  0.163394  0.878744  1
  Gd  Gd8  1  0.517469  0.320491  0.097130  1
  Gd  Gd9  1  0.367626  0.836908  0.379744  1
  Gd  Gd10  1  0.982558  0.819652  0.597342  1
  Gd  Gd11  1  0.517682  0.319926  0.403284  1
  Dy  Dy12  1  0.135991  0.337551  0.877124  1
  Dy  Dy13  1  0.199376  0.502255  0.250107  1
  Dy  Dy14  1  0.697893  0.997967  0.250942  1
  Dy  Dy15  1  0.479218  0.678468  0.598319  1
  Dy  Dy16  1  0.301683  0.002537  0.750025  1
  Dy  Dy17  1  0.634671  0.161561  0.621721  1
  Dy  Dy18  1  0.801606  0.497756  0.749472  1
  Dy  Dy19  1  0.865535  0.662548  0.378155  1
  Sn  Sn20  1  0.792189  0.463322  0.542246  1
  Sn  Sn21  1  0.710767  0.965421  0.457595  1
  Sn  Sn22  1  0.670125  0.852606  0.749170  1
  Sn  Sn23  1  0.203071  0.536572  0.458254  1
  Sn  Sn24  1  0.293891  0.036605  0.957403  1
  Sn  Sn25  1  0.828483  0.354069  0.250693  1
  Sn  Sn26  1  0.797679  0.465193  0.957150  1
  Sn  Sn27  1  0.564346  0.618647  0.249779  1
  Sn  Sn28  1  0.205335  0.539096  0.040739  1
  Sn  Sn29  1  0.436961  0.381161  0.749070  1
  Sn  Sn30  1  0.175519  0.646126  0.749976  1
  Sn  Sn31  1  0.936399  0.120346  0.749295  1
  Sn  Sn32  1  0.295497  0.038769  0.543212  1
  Sn  Sn33  1  0.701946  0.960086  0.043284  1
  Sn  Sn34  1  0.325286  0.145772  0.249926  1
  Sn  Sn35  1  0.063166  0.879642  0.250006  1
