# generated using pymatgen
data_Hf2TaFe(BRu2)2
_symmetry_space_group_name_H-M   'P 1'
_cell_length_a   9.34189200
_cell_length_b   9.34189200
_cell_length_c   3.09187600
_cell_angle_alpha   90.00000000
_cell_angle_beta   90.00000000
_cell_angle_gamma   90.00000000
_symmetry_Int_Tables_number   1
_chemical_formula_structural   Hf2TaFe(BRu2)2
_chemical_formula_sum   'Hf4 Ta2 Fe2 B4 Ru8'
_cell_volume   269.83094387
_cell_formula_units_Z   2
loop_
 _symmetry_equiv_pos_site_id
 _symmetry_equiv_pos_as_xyz
  1  'x, y, z'
loop_
 _atom_site_type_symbol
 _atom_site_label
 _atom_site_symmetry_multiplicity
 _atom_site_fract_x
 _atom_site_fract_y
 _atom_site_fract_z
 _atom_site_occupancy
  Hf  Hf0  1  0.826274  0.673726  0.000000  1
  Hf  Hf1  1  0.173726  0.326274  0.000000  1
  Hf  Hf2  1  0.326274  0.826274  0.000000  1
  Hf  Hf3  1  0.673726  0.173726  0.000000  1
  Ta  Ta4  1  0.500000  0.500000  0.000000  1
  Ta  Ta5  1  0.000000  0.000000  0.000000  1
  Fe  Fe6  1  0.500000  0.000000  0.500000  1
  Fe  Fe7  1  0.000000  0.500000  0.500000  1
  B  B8  1  0.614048  0.885952  0.000000  1
  B  B9  1  0.385952  0.114048  0.000000  1
  B  B10  1  0.114048  0.614048  0.000000  1
  B  B11  1  0.885952  0.385952  0.000000  1
  Ru  Ru12  1  0.566191  0.723012  0.500000  1
  Ru  Ru13  1  0.433809  0.276988  0.500000  1
  Ru  Ru14  1  0.066191  0.776988  0.500000  1
  Ru  Ru15  1  0.933809  0.223012  0.500000  1
  Ru  Ru16  1  0.276988  0.566191  0.500000  1
  Ru  Ru17  1  0.723012  0.433809  0.500000  1
  Ru  Ru18  1  0.223012  0.066191  0.500000  1
  Ru  Ru19  1  0.776988  0.933809  0.500000  1
