# generated using pymatgen
data_PrY7Mg2(SiB4)4
_symmetry_space_group_name_H-M   'P 1'
_cell_length_a   7.20646112
_cell_length_b   7.20646112
_cell_length_c   7.93094226
_cell_angle_alpha   90.02062068
_cell_angle_beta   90.02062068
_cell_angle_gamma   90.00433918
_symmetry_Int_Tables_number   1
_chemical_formula_structural   PrY7Mg2(SiB4)4
_chemical_formula_sum   'Pr1 Y7 Mg2 Si4 B16'
_cell_volume   411.87821924
_cell_formula_units_Z   1
loop_
 _symmetry_equiv_pos_site_id
 _symmetry_equiv_pos_as_xyz
  1  'x, y, z'
loop_
 _atom_site_type_symbol
 _atom_site_label
 _atom_site_symmetry_multiplicity
 _atom_site_fract_x
 _atom_site_fract_y
 _atom_site_fract_z
 _atom_site_occupancy
  Pr  Pr0  1  0.683055  0.183055  0.240207  1
  Y  Y1  1  0.316762  0.816762  0.767338  1
  Y  Y2  1  0.316593  0.816593  0.232391  1
  Y  Y3  1  0.817426  0.682939  0.232424  1
  Y  Y4  1  0.817210  0.683061  0.768021  1
  Y  Y5  1  0.682910  0.182910  0.767276  1
  Y  Y6  1  0.183061  0.317210  0.768021  1
  Y  Y7  1  0.182939  0.317426  0.232424  1
  Mg  Mg8  1  0.001845  0.998725  0.502354  1
  Mg  Mg9  1  0.498725  0.501845  0.502354  1
  Si  Si10  1  0.116631  0.616631  0.500762  1
  Si  Si11  1  0.888398  0.388398  0.504845  1
  Si  Si12  1  0.381421  0.112270  0.503860  1
  Si  Si13  1  0.612270  0.881421  0.503860  1
  B  B14  1  0.174406  0.039034  0.998318  1
  B  B15  1  0.827403  0.959276  0.998290  1
  B  B16  1  0.961731  0.173030  0.998585  1
  B  B17  1  0.325605  0.540234  0.998594  1
  B  B18  1  0.040234  0.825605  0.998594  1
  B  B19  1  0.673030  0.461731  0.998585  1
  B  B20  1  0.539034  0.674406  0.998318  1
  B  B21  1  0.459276  0.327403  0.998290  1
  B  B22  1  0.088876  0.588876  0.998961  1
  B  B23  1  0.911035  0.411035  0.999234  1
  B  B24  1  0.410195  0.089186  0.997211  1
  B  B25  1  0.589186  0.910195  0.997211  1
  B  B26  1  0.002472  0.998689  0.158171  1
  B  B27  1  0.000171  0.999411  0.838665  1
  B  B28  1  0.499411  0.500171  0.838665  1
  B  B29  1  0.498689  0.502472  0.158171  1
