# generated using pymatgen
data_Ce5YTm10(CdRu)4
_symmetry_space_group_name_H-M   'P 1'
_cell_length_a   9.50239455
_cell_length_b   9.58763223
_cell_length_c   9.58469195
_cell_angle_alpha   59.99723414
_cell_angle_beta   60.31030233
_cell_angle_gamma   60.28738140
_symmetry_Int_Tables_number   1
_chemical_formula_structural   Ce5YTm10(CdRu)4
_chemical_formula_sum   'Ce5 Y1 Tm10 Cd4 Ru4'
_cell_volume   620.21947558
_cell_formula_units_Z   1
loop_
 _symmetry_equiv_pos_site_id
 _symmetry_equiv_pos_as_xyz
  1  'x, y, z'
loop_
 _atom_site_type_symbol
 _atom_site_label
 _atom_site_symmetry_multiplicity
 _atom_site_fract_x
 _atom_site_fract_y
 _atom_site_fract_z
 _atom_site_occupancy
  Ce  Ce0  1  0.814493  0.184407  0.186109  1
  Ce  Ce1  1  0.347329  0.347201  0.958280  1
  Ce  Ce2  1  0.347500  0.957744  0.347688  1
  Ce  Ce3  1  0.955986  0.350130  0.350852  1
  Ce  Ce4  1  0.342156  0.348954  0.349417  1
  Y  Y5  1  0.561986  0.563696  0.935793  1
  Tm  Tm6  1  0.941156  0.562087  0.936390  1
  Tm  Tm7  1  0.564360  0.936489  0.934678  1
  Tm  Tm8  1  0.939411  0.936215  0.562312  1
  Tm  Tm9  1  0.560907  0.938275  0.561299  1
  Tm  Tm10  1  0.936298  0.566628  0.564728  1
  Tm  Tm11  1  0.191324  0.187174  0.808663  1
  Tm  Tm12  1  0.812930  0.184883  0.808983  1
  Tm  Tm13  1  0.185475  0.813520  0.813006  1
  Tm  Tm14  1  0.812172  0.809010  0.185921  1
  Tm  Tm15  1  0.190253  0.809044  0.188137  1
  Cd  Cd16  1  0.580712  0.584868  0.254219  1
  Cd  Cd17  1  0.580530  0.253001  0.584742  1
  Cd  Cd18  1  0.254734  0.581040  0.581008  1
  Cd  Cd19  1  0.580966  0.581606  0.579961  1
  Ru  Ru20  1  0.149229  0.140663  0.564211  1
  Ru  Ru21  1  0.146980  0.564654  0.142027  1
  Ru  Ru22  1  0.583953  0.149409  0.152324  1
  Ru  Ru23  1  0.119158  0.149306  0.149253  1
