# generated using pymatgen
data_Ta5TiPt6
_symmetry_space_group_name_H-M   'P 1'
_cell_length_a   13.94432800
_cell_length_b   2.80761900
_cell_length_c   5.00798200
_cell_angle_alpha   90.00000000
_cell_angle_beta   90.00000000
_cell_angle_gamma   90.00000000
_symmetry_Int_Tables_number   1
_chemical_formula_structural   Ta5TiPt6
_chemical_formula_sum   'Ta5 Ti1 Pt6'
_cell_volume   196.06429935
_cell_formula_units_Z   1
loop_
 _symmetry_equiv_pos_site_id
 _symmetry_equiv_pos_as_xyz
  1  'x, y, z'
loop_
 _atom_site_type_symbol
 _atom_site_label
 _atom_site_symmetry_multiplicity
 _atom_site_fract_x
 _atom_site_fract_y
 _atom_site_fract_z
 _atom_site_occupancy
  Ta  Ta0  1  0.083620  0.000000  0.340061  1
  Ta  Ta1  1  0.416380  0.000000  0.340061  1
  Ta  Ta2  1  0.580772  0.000000  0.661280  1
  Ta  Ta3  1  0.919228  0.000000  0.661280  1
  Ta  Ta4  1  0.750000  0.000000  0.995038  1
  Ti  Ti5  1  0.250000  0.000000  0.995364  1
  Pt  Pt6  1  0.583903  0.500001  0.160130  1
  Pt  Pt7  1  0.916097  0.500001  0.160130  1
  Pt  Pt8  1  0.250000  0.500001  0.499263  1
  Pt  Pt9  1  0.750000  0.500001  0.499948  1
  Pt  Pt10  1  0.085385  0.500001  0.843726  1
  Pt  Pt11  1  0.414615  0.500001  0.843726  1
