# generated using pymatgen
data_Pu3Ni2Sn3Pt
_symmetry_space_group_name_H-M   'P 1'
_cell_length_a   7.39753200
_cell_length_b   7.39753273
_cell_length_c   3.99089200
_cell_angle_alpha   90.00000000
_cell_angle_beta   90.00000000
_cell_angle_gamma   119.99999637
_symmetry_Int_Tables_number   1
_chemical_formula_structural   Pu3Ni2Sn3Pt
_chemical_formula_sum   'Pu3 Ni2 Sn3 Pt1'
_cell_volume   189.13607422
_cell_formula_units_Z   1
loop_
 _symmetry_equiv_pos_site_id
 _symmetry_equiv_pos_as_xyz
  1  'x, y, z'
loop_
 _atom_site_type_symbol
 _atom_site_label
 _atom_site_symmetry_multiplicity
 _atom_site_fract_x
 _atom_site_fract_y
 _atom_site_fract_z
 _atom_site_occupancy
  Pu  Pu0  1  0.409007  0.414208  0.000000  1
  Pu  Pu1  1  0.585792  0.994799  0.000000  1
  Pu  Pu2  1  0.005201  0.590993  0.000000  1
  Ni  Ni3  1  0.333333  0.666667  0.500000  1
  Ni  Ni4  1  0.000000  0.000000  0.000000  1
  Sn  Sn5  1  0.006738  0.251898  0.500000  1
  Sn  Sn6  1  0.748102  0.754841  0.500000  1
  Sn  Sn7  1  0.245159  0.993262  0.500000  1
  Pt  Pt8  1  0.666667  0.333333  0.500000  1
