# generated using pymatgen
data_La3Ga6NiPd8
_symmetry_space_group_name_H-M   'P 1'
_cell_length_a   9.49939811
_cell_length_b   9.35699757
_cell_length_c   4.36940200
_cell_angle_alpha   90.00000000
_cell_angle_beta   90.00000000
_cell_angle_gamma   119.82435205
_symmetry_Int_Tables_number   1
_chemical_formula_structural   La3Ga6NiPd8
_chemical_formula_sum   'La3 Ga6 Ni1 Pd8'
_cell_volume   336.93893599
_cell_formula_units_Z   1
loop_
 _symmetry_equiv_pos_site_id
 _symmetry_equiv_pos_as_xyz
  1  'x, y, z'
loop_
 _atom_site_type_symbol
 _atom_site_label
 _atom_site_symmetry_multiplicity
 _atom_site_fract_x
 _atom_site_fract_y
 _atom_site_fract_z
 _atom_site_occupancy
  La  La0  1  0.334988  0.668241  0.500000  1
  La  La1  1  0.655843  0.329264  0.500000  1
  La  La2  1  0.001888  0.002958  0.000000  1
  Ga  Ga3  1  0.458682  0.009954  0.000000  1
  Ga  Ga4  1  0.003160  0.459739  0.000000  1
  Ga  Ga5  1  0.539032  0.529742  0.000000  1
  Ga  Ga6  1  0.728873  0.000306  0.500000  1
  Ga  Ga7  1  0.001630  0.729645  0.500000  1
  Ga  Ga8  1  0.279982  0.274950  0.500000  1
  Ni  Ni9  1  0.384039  0.221789  0.000000  1
  Pd  Pd10  1  0.227446  0.390117  0.000000  1
  Pd  Pd11  1  0.603735  0.828893  0.000000  1
  Pd  Pd12  1  0.169666  0.777372  0.000000  1
  Pd  Pd13  1  0.833370  0.606323  0.000000  1
  Pd  Pd14  1  0.773662  0.169465  0.000000  1
  Pd  Pd15  1  0.285506  0.005858  0.500000  1
  Pd  Pd16  1  0.002337  0.280689  0.500000  1
  Pd  Pd17  1  0.716159  0.714695  0.500000  1
