# generated using pymatgen
data_Tb4DySc3(P3Ir4)4
_symmetry_space_group_name_H-M   'P 1'
_cell_length_a   12.86230900
_cell_length_b   12.86195994
_cell_length_c   3.96731700
_cell_angle_alpha   90.00000000
_cell_angle_beta   90.00000000
_cell_angle_gamma   120.00090031
_symmetry_Int_Tables_number   1
_chemical_formula_structural   Tb4DySc3(P3Ir4)4
_chemical_formula_sum   'Tb4 Dy1 Sc3 P12 Ir16'
_cell_volume   568.39426370
_cell_formula_units_Z   1
loop_
 _symmetry_equiv_pos_site_id
 _symmetry_equiv_pos_as_xyz
  1  'x, y, z'
loop_
 _atom_site_type_symbol
 _atom_site_label
 _atom_site_symmetry_multiplicity
 _atom_site_fract_x
 _atom_site_fract_y
 _atom_site_fract_z
 _atom_site_occupancy
  Tb  Tb0  1  0.333337  0.666665  0.500000  1
  Tb  Tb1  1  0.666673  0.333335  0.500000  1
  Tb  Tb2  1  0.000004  0.811777  0.000000  1
  Tb  Tb3  1  0.188227  0.188223  0.000000  1
  Dy  Dy4  1  0.811679  0.000000  0.000000  1
  Sc  Sc5  1  0.000044  0.444813  0.500000  1
  Sc  Sc6  1  0.555231  0.555187  0.500000  1
  Sc  Sc7  1  0.444875  0.000000  0.500000  1
  P  P8  1  0.000016  0.645375  0.500000  1
  P  P9  1  0.354641  0.354625  0.500000  1
  P  P10  1  0.645579  0.000000  0.500000  1
  P  P11  1  0.517160  0.686712  0.000000  1
  P  P12  1  0.313332  0.830477  0.000000  1
  P  P13  1  0.169540  0.482825  0.000000  1
  P  P14  1  0.482855  0.169523  0.000000  1
  P  P15  1  0.686715  0.517175  0.000000  1
  P  P16  1  0.830448  0.313288  0.000000  1
  P  P17  1  0.999883  0.177005  0.500000  1
  P  P18  1  0.822879  0.822995  0.500000  1
  P  P19  1  0.177071  0.000000  0.500000  1
  Ir  Ir20  1  0.510236  0.868052  0.000000  1
  Ir  Ir21  1  0.131955  0.642143  0.000000  1
  Ir  Ir22  1  0.357831  0.489790  0.000000  1
  Ir  Ir23  1  0.489814  0.357857  0.000000  1
  Ir  Ir24  1  0.868042  0.510210  0.000000  1
  Ir  Ir25  1  0.642185  0.131948  0.000000  1
  Ir  Ir26  1  0.999854  0.277896  0.000000  1
  Ir  Ir27  1  0.721958  0.722104  0.000000  1
  Ir  Ir28  1  0.278108  0.000000  0.000000  1
  Ir  Ir29  1  0.627918  0.806807  0.500000  1
  Ir  Ir30  1  0.193454  0.821123  0.500000  1
  Ir  Ir31  1  0.178791  0.372321  0.500000  1
  Ir  Ir32  1  0.372331  0.178877  0.500000  1
  Ir  Ir33  1  0.806470  0.627679  0.500000  1
  Ir  Ir34  1  0.821111  0.193193  0.500000  1
  Ir  Ir35  1  0.999752  0.000000  0.500000  1
