# generated using pymatgen
data_Y2Ho8Cd3Ir
_symmetry_space_group_name_H-M   'P 1'
_cell_length_a   9.60299201
_cell_length_b   9.60230383
_cell_length_c   9.81568900
_cell_angle_alpha   90.00000000
_cell_angle_beta   90.00000000
_cell_angle_gamma   119.99762595
_symmetry_Int_Tables_number   1
_chemical_formula_structural   Y2Ho8Cd3Ir
_chemical_formula_sum   'Y4 Ho16 Cd6 Ir2'
_cell_volume   783.86959868
_cell_formula_units_Z   2
loop_
 _symmetry_equiv_pos_site_id
 _symmetry_equiv_pos_as_xyz
  1  'x, y, z'
loop_
 _atom_site_type_symbol
 _atom_site_label
 _atom_site_symmetry_multiplicity
 _atom_site_fract_x
 _atom_site_fract_y
 _atom_site_fract_z
 _atom_site_occupancy
  Y  Y0  1  0.916984  0.458492  0.250000  1
  Y  Y1  1  0.458705  0.541246  0.750000  1
  Y  Y2  1  0.458705  0.917459  0.750000  1
  Y  Y3  1  0.082520  0.541259  0.750000  1
  Ho  Ho4  1  0.000018  0.000009  0.500054  1
  Ho  Ho5  1  0.000018  0.000009  0.999946  1
  Ho  Ho6  1  0.209772  0.790674  0.440550  1
  Ho  Ho7  1  0.209772  0.419098  0.440550  1
  Ho  Ho8  1  0.580914  0.790457  0.440437  1
  Ho  Ho9  1  0.790272  0.209426  0.559260  1
  Ho  Ho10  1  0.790272  0.580846  0.559260  1
  Ho  Ho11  1  0.419264  0.209632  0.559088  1
  Ho  Ho12  1  0.790272  0.209426  0.940740  1
  Ho  Ho13  1  0.790272  0.580846  0.940740  1
  Ho  Ho14  1  0.419264  0.209632  0.940912  1
  Ho  Ho15  1  0.209772  0.790674  0.059450  1
  Ho  Ho16  1  0.209772  0.419098  0.059450  1
  Ho  Ho17  1  0.580914  0.790457  0.059563  1
  Ho  Ho18  1  0.541203  0.458609  0.250000  1
  Ho  Ho19  1  0.541203  0.082595  0.250000  1
  Cd  Cd20  1  0.885300  0.114379  0.250000  1
  Cd  Cd21  1  0.885300  0.770922  0.250000  1
  Cd  Cd22  1  0.229344  0.114672  0.250000  1
  Cd  Cd23  1  0.114460  0.885555  0.750000  1
  Cd  Cd24  1  0.114460  0.228905  0.750000  1
  Cd  Cd25  1  0.771099  0.885549  0.750000  1
  Ir  Ir26  1  0.333474  0.666738  0.250000  1
  Ir  Ir27  1  0.666671  0.333335  0.750000  1
