# generated using pymatgen
data_CaMoSeO6
_symmetry_space_group_name_H-M   'P 1'
_cell_length_a   6.75507826
_cell_length_b   7.22835105
_cell_length_c   10.57713105
_cell_angle_alpha   99.44894830
_cell_angle_beta   101.95285191
_cell_angle_gamma   88.99798159
_symmetry_Int_Tables_number   1
_chemical_formula_structural   CaMoSeO6
_chemical_formula_sum   'Ca4 Mo4 Se4 O24'
_cell_volume   498.33500433
_cell_formula_units_Z   4
loop_
 _symmetry_equiv_pos_site_id
 _symmetry_equiv_pos_as_xyz
  1  'x, y, z'
loop_
 _atom_site_type_symbol
 _atom_site_label
 _atom_site_symmetry_multiplicity
 _atom_site_fract_x
 _atom_site_fract_y
 _atom_site_fract_z
 _atom_site_occupancy
  Ca  Ca0  1  0.753784  0.859538  0.511852  1
  Ca  Ca1  1  0.246216  0.140462  0.488148  1
  Ca  Ca2  1  0.655759  0.708626  0.840124  1
  Ca  Ca3  1  0.344241  0.291374  0.159876  1
  Mo  Mo4  1  0.164657  0.958742  0.801433  1
  Mo  Mo5  1  0.835343  0.041258  0.198567  1
  Mo  Mo6  1  0.171341  0.454930  0.799632  1
  Mo  Mo7  1  0.828659  0.545070  0.200368  1
  Se  Se8  1  0.283771  0.641277  0.522365  1
  Se  Se9  1  0.716229  0.358723  0.477635  1
  Se  Se10  1  0.630381  0.187861  0.787259  1
  Se  Se11  1  0.369619  0.812139  0.212741  1
  O  O12  1  0.175259  0.061711  0.963295  1
  O  O13  1  0.824741  0.938289  0.036705  1
  O  O14  1  0.903129  0.885919  0.750665  1
  O  O15  1  0.096871  0.114081  0.249335  1
  O  O16  1  0.139200  0.185897  0.721922  1
  O  O17  1  0.860800  0.814103  0.278078  1
  O  O18  1  0.279817  0.714025  0.829675  1
  O  O19  1  0.720183  0.285975  0.170325  1
  O  O20  1  0.160198  0.846429  0.582257  1
  O  O21  1  0.839802  0.153571  0.417743  1
  O  O22  1  0.487790  0.014789  0.827795  1
  O  O23  1  0.512210  0.985211  0.172205  1
  O  O24  1  0.208494  0.424865  0.963486  1
  O  O25  1  0.791506  0.575135  0.036514  1
  O  O26  1  0.913372  0.512193  0.765908  1
  O  O27  1  0.086628  0.487807  0.234092  1
  O  O28  1  0.200713  0.462830  0.596271  1
  O  O29  1  0.799287  0.537170  0.403729  1
  O  O30  1  0.497635  0.393527  0.811220  1
  O  O31  1  0.502365  0.606473  0.188780  1
  O  O32  1  0.527944  0.682348  0.608653  1
  O  O33  1  0.472056  0.317652  0.391347  1
  O  O34  1  0.576298  0.125541  0.619440  1
  O  O35  1  0.423702  0.874459  0.380560  1
