# generated using pymatgen
data_Pr6OsCl10
_symmetry_space_group_name_H-M   'P 1'
_cell_length_a   7.52574883
_cell_length_b   9.18041835
_cell_length_c   9.51163903
_cell_angle_alpha   109.20582035
_cell_angle_beta   96.85224594
_cell_angle_gamma   106.60510767
_symmetry_Int_Tables_number   1
_chemical_formula_structural   Pr6OsCl10
_chemical_formula_sum   'Pr6 Os1 Cl10'
_cell_volume   577.94120783
_cell_formula_units_Z   1
loop_
 _symmetry_equiv_pos_site_id
 _symmetry_equiv_pos_as_xyz
  1  'x, y, z'
loop_
 _atom_site_type_symbol
 _atom_site_label
 _atom_site_symmetry_multiplicity
 _atom_site_fract_x
 _atom_site_fract_y
 _atom_site_fract_z
 _atom_site_occupancy
  Pr  Pr0  1  0.534946  0.204706  0.407617  1
  Pr  Pr1  1  0.465054  0.795294  0.592383  1
  Pr  Pr2  1  0.121606  0.344504  0.298686  1
  Pr  Pr3  1  0.878394  0.655496  0.701314  1
  Pr  Pr4  1  0.644526  0.563011  0.251426  1
  Pr  Pr5  1  0.355474  0.436989  0.748574  1
  Os  Os6  1  0.500000  0.500000  0.500000  1
  Cl  Cl7  1  0.154307  0.041180  0.227463  1
  Cl  Cl8  1  0.845693  0.958820  0.772537  1
  Cl  Cl9  1  0.265378  0.421603  0.055785  1
  Cl  Cl10  1  0.734622  0.578397  0.944215  1
  Cl  Cl11  1  0.702295  0.255143  0.159442  1
  Cl  Cl12  1  0.297705  0.744857  0.840558  1
  Cl  Cl13  1  0.050635  0.665065  0.428211  1
  Cl  Cl14  1  0.949365  0.334935  0.571789  1
  Cl  Cl15  1  0.414093  0.130829  0.660660  1
  Cl  Cl16  1  0.585907  0.869171  0.339340  1
