# generated using pymatgen
data_NaGePRh2
_symmetry_space_group_name_H-M   'P 1'
_cell_length_a   5.89143386
_cell_length_b   5.89143349
_cell_length_c   5.89143277
_cell_angle_alpha   139.54362462
_cell_angle_beta   139.54363385
_cell_angle_gamma   58.54689178
_symmetry_Int_Tables_number   1
_chemical_formula_structural   NaGePRh2
_chemical_formula_sum   'Na1 Ge1 P1 Rh2'
_cell_volume   85.29741008
_cell_formula_units_Z   1
loop_
 _symmetry_equiv_pos_site_id
 _symmetry_equiv_pos_as_xyz
  1  'x, y, z'
loop_
 _atom_site_type_symbol
 _atom_site_label
 _atom_site_symmetry_multiplicity
 _atom_site_fract_x
 _atom_site_fract_y
 _atom_site_fract_z
 _atom_site_occupancy
  Na  Na0  1  0.996386  0.996386  0.000000  1
  Ge  Ge1  1  0.619294  0.619294  0.000000  1
  P  P2  1  0.369224  0.369224  0.000000  1
  Rh  Rh3  1  0.757548  0.257548  0.500000  1
  Rh  Rh4  1  0.257548  0.757548  0.500000  1
