# generated using pymatgen
data_Ho3Er3PtI10
_symmetry_space_group_name_H-M   'P 1'
_cell_length_a   7.70068779
_cell_length_b   9.68349017
_cell_length_c   9.72415608
_cell_angle_alpha   107.00972184
_cell_angle_beta   96.78341614
_cell_angle_gamma   104.40684430
_symmetry_Int_Tables_number   1
_chemical_formula_structural   Ho3Er3PtI10
_chemical_formula_sum   'Ho3 Er3 Pt1 I10'
_cell_volume   657.17928058
_cell_formula_units_Z   1
loop_
 _symmetry_equiv_pos_site_id
 _symmetry_equiv_pos_as_xyz
  1  'x, y, z'
loop_
 _atom_site_type_symbol
 _atom_site_label
 _atom_site_symmetry_multiplicity
 _atom_site_fract_x
 _atom_site_fract_y
 _atom_site_fract_z
 _atom_site_occupancy
  Ho  Ho0  1  0.884553  0.958707  0.240410  1
  Ho  Ho1  1  0.115333  0.041381  0.759293  1
  Ho  Ho2  1  0.345637  0.123256  0.164775  1
  Er  Er3  1  0.654577  0.876472  0.835202  1
  Er  Er4  1  0.969112  0.284947  0.085747  1
  Er  Er5  1  0.030629  0.715032  0.914143  1
  Pt  Pt6  1  0.999352  0.999855  0.999746  1
  I  I7  1  0.350500  0.450599  0.271928  1
  I  I8  1  0.649550  0.549593  0.728288  1
  I  I9  1  0.914861  0.626264  0.179566  1
  I  I10  1  0.085568  0.373964  0.820816  1
  I  I11  1  0.454241  0.815762  0.092116  1
  I  I12  1  0.545473  0.184126  0.907988  1
  I  I13  1  0.256846  0.086687  0.462614  1
  I  I14  1  0.743904  0.913433  0.537612  1
  I  I15  1  0.774228  0.256463  0.345440  1
  I  I16  1  0.225636  0.743456  0.654315  1
