# generated using pymatgen
data_Ho5Lu3(Re3Si4)4
_symmetry_space_group_name_H-M   'P 1'
_cell_length_a   6.75712438
_cell_length_b   6.76103765
_cell_length_c   12.69063287
_cell_angle_alpha   90.23534619
_cell_angle_beta   89.91963677
_cell_angle_gamma   89.98909143
_symmetry_Int_Tables_number   1
_chemical_formula_structural   Ho5Lu3(Re3Si4)4
_chemical_formula_sum   'Ho5 Lu3 Re12 Si16'
_cell_volume   579.76827772
_cell_formula_units_Z   1
loop_
 _symmetry_equiv_pos_site_id
 _symmetry_equiv_pos_as_xyz
  1  'x, y, z'
loop_
 _atom_site_type_symbol
 _atom_site_label
 _atom_site_symmetry_multiplicity
 _atom_site_fract_x
 _atom_site_fract_y
 _atom_site_fract_z
 _atom_site_occupancy
  Ho  Ho0  1  0.006552  0.661494  0.031338  1
  Ho  Ho1  1  0.993480  0.337916  0.531092  1
  Ho  Ho2  1  0.338702  0.992836  0.469032  1
  Ho  Ho3  1  0.162627  0.493511  0.781496  1
  Ho  Ho4  1  0.838418  0.507022  0.280849  1
  Lu  Lu5  1  0.492692  0.160479  0.219190  1
  Lu  Lu6  1  0.507992  0.840182  0.719374  1
  Lu  Lu7  1  0.660546  0.007050  0.969460  1
  Re  Re8  1  0.665195  0.665661  0.501403  1
  Re  Re9  1  0.166771  0.836002  0.249093  1
  Re  Re10  1  0.335852  0.332562  0.001128  1
  Re  Re11  1  0.022660  0.812907  0.632309  1
  Re  Re12  1  0.979165  0.183263  0.129068  1
  Re  Re13  1  0.810935  0.019778  0.368022  1
  Re  Re14  1  0.313705  0.480263  0.380086  1
  Re  Re15  1  0.682550  0.521704  0.880235  1
  Re  Re16  1  0.483101  0.314348  0.620626  1
  Re  Re17  1  0.521800  0.689102  0.116565  1
  Re  Re18  1  0.185392  0.980107  0.869111  1
  Re  Re19  1  0.833266  0.164218  0.751595  1
  Si  Si20  1  0.019790  0.728044  0.438640  1
  Si  Si21  1  0.613831  0.304395  0.433825  1
  Si  Si22  1  0.383895  0.697589  0.933711  1
  Si  Si23  1  0.196794  0.115070  0.684595  1
  Si  Si24  1  0.306381  0.615086  0.566389  1
  Si  Si25  1  0.693454  0.382557  0.065504  1
  Si  Si26  1  0.803089  0.885587  0.183345  1
  Si  Si27  1  0.115001  0.194838  0.314835  1
  Si  Si28  1  0.976446  0.274148  0.937289  1
  Si  Si29  1  0.727730  0.019418  0.562518  1
  Si  Si30  1  0.229577  0.478815  0.187356  1
  Si  Si31  1  0.774894  0.523025  0.688361  1
  Si  Si32  1  0.478420  0.222238  0.813575  1
  Si  Si33  1  0.519986  0.774182  0.310466  1
  Si  Si34  1  0.277452  0.978767  0.062344  1
  Si  Si35  1  0.881862  0.805833  0.816169  1
