# generated using pymatgen
data_Rb3Tb(AsSe2)6
_symmetry_space_group_name_H-M   'P 1'
_cell_length_a   9.94506400
_cell_length_b   9.94506381
_cell_length_c   8.38753500
_cell_angle_alpha   90.00000000
_cell_angle_beta   90.00000000
_cell_angle_gamma   119.99999885
_symmetry_Int_Tables_number   1
_chemical_formula_structural   Rb3Tb(AsSe2)6
_chemical_formula_sum   'Rb3 Tb1 As6 Se12'
_cell_volume   718.42285239
_cell_formula_units_Z   1
loop_
 _symmetry_equiv_pos_site_id
 _symmetry_equiv_pos_as_xyz
  1  'x, y, z'
loop_
 _atom_site_type_symbol
 _atom_site_label
 _atom_site_symmetry_multiplicity
 _atom_site_fract_x
 _atom_site_fract_y
 _atom_site_fract_z
 _atom_site_occupancy
  Rb  Rb0  1  0.000000  0.000000  0.000000  1
  Rb  Rb1  1  0.333333  0.666667  0.845010  1
  Rb  Rb2  1  0.666667  0.333333  0.154990  1
  Tb  Tb3  1  0.000000  0.000000  0.500000  1
  As  As4  1  0.291337  0.838606  0.380910  1
  As  As5  1  0.161394  0.452731  0.380910  1
  As  As6  1  0.547269  0.708663  0.380910  1
  As  As7  1  0.708663  0.161394  0.619090  1
  As  As8  1  0.838606  0.547269  0.619090  1
  As  As9  1  0.452731  0.291337  0.619090  1
  Se  Se10  1  0.264865  0.055741  0.303610  1
  Se  Se11  1  0.944259  0.209125  0.303610  1
  Se  Se12  1  0.790875  0.735135  0.303610  1
  Se  Se13  1  0.735135  0.944259  0.696390  1
  Se  Se14  1  0.055741  0.790875  0.696390  1
  Se  Se15  1  0.209125  0.264865  0.696390  1
  Se  Se16  1  0.528762  0.906310  0.220850  1
  Se  Se17  1  0.093690  0.622452  0.220850  1
  Se  Se18  1  0.377548  0.471238  0.220850  1
  Se  Se19  1  0.471238  0.093690  0.779150  1
  Se  Se20  1  0.906310  0.377548  0.779150  1
  Se  Se21  1  0.622452  0.528762  0.779150  1
