# generated using pymatgen
data_Y15Tm5(Cd3Ni)2
_symmetry_space_group_name_H-M   'P 1'
_cell_length_a   9.61451300
_cell_length_b   9.61451405
_cell_length_c   9.74811000
_cell_angle_alpha   90.00000000
_cell_angle_beta   90.00000000
_cell_angle_gamma   119.99999296
_symmetry_Int_Tables_number   1
_chemical_formula_structural   Y15Tm5(Cd3Ni)2
_chemical_formula_sum   'Y15 Tm5 Cd6 Ni2'
_cell_volume   780.37924971
_cell_formula_units_Z   1
loop_
 _symmetry_equiv_pos_site_id
 _symmetry_equiv_pos_as_xyz
  1  'x, y, z'
loop_
 _atom_site_type_symbol
 _atom_site_label
 _atom_site_symmetry_multiplicity
 _atom_site_fract_x
 _atom_site_fract_y
 _atom_site_fract_z
 _atom_site_occupancy
  Y  Y0  1  0.542731  0.457269  0.251541  1
  Y  Y1  1  0.542731  0.085463  0.251541  1
  Y  Y2  1  0.914537  0.457269  0.251541  1
  Y  Y3  1  0.456252  0.543748  0.747871  1
  Y  Y4  1  0.456252  0.912504  0.747871  1
  Y  Y5  1  0.087496  0.543748  0.747871  1
  Y  Y6  1  0.790797  0.209203  0.561915  1
  Y  Y7  1  0.790797  0.581592  0.561915  1
  Y  Y8  1  0.418408  0.209203  0.561915  1
  Y  Y9  1  0.790105  0.209895  0.937834  1
  Y  Y10  1  0.790105  0.580209  0.937834  1
  Y  Y11  1  0.419791  0.209895  0.937834  1
  Y  Y12  1  0.209617  0.790383  0.063344  1
  Y  Y13  1  0.209617  0.419235  0.063344  1
  Y  Y14  1  0.580765  0.790383  0.063344  1
  Tm  Tm15  1  0.000000  0.000000  0.499446  1
  Tm  Tm16  1  0.000000  0.000000  0.999229  1
  Tm  Tm17  1  0.211541  0.788459  0.436850  1
  Tm  Tm18  1  0.211541  0.423084  0.436850  1
  Tm  Tm19  1  0.576916  0.788459  0.436850  1
  Cd  Cd20  1  0.885708  0.114292  0.250325  1
  Cd  Cd21  1  0.885708  0.771416  0.250325  1
  Cd  Cd22  1  0.228584  0.114292  0.250325  1
  Cd  Cd23  1  0.114405  0.885595  0.749759  1
  Cd  Cd24  1  0.114405  0.228809  0.749759  1
  Cd  Cd25  1  0.771191  0.885595  0.749759  1
  Ni  Ni26  1  0.333333  0.666667  0.253655  1
  Ni  Ni27  1  0.666667  0.333333  0.749350  1
