# generated using pymatgen
data_Rb3MoSe4
_symmetry_space_group_name_H-M   'P 1'
_cell_length_a   10.03340400
_cell_length_b   10.06932500
_cell_length_c   11.69047800
_cell_angle_alpha   90.00000000
_cell_angle_beta   90.00000000
_cell_angle_gamma   90.00000000
_symmetry_Int_Tables_number   1
_chemical_formula_structural   Rb3MoSe4
_chemical_formula_sum   'Rb12 Mo4 Se16'
_cell_volume   1181.08438316
_cell_formula_units_Z   4
loop_
 _symmetry_equiv_pos_site_id
 _symmetry_equiv_pos_as_xyz
  1  'x, y, z'
loop_
 _atom_site_type_symbol
 _atom_site_label
 _atom_site_symmetry_multiplicity
 _atom_site_fract_x
 _atom_site_fract_y
 _atom_site_fract_z
 _atom_site_occupancy
  Rb  Rb0  1  0.048177  0.791927  0.455195  1
  Rb  Rb1  1  0.451823  0.291927  0.544805  1
  Rb  Rb2  1  0.548177  0.708073  0.044805  1
  Rb  Rb3  1  0.951823  0.208073  0.955195  1
  Rb  Rb4  1  0.951823  0.208073  0.544805  1
  Rb  Rb5  1  0.548177  0.708073  0.455195  1
  Rb  Rb6  1  0.451823  0.291927  0.955195  1
  Rb  Rb7  1  0.048177  0.791927  0.044805  1
  Rb  Rb8  1  0.142990  0.587117  0.750000  1
  Rb  Rb9  1  0.357010  0.087117  0.250000  1
  Rb  Rb10  1  0.642990  0.912883  0.750000  1
  Rb  Rb11  1  0.857010  0.412883  0.250000  1
  Mo  Mo12  1  0.779634  0.984170  0.250000  1
  Mo  Mo13  1  0.720366  0.484170  0.750000  1
  Mo  Mo14  1  0.279634  0.515830  0.250000  1
  Mo  Mo15  1  0.220366  0.015830  0.750000  1
  Se  Se16  1  0.795939  0.748096  0.250000  1
  Se  Se17  1  0.704061  0.248096  0.750000  1
  Se  Se18  1  0.295939  0.751904  0.250000  1
  Se  Se19  1  0.204061  0.251904  0.750000  1
  Se  Se20  1  0.001109  0.923477  0.750000  1
  Se  Se21  1  0.498891  0.423477  0.250000  1
  Se  Se22  1  0.501109  0.576523  0.750000  1
  Se  Se23  1  0.998891  0.076523  0.250000  1
  Se  Se24  1  0.334526  0.948422  0.581788  1
  Se  Se25  1  0.165474  0.448422  0.418212  1
  Se  Se26  1  0.834526  0.551578  0.918212  1
  Se  Se27  1  0.665474  0.051578  0.081788  1
  Se  Se28  1  0.665474  0.051578  0.418212  1
  Se  Se29  1  0.834526  0.551578  0.581788  1
  Se  Se30  1  0.165474  0.448422  0.081788  1
  Se  Se31  1  0.334526  0.948422  0.918212  1
