# generated using pymatgen
data_Pu2Rh2Au
_symmetry_space_group_name_H-M   'P 1'
_cell_length_a   7.36287800
_cell_length_b   7.36287800
_cell_length_c   3.79708000
_cell_angle_alpha   90.00000000
_cell_angle_beta   90.00000000
_cell_angle_gamma   90.00000000
_symmetry_Int_Tables_number   1
_chemical_formula_structural   Pu2Rh2Au
_chemical_formula_sum   'Pu4 Rh4 Au2'
_cell_volume   205.84719632
_cell_formula_units_Z   2
loop_
 _symmetry_equiv_pos_site_id
 _symmetry_equiv_pos_as_xyz
  1  'x, y, z'
loop_
 _atom_site_type_symbol
 _atom_site_label
 _atom_site_symmetry_multiplicity
 _atom_site_fract_x
 _atom_site_fract_y
 _atom_site_fract_z
 _atom_site_occupancy
  Pu  Pu0  1  0.669452  0.169452  0.500000  1
  Pu  Pu1  1  0.169452  0.330548  0.500000  1
  Pu  Pu2  1  0.830548  0.669452  0.500000  1
  Pu  Pu3  1  0.330548  0.830548  0.500000  1
  Rh  Rh4  1  0.864190  0.364190  0.000000  1
  Rh  Rh5  1  0.135810  0.635810  0.000000  1
  Rh  Rh6  1  0.635810  0.864190  0.000000  1
  Rh  Rh7  1  0.364190  0.135810  0.000000  1
  Au  Au8  1  0.000000  0.000000  0.000000  1
  Au  Au9  1  0.500000  0.500000  0.000000  1
