# generated using pymatgen
data_Cs3RbEuI6
_symmetry_space_group_name_H-M   'P 1'
_cell_length_a   10.54844168
_cell_length_b   10.54844156
_cell_length_c   10.54844158
_cell_angle_alpha   90.48928171
_cell_angle_beta   90.48927938
_cell_angle_gamma   90.48927911
_symmetry_Int_Tables_number   1
_chemical_formula_structural   Cs3RbEuI6
_chemical_formula_sum   'Cs6 Rb2 Eu2 I12'
_cell_volume   1173.59196975
_cell_formula_units_Z   2
loop_
 _symmetry_equiv_pos_site_id
 _symmetry_equiv_pos_as_xyz
  1  'x, y, z'
loop_
 _atom_site_type_symbol
 _atom_site_label
 _atom_site_symmetry_multiplicity
 _atom_site_fract_x
 _atom_site_fract_y
 _atom_site_fract_z
 _atom_site_occupancy
  Cs  Cs0  1  0.250000  0.627440  0.872560  1
  Cs  Cs1  1  0.872560  0.250000  0.627440  1
  Cs  Cs2  1  0.627440  0.872560  0.250000  1
  Cs  Cs3  1  0.750000  0.372560  0.127440  1
  Cs  Cs4  1  0.127440  0.750000  0.372560  1
  Cs  Cs5  1  0.372560  0.127440  0.750000  1
  Rb  Rb6  1  0.250000  0.250000  0.250000  1
  Rb  Rb7  1  0.750000  0.750000  0.750000  1
  Eu  Eu8  1  0.000000  0.000000  0.000000  1
  Eu  Eu9  1  0.500000  0.500000  0.500000  1
  I  I10  1  0.554421  0.205424  0.423646  1
  I  I11  1  0.423646  0.554421  0.205424  1
  I  I12  1  0.205424  0.423646  0.554421  1
  I  I13  1  0.945579  0.076354  0.294576  1
  I  I14  1  0.294576  0.945579  0.076354  1
  I  I15  1  0.076354  0.294576  0.945579  1
  I  I16  1  0.445579  0.794576  0.576354  1
  I  I17  1  0.576354  0.445579  0.794576  1
  I  I18  1  0.794576  0.576354  0.445579  1
  I  I19  1  0.054421  0.923646  0.705424  1
  I  I20  1  0.923646  0.705424  0.054421  1
  I  I21  1  0.705424  0.054421  0.923646  1
