# generated using pymatgen
data_Li5Sc3Tc11Ge16Mo
_symmetry_space_group_name_H-M   'P 1'
_cell_length_a   6.58937620
_cell_length_b   6.86213966
_cell_length_c   12.55617744
_cell_angle_alpha   89.92566086
_cell_angle_beta   90.00127622
_cell_angle_gamma   90.10955956
_symmetry_Int_Tables_number   1
_chemical_formula_structural   Li5Sc3Tc11Ge16Mo
_chemical_formula_sum   'Li5 Sc3 Tc11 Ge16 Mo1'
_cell_volume   567.75391808
_cell_formula_units_Z   1
loop_
 _symmetry_equiv_pos_site_id
 _symmetry_equiv_pos_as_xyz
  1  'x, y, z'
loop_
 _atom_site_type_symbol
 _atom_site_label
 _atom_site_symmetry_multiplicity
 _atom_site_fract_x
 _atom_site_fract_y
 _atom_site_fract_z
 _atom_site_occupancy
  Li  Li0  1  0.470812  0.674549  0.581408  1
  Li  Li1  1  0.969253  0.821685  0.913158  1
  Li  Li2  1  0.527222  0.320770  0.086021  1
  Li  Li3  1  0.033395  0.172137  0.413502  1
  Li  Li4  1  0.522158  0.337006  0.418484  1
  Sc  Sc5  1  0.010915  0.175047  0.093037  1
  Sc  Sc6  1  0.489741  0.670575  0.912926  1
  Sc  Sc7  1  0.990254  0.828356  0.584348  1
  Tc  Tc8  1  0.679747  0.151673  0.626642  1
  Tc  Tc9  1  0.183927  0.352892  0.876717  1
  Tc  Tc10  1  0.324070  0.849500  0.126665  1
  Tc  Tc11  1  0.821889  0.659740  0.371693  1
  Tc  Tc12  1  0.325167  0.838160  0.371620  1
  Tc  Tc13  1  0.820174  0.654766  0.127279  1
  Tc  Tc14  1  0.671767  0.156098  0.872610  1
  Tc  Tc15  1  0.836642  0.501271  0.749312  1
  Tc  Tc16  1  0.334860  0.997583  0.750273  1
  Tc  Tc17  1  0.157442  0.496095  0.248289  1
  Tc  Tc18  1  0.664476  0.999056  0.247139  1
  Ge  Ge19  1  0.675122  0.969873  0.448616  1
  Ge  Ge20  1  0.178480  0.543603  0.049320  1
  Ge  Ge21  1  0.319259  0.041433  0.951745  1
  Ge  Ge22  1  0.817255  0.457728  0.543390  1
  Ge  Ge23  1  0.331785  0.042399  0.542594  1
  Ge  Ge24  1  0.832447  0.459926  0.953110  1
  Ge  Ge25  1  0.670941  0.961471  0.045204  1
  Ge  Ge26  1  0.175991  0.528992  0.451244  1
  Ge  Ge27  1  0.478416  0.380641  0.743989  1
  Ge  Ge28  1  0.975660  0.118273  0.757929  1
  Ge  Ge29  1  0.518962  0.611540  0.248996  1
  Ge  Ge30  1  0.024658  0.881161  0.252151  1
  Ge  Ge31  1  0.683290  0.838571  0.743948  1
  Ge  Ge32  1  0.186603  0.661675  0.751667  1
  Ge  Ge33  1  0.323525  0.166298  0.256261  1
  Ge  Ge34  1  0.806673  0.338754  0.260456  1
  Mo  Mo35  1  0.167024  0.340702  0.628258  1
