# generated using pymatgen
data_Nd8Mo3WC8
_symmetry_space_group_name_H-M   'P 1'
_cell_length_a   5.84243342
_cell_length_b   5.84243342
_cell_length_c   10.40505100
_cell_angle_alpha   90.00000000
_cell_angle_beta   90.00000000
_cell_angle_gamma   89.95665379
_symmetry_Int_Tables_number   1
_chemical_formula_structural   Nd8Mo3WC8
_chemical_formula_sum   'Nd8 Mo3 W1 C8'
_cell_volume   355.16620307
_cell_formula_units_Z   1
loop_
 _symmetry_equiv_pos_site_id
 _symmetry_equiv_pos_as_xyz
  1  'x, y, z'
loop_
 _atom_site_type_symbol
 _atom_site_label
 _atom_site_symmetry_multiplicity
 _atom_site_fract_x
 _atom_site_fract_y
 _atom_site_fract_z
 _atom_site_occupancy
  Nd  Nd0  1  0.198110  0.803027  0.156166  1
  Nd  Nd1  1  0.803027  0.198110  0.843834  1
  Nd  Nd2  1  0.198110  0.803027  0.843834  1
  Nd  Nd3  1  0.301676  0.301676  0.344264  1
  Nd  Nd4  1  0.698116  0.698116  0.344016  1
  Nd  Nd5  1  0.301676  0.301676  0.655736  1
  Nd  Nd6  1  0.803027  0.198110  0.156166  1
  Nd  Nd7  1  0.698116  0.698116  0.655984  1
  Mo  Mo8  1  0.175476  0.824089  0.500000  1
  Mo  Mo9  1  0.676669  0.676669  0.000000  1
  Mo  Mo10  1  0.824089  0.175476  0.500000  1
  W  W11  1  0.324154  0.324154  0.000000  1
  C  C12  1  0.000018  0.500181  0.500000  1
  C  C13  1  0.999918  0.999918  0.356034  1
  C  C14  1  0.498763  0.001917  0.000000  1
  C  C15  1  0.999918  0.999918  0.643966  1
  C  C16  1  0.498519  0.498519  0.856480  1
  C  C17  1  0.498519  0.498519  0.143520  1
  C  C18  1  0.500181  0.000018  0.500000  1
  C  C19  1  0.001917  0.498763  0.000000  1
