# generated using pymatgen
data_ThAl8SiAu4
_symmetry_space_group_name_H-M   'P 1'
_cell_length_a   6.11597366
_cell_length_b   6.11597376
_cell_length_c   14.76736090
_cell_angle_alpha   101.95113717
_cell_angle_beta   101.95113670
_cell_angle_gamma   89.99999419
_symmetry_Int_Tables_number   1
_chemical_formula_structural   ThAl8SiAu4
_chemical_formula_sum   'Th2 Al16 Si2 Au8'
_cell_volume   528.15782194
_cell_formula_units_Z   2
loop_
 _symmetry_equiv_pos_site_id
 _symmetry_equiv_pos_as_xyz
  1  'x, y, z'
loop_
 _atom_site_type_symbol
 _atom_site_label
 _atom_site_symmetry_multiplicity
 _atom_site_fract_x
 _atom_site_fract_y
 _atom_site_fract_z
 _atom_site_occupancy
  Th  Th0  1  0.750000  0.250000  0.500000  1
  Th  Th1  1  0.250000  0.750000  0.500000  1
  Al  Al2  1  0.302995  0.302995  0.105704  1
  Al  Al3  1  0.802708  0.302995  0.105704  1
  Al  Al4  1  0.302995  0.802708  0.105704  1
  Al  Al5  1  0.802708  0.802708  0.105704  1
  Al  Al6  1  0.404707  0.404707  0.314449  1
  Al  Al7  1  0.909743  0.404707  0.314449  1
  Al  Al8  1  0.404707  0.909743  0.314449  1
  Al  Al9  1  0.909743  0.909743  0.314449  1
  Al  Al10  1  0.090258  0.090258  0.685550  1
  Al  Al11  1  0.595292  0.090258  0.685550  1
  Al  Al12  1  0.090258  0.595292  0.685550  1
  Al  Al13  1  0.595292  0.595292  0.685550  1
  Al  Al14  1  0.197292  0.197292  0.894296  1
  Al  Al15  1  0.697004  0.197292  0.894296  1
  Al  Al16  1  0.197292  0.697004  0.894296  1
  Al  Al17  1  0.697004  0.697004  0.894296  1
  Si  Si18  1  0.207321  0.207321  0.414643  1
  Si  Si19  1  0.792678  0.792678  0.585357  1
  Au  Au20  1  0.000000  0.000000  0.000000  1
  Au  Au21  1  0.499999  0.499999  0.000000  1
  Au  Au22  1  0.605914  0.105915  0.211830  1
  Au  Au23  1  0.105915  0.605914  0.211830  1
  Au  Au24  1  0.705806  0.705806  0.411612  1
  Au  Au25  1  0.294193  0.294193  0.588388  1
  Au  Au26  1  0.894085  0.394085  0.788170  1
  Au  Au27  1  0.394085  0.894085  0.788170  1
