# generated using pymatgen
data_Sc6TiNb3Al12Ru7
_symmetry_space_group_name_H-M   'P 1'
_cell_length_a   8.86320805
_cell_length_b   8.86320723
_cell_length_c   8.86320690
_cell_angle_alpha   60.06804428
_cell_angle_beta   60.06804573
_cell_angle_gamma   60.06804081
_symmetry_Int_Tables_number   1
_chemical_formula_structural   Sc6TiNb3Al12Ru7
_chemical_formula_sum   'Sc6 Ti1 Nb3 Al12 Ru7'
_cell_volume   493.09083154
_cell_formula_units_Z   1
loop_
 _symmetry_equiv_pos_site_id
 _symmetry_equiv_pos_as_xyz
  1  'x, y, z'
loop_
 _atom_site_type_symbol
 _atom_site_label
 _atom_site_symmetry_multiplicity
 _atom_site_fract_x
 _atom_site_fract_y
 _atom_site_fract_z
 _atom_site_occupancy
  Sc  Sc0  1  0.711893  0.711893  0.284127  1
  Sc  Sc1  1  0.290012  0.710216  0.290012  1
  Sc  Sc2  1  0.710216  0.290012  0.290012  1
  Sc  Sc3  1  0.290012  0.290012  0.710216  1
  Sc  Sc4  1  0.711893  0.284127  0.711893  1
  Sc  Sc5  1  0.284127  0.711893  0.711893  1
  Ti  Ti6  1  0.880903  0.880903  0.880903  1
  Nb  Nb7  1  0.878845  0.878845  0.361072  1
  Nb  Nb8  1  0.878845  0.361072  0.878845  1
  Nb  Nb9  1  0.361072  0.878845  0.878845  1
  Al  Al10  1  0.120151  0.120151  0.638102  1
  Al  Al11  1  0.120151  0.638102  0.120151  1
  Al  Al12  1  0.638102  0.120151  0.120151  1
  Al  Al13  1  0.120804  0.120804  0.120804  1
  Al  Al14  1  0.666756  0.666756  0.004715  1
  Al  Al15  1  0.666756  0.004715  0.666756  1
  Al  Al16  1  0.004715  0.666756  0.666756  1
  Al  Al17  1  0.662310  0.662310  0.662310  1
  Al  Al18  1  0.334949  0.334949  0.996372  1
  Al  Al19  1  0.334949  0.996372  0.334949  1
  Al  Al20  1  0.996372  0.334949  0.334949  1
  Al  Al21  1  0.335152  0.335152  0.335152  1
  Ru  Ru22  1  0.999889  0.999889  0.999889  1
  Ru  Ru23  1  0.998429  0.998429  0.501332  1
  Ru  Ru24  1  0.502820  0.997294  0.502820  1
  Ru  Ru25  1  0.997294  0.502820  0.502820  1
  Ru  Ru26  1  0.502820  0.502820  0.997294  1
  Ru  Ru27  1  0.998429  0.501332  0.998429  1
  Ru  Ru28  1  0.501332  0.998429  0.998429  1
