# generated using pymatgen
data_CsRb7Ba4(Nb2Se11)4
_symmetry_space_group_name_H-M   'P 1'
_cell_length_a   14.31265920
_cell_length_b   8.02135664
_cell_length_c   17.30946927
_cell_angle_alpha   83.77806707
_cell_angle_beta   90.04636754
_cell_angle_gamma   90.01242255
_symmetry_Int_Tables_number   1
_chemical_formula_structural   CsRb7Ba4(Nb2Se11)4
_chemical_formula_sum   'Cs1 Rb7 Ba4 Nb8 Se44'
_cell_volume   1975.54082042
_cell_formula_units_Z   1
loop_
 _symmetry_equiv_pos_site_id
 _symmetry_equiv_pos_as_xyz
  1  'x, y, z'
loop_
 _atom_site_type_symbol
 _atom_site_label
 _atom_site_symmetry_multiplicity
 _atom_site_fract_x
 _atom_site_fract_y
 _atom_site_fract_z
 _atom_site_occupancy
  Cs  Cs0  1  0.541574  0.265344  0.914955  1
  Rb  Rb1  1  0.458950  0.738087  0.084841  1
  Rb  Rb2  1  0.958968  0.261896  0.415198  1
  Rb  Rb3  1  0.883346  0.292388  0.732941  1
  Rb  Rb4  1  0.041023  0.738115  0.584791  1
  Rb  Rb5  1  0.383326  0.707659  0.767031  1
  Rb  Rb6  1  0.616674  0.292383  0.232990  1
  Rb  Rb7  1  0.116652  0.707588  0.267053  1
  Ba  Ba8  1  0.877939  0.248616  0.033241  1
  Ba  Ba9  1  0.622137  0.248631  0.533178  1
  Ba  Ba10  1  0.377879  0.751404  0.466770  1
  Ba  Ba11  1  0.122046  0.751379  0.966807  1
  Nb  Nb12  1  0.326966  0.142729  0.195347  1
  Nb  Nb13  1  0.172505  0.142870  0.694969  1
  Nb  Nb14  1  0.716788  0.721519  0.605672  1
  Nb  Nb15  1  0.672706  0.856695  0.804856  1
  Nb  Nb16  1  0.216608  0.278315  0.894279  1
  Nb  Nb17  1  0.783392  0.721721  0.105791  1
  Nb  Nb18  1  0.827455  0.857062  0.305041  1
  Nb  Nb19  1  0.283212  0.278481  0.394300  1
  Se  Se20  1  0.164323  0.146641  0.301825  1
  Se  Se21  1  0.123606  0.162881  0.023517  1
  Se  Se22  1  0.282122  0.960953  0.610918  1
  Se  Se23  1  0.876420  0.837082  0.976485  1
  Se  Se24  1  0.194058  0.495423  0.444931  1
  Se  Se25  1  0.823507  0.559181  0.250678  1
  Se  Se26  1  0.446406  0.206087  0.102480  1
  Se  Se27  1  0.546143  0.600700  0.605398  1
  Se  Se28  1  0.782266  0.038707  0.889004  1
  Se  Se29  1  0.217815  0.960784  0.110880  1
  Se  Se30  1  0.294649  0.376614  0.654901  1
  Se  Se31  1  0.575555  0.922089  0.674934  1
  Se  Se32  1  0.811717  0.991162  0.567012  1
  Se  Se33  1  0.453831  0.399119  0.394606  1
  Se  Se34  1  0.046084  0.399191  0.894559  1
  Se  Se35  1  0.705339  0.623347  0.345102  1
  Se  Se36  1  0.623605  0.837106  0.476401  1
  Se  Se37  1  0.638159  0.159115  0.735156  1
  Se  Se38  1  0.664503  0.853283  0.198265  1
  Se  Se39  1  0.053485  0.206270  0.601406  1
  Se  Se40  1  0.835576  0.853439  0.698197  1
  Se  Se41  1  0.205228  0.376753  0.154814  1
  Se  Se42  1  0.305643  0.495586  0.944962  1
  Se  Se43  1  0.137463  0.840260  0.764050  1
  Se  Se44  1  0.862496  0.159734  0.235965  1
  Se  Se45  1  0.424497  0.077362  0.324921  1
  Se  Se46  1  0.946503  0.793744  0.398590  1
  Se  Se47  1  0.362491  0.840075  0.264087  1
  Se  Se48  1  0.334887  0.146335  0.801649  1
  Se  Se49  1  0.953882  0.600800  0.105460  1
  Se  Se50  1  0.323490  0.440854  0.249424  1
  Se  Se51  1  0.176470  0.440844  0.749329  1
  Se  Se52  1  0.924517  0.922615  0.175248  1
  Se  Se53  1  0.553748  0.793669  0.898335  1
  Se  Se54  1  0.794741  0.623118  0.845196  1
  Se  Se55  1  0.676591  0.559140  0.750378  1
  Se  Se56  1  0.188267  0.008834  0.433033  1
  Se  Se57  1  0.717868  0.039006  0.389090  1
  Se  Se58  1  0.688405  0.991034  0.067086  1
  Se  Se59  1  0.805970  0.504574  0.555066  1
  Se  Se60  1  0.075457  0.077430  0.824778  1
  Se  Se61  1  0.311520  0.008695  0.932963  1
  Se  Se62  1  0.694171  0.504577  0.055268  1
  Se  Se63  1  0.376381  0.162907  0.523600  1
