# generated using pymatgen
data_Sc6TiAl15CuOs6
_symmetry_space_group_name_H-M   'P 1'
_cell_length_a   8.77371468
_cell_length_b   8.77371440
_cell_length_c   8.78156875
_cell_angle_alpha   60.02957756
_cell_angle_beta   60.02958057
_cell_angle_gamma   60.00000283
_symmetry_Int_Tables_number   1
_chemical_formula_structural   Sc6TiAl15CuOs6
_chemical_formula_sum   'Sc6 Ti1 Al15 Cu1 Os6'
_cell_volume   478.20943572
_cell_formula_units_Z   1
loop_
 _symmetry_equiv_pos_site_id
 _symmetry_equiv_pos_as_xyz
  1  'x, y, z'
loop_
 _atom_site_type_symbol
 _atom_site_label
 _atom_site_symmetry_multiplicity
 _atom_site_fract_x
 _atom_site_fract_y
 _atom_site_fract_z
 _atom_site_occupancy
  Sc  Sc0  1  0.708851  0.708851  0.286769  1
  Sc  Sc1  1  0.295529  0.708851  0.286769  1
  Sc  Sc2  1  0.708851  0.295529  0.286769  1
  Sc  Sc3  1  0.289689  0.289689  0.711093  1
  Sc  Sc4  1  0.709530  0.289689  0.711093  1
  Sc  Sc5  1  0.289689  0.709530  0.711093  1
  Ti  Ti6  1  0.875649  0.875649  0.373051  1
  Al  Al7  1  0.878877  0.364252  0.877993  1
  Al  Al8  1  0.364252  0.878877  0.877993  1
  Al  Al9  1  0.878877  0.878877  0.877993  1
  Al  Al10  1  0.121689  0.121689  0.634935  1
  Al  Al11  1  0.119743  0.637468  0.123048  1
  Al  Al12  1  0.637468  0.119743  0.123048  1
  Al  Al13  1  0.119743  0.119743  0.123048  1
  Al  Al14  1  0.665162  0.665162  0.004514  1
  Al  Al15  1  0.662157  0.011278  0.664410  1
  Al  Al16  1  0.011278  0.662157  0.664410  1
  Al  Al17  1  0.662157  0.662157  0.664410  1
  Al  Al18  1  0.335656  0.335656  0.993030  1
  Al  Al19  1  0.336387  0.990535  0.336690  1
  Al  Al20  1  0.990535  0.336387  0.336690  1
  Al  Al21  1  0.336387  0.336387  0.336690  1
  Cu  Cu22  1  0.999884  0.999884  0.000349  1
  Os  Os23  1  0.999431  0.999431  0.499020  1
  Os  Os24  1  0.502119  0.999431  0.499020  1
  Os  Os25  1  0.999431  0.502119  0.499020  1
  Os  Os26  1  0.500342  0.500342  0.999019  1
  Os  Os27  1  0.000297  0.500342  0.999019  1
  Os  Os28  1  0.500342  0.000297  0.999019  1
