# generated using pymatgen
data_Ho10CoNiSb4
_symmetry_space_group_name_H-M   'P 1'
_cell_length_a   7.86103600
_cell_length_b   8.76450600
_cell_length_c   12.13337200
_cell_angle_alpha   90.00000000
_cell_angle_beta   90.00000000
_cell_angle_gamma   90.00000000
_symmetry_Int_Tables_number   1
_chemical_formula_structural   Ho10CoNiSb4
_chemical_formula_sum   'Ho20 Co2 Ni2 Sb8'
_cell_volume   835.96624328
_cell_formula_units_Z   2
loop_
 _symmetry_equiv_pos_site_id
 _symmetry_equiv_pos_as_xyz
  1  'x, y, z'
loop_
 _atom_site_type_symbol
 _atom_site_label
 _atom_site_symmetry_multiplicity
 _atom_site_fract_x
 _atom_site_fract_y
 _atom_site_fract_z
 _atom_site_occupancy
  Ho  Ho0  1  0.155899  0.750000  0.203728  1
  Ho  Ho1  1  0.655899  0.250000  0.296272  1
  Ho  Ho2  1  0.842042  0.250000  0.793233  1
  Ho  Ho3  1  0.342042  0.750000  0.706767  1
  Ho  Ho4  1  0.453595  0.750000  0.999174  1
  Ho  Ho5  1  0.953595  0.250000  0.500826  1
  Ho  Ho6  1  0.544547  0.250000  0.001340  1
  Ho  Ho7  1  0.044547  0.750000  0.498660  1
  Ho  Ho8  1  0.626221  0.750000  0.304258  1
  Ho  Ho9  1  0.126221  0.250000  0.195742  1
  Ho  Ho10  1  0.376413  0.250000  0.693305  1
  Ho  Ho11  1  0.876413  0.750000  0.806695  1
  Ho  Ho12  1  0.821962  0.957530  0.065428  1
  Ho  Ho13  1  0.321962  0.042470  0.434572  1
  Ho  Ho14  1  0.179272  0.464696  0.933801  1
  Ho  Ho15  1  0.679272  0.535304  0.566199  1
  Ho  Ho16  1  0.179272  0.035304  0.933801  1
  Ho  Ho17  1  0.679272  0.964696  0.566199  1
  Ho  Ho18  1  0.821962  0.542470  0.065428  1
  Ho  Ho19  1  0.321962  0.457530  0.434572  1
  Co  Co20  1  0.568684  0.250000  0.509905  1
  Co  Co21  1  0.068684  0.750000  0.990095  1
  Ni  Ni22  1  0.430165  0.750000  0.489942  1
  Ni  Ni23  1  0.930165  0.250000  0.010058  1
  Sb  Sb24  1  0.929930  0.991899  0.326907  1
  Sb  Sb25  1  0.429930  0.008101  0.173093  1
  Sb  Sb26  1  0.070052  0.491686  0.672761  1
  Sb  Sb27  1  0.570052  0.508314  0.827239  1
  Sb  Sb28  1  0.070052  0.008314  0.672761  1
  Sb  Sb29  1  0.570052  0.991686  0.827239  1
  Sb  Sb30  1  0.929930  0.508101  0.326907  1
  Sb  Sb31  1  0.429930  0.491899  0.173093  1
