# generated using pymatgen
data_Dy2BeB3Ru5
_symmetry_space_group_name_H-M   'P 1'
_cell_length_a   3.09746400
_cell_length_b   8.80551272
_cell_length_c   10.32528701
_cell_angle_alpha   90.12999722
_cell_angle_beta   90.00000000
_cell_angle_gamma   90.00000000
_symmetry_Int_Tables_number   1
_chemical_formula_structural   Dy2BeB3Ru5
_chemical_formula_sum   'Dy4 Be2 B6 Ru10'
_cell_volume   281.61898657
_cell_formula_units_Z   2
loop_
 _symmetry_equiv_pos_site_id
 _symmetry_equiv_pos_as_xyz
  1  'x, y, z'
loop_
 _atom_site_type_symbol
 _atom_site_label
 _atom_site_symmetry_multiplicity
 _atom_site_fract_x
 _atom_site_fract_y
 _atom_site_fract_z
 _atom_site_occupancy
  Dy  Dy0  1  0.500000  0.840168  0.182725  1
  Dy  Dy1  1  0.500000  0.159832  0.817275  1
  Dy  Dy2  1  0.500000  0.657953  0.681850  1
  Dy  Dy3  1  0.500000  0.342047  0.318150  1
  Be  Be4  1  0.500000  0.963564  0.593234  1
  Be  Be5  1  0.500000  0.036436  0.406766  1
  B  B6  1  0.500000  0.853540  0.899394  1
  B  B7  1  0.500000  0.146460  0.100606  1
  B  B8  1  0.500000  0.653200  0.404384  1
  B  B9  1  0.500000  0.346800  0.595616  1
  B  B10  1  0.500000  0.467152  0.911118  1
  B  B11  1  0.500000  0.532848  0.088882  1
  Ru  Ru12  1  0.000000  0.656100  0.957261  1
  Ru  Ru13  1  0.000000  0.343900  0.042739  1
  Ru  Ru14  1  0.000000  0.830954  0.449825  1
  Ru  Ru15  1  0.000000  0.169046  0.550175  1
  Ru  Ru16  1  0.000000  0.000000  0.000000  1
  Ru  Ru17  1  0.000000  0.408444  0.761568  1
  Ru  Ru18  1  0.000000  0.591556  0.238432  1
  Ru  Ru19  1  0.000000  0.500000  0.500000  1
  Ru  Ru20  1  0.000000  0.899550  0.750050  1
  Ru  Ru21  1  0.000000  0.100450  0.249950  1
