# generated using pymatgen
data_Tb9Er(AlTe)4
_symmetry_space_group_name_H-M   'P 1'
_cell_length_a   8.73866203
_cell_length_b   8.73866246
_cell_length_c   7.97815900
_cell_angle_alpha   89.97218697
_cell_angle_beta   89.97218697
_cell_angle_gamma   125.98682675
_symmetry_Int_Tables_number   1
_chemical_formula_structural   Tb9Er(AlTe)4
_chemical_formula_sum   'Tb9 Er1 Al4 Te4'
_cell_volume   492.97230368
_cell_formula_units_Z   1
loop_
 _symmetry_equiv_pos_site_id
 _symmetry_equiv_pos_as_xyz
  1  'x, y, z'
loop_
 _atom_site_type_symbol
 _atom_site_label
 _atom_site_symmetry_multiplicity
 _atom_site_fract_x
 _atom_site_fract_y
 _atom_site_fract_z
 _atom_site_occupancy
  Tb  Tb0  1  0.000000  0.000000  0.000000  1
  Tb  Tb1  1  0.799170  0.538309  0.168361  1
  Tb  Tb2  1  0.461691  0.200830  0.831639  1
  Tb  Tb3  1  0.962233  0.700500  0.668443  1
  Tb  Tb4  1  0.299500  0.037767  0.331557  1
  Tb  Tb5  1  0.200830  0.461691  0.831639  1
  Tb  Tb6  1  0.538309  0.799170  0.168361  1
  Tb  Tb7  1  0.037767  0.299500  0.331557  1
  Tb  Tb8  1  0.700500  0.962233  0.668443  1
  Er  Er9  1  0.500000  0.500000  0.500000  1
  Al  Al10  1  0.875855  0.875855  0.379079  1
  Al  Al11  1  0.124145  0.124145  0.620921  1
  Al  Al12  1  0.622707  0.622707  0.876297  1
  Al  Al13  1  0.377293  0.377293  0.123703  1
  Te  Te14  1  0.204253  0.795747  0.000000  1
  Te  Te15  1  0.703203  0.296797  0.500000  1
  Te  Te16  1  0.795747  0.204253  0.000000  1
  Te  Te17  1  0.296797  0.703203  0.500000  1
