# generated using pymatgen
data_Nd17Pa3Ir5Rh11
_symmetry_space_group_name_H-M   'P 1'
_cell_length_a   7.59613019
_cell_length_b   7.66826458
_cell_length_c   14.91223191
_cell_angle_alpha   89.96716264
_cell_angle_beta   90.10000004
_cell_angle_gamma   90.20619652
_symmetry_Int_Tables_number   1
_chemical_formula_structural   Nd17Pa3Ir5Rh11
_chemical_formula_sum   'Nd17 Pa3 Ir5 Rh11'
_cell_volume   868.61753722
_cell_formula_units_Z   1
loop_
 _symmetry_equiv_pos_site_id
 _symmetry_equiv_pos_as_xyz
  1  'x, y, z'
loop_
 _atom_site_type_symbol
 _atom_site_label
 _atom_site_symmetry_multiplicity
 _atom_site_fract_x
 _atom_site_fract_y
 _atom_site_fract_z
 _atom_site_occupancy
  Nd  Nd0  1  0.834703  0.660972  0.379719  1
  Nd  Nd1  1  0.335913  0.839116  0.378406  1
  Nd  Nd2  1  0.837596  0.661088  0.119104  1
  Nd  Nd3  1  0.661577  0.159898  0.880893  1
  Nd  Nd4  1  0.162969  0.337591  0.621424  1
  Nd  Nd5  1  0.514374  0.683648  0.591258  1
  Nd  Nd6  1  0.015854  0.816850  0.907509  1
  Nd  Nd7  1  0.486166  0.319050  0.094093  1
  Nd  Nd8  1  0.987079  0.187577  0.408719  1
  Nd  Nd9  1  0.487649  0.317180  0.411316  1
  Nd  Nd10  1  0.988509  0.179169  0.091577  1
  Nd  Nd11  1  0.507736  0.677227  0.910406  1
  Nd  Nd12  1  0.010452  0.823233  0.589959  1
  Nd  Nd13  1  0.816480  0.516058  0.748177  1
  Nd  Nd14  1  0.317367  0.982631  0.751614  1
  Nd  Nd15  1  0.174060  0.487059  0.249351  1
  Nd  Nd16  1  0.685319  0.011615  0.252764  1
  Pa  Pa17  1  0.659056  0.155015  0.625116  1
  Pa  Pa18  1  0.160991  0.342085  0.877526  1
  Pa  Pa19  1  0.336308  0.841013  0.121043  1
  Ir  Ir20  1  0.694331  0.971148  0.470353  1
  Ir  Ir21  1  0.201483  0.546813  0.030994  1
  Ir  Ir22  1  0.296863  0.051325  0.966442  1
  Ir  Ir23  1  0.798832  0.436222  0.542822  1
  Ir  Ir24  1  0.341277  0.034349  0.548931  1
  Rh  Rh25  1  0.855138  0.457738  0.951050  1
  Rh  Rh26  1  0.638409  0.957118  0.049759  1
  Rh  Rh27  1  0.169722  0.530399  0.455700  1
  Rh  Rh28  1  0.459675  0.364570  0.752858  1
  Rh  Rh29  1  0.964185  0.137537  0.756076  1
  Rh  Rh30  1  0.528142  0.631096  0.239125  1
  Rh  Rh31  1  0.061685  0.879850  0.234161  1
  Rh  Rh32  1  0.705020  0.885102  0.739818  1
  Rh  Rh33  1  0.200956  0.616508  0.761001  1
  Rh  Rh34  1  0.316029  0.134134  0.243042  1
  Rh  Rh35  1  0.788095  0.368015  0.247891  1
