# generated using pymatgen
data_Nd15DyCd4CoNi3
_symmetry_space_group_name_H-M   'P 1'
_cell_length_a   9.83579253
_cell_length_b   9.83602434
_cell_length_c   9.83931539
_cell_angle_alpha   59.96294742
_cell_angle_beta   59.96093937
_cell_angle_gamma   60.08774643
_symmetry_Int_Tables_number   1
_chemical_formula_structural   Nd15DyCd4CoNi3
_chemical_formula_sum   'Nd15 Dy1 Cd4 Co1 Ni3'
_cell_volume   673.15584436
_cell_formula_units_Z   1
loop_
 _symmetry_equiv_pos_site_id
 _symmetry_equiv_pos_as_xyz
  1  'x, y, z'
loop_
 _atom_site_type_symbol
 _atom_site_label
 _atom_site_symmetry_multiplicity
 _atom_site_fract_x
 _atom_site_fract_y
 _atom_site_fract_z
 _atom_site_occupancy
  Nd  Nd0  1  0.153106  0.542882  0.153376  1
  Nd  Nd1  1  0.688706  0.310980  0.690069  1
  Nd  Nd2  1  0.681834  0.310812  0.313639  1
  Nd  Nd3  1  0.941590  0.561615  0.563542  1
  Nd  Nd4  1  0.542923  0.153147  0.153333  1
  Nd  Nd5  1  0.154539  0.154604  0.544009  1
  Nd  Nd6  1  0.938641  0.938642  0.559801  1
  Nd  Nd7  1  0.310805  0.681794  0.313638  1
  Nd  Nd8  1  0.560858  0.938181  0.935926  1
  Nd  Nd9  1  0.561621  0.941590  0.563529  1
  Nd  Nd10  1  0.690539  0.690451  0.310683  1
  Nd  Nd11  1  0.562954  0.562943  0.939768  1
  Nd  Nd12  1  0.938177  0.560854  0.935928  1
  Nd  Nd13  1  0.310978  0.688659  0.690132  1
  Nd  Nd14  1  0.153554  0.153648  0.149310  1
  Dy  Dy15  1  0.310295  0.310294  0.685940  1
  Cd  Cd16  1  0.921105  0.240101  0.919341  1
  Cd  Cd17  1  0.920454  0.920446  0.920379  1
  Cd  Cd18  1  0.920090  0.920077  0.240101  1
  Cd  Cd19  1  0.240098  0.921097  0.919343  1
  Co  Co20  1  0.357063  0.357074  0.360358  1
  Ni  Ni21  1  0.356766  0.356775  0.923251  1
  Ni  Ni22  1  0.357139  0.926178  0.357299  1
  Ni  Ni23  1  0.926167  0.357157  0.357304  1
