# generated using pymatgen
data_Ho10Er6In4IrPt3
_symmetry_space_group_name_H-M   'P 1'
_cell_length_a   9.64327920
_cell_length_b   9.65888608
_cell_length_c   9.63952100
_cell_angle_alpha   60.06630963
_cell_angle_beta   60.01290134
_cell_angle_gamma   60.08441457
_symmetry_Int_Tables_number   1
_chemical_formula_structural   Ho10Er6In4IrPt3
_chemical_formula_sum   'Ho10 Er6 In4 Ir1 Pt3'
_cell_volume   635.66515806
_cell_formula_units_Z   1
loop_
 _symmetry_equiv_pos_site_id
 _symmetry_equiv_pos_as_xyz
  1  'x, y, z'
loop_
 _atom_site_type_symbol
 _atom_site_label
 _atom_site_symmetry_multiplicity
 _atom_site_fract_x
 _atom_site_fract_y
 _atom_site_fract_z
 _atom_site_occupancy
  Ho  Ho0  1  0.061270  0.061922  0.438404  1
  Ho  Ho1  1  0.647938  0.057374  0.647344  1
  Ho  Ho2  1  0.190722  0.807516  0.191292  1
  Ho  Ho3  1  0.438378  0.062587  0.437442  1
  Ho  Ho4  1  0.186855  0.193684  0.809730  1
  Ho  Ho5  1  0.651807  0.646928  0.651387  1
  Ho  Ho6  1  0.051084  0.646661  0.651128  1
  Ho  Ho7  1  0.438378  0.062587  0.061592  1
  Ho  Ho8  1  0.651807  0.646928  0.049879  1
  Ho  Ho9  1  0.190722  0.807516  0.810470  1
  Er  Er10  1  0.809445  0.192945  0.810552  1
  Er  Er11  1  0.809445  0.192945  0.187059  1
  Er  Er12  1  0.809959  0.808599  0.190721  1
  Er  Er13  1  0.061910  0.436305  0.440034  1
  Er  Er14  1  0.439977  0.435120  0.062452  1
  Er  Er15  1  0.061910  0.436305  0.061753  1
  In  In16  1  0.749694  0.417386  0.416460  1
  In  In17  1  0.416157  0.416916  0.750694  1
  In  In18  1  0.417012  0.749083  0.416952  1
  In  In19  1  0.416157  0.416916  0.416233  1
  Ir  Ir20  1  0.857903  0.426056  0.858021  1
  Pt  Pt21  1  0.856812  0.859258  0.856392  1
  Pt  Pt22  1  0.427849  0.859205  0.856474  1
  Pt  Pt23  1  0.856812  0.859258  0.427540  1
