# generated using pymatgen
data_YbTh3(Pd2Pb)2
_symmetry_space_group_name_H-M   'P 1'
_cell_length_a   8.03354292
_cell_length_b   8.03354225
_cell_length_c   3.77237600
_cell_angle_alpha   90.00000000
_cell_angle_beta   90.00000000
_cell_angle_gamma   89.72321498
_symmetry_Int_Tables_number   1
_chemical_formula_structural   YbTh3(Pd2Pb)2
_chemical_formula_sum   'Yb1 Th3 Pd4 Pb2'
_cell_volume   243.45803136
_cell_formula_units_Z   1
loop_
 _symmetry_equiv_pos_site_id
 _symmetry_equiv_pos_as_xyz
  1  'x, y, z'
loop_
 _atom_site_type_symbol
 _atom_site_label
 _atom_site_symmetry_multiplicity
 _atom_site_fract_x
 _atom_site_fract_y
 _atom_site_fract_z
 _atom_site_occupancy
  Yb  Yb0  1  0.673127  0.173127  0.500000  1
  Th  Th1  1  0.172013  0.324848  0.500000  1
  Th  Th2  1  0.824848  0.672013  0.500000  1
  Th  Th3  1  0.330518  0.830518  0.500000  1
  Pd  Pd4  1  0.371829  0.125683  0.000000  1
  Pd  Pd5  1  0.129391  0.629391  0.000000  1
  Pd  Pd6  1  0.625683  0.871829  0.000000  1
  Pd  Pd7  1  0.879074  0.379074  0.000000  1
  Pb  Pb8  1  0.989817  0.003698  0.000000  1
  Pb  Pb9  1  0.503698  0.489817  0.000000  1
