# generated using pymatgen
data_ErTm4In4AgPt
_symmetry_space_group_name_H-M   'P 1'
_cell_length_a   3.59049600
_cell_length_b   8.15346056
_cell_length_c   18.29531881
_cell_angle_alpha   89.80540051
_cell_angle_beta   90.00000000
_cell_angle_gamma   90.00000000
_symmetry_Int_Tables_number   1
_chemical_formula_structural   ErTm4In4AgPt
_chemical_formula_sum   'Er2 Tm8 In8 Ag2 Pt2'
_cell_volume   535.59177512
_cell_formula_units_Z   2
loop_
 _symmetry_equiv_pos_site_id
 _symmetry_equiv_pos_as_xyz
  1  'x, y, z'
loop_
 _atom_site_type_symbol
 _atom_site_label
 _atom_site_symmetry_multiplicity
 _atom_site_fract_x
 _atom_site_fract_y
 _atom_site_fract_z
 _atom_site_occupancy
  Er  Er0  1  0.000000  0.000000  0.000000  1
  Er  Er1  1  0.000000  0.500000  0.500000  1
  Tm  Tm2  1  0.000000  0.120816  0.421709  1
  Tm  Tm3  1  0.000000  0.879184  0.578291  1
  Tm  Tm4  1  0.000000  0.382050  0.916570  1
  Tm  Tm5  1  0.000000  0.617950  0.083430  1
  Tm  Tm6  1  0.000000  0.256547  0.215127  1
  Tm  Tm7  1  0.000000  0.743453  0.784873  1
  Tm  Tm8  1  0.000000  0.276919  0.720588  1
  Tm  Tm9  1  0.000000  0.723081  0.279412  1
  In  In10  1  0.500000  0.414523  0.352464  1
  In  In11  1  0.500000  0.585477  0.647536  1
  In  In12  1  0.500000  0.076850  0.851287  1
  In  In13  1  0.500000  0.923150  0.148713  1
  In  In14  1  0.500000  0.293315  0.064424  1
  In  In15  1  0.500000  0.706685  0.935576  1
  In  In16  1  0.500000  0.209346  0.569423  1
  In  In17  1  0.500000  0.790654  0.430577  1
  Ag  Ag18  1  0.500000  0.026654  0.301899  1
  Ag  Ag19  1  0.500000  0.973346  0.698101  1
  Pt  Pt20  1  0.500000  0.472720  0.804627  1
  Pt  Pt21  1  0.500000  0.527280  0.195373  1
