# generated using pymatgen
data_Tm7Lu3(CoPd2)2
_symmetry_space_group_name_H-M   'P 1'
_cell_length_a   7.51124700
_cell_length_b   8.48974554
_cell_length_c   11.70986100
_cell_angle_alpha   90.02052317
_cell_angle_beta   90.00000000
_cell_angle_gamma   90.00000000
_symmetry_Int_Tables_number   1
_chemical_formula_structural   Tm7Lu3(CoPd2)2
_chemical_formula_sum   'Tm14 Lu6 Co4 Pd8'
_cell_volume   746.72111033
_cell_formula_units_Z   2
loop_
 _symmetry_equiv_pos_site_id
 _symmetry_equiv_pos_as_xyz
  1  'x, y, z'
loop_
 _atom_site_type_symbol
 _atom_site_label
 _atom_site_symmetry_multiplicity
 _atom_site_fract_x
 _atom_site_fract_y
 _atom_site_fract_z
 _atom_site_occupancy
  Tm  Tm0  1  0.162991  0.750574  0.217044  1
  Tm  Tm1  1  0.662991  0.249426  0.282956  1
  Tm  Tm2  1  0.837039  0.250235  0.782971  1
  Tm  Tm3  1  0.337039  0.749765  0.717029  1
  Tm  Tm4  1  0.463026  0.750712  0.001613  1
  Tm  Tm5  1  0.963026  0.249288  0.498387  1
  Tm  Tm6  1  0.535766  0.248796  0.998017  1
  Tm  Tm7  1  0.035766  0.751204  0.501983  1
  Tm  Tm8  1  0.641285  0.750792  0.311980  1
  Tm  Tm9  1  0.141285  0.249208  0.188020  1
  Tm  Tm10  1  0.359728  0.249832  0.688572  1
  Tm  Tm11  1  0.859728  0.750168  0.811428  1
  Tm  Tm12  1  0.828864  0.531450  0.083889  1
  Tm  Tm13  1  0.328864  0.468550  0.416111  1
  Lu  Lu14  1  0.829447  0.967934  0.083944  1
  Lu  Lu15  1  0.329447  0.032066  0.416056  1
  Lu  Lu16  1  0.171173  0.468005  0.915356  1
  Lu  Lu17  1  0.671173  0.531995  0.584644  1
  Lu  Lu18  1  0.170246  0.031855  0.915371  1
  Lu  Lu19  1  0.670246  0.968145  0.584629  1
  Co  Co20  1  0.434815  0.750436  0.497356  1
  Co  Co21  1  0.934815  0.249564  0.002644  1
  Co  Co22  1  0.567043  0.249680  0.503525  1
  Co  Co23  1  0.067043  0.750320  0.996475  1
  Pd  Pd24  1  0.943205  0.993693  0.331842  1
  Pd  Pd25  1  0.443205  0.006307  0.168158  1
  Pd  Pd26  1  0.057114  0.493477  0.667443  1
  Pd  Pd27  1  0.557114  0.506523  0.832557  1
  Pd  Pd28  1  0.056465  0.006767  0.667915  1
  Pd  Pd29  1  0.556465  0.993233  0.832085  1
  Pd  Pd30  1  0.941794  0.506623  0.332697  1
  Pd  Pd31  1  0.441794  0.493377  0.167303  1
