# generated using pymatgen
data_Ta8MnBiS16
_symmetry_space_group_name_H-M   'P 1'
_cell_length_a   6.70398800
_cell_length_b   6.70398857
_cell_length_c   13.43602700
_cell_angle_alpha   90.00000000
_cell_angle_beta   90.00000000
_cell_angle_gamma   120.00000704
_symmetry_Int_Tables_number   1
_chemical_formula_structural   Ta8MnBiS16
_chemical_formula_sum   'Ta8 Mn1 Bi1 S16'
_cell_volume   522.95938649
_cell_formula_units_Z   1
loop_
 _symmetry_equiv_pos_site_id
 _symmetry_equiv_pos_as_xyz
  1  'x, y, z'
loop_
 _atom_site_type_symbol
 _atom_site_label
 _atom_site_symmetry_multiplicity
 _atom_site_fract_x
 _atom_site_fract_y
 _atom_site_fract_z
 _atom_site_occupancy
  Ta  Ta0  1  0.505780  0.494220  0.766054  1
  Ta  Ta1  1  0.011559  0.505780  0.233946  1
  Ta  Ta2  1  0.494220  0.988441  0.233946  1
  Ta  Ta3  1  0.505780  0.011559  0.766054  1
  Ta  Ta4  1  0.988441  0.494220  0.766054  1
  Ta  Ta5  1  0.494220  0.505780  0.233946  1
  Ta  Ta6  1  0.000000  0.000000  0.766536  1
  Ta  Ta7  1  0.000000  0.000000  0.233464  1
  Mn  Mn8  1  0.000000  0.000000  0.000000  1
  Bi  Bi9  1  0.000000  0.000000  0.500000  1
  S  S10  1  0.830304  0.169696  0.349208  1
  S  S11  1  0.830304  0.660608  0.349208  1
  S  S12  1  0.339392  0.169696  0.349208  1
  S  S13  1  0.663817  0.831908  0.881363  1
  S  S14  1  0.169696  0.339392  0.650792  1
  S  S15  1  0.168092  0.831908  0.881363  1
  S  S16  1  0.168092  0.336183  0.881363  1
  S  S17  1  0.831908  0.168092  0.118637  1
  S  S18  1  0.336183  0.168092  0.118637  1
  S  S19  1  0.660608  0.830304  0.650792  1
  S  S20  1  0.333333  0.666667  0.115247  1
  S  S21  1  0.666667  0.333333  0.646024  1
  S  S22  1  0.666667  0.333333  0.884753  1
  S  S23  1  0.333333  0.666667  0.353976  1
  S  S24  1  0.831908  0.663817  0.118637  1
  S  S25  1  0.169696  0.830304  0.650792  1
