# generated using pymatgen
data_Er3Mg(P3Ir4)2
_symmetry_space_group_name_H-M   'P 1'
_cell_length_a   3.97600500
_cell_length_b   11.25937900
_cell_length_c   12.77546200
_cell_angle_alpha   90.00000000
_cell_angle_beta   90.00000000
_cell_angle_gamma   90.00000000
_symmetry_Int_Tables_number   1
_chemical_formula_structural   Er3Mg(P3Ir4)2
_chemical_formula_sum   'Er6 Mg2 P12 Ir16'
_cell_volume   571.92354301
_cell_formula_units_Z   2
loop_
 _symmetry_equiv_pos_site_id
 _symmetry_equiv_pos_as_xyz
  1  'x, y, z'
loop_
 _atom_site_type_symbol
 _atom_site_label
 _atom_site_symmetry_multiplicity
 _atom_site_fract_x
 _atom_site_fract_y
 _atom_site_fract_z
 _atom_site_occupancy
  Er  Er0  1  0.750000  0.250000  0.478426  1
  Er  Er1  1  0.250000  0.750000  0.521574  1
  Er  Er2  1  0.250000  0.930619  0.795946  1
  Er  Er3  1  0.250000  0.569381  0.795946  1
  Er  Er4  1  0.750000  0.069381  0.204054  1
  Er  Er5  1  0.750000  0.430619  0.204054  1
  Mg  Mg6  1  0.250000  0.250000  0.839898  1
  Mg  Mg7  1  0.750000  0.750000  0.160102  1
  P  P8  1  0.250000  0.250000  0.120371  1
  P  P9  1  0.750000  0.750000  0.879629  1
  P  P10  1  0.250000  0.250000  0.642493  1
  P  P11  1  0.750000  0.750000  0.357507  1
  P  P12  1  0.250000  0.436150  0.382176  1
  P  P13  1  0.250000  0.063850  0.382176  1
  P  P14  1  0.750000  0.563850  0.617824  1
  P  P15  1  0.750000  0.936150  0.617824  1
  P  P16  1  0.250000  0.909414  0.109601  1
  P  P17  1  0.250000  0.590586  0.109601  1
  P  P18  1  0.750000  0.090586  0.890399  1
  P  P19  1  0.750000  0.409414  0.890399  1
  Ir  Ir20  1  0.250000  0.250000  0.298822  1
  Ir  Ir21  1  0.750000  0.750000  0.701178  1
  Ir  Ir22  1  0.750000  0.250000  0.014996  1
  Ir  Ir23  1  0.250000  0.750000  0.985004  1
  Ir  Ir24  1  0.250000  0.417357  0.008989  1
  Ir  Ir25  1  0.250000  0.082643  0.008989  1
  Ir  Ir26  1  0.750000  0.582643  0.991011  1
  Ir  Ir27  1  0.750000  0.917357  0.991011  1
  Ir  Ir28  1  0.250000  0.456765  0.568671  1
  Ir  Ir29  1  0.250000  0.043235  0.568671  1
  Ir  Ir30  1  0.750000  0.543235  0.431329  1
  Ir  Ir31  1  0.750000  0.956765  0.431329  1
  Ir  Ir32  1  0.250000  0.878076  0.288351  1
  Ir  Ir33  1  0.250000  0.621924  0.288351  1
  Ir  Ir34  1  0.750000  0.121924  0.711649  1
  Ir  Ir35  1  0.750000  0.378076  0.711649  1
