# generated using pymatgen
data_Gd7Ho(TeO6)4
_symmetry_space_group_name_H-M   'P 1'
_cell_length_a   5.37869175
_cell_length_b   9.24217945
_cell_length_c   10.13273300
_cell_angle_alpha   90.00761904
_cell_angle_beta   89.95372613
_cell_angle_gamma   89.98381958
_symmetry_Int_Tables_number   1
_chemical_formula_structural   Gd7Ho(TeO6)4
_chemical_formula_sum   'Gd7 Ho1 Te4 O24'
_cell_volume   503.70642336
_cell_formula_units_Z   1
loop_
 _symmetry_equiv_pos_site_id
 _symmetry_equiv_pos_as_xyz
  1  'x, y, z'
loop_
 _atom_site_type_symbol
 _atom_site_label
 _atom_site_symmetry_multiplicity
 _atom_site_fract_x
 _atom_site_fract_y
 _atom_site_fract_z
 _atom_site_occupancy
  Gd  Gd0  1  0.023127  0.396239  0.039850  1
  Gd  Gd1  1  0.035277  0.282685  0.636094  1
  Gd  Gd2  1  0.463865  0.717420  0.136628  1
  Gd  Gd3  1  0.475356  0.605180  0.539320  1
  Gd  Gd4  1  0.523305  0.103378  0.960284  1
  Gd  Gd5  1  0.535844  0.217169  0.363777  1
  Gd  Gd6  1  0.964489  0.782828  0.863230  1
  Ho  Ho7  1  0.977699  0.897471  0.460048  1
  Te  Te8  1  0.039909  0.004205  0.147747  1
  Te  Te9  1  0.460559  0.994450  0.644858  1
  Te  Te10  1  0.540248  0.495343  0.853593  1
  Te  Te11  1  0.959154  0.505914  0.354071  1
  O  O12  1  0.079162  0.657151  0.472152  1
  O  O13  1  0.169955  0.550795  0.205695  1
  O  O14  1  0.183225  0.860250  0.263062  1
  O  O15  1  0.184891  0.858663  0.674260  1
  O  O16  1  0.226484  0.387337  0.434229  1
  O  O17  1  0.251126  0.082397  0.505026  1
  O  O18  1  0.247089  0.914000  0.007796  1
  O  O19  1  0.273165  0.614152  0.933463  1
  O  O20  1  0.314632  0.140100  0.178500  1
  O  O21  1  0.314790  0.138848  0.759305  1
  O  O22  1  0.329671  0.449445  0.705623  1
  O  O23  1  0.419369  0.346389  0.973338  1
  O  O24  1  0.589977  0.846555  0.526546  1
  O  O25  1  0.669243  0.948893  0.794061  1
  O  O26  1  0.685249  0.639765  0.739526  1
  O  O27  1  0.683802  0.640247  0.321516  1
  O  O28  1  0.727087  0.113786  0.565649  1
  O  O29  1  0.752673  0.415427  0.493786  1
  O  O30  1  0.747152  0.585750  0.993191  1
  O  O31  1  0.773238  0.886068  0.066831  1
  O  O32  1  0.814494  0.359289  0.821871  1
  O  O33  1  0.815306  0.360385  0.240169  1
  O  O34  1  0.830554  0.048841  0.297024  1
  O  O35  1  0.918838  0.153181  0.027881  1
