# generated using pymatgen
data_Y3Tm7Al3Ru
_symmetry_space_group_name_H-M   'P 1'
_cell_length_a   9.45695900
_cell_length_b   9.45695898
_cell_length_c   9.52925400
_cell_angle_alpha   90.00000000
_cell_angle_beta   90.00000000
_cell_angle_gamma   119.99999658
_symmetry_Int_Tables_number   1
_chemical_formula_structural   Y3Tm7Al3Ru
_chemical_formula_sum   'Y6 Tm14 Al6 Ru2'
_cell_volume   738.06151637
_cell_formula_units_Z   2
loop_
 _symmetry_equiv_pos_site_id
 _symmetry_equiv_pos_as_xyz
  1  'x, y, z'
loop_
 _atom_site_type_symbol
 _atom_site_label
 _atom_site_symmetry_multiplicity
 _atom_site_fract_x
 _atom_site_fract_y
 _atom_site_fract_z
 _atom_site_occupancy
  Y  Y0  1  0.539315  0.460685  0.250000  1
  Y  Y1  1  0.539315  0.078631  0.250000  1
  Y  Y2  1  0.921369  0.460685  0.250000  1
  Y  Y3  1  0.460685  0.539315  0.750000  1
  Y  Y4  1  0.460685  0.921369  0.750000  1
  Y  Y5  1  0.078631  0.539315  0.750000  1
  Tm  Tm6  1  0.000000  0.000000  0.500000  1
  Tm  Tm7  1  0.000000  0.000000  0.000000  1
  Tm  Tm8  1  0.207194  0.792806  0.439087  1
  Tm  Tm9  1  0.207194  0.414389  0.439087  1
  Tm  Tm10  1  0.585611  0.792806  0.439087  1
  Tm  Tm11  1  0.792806  0.207194  0.560913  1
  Tm  Tm12  1  0.792806  0.585611  0.560913  1
  Tm  Tm13  1  0.414389  0.207194  0.560913  1
  Tm  Tm14  1  0.792806  0.207194  0.939087  1
  Tm  Tm15  1  0.792806  0.585611  0.939087  1
  Tm  Tm16  1  0.414389  0.207194  0.939087  1
  Tm  Tm17  1  0.207194  0.792806  0.060913  1
  Tm  Tm18  1  0.207194  0.414389  0.060913  1
  Tm  Tm19  1  0.585611  0.792806  0.060913  1
  Al  Al20  1  0.889581  0.110419  0.250000  1
  Al  Al21  1  0.889581  0.779163  0.250000  1
  Al  Al22  1  0.220837  0.110419  0.250000  1
  Al  Al23  1  0.110419  0.889581  0.750000  1
  Al  Al24  1  0.110419  0.220837  0.750000  1
  Al  Al25  1  0.779163  0.889581  0.750000  1
  Ru  Ru26  1  0.333333  0.666667  0.250000  1
  Ru  Ru27  1  0.666667  0.333333  0.750000  1
