# generated using pymatgen
data_Tb8AlZnI12
_symmetry_space_group_name_H-M   'P 1'
_cell_length_a   4.18630500
_cell_length_b   14.28215326
_cell_length_c   15.00772866
_cell_angle_alpha   89.88431517
_cell_angle_beta   90.00000000
_cell_angle_gamma   90.00000000
_symmetry_Int_Tables_number   1
_chemical_formula_structural   Tb8AlZnI12
_chemical_formula_sum   'Tb8 Al1 Zn1 I12'
_cell_volume   897.30200776
_cell_formula_units_Z   1
loop_
 _symmetry_equiv_pos_site_id
 _symmetry_equiv_pos_as_xyz
  1  'x, y, z'
loop_
 _atom_site_type_symbol
 _atom_site_label
 _atom_site_symmetry_multiplicity
 _atom_site_fract_x
 _atom_site_fract_y
 _atom_site_fract_z
 _atom_site_occupancy
  Tb  Tb0  1  0.500000  0.116885  0.343257  1
  Tb  Tb1  1  0.500000  0.883115  0.656743  1
  Tb  Tb2  1  0.500000  0.613463  0.151889  1
  Tb  Tb3  1  0.500000  0.386537  0.848111  1
  Tb  Tb4  1  0.000000  0.118442  0.579943  1
  Tb  Tb5  1  0.000000  0.881558  0.420057  1
  Tb  Tb6  1  0.000000  0.613656  0.923244  1
  Tb  Tb7  1  0.000000  0.386344  0.076756  1
  Al  Al8  1  0.500000  0.000000  0.500000  1
  Zn  Zn9  1  0.500000  0.500000  0.000000  1
  I  I10  1  0.500000  0.246171  0.163743  1
  I  I11  1  0.500000  0.753829  0.836257  1
  I  I12  1  0.500000  0.744304  0.335113  1
  I  I13  1  0.500000  0.255696  0.664887  1
  I  I14  1  0.000000  0.259031  0.414692  1
  I  I15  1  0.000000  0.740969  0.585308  1
  I  I16  1  0.000000  0.759401  0.085441  1
  I  I17  1  0.000000  0.240599  0.914559  1
  I  I18  1  0.000000  0.998818  0.239215  1
  I  I19  1  0.000000  0.001182  0.760785  1
  I  I20  1  0.000000  0.498807  0.261065  1
  I  I21  1  0.000000  0.501193  0.738935  1
