# generated using pymatgen
data_CeMnCrB6
_symmetry_space_group_name_H-M   'P 1'
_cell_length_a   5.47567138
_cell_length_b   5.47567159
_cell_length_c   5.47567179
_cell_angle_alpha   147.16500947
_cell_angle_beta   107.73123724
_cell_angle_gamma   81.67500143
_symmetry_Int_Tables_number   1
_chemical_formula_structural   CeMnCrB6
_chemical_formula_sum   'Ce1 Mn1 Cr1 B6'
_cell_volume   82.80601284
_cell_formula_units_Z   1
loop_
 _symmetry_equiv_pos_site_id
 _symmetry_equiv_pos_as_xyz
  1  'x, y, z'
loop_
 _atom_site_type_symbol
 _atom_site_label
 _atom_site_symmetry_multiplicity
 _atom_site_fract_x
 _atom_site_fract_y
 _atom_site_fract_z
 _atom_site_occupancy
  Ce  Ce0  1  0.000046  0.000046  0.000000  1
  Mn  Mn1  1  0.653980  0.153980  0.500000  1
  Cr  Cr2  1  0.343676  0.843677  0.500000  1
  B  B3  1  0.542648  0.303752  0.238896  1
  B  B4  1  0.461774  0.696745  0.765029  1
  B  B5  1  0.931716  0.696745  0.234971  1
  B  B6  1  0.359540  0.500652  0.858887  1
  B  B7  1  0.641765  0.500652  0.141113  1
  B  B8  1  0.064857  0.303752  0.761104  1
