# generated using pymatgen
data_HoEr5Co4(P6Ru7)2
_symmetry_space_group_name_H-M   'P 1'
_cell_length_a   3.85713300
_cell_length_b   10.87459300
_cell_length_c   12.63836600
_cell_angle_alpha   90.00000000
_cell_angle_beta   90.00000000
_cell_angle_gamma   90.00000000
_symmetry_Int_Tables_number   1
_chemical_formula_structural   HoEr5Co4(P6Ru7)2
_chemical_formula_sum   'Ho1 Er5 Co4 P12 Ru14'
_cell_volume   530.11312151
_cell_formula_units_Z   1
loop_
 _symmetry_equiv_pos_site_id
 _symmetry_equiv_pos_as_xyz
  1  'x, y, z'
loop_
 _atom_site_type_symbol
 _atom_site_label
 _atom_site_symmetry_multiplicity
 _atom_site_fract_x
 _atom_site_fract_y
 _atom_site_fract_z
 _atom_site_occupancy
  Ho  Ho0  1  0.000000  0.500000  0.525867  1
  Er  Er1  1  0.500000  0.000000  0.473046  1
  Er  Er2  1  0.500000  0.821971  0.203116  1
  Er  Er3  1  0.500000  0.178029  0.203116  1
  Er  Er4  1  0.000000  0.681053  0.797403  1
  Er  Er5  1  0.000000  0.318947  0.797403  1
  Co  Co6  1  0.000000  0.500000  0.987617  1
  Co  Co7  1  0.500000  0.000000  0.013624  1
  Co  Co8  1  0.000000  0.162207  0.010487  1
  Co  Co9  1  0.000000  0.837793  0.010487  1
  P  P10  1  0.500000  0.306144  0.617514  1
  P  P11  1  0.500000  0.693856  0.617514  1
  P  P12  1  0.000000  0.193553  0.383255  1
  P  P13  1  0.000000  0.806447  0.383255  1
  P  P14  1  0.500000  0.500000  0.885233  1
  P  P15  1  0.000000  0.000000  0.113877  1
  P  P16  1  0.500000  0.851791  0.896144  1
  P  P17  1  0.500000  0.148209  0.896144  1
  P  P18  1  0.000000  0.656231  0.101320  1
  P  P19  1  0.000000  0.343769  0.101320  1
  P  P20  1  0.500000  0.500000  0.336878  1
  P  P21  1  0.000000  0.000000  0.661981  1
  Ru  Ru22  1  0.500000  0.300667  0.429323  1
  Ru  Ru23  1  0.500000  0.699333  0.429323  1
  Ru  Ru24  1  0.000000  0.198901  0.570915  1
  Ru  Ru25  1  0.000000  0.801099  0.570915  1
  Ru  Ru26  1  0.500000  0.877452  0.716094  1
  Ru  Ru27  1  0.500000  0.122548  0.716094  1
  Ru  Ru28  1  0.000000  0.624679  0.282169  1
  Ru  Ru29  1  0.000000  0.375321  0.282169  1
  Ru  Ru30  1  0.500000  0.327252  0.991734  1
  Ru  Ru31  1  0.500000  0.672748  0.991734  1
  Ru  Ru32  1  0.500000  0.500000  0.151783  1
  Ru  Ru33  1  0.000000  0.000000  0.851885  1
  Ru  Ru34  1  0.500000  0.500000  0.699599  1
  Ru  Ru35  1  0.000000  0.000000  0.299662  1
