# generated using pymatgen
data_HoEr11TcRu3
_symmetry_space_group_name_H-M   'P 1'
_cell_length_a   6.25387654
_cell_length_b   7.30691700
_cell_length_c   9.05528000
_cell_angle_alpha   90.00000000
_cell_angle_beta   90.00000000
_cell_angle_gamma   90.02284407
_symmetry_Int_Tables_number   1
_chemical_formula_structural   HoEr11TcRu3
_chemical_formula_sum   'Ho1 Er11 Tc1 Ru3'
_cell_volume   413.79508420
_cell_formula_units_Z   1
loop_
 _symmetry_equiv_pos_site_id
 _symmetry_equiv_pos_as_xyz
  1  'x, y, z'
loop_
 _atom_site_type_symbol
 _atom_site_label
 _atom_site_symmetry_multiplicity
 _atom_site_fract_x
 _atom_site_fract_y
 _atom_site_fract_z
 _atom_site_occupancy
  Ho  Ho0  1  0.365865  0.958174  0.750000  1
  Er  Er1  1  0.332736  0.676073  0.064327  1
  Er  Er2  1  0.167753  0.175969  0.436047  1
  Er  Er3  1  0.668166  0.323709  0.563786  1
  Er  Er4  1  0.834366  0.824721  0.937415  1
  Er  Er5  1  0.668166  0.323709  0.936214  1
  Er  Er6  1  0.834366  0.824721  0.562585  1
  Er  Er7  1  0.332736  0.676073  0.435673  1
  Er  Er8  1  0.167753  0.175969  0.063953  1
  Er  Er9  1  0.867436  0.539996  0.250000  1
  Er  Er10  1  0.628488  0.041644  0.250000  1
  Er  Er11  1  0.134388  0.458009  0.750000  1
  Tc  Tc12  1  0.036937  0.884309  0.250000  1
  Ru  Ru13  1  0.461842  0.383704  0.250000  1
  Ru  Ru14  1  0.960384  0.117638  0.750000  1
  Ru  Ru15  1  0.538621  0.615583  0.750000  1
