# generated using pymatgen
data_Er2Mn2Br
_symmetry_space_group_name_H-M   'P 1'
_cell_length_a   3.81719200
_cell_length_b   3.81719266
_cell_length_c   16.83706200
_cell_angle_alpha   90.00000000
_cell_angle_beta   90.00000000
_cell_angle_gamma   119.99999432
_symmetry_Int_Tables_number   1
_chemical_formula_structural   Er2Mn2Br
_chemical_formula_sum   'Er4 Mn4 Br2'
_cell_volume   212.46385257
_cell_formula_units_Z   2
loop_
 _symmetry_equiv_pos_site_id
 _symmetry_equiv_pos_as_xyz
  1  'x, y, z'
loop_
 _atom_site_type_symbol
 _atom_site_label
 _atom_site_symmetry_multiplicity
 _atom_site_fract_x
 _atom_site_fract_y
 _atom_site_fract_z
 _atom_site_occupancy
  Er  Er0  1  0.000000  0.000000  0.113909  1
  Er  Er1  1  0.000000  0.000000  0.386091  1
  Er  Er2  1  0.000000  0.000000  0.613910  1
  Er  Er3  1  0.000000  0.000000  0.886091  1
  Mn  Mn4  1  0.333334  0.666668  0.009685  1
  Mn  Mn5  1  0.333334  0.666668  0.490315  1
  Mn  Mn6  1  0.666667  0.333332  0.509685  1
  Mn  Mn7  1  0.666667  0.333332  0.990315  1
  Br  Br8  1  0.666667  0.333332  0.250000  1
  Br  Br9  1  0.333334  0.666668  0.750000  1
