# generated using pymatgen
data_Nd8Cd5InAu20
_symmetry_space_group_name_H-M   'P 1'
_cell_length_a   8.74447376
_cell_length_b   8.74447575
_cell_length_c   10.40889400
_cell_angle_alpha   89.93422908
_cell_angle_beta   89.93422435
_cell_angle_gamma   108.18939635
_symmetry_Int_Tables_number   1
_chemical_formula_structural   Nd8Cd5InAu20
_chemical_formula_sum   'Nd8 Cd5 In1 Au20'
_cell_volume   756.15087084
_cell_formula_units_Z   1
loop_
 _symmetry_equiv_pos_site_id
 _symmetry_equiv_pos_as_xyz
  1  'x, y, z'
loop_
 _atom_site_type_symbol
 _atom_site_label
 _atom_site_symmetry_multiplicity
 _atom_site_fract_x
 _atom_site_fract_y
 _atom_site_fract_z
 _atom_site_occupancy
  Nd  Nd0  1  0.701560  0.298440  0.000000  1
  Nd  Nd1  1  0.201182  0.798818  0.500000  1
  Nd  Nd2  1  0.803232  0.803232  0.293923  1
  Nd  Nd3  1  0.301386  0.301386  0.202472  1
  Nd  Nd4  1  0.798818  0.201182  0.500000  1
  Nd  Nd5  1  0.298440  0.701560  0.000000  1
  Nd  Nd6  1  0.698614  0.698614  0.797528  1
  Nd  Nd7  1  0.196768  0.196768  0.706077  1
  Cd  Cd8  1  0.518729  0.019151  0.250152  1
  Cd  Cd9  1  0.980849  0.481271  0.749848  1
  Cd  Cd10  1  0.000000  0.000000  0.000000  1
  Cd  Cd11  1  0.019151  0.518729  0.250152  1
  Cd  Cd12  1  0.481271  0.980849  0.749848  1
  In  In13  1  0.500000  0.500000  0.500000  1
  Au  Au14  1  0.154471  0.430559  0.482692  1
  Au  Au15  1  0.901687  0.901687  0.593511  1
  Au  Au16  1  0.569441  0.845529  0.517308  1
  Au  Au17  1  0.885111  0.166332  0.209711  1
  Au  Au18  1  0.386009  0.666089  0.289614  1
  Au  Au19  1  0.666089  0.386009  0.289614  1
  Au  Au20  1  0.402853  0.402853  0.905924  1
  Au  Au21  1  0.930825  0.654089  0.017440  1
  Au  Au22  1  0.333911  0.613991  0.710386  1
  Au  Au23  1  0.345911  0.069175  0.982560  1
  Au  Au24  1  0.597147  0.597147  0.094076  1
  Au  Au25  1  0.654089  0.930825  0.017440  1
  Au  Au26  1  0.098313  0.098313  0.406489  1
  Au  Au27  1  0.613991  0.333911  0.710386  1
  Au  Au28  1  0.114889  0.833668  0.790289  1
  Au  Au29  1  0.069175  0.345911  0.982560  1
  Au  Au30  1  0.845529  0.569441  0.517308  1
  Au  Au31  1  0.166332  0.885111  0.209711  1
  Au  Au32  1  0.430559  0.154471  0.482692  1
  Au  Au33  1  0.833668  0.114889  0.790289  1
