# generated using pymatgen
data_Er3Sc3MnSb2
_symmetry_space_group_name_H-M   'P 1'
_cell_length_a   7.78892200
_cell_length_b   7.78892259
_cell_length_c   4.19283700
_cell_angle_alpha   90.00000000
_cell_angle_beta   90.00000000
_cell_angle_gamma   119.99999750
_symmetry_Int_Tables_number   1
_chemical_formula_structural   Er3Sc3MnSb2
_chemical_formula_sum   'Er3 Sc3 Mn1 Sb2'
_cell_volume   220.28928033
_cell_formula_units_Z   1
loop_
 _symmetry_equiv_pos_site_id
 _symmetry_equiv_pos_as_xyz
  1  'x, y, z'
loop_
 _atom_site_type_symbol
 _atom_site_label
 _atom_site_symmetry_multiplicity
 _atom_site_fract_x
 _atom_site_fract_y
 _atom_site_fract_z
 _atom_site_occupancy
  Er  Er0  1  0.605680  0.000000  0.000000  1
  Er  Er1  1  0.000000  0.605680  0.000000  1
  Er  Er2  1  0.394320  0.394320  0.000000  1
  Sc  Sc3  1  0.227812  0.000000  0.500000  1
  Sc  Sc4  1  0.000000  0.227812  0.500000  1
  Sc  Sc5  1  0.772188  0.772188  0.500000  1
  Mn  Mn6  1  0.000000  0.000000  0.000000  1
  Sb  Sb7  1  0.333333  0.666667  0.500000  1
  Sb  Sb8  1  0.666667  0.333333  0.500000  1
