# generated using pymatgen
data_Dy2ZrSnIr2
_symmetry_space_group_name_H-M   'P 1'
_cell_length_a   4.38654300
_cell_length_b   7.15485000
_cell_length_c   8.40525900
_cell_angle_alpha   90.00000000
_cell_angle_beta   90.00000000
_cell_angle_gamma   90.00000000
_symmetry_Int_Tables_number   1
_chemical_formula_structural   Dy2ZrSnIr2
_chemical_formula_sum   'Dy4 Zr2 Sn2 Ir4'
_cell_volume   263.79953436
_cell_formula_units_Z   2
loop_
 _symmetry_equiv_pos_site_id
 _symmetry_equiv_pos_as_xyz
  1  'x, y, z'
loop_
 _atom_site_type_symbol
 _atom_site_label
 _atom_site_symmetry_multiplicity
 _atom_site_fract_x
 _atom_site_fract_y
 _atom_site_fract_z
 _atom_site_occupancy
  Dy  Dy0  1  0.250000  0.033726  0.330439  1
  Dy  Dy1  1  0.250000  0.533726  0.169561  1
  Dy  Dy2  1  0.750000  0.971628  0.678195  1
  Dy  Dy3  1  0.750000  0.471628  0.821805  1
  Zr  Zr4  1  0.250000  0.129725  0.939708  1
  Zr  Zr5  1  0.250000  0.629725  0.560292  1
  Sn  Sn6  1  0.750000  0.855870  0.071485  1
  Sn  Sn7  1  0.750000  0.355870  0.428515  1
  Ir  Ir8  1  0.250000  0.259759  0.634952  1
  Ir  Ir9  1  0.250000  0.759759  0.865048  1
  Ir  Ir10  1  0.750000  0.749292  0.394183  1
  Ir  Ir11  1  0.750000  0.249292  0.105817  1
