# generated using pymatgen
data_Be7Au2
_symmetry_space_group_name_H-M   'P 1'
_cell_length_a   4.30696311
_cell_length_b   4.30696327
_cell_length_c   11.22181800
_cell_angle_alpha   90.00000000
_cell_angle_beta   90.00000000
_cell_angle_gamma   60.27835525
_symmetry_Int_Tables_number   1
_chemical_formula_structural   Be7Au2
_chemical_formula_sum   'Be14 Au4'
_cell_volume   180.77880066
_cell_formula_units_Z   2
loop_
 _symmetry_equiv_pos_site_id
 _symmetry_equiv_pos_as_xyz
  1  'x, y, z'
loop_
 _atom_site_type_symbol
 _atom_site_label
 _atom_site_symmetry_multiplicity
 _atom_site_fract_x
 _atom_site_fract_y
 _atom_site_fract_z
 _atom_site_occupancy
  Be  Be0  1  0.023154  0.647470  0.081348  1
  Be  Be1  1  0.352530  0.976846  0.081348  1
  Be  Be2  1  0.189577  0.311073  0.250000  1
  Be  Be3  1  0.196629  0.803371  0.250000  1
  Be  Be4  1  0.688927  0.810424  0.250000  1
  Be  Be5  1  0.023154  0.647470  0.418652  1
  Be  Be6  1  0.352530  0.976846  0.418652  1
  Be  Be7  1  0.647470  0.023154  0.581349  1
  Be  Be8  1  0.976846  0.352530  0.581349  1
  Be  Be9  1  0.311073  0.189577  0.750000  1
  Be  Be10  1  0.803371  0.196629  0.750000  1
  Be  Be11  1  0.810424  0.688927  0.750000  1
  Be  Be12  1  0.647470  0.023154  0.918652  1
  Be  Be13  1  0.976846  0.352530  0.918652  1
  Au  Au14  1  0.696608  0.303392  0.114792  1
  Au  Au15  1  0.696608  0.303392  0.385208  1
  Au  Au16  1  0.303392  0.696608  0.614793  1
  Au  Au17  1  0.303392  0.696608  0.885208  1
