# generated using pymatgen
data_Tb3(B3Ru4)2
_symmetry_space_group_name_H-M   'P 1'
_cell_length_a   10.00755111
_cell_length_b   9.20863346
_cell_length_c   5.53040699
_cell_angle_alpha   81.39867784
_cell_angle_beta   65.48038777
_cell_angle_gamma   33.12093429
_symmetry_Int_Tables_number   1
_chemical_formula_structural   Tb3(B3Ru4)2
_chemical_formula_sum   'Tb3 B6 Ru8'
_cell_volume   232.40155018
_cell_formula_units_Z   1
loop_
 _symmetry_equiv_pos_site_id
 _symmetry_equiv_pos_as_xyz
  1  'x, y, z'
loop_
 _atom_site_type_symbol
 _atom_site_label
 _atom_site_symmetry_multiplicity
 _atom_site_fract_x
 _atom_site_fract_y
 _atom_site_fract_z
 _atom_site_occupancy
  Tb  Tb0  1  0.000000  0.000000  0.000000  1
  Tb  Tb1  1  0.818248  0.818248  0.181752  1
  Tb  Tb2  1  0.181752  0.181752  0.818248  1
  B  B3  1  0.673319  0.326681  0.673319  1
  B  B4  1  0.326681  0.673319  0.326681  1
  B  B5  1  0.168819  0.485099  0.514901  1
  B  B6  1  0.485099  0.168819  0.831181  1
  B  B7  1  0.831181  0.514901  0.485099  1
  B  B8  1  0.514901  0.831181  0.168819  1
  Ru  Ru9  1  0.912680  0.912680  0.587320  1
  Ru  Ru10  1  0.415339  0.415339  0.584661  1
  Ru  Ru11  1  0.584661  0.584661  0.415339  1
  Ru  Ru12  1  0.250000  0.250000  0.250000  1
  Ru  Ru13  1  0.750000  0.750000  0.750000  1
  Ru  Ru14  1  0.087320  0.087320  0.412680  1
  Ru  Ru15  1  0.587320  0.587320  0.912680  1
  Ru  Ru16  1  0.412680  0.412680  0.087320  1
