# generated using pymatgen
data_DyPa3(CoB10)2
_symmetry_space_group_name_H-M   'P 1'
_cell_length_a   4.12188600
_cell_length_b   5.52636515
_cell_length_c   11.05873029
_cell_angle_alpha   89.97361092
_cell_angle_beta   90.00000000
_cell_angle_gamma   90.00000000
_symmetry_Int_Tables_number   1
_chemical_formula_structural   DyPa3(CoB10)2
_chemical_formula_sum   'Dy1 Pa3 Co2 B20'
_cell_volume   251.90731181
_cell_formula_units_Z   1
loop_
 _symmetry_equiv_pos_site_id
 _symmetry_equiv_pos_as_xyz
  1  'x, y, z'
loop_
 _atom_site_type_symbol
 _atom_site_label
 _atom_site_symmetry_multiplicity
 _atom_site_fract_x
 _atom_site_fract_y
 _atom_site_fract_z
 _atom_site_occupancy
  Dy  Dy0  1  0.500000  0.196500  0.364538  1
  Pa  Pa1  1  0.500000  0.305826  0.864113  1
  Pa  Pa2  1  0.500000  0.694760  0.134325  1
  Pa  Pa3  1  0.500000  0.804398  0.636589  1
  Co  Co4  1  0.000000  0.504523  0.501610  1
  Co  Co5  1  0.000000  0.000965  0.999102  1
  B  B6  1  0.000000  0.127535  0.539234  1
  B  B7  1  0.000000  0.873444  0.460478  1
  B  B8  1  0.000000  0.627101  0.961486  1
  B  B9  1  0.000000  0.373337  0.039607  1
  B  B10  1  0.000000  0.152993  0.697005  1
  B  B11  1  0.000000  0.842219  0.301318  1
  B  B12  1  0.301790  0.198029  0.113817  1
  B  B13  1  0.302089  0.800725  0.886424  1
  B  B14  1  0.698605  0.701404  0.386805  1
  B  B15  1  0.698578  0.301310  0.613415  1
  B  B16  1  0.697911  0.800725  0.886424  1
  B  B17  1  0.698210  0.198029  0.113817  1
  B  B18  1  0.301422  0.301310  0.613415  1
  B  B19  1  0.301395  0.701404  0.386805  1
  B  B20  1  0.000000  0.027696  0.185364  1
  B  B21  1  0.000000  0.969449  0.812595  1
  B  B22  1  0.000000  0.528917  0.314049  1
  B  B23  1  0.000000  0.469128  0.687276  1
  B  B24  1  0.000000  0.346400  0.197294  1
  B  B25  1  0.000000  0.651873  0.803093  1
