# generated using pymatgen
data_CaY3Mn4(Co4P3)4
_symmetry_space_group_name_H-M   'P 1'
_cell_length_a   3.65696900
_cell_length_b   10.33714041
_cell_length_c   11.82970300
_cell_angle_alpha   89.97012479
_cell_angle_beta   90.00000000
_cell_angle_gamma   90.00000000
_symmetry_Int_Tables_number   1
_chemical_formula_structural   CaY3Mn4(Co4P3)4
_chemical_formula_sum   'Ca1 Y3 Mn4 Co16 P12'
_cell_volume   447.19349362
_cell_formula_units_Z   1
loop_
 _symmetry_equiv_pos_site_id
 _symmetry_equiv_pos_as_xyz
  1  'x, y, z'
loop_
 _atom_site_type_symbol
 _atom_site_label
 _atom_site_symmetry_multiplicity
 _atom_site_fract_x
 _atom_site_fract_y
 _atom_site_fract_z
 _atom_site_occupancy
  Ca  Ca0  1  0.250000  0.918025  0.203862  1
  Y  Y1  1  0.750000  0.082265  0.796247  1
  Y  Y2  1  0.750000  0.418033  0.295528  1
  Y  Y3  1  0.250000  0.581775  0.704496  1
  Mn  Mn4  1  0.250000  0.792145  0.489503  1
  Mn  Mn5  1  0.750000  0.207506  0.511248  1
  Mn  Mn6  1  0.750000  0.288778  0.010447  1
  Mn  Mn7  1  0.250000  0.710580  0.989090  1
  Co  Co8  1  0.250000  0.094945  0.987639  1
  Co  Co9  1  0.750000  0.906875  0.009915  1
  Co  Co10  1  0.750000  0.593963  0.512426  1
  Co  Co11  1  0.250000  0.406263  0.488191  1
  Co  Co12  1  0.250000  0.278594  0.677243  1
  Co  Co13  1  0.750000  0.719748  0.323676  1
  Co  Co14  1  0.750000  0.778135  0.824169  1
  Co  Co15  1  0.250000  0.221485  0.174715  1
  Co  Co16  1  0.250000  0.615551  0.198246  1
  Co  Co17  1  0.750000  0.383715  0.801193  1
  Co  Co18  1  0.750000  0.119193  0.301421  1
  Co  Co19  1  0.250000  0.882493  0.699661  1
  Co  Co20  1  0.250000  0.034910  0.433785  1
  Co  Co21  1  0.750000  0.965182  0.567930  1
  Co  Co22  1  0.750000  0.533600  0.067234  1
  Co  Co23  1  0.250000  0.466235  0.932208  1
  P  P24  1  0.250000  0.079918  0.613776  1
  P  P25  1  0.750000  0.920032  0.386585  1
  P  P26  1  0.750000  0.580957  0.888058  1
  P  P27  1  0.250000  0.418679  0.111352  1
  P  P28  1  0.250000  0.229788  0.366231  1
  P  P29  1  0.750000  0.769742  0.633464  1
  P  P30  1  0.750000  0.730270  0.131747  1
  P  P31  1  0.250000  0.270493  0.868266  1
  P  P32  1  0.250000  0.898837  0.892523  1
  P  P33  1  0.750000  0.100875  0.108044  1
  P  P34  1  0.750000  0.400639  0.609150  1
  P  P35  1  0.250000  0.599779  0.390731  1
