# generated using pymatgen
data_LiYb2ReH6
_symmetry_space_group_name_H-M   'P 1'
_cell_length_a   5.13594700
_cell_length_b   5.13594653
_cell_length_c   5.13594700
_cell_angle_alpha   119.99999656
_cell_angle_beta   90.00000000
_cell_angle_gamma   119.99999656
_symmetry_Int_Tables_number   1
_chemical_formula_structural   LiYb2ReH6
_chemical_formula_sum   'Li1 Yb2 Re1 H6'
_cell_volume   95.79583079
_cell_formula_units_Z   1
loop_
 _symmetry_equiv_pos_site_id
 _symmetry_equiv_pos_as_xyz
  1  'x, y, z'
loop_
 _atom_site_type_symbol
 _atom_site_label
 _atom_site_symmetry_multiplicity
 _atom_site_fract_x
 _atom_site_fract_y
 _atom_site_fract_z
 _atom_site_occupancy
  Li  Li0  1  0.000000  0.000000  0.000000  1
  Yb  Yb1  1  0.749999  0.499998  0.250001  1
  Yb  Yb2  1  0.249997  0.499998  0.749999  1
  Re  Re3  1  0.500000  0.000000  0.500000  1
  H  H4  1  0.254562  0.000000  0.254562  1
  H  H5  1  0.254563  0.509126  0.254563  1
  H  H6  1  0.745437  0.000000  0.254563  1
  H  H7  1  0.745437  0.490874  0.745437  1
  H  H8  1  0.254563  0.000000  0.745437  1
  H  H9  1  0.745438  0.000000  0.745438  1
