# generated using pymatgen
data_Y3In3IrPtRh
_symmetry_space_group_name_H-M   'P 1'
_cell_length_a   7.65233900
_cell_length_b   7.65233877
_cell_length_c   3.86141300
_cell_angle_alpha   90.00000000
_cell_angle_beta   90.00000000
_cell_angle_gamma   119.99999665
_symmetry_Int_Tables_number   1
_chemical_formula_structural   Y3In3IrPtRh
_chemical_formula_sum   'Y3 In3 Ir1 Pt1 Rh1'
_cell_volume   195.82371712
_cell_formula_units_Z   1
loop_
 _symmetry_equiv_pos_site_id
 _symmetry_equiv_pos_as_xyz
  1  'x, y, z'
loop_
 _atom_site_type_symbol
 _atom_site_label
 _atom_site_symmetry_multiplicity
 _atom_site_fract_x
 _atom_site_fract_y
 _atom_site_fract_z
 _atom_site_occupancy
  Y  Y0  1  0.991447  0.586996  0.500000  1
  Y  Y1  1  0.413004  0.404451  0.500000  1
  Y  Y2  1  0.595549  0.008553  0.500000  1
  In  In3  1  0.996836  0.254012  0.000000  1
  In  In4  1  0.257176  0.003164  0.000000  1
  In  In5  1  0.745988  0.742824  0.000000  1
  Ir  Ir6  1  0.666667  0.333333  0.000000  1
  Pt  Pt7  1  0.333333  0.666667  0.000000  1
  Rh  Rh8  1  0.000000  0.000000  0.500000  1
