# generated using pymatgen
data_MgSiP5(Pd10Pb)2
_symmetry_space_group_name_H-M   'P 1'
_cell_length_a   8.66920691
_cell_length_b   8.66397727
_cell_length_c   8.66400839
_cell_angle_alpha   60.03315076
_cell_angle_beta   59.97993115
_cell_angle_gamma   59.98033489
_symmetry_Int_Tables_number   1
_chemical_formula_structural   MgSiP5(Pd10Pb)2
_chemical_formula_sum   'Mg1 Si1 P5 Pd20 Pb2'
_cell_volume   460.12802243
_cell_formula_units_Z   1
loop_
 _symmetry_equiv_pos_site_id
 _symmetry_equiv_pos_as_xyz
  1  'x, y, z'
loop_
 _atom_site_type_symbol
 _atom_site_label
 _atom_site_symmetry_multiplicity
 _atom_site_fract_x
 _atom_site_fract_y
 _atom_site_fract_z
 _atom_site_occupancy
  Mg  Mg0  1  0.998173  0.001834  0.001835  1
  Si  Si1  1  0.735085  0.264916  0.264916  1
  P  P2  1  0.262946  0.737053  0.737053  1
  P  P3  1  0.264841  0.735136  0.263244  1
  P  P4  1  0.736782  0.263244  0.735135  1
  P  P5  1  0.264843  0.263245  0.735135  1
  P  P6  1  0.736779  0.735134  0.263245  1
  Pd  Pd7  1  0.383055  0.384567  0.384568  1
  Pd  Pd8  1  0.615033  0.615303  0.615305  1
  Pd  Pd9  1  0.384721  0.384946  0.845607  1
  Pd  Pd10  1  0.384719  0.845611  0.384946  1
  Pd  Pd11  1  0.615402  0.616976  0.152222  1
  Pd  Pd12  1  0.615406  0.152219  0.616976  1
  Pd  Pd13  1  0.847822  0.384564  0.384564  1
  Pd  Pd14  1  0.154343  0.615310  0.615307  1
  Pd  Pd15  1  0.340540  0.000978  0.000978  1
  Pd  Pd16  1  0.657508  0.000976  0.000975  1
  Pd  Pd17  1  0.999025  0.342452  0.659502  1
  Pd  Pd18  1  0.999023  0.659502  0.342452  1
  Pd  Pd19  1  0.001727  0.342657  0.998262  1
  Pd  Pd20  1  0.657349  0.998265  0.342656  1
  Pd  Pd21  1  0.999944  0.657865  0.000066  1
  Pd  Pd22  1  0.342124  0.000067  0.657864  1
  Pd  Pd23  1  0.001726  0.998263  0.342656  1
  Pd  Pd24  1  0.999945  0.000066  0.657865  1
  Pd  Pd25  1  0.657350  0.342656  0.998265  1
  Pd  Pd26  1  0.342125  0.657862  0.000067  1
  Pb  Pb27  1  0.250806  0.249199  0.249196  1
  Pb  Pb28  1  0.750859  0.749137  0.749138  1
