# generated using pymatgen
data_La7Ho(SiBr6)2
_symmetry_space_group_name_H-M   'P 1'
_cell_length_a   4.28967100
_cell_length_b   13.91036416
_cell_length_c   14.75077339
_cell_angle_alpha   89.12291448
_cell_angle_beta   90.00000000
_cell_angle_gamma   90.00000000
_symmetry_Int_Tables_number   1
_chemical_formula_structural   La7Ho(SiBr6)2
_chemical_formula_sum   'La7 Ho1 Si2 Br12'
_cell_volume   880.08858561
_cell_formula_units_Z   1
loop_
 _symmetry_equiv_pos_site_id
 _symmetry_equiv_pos_as_xyz
  1  'x, y, z'
loop_
 _atom_site_type_symbol
 _atom_site_label
 _atom_site_symmetry_multiplicity
 _atom_site_fract_x
 _atom_site_fract_y
 _atom_site_fract_z
 _atom_site_occupancy
  La  La0  1  0.500000  0.123482  0.335333  1
  La  La1  1  0.500000  0.880129  0.660311  1
  La  La2  1  0.500000  0.614710  0.161654  1
  La  La3  1  0.500000  0.377534  0.843373  1
  La  La4  1  0.000000  0.121757  0.578435  1
  La  La5  1  0.000000  0.879746  0.418612  1
  La  La6  1  0.000000  0.618062  0.921441  1
  Ho  Ho7  1  0.000000  0.385927  0.075903  1
  Si  Si8  1  0.500000  0.001381  0.497635  1
  Si  Si9  1  0.500000  0.496424  0.002260  1
  Br  Br10  1  0.500000  0.258635  0.157903  1
  Br  Br11  1  0.500000  0.756660  0.839198  1
  Br  Br12  1  0.500000  0.741070  0.337249  1
  Br  Br13  1  0.500000  0.256599  0.664408  1
  Br  Br14  1  0.000000  0.256336  0.408681  1
  Br  Br15  1  0.000000  0.745537  0.589407  1
  Br  Br16  1  0.000000  0.751040  0.089670  1
  Br  Br17  1  0.000000  0.247780  0.925914  1
  Br  Br18  1  0.000000  0.005222  0.242119  1
  Br  Br19  1  0.000000  0.997488  0.755092  1
  Br  Br20  1  0.000000  0.488456  0.248772  1
  Br  Br21  1  0.000000  0.496023  0.746630  1
