# generated using pymatgen
data_HoTm3(Co5P3)4
_symmetry_space_group_name_H-M   'P 1'
_cell_length_a   3.63246800
_cell_length_b   10.24402907
_cell_length_c   11.70001608
_cell_angle_alpha   89.98665624
_cell_angle_beta   90.00000000
_cell_angle_gamma   90.00000000
_symmetry_Int_Tables_number   1
_chemical_formula_structural   HoTm3(Co5P3)4
_chemical_formula_sum   'Ho1 Tm3 Co20 P12'
_cell_volume   435.37054762
_cell_formula_units_Z   1
loop_
 _symmetry_equiv_pos_site_id
 _symmetry_equiv_pos_as_xyz
  1  'x, y, z'
loop_
 _atom_site_type_symbol
 _atom_site_label
 _atom_site_symmetry_multiplicity
 _atom_site_fract_x
 _atom_site_fract_y
 _atom_site_fract_z
 _atom_site_occupancy
  Ho  Ho0  1  0.750000  0.082871  0.797144  1
  Tm  Tm1  1  0.250000  0.582758  0.702701  1
  Tm  Tm2  1  0.250000  0.917125  0.202685  1
  Tm  Tm3  1  0.750000  0.417300  0.297287  1
  Co  Co4  1  0.250000  0.716871  0.991920  1
  Co  Co5  1  0.250000  0.782884  0.491527  1
  Co  Co6  1  0.750000  0.283078  0.008521  1
  Co  Co7  1  0.750000  0.217078  0.508415  1
  Co  Co8  1  0.250000  0.407196  0.487274  1
  Co  Co9  1  0.250000  0.092706  0.988267  1
  Co  Co10  1  0.750000  0.592791  0.512647  1
  Co  Co11  1  0.750000  0.906848  0.012903  1
  Co  Co12  1  0.250000  0.221536  0.176950  1
  Co  Co13  1  0.250000  0.279164  0.676595  1
  Co  Co14  1  0.750000  0.778437  0.823293  1
  Co  Co15  1  0.750000  0.721247  0.323182  1
  Co  Co16  1  0.250000  0.882264  0.698599  1
  Co  Co17  1  0.250000  0.617037  0.199019  1
  Co  Co18  1  0.750000  0.117128  0.300916  1
  Co  Co19  1  0.750000  0.383452  0.801090  1
  Co  Co20  1  0.250000  0.468121  0.931569  1
  Co  Co21  1  0.250000  0.032233  0.430987  1
  Co  Co22  1  0.750000  0.532403  0.068672  1
  Co  Co23  1  0.750000  0.967307  0.567937  1
  P  P24  1  0.250000  0.418511  0.112738  1
  P  P25  1  0.250000  0.081585  0.611779  1
  P  P26  1  0.750000  0.581683  0.887415  1
  P  P27  1  0.750000  0.918359  0.386988  1
  P  P28  1  0.250000  0.270342  0.870646  1
  P  P29  1  0.250000  0.230646  0.370200  1
  P  P30  1  0.750000  0.730463  0.129930  1
  P  P31  1  0.750000  0.769336  0.629856  1
  P  P32  1  0.250000  0.600885  0.390868  1
  P  P33  1  0.250000  0.898346  0.891195  1
  P  P34  1  0.750000  0.399104  0.609120  1
  P  P35  1  0.750000  0.100906  0.109165  1
