# generated using pymatgen
data_Mg5Co19P12
_symmetry_space_group_name_H-M   'P 1'
_cell_length_a   11.84272600
_cell_length_b   11.84272638
_cell_length_c   3.55449100
_cell_angle_alpha   90.00000000
_cell_angle_beta   90.00000000
_cell_angle_gamma   119.99999895
_symmetry_Int_Tables_number   1
_chemical_formula_structural   Mg5Co19P12
_chemical_formula_sum   'Mg5 Co19 P12'
_cell_volume   431.72920842
_cell_formula_units_Z   1
loop_
 _symmetry_equiv_pos_site_id
 _symmetry_equiv_pos_as_xyz
  1  'x, y, z'
loop_
 _atom_site_type_symbol
 _atom_site_label
 _atom_site_symmetry_multiplicity
 _atom_site_fract_x
 _atom_site_fract_y
 _atom_site_fract_z
 _atom_site_occupancy
  Mg  Mg0  1  0.333333  0.666667  0.500000  1
  Mg  Mg1  1  0.666667  0.333333  0.500000  1
  Mg  Mg2  1  0.180346  0.000000  0.000000  1
  Mg  Mg3  1  0.000000  0.180346  0.000000  1
  Mg  Mg4  1  0.819654  0.819654  0.000000  1
  Co  Co5  1  0.195471  0.374558  0.500000  1
  Co  Co6  1  0.625442  0.820914  0.500000  1
  Co  Co7  1  0.179086  0.804529  0.500000  1
  Co  Co8  1  0.820914  0.625442  0.500000  1
  Co  Co9  1  0.804529  0.179086  0.500000  1
  Co  Co10  1  0.374558  0.195471  0.500000  1
  Co  Co11  1  0.549615  0.000000  0.500000  1
  Co  Co12  1  0.000000  0.549615  0.500000  1
  Co  Co13  1  0.450385  0.450385  0.500000  1
  Co  Co14  1  0.128885  0.483650  0.000000  1
  Co  Co15  1  0.516350  0.645235  0.000000  1
  Co  Co16  1  0.354765  0.871115  0.000000  1
  Co  Co17  1  0.645235  0.516350  0.000000  1
  Co  Co18  1  0.871115  0.354765  0.000000  1
  Co  Co19  1  0.483650  0.128885  0.000000  1
  Co  Co20  1  0.716398  0.000000  0.000000  1
  Co  Co21  1  0.000000  0.716398  0.000000  1
  Co  Co22  1  0.283602  0.283602  0.000000  1
  Co  Co23  1  0.000000  0.000000  0.500000  1
  P  P24  1  0.363696  0.000000  0.500000  1
  P  P25  1  0.000000  0.363696  0.500000  1
  P  P26  1  0.636304  0.636304  0.500000  1
  P  P27  1  0.318223  0.482961  0.000000  1
  P  P28  1  0.517039  0.835263  0.000000  1
  P  P29  1  0.164737  0.681777  0.000000  1
  P  P30  1  0.835263  0.517039  0.000000  1
  P  P31  1  0.681777  0.164737  0.000000  1
  P  P32  1  0.482961  0.318223  0.000000  1
  P  P33  1  0.822264  0.000000  0.500000  1
  P  P34  1  0.000000  0.822264  0.500000  1
  P  P35  1  0.177736  0.177736  0.500000  1
