# generated using pymatgen
data_Tb3MoO6
_symmetry_space_group_name_H-M   'P 1'
_cell_length_a   6.67262695
_cell_length_b   6.67262653
_cell_length_c   6.67262672
_cell_angle_alpha   92.15647768
_cell_angle_beta   92.15647114
_cell_angle_gamma   92.15647228
_symmetry_Int_Tables_number   1
_chemical_formula_structural   Tb3MoO6
_chemical_formula_sum   'Tb6 Mo2 O12'
_cell_volume   296.44416210
_cell_formula_units_Z   2
loop_
 _symmetry_equiv_pos_site_id
 _symmetry_equiv_pos_as_xyz
  1  'x, y, z'
loop_
 _atom_site_type_symbol
 _atom_site_label
 _atom_site_symmetry_multiplicity
 _atom_site_fract_x
 _atom_site_fract_y
 _atom_site_fract_z
 _atom_site_occupancy
  Tb  Tb0  1  0.746642  0.930850  0.439431  1
  Tb  Tb1  1  0.930850  0.439431  0.746642  1
  Tb  Tb2  1  0.439431  0.746642  0.930850  1
  Tb  Tb3  1  0.253358  0.069150  0.560569  1
  Tb  Tb4  1  0.069150  0.560569  0.253358  1
  Tb  Tb5  1  0.560569  0.253358  0.069150  1
  Mo  Mo6  1  0.500000  0.500000  0.500000  1
  Mo  Mo7  1  0.000000  0.000000  0.000000  1
  O  O8  1  0.595873  0.465896  0.809761  1
  O  O9  1  0.465896  0.809761  0.595873  1
  O  O10  1  0.809761  0.595873  0.465896  1
  O  O11  1  0.404127  0.534104  0.190239  1
  O  O12  1  0.534104  0.190239  0.404127  1
  O  O13  1  0.190239  0.404127  0.534104  1
  O  O14  1  0.069361  0.910097  0.309111  1
  O  O15  1  0.910097  0.309111  0.069361  1
  O  O16  1  0.690889  0.930639  0.089903  1
  O  O17  1  0.089903  0.690889  0.930639  1
  O  O18  1  0.930639  0.089903  0.690889  1
  O  O19  1  0.309111  0.069361  0.910097  1
