# generated using pymatgen
data_Er10Zn3Bi2Pd
_symmetry_space_group_name_H-M   'P 1'
_cell_length_a   8.57845449
_cell_length_b   8.57845428
_cell_length_c   8.58834598
_cell_angle_alpha   124.13792062
_cell_angle_beta   124.13792151
_cell_angle_gamma   82.89615146
_symmetry_Int_Tables_number   1
_chemical_formula_structural   Er10Zn3Bi2Pd
_chemical_formula_sum   'Er10 Zn3 Bi2 Pd1'
_cell_volume   415.75777197
_cell_formula_units_Z   1
loop_
 _symmetry_equiv_pos_site_id
 _symmetry_equiv_pos_as_xyz
  1  'x, y, z'
loop_
 _atom_site_type_symbol
 _atom_site_label
 _atom_site_symmetry_multiplicity
 _atom_site_fract_x
 _atom_site_fract_y
 _atom_site_fract_z
 _atom_site_occupancy
  Er  Er0  1  0.003481  0.001345  0.004826  1
  Er  Er1  1  0.498655  0.496519  0.995174  1
  Er  Er2  1  0.791507  0.295551  0.804720  1
  Er  Er3  1  0.204449  0.708493  0.195280  1
  Er  Er4  1  0.486787  0.990831  0.195280  1
  Er  Er5  1  0.297531  0.483236  0.500000  1
  Er  Er6  1  0.016764  0.202469  0.500000  1
  Er  Er7  1  0.509169  0.013213  0.804720  1
  Er  Er8  1  0.704809  0.512696  0.500000  1
  Er  Er9  1  0.987304  0.795191  0.500000  1
  Zn  Zn10  1  0.135859  0.638167  0.774026  1
  Zn  Zn11  1  0.861833  0.364141  0.225974  1
  Zn  Zn12  1  0.636825  0.863175  0.500000  1
  Bi  Bi13  1  0.247520  0.252480  0.000000  1
  Bi  Bi14  1  0.747520  0.752480  0.000000  1
  Pd  Pd15  1  0.369986  0.130014  0.500000  1
