# generated using pymatgen
data_YbPb2BrClO2
_symmetry_space_group_name_H-M   'P 1'
_cell_length_a   5.90640200
_cell_length_b   10.22652900
_cell_length_c   11.63188100
_cell_angle_alpha   90.00000000
_cell_angle_beta   90.00000000
_cell_angle_gamma   90.00000000
_symmetry_Int_Tables_number   1
_chemical_formula_structural   YbPb2BrClO2
_chemical_formula_sum   'Yb4 Pb8 Br4 Cl4 O8'
_cell_volume   702.58877541
_cell_formula_units_Z   4
loop_
 _symmetry_equiv_pos_site_id
 _symmetry_equiv_pos_as_xyz
  1  'x, y, z'
loop_
 _atom_site_type_symbol
 _atom_site_label
 _atom_site_symmetry_multiplicity
 _atom_site_fract_x
 _atom_site_fract_y
 _atom_site_fract_z
 _atom_site_occupancy
  Yb  Yb0  1  0.250000  0.049859  0.070180  1
  Yb  Yb1  1  0.750000  0.950141  0.929820  1
  Yb  Yb2  1  0.750000  0.549859  0.429820  1
  Yb  Yb3  1  0.250000  0.450141  0.570180  1
  Pb  Pb4  1  0.250000  0.365009  0.283598  1
  Pb  Pb5  1  0.750000  0.634991  0.716402  1
  Pb  Pb6  1  0.750000  0.865009  0.216402  1
  Pb  Pb7  1  0.250000  0.134991  0.783598  1
  Pb  Pb8  1  0.250000  0.784394  0.555769  1
  Pb  Pb9  1  0.750000  0.215606  0.444231  1
  Pb  Pb10  1  0.750000  0.284394  0.944231  1
  Pb  Pb11  1  0.250000  0.715606  0.055769  1
  Br  Br12  1  0.250000  0.067878  0.330175  1
  Br  Br13  1  0.750000  0.932122  0.669825  1
  Br  Br14  1  0.750000  0.567878  0.169825  1
  Br  Br15  1  0.250000  0.432122  0.830175  1
  Cl  Cl16  1  0.250000  0.821275  0.822035  1
  Cl  Cl17  1  0.750000  0.178725  0.177965  1
  Cl  Cl18  1  0.750000  0.321275  0.677965  1
  Cl  Cl19  1  0.250000  0.678725  0.322035  1
  O  O20  1  0.001595  0.381218  0.427128  1
  O  O21  1  0.501595  0.618782  0.572872  1
  O  O22  1  0.998405  0.881218  0.072872  1
  O  O23  1  0.498405  0.118782  0.927128  1
  O  O24  1  0.998405  0.618782  0.572872  1
  O  O25  1  0.498405  0.381218  0.427128  1
  O  O26  1  0.001595  0.118782  0.927128  1
  O  O27  1  0.501595  0.881218  0.072872  1
