# generated using pymatgen
data_TbHoGa8SiIr3
_symmetry_space_group_name_H-M   'P 1'
_cell_length_a   7.58918877
_cell_length_b   7.54229868
_cell_length_c   9.49211700
_cell_angle_alpha   89.99833816
_cell_angle_beta   89.79466865
_cell_angle_gamma   119.84885090
_symmetry_Int_Tables_number   1
_chemical_formula_structural   TbHoGa8SiIr3
_chemical_formula_sum   'Tb2 Ho2 Ga16 Si2 Ir6'
_cell_volume   471.24690511
_cell_formula_units_Z   2
loop_
 _symmetry_equiv_pos_site_id
 _symmetry_equiv_pos_as_xyz
  1  'x, y, z'
loop_
 _atom_site_type_symbol
 _atom_site_label
 _atom_site_symmetry_multiplicity
 _atom_site_fract_x
 _atom_site_fract_y
 _atom_site_fract_z
 _atom_site_occupancy
  Tb  Tb0  1  0.674225  0.002527  0.247878  1
  Tb  Tb1  1  0.325775  0.997473  0.752122  1
  Ho  Ho2  1  0.996446  0.666382  0.247056  1
  Ho  Ho3  1  0.003554  0.333618  0.752944  1
  Ga  Ga4  1  0.129810  0.129004  0.250173  1
  Ga  Ga5  1  0.870190  0.870996  0.749827  1
  Ga  Ga6  1  0.000013  0.664770  0.577461  1
  Ga  Ga7  1  0.334497  0.998885  0.420290  1
  Ga  Ga8  1  0.999987  0.335230  0.422539  1
  Ga  Ga9  1  0.665503  0.001115  0.579710  1
  Ga  Ga10  1  0.661230  0.997763  0.917515  1
  Ga  Ga11  1  0.338770  0.002237  0.082485  1
  Ga  Ga12  1  0.332010  0.330962  0.566313  1
  Ga  Ga13  1  0.667990  0.669038  0.433687  1
  Ga  Ga14  1  0.662338  0.667536  0.069210  1
  Ga  Ga15  1  0.337662  0.332464  0.930790  1
  Ga  Ga16  1  0.338532  0.546440  0.250152  1
  Ga  Ga17  1  0.661468  0.453560  0.749848  1
  Ga  Ga18  1  0.548750  0.340117  0.249837  1
  Ga  Ga19  1  0.451250  0.659883  0.750163  1
  Si  Si20  1  0.001254  0.329852  0.072842  1
  Si  Si21  1  0.998746  0.670148  0.927158  1
  Ir  Ir22  1  0.696809  0.343202  0.001282  1
  Ir  Ir23  1  0.303191  0.656798  0.998718  1
  Ir  Ir24  1  0.328211  0.670846  0.500141  1
  Ir  Ir25  1  0.671789  0.329154  0.499859  1
  Ir  Ir26  1  0.000000  0.000000  0.000000  1
  Ir  Ir27  1  0.000000  0.000000  0.500000  1
