# generated using pymatgen
data_NdTm2Th(AsPt)4
_symmetry_space_group_name_H-M   'P 1'
_cell_length_a   4.29536200
_cell_length_b   4.29536197
_cell_length_c   15.67750000
_cell_angle_alpha   90.00000000
_cell_angle_beta   90.00000000
_cell_angle_gamma   120.00001562
_symmetry_Int_Tables_number   1
_chemical_formula_structural   NdTm2Th(AsPt)4
_chemical_formula_sum   'Nd1 Tm2 Th1 As4 Pt4'
_cell_volume   250.49952767
_cell_formula_units_Z   1
loop_
 _symmetry_equiv_pos_site_id
 _symmetry_equiv_pos_as_xyz
  1  'x, y, z'
loop_
 _atom_site_type_symbol
 _atom_site_label
 _atom_site_symmetry_multiplicity
 _atom_site_fract_x
 _atom_site_fract_y
 _atom_site_fract_z
 _atom_site_occupancy
  Nd  Nd0  1  0.000000  0.000000  0.500000  1
  Tm  Tm1  1  0.000000  0.000000  0.252383  1
  Tm  Tm2  1  0.000000  0.000000  0.747617  1
  Th  Th3  1  0.000000  0.000000  0.000000  1
  As  As4  1  0.333333  0.666667  0.882825  1
  As  As5  1  0.666667  0.333333  0.117175  1
  As  As6  1  0.666667  0.333333  0.381804  1
  As  As7  1  0.333333  0.666667  0.618196  1
  Pt  Pt8  1  0.333333  0.666667  0.353212  1
  Pt  Pt9  1  0.666667  0.333333  0.646788  1
  Pt  Pt10  1  0.666667  0.333333  0.856844  1
  Pt  Pt11  1  0.333333  0.666667  0.143156  1
