# generated using pymatgen
data_LaCeEr2(AsPt)4
_symmetry_space_group_name_H-M   'P 1'
_cell_length_a   4.30264100
_cell_length_b   4.30264040
_cell_length_c   15.67759800
_cell_angle_alpha   90.00000000
_cell_angle_beta   90.00000000
_cell_angle_gamma   119.99999696
_symmetry_Int_Tables_number   1
_chemical_formula_structural   LaCeEr2(AsPt)4
_chemical_formula_sum   'La1 Ce1 Er2 As4 Pt4'
_cell_volume   251.35083413
_cell_formula_units_Z   1
loop_
 _symmetry_equiv_pos_site_id
 _symmetry_equiv_pos_as_xyz
  1  'x, y, z'
loop_
 _atom_site_type_symbol
 _atom_site_label
 _atom_site_symmetry_multiplicity
 _atom_site_fract_x
 _atom_site_fract_y
 _atom_site_fract_z
 _atom_site_occupancy
  La  La0  1  0.000000  0.000000  0.500000  1
  Ce  Ce1  1  0.000000  0.000000  0.000000  1
  Er  Er2  1  0.000000  0.000000  0.249299  1
  Er  Er3  1  0.000000  0.000000  0.750701  1
  As  As4  1  0.333333  0.666667  0.885718  1
  As  As5  1  0.666667  0.333333  0.114282  1
  As  As6  1  0.666667  0.333333  0.378047  1
  As  As7  1  0.333333  0.666667  0.621953  1
  Pt  Pt8  1  0.333333  0.666667  0.351306  1
  Pt  Pt9  1  0.666667  0.333333  0.648694  1
  Pt  Pt10  1  0.666667  0.333333  0.858132  1
  Pt  Pt11  1  0.333333  0.666667  0.141868  1
