# generated using pymatgen
data_Er12Th4Cd4FeCo3
_symmetry_space_group_name_H-M   'P 1'
_cell_length_a   9.57324843
_cell_length_b   9.57324990
_cell_length_c   9.57324900
_cell_angle_alpha   59.54204684
_cell_angle_beta   59.54204166
_cell_angle_gamma   59.54204187
_symmetry_Int_Tables_number   1
_chemical_formula_structural   Er12Th4Cd4FeCo3
_chemical_formula_sum   'Er12 Th4 Cd4 Fe1 Co3'
_cell_volume   613.92777698
_cell_formula_units_Z   1
loop_
 _symmetry_equiv_pos_site_id
 _symmetry_equiv_pos_as_xyz
  1  'x, y, z'
loop_
 _atom_site_type_symbol
 _atom_site_label
 _atom_site_symmetry_multiplicity
 _atom_site_fract_x
 _atom_site_fract_y
 _atom_site_fract_z
 _atom_site_occupancy
  Er  Er0  1  0.813214  0.187437  0.187437  1
  Er  Er1  1  0.185701  0.813545  0.813545  1
  Er  Er2  1  0.187437  0.813214  0.187437  1
  Er  Er3  1  0.813545  0.185701  0.813545  1
  Er  Er4  1  0.187437  0.187437  0.813214  1
  Er  Er5  1  0.813545  0.813545  0.185701  1
  Er  Er6  1  0.935742  0.564640  0.564640  1
  Er  Er7  1  0.562825  0.935710  0.935710  1
  Er  Er8  1  0.564640  0.935742  0.564640  1
  Er  Er9  1  0.935710  0.562825  0.935710  1
  Er  Er10  1  0.564640  0.564640  0.935742  1
  Er  Er11  1  0.935710  0.935710  0.562825  1
  Th  Th12  1  0.345596  0.345596  0.345596  1
  Th  Th13  1  0.344825  0.344825  0.963821  1
  Th  Th14  1  0.344825  0.963821  0.344825  1
  Th  Th15  1  0.963821  0.344825  0.344825  1
  Cd  Cd16  1  0.581096  0.581096  0.581096  1
  Cd  Cd17  1  0.580605  0.580605  0.254135  1
  Cd  Cd18  1  0.580605  0.254135  0.580605  1
  Cd  Cd19  1  0.254135  0.580605  0.580605  1
  Fe  Fe20  1  0.145688  0.145688  0.145688  1
  Co  Co21  1  0.144901  0.144901  0.568852  1
  Co  Co22  1  0.144901  0.568852  0.144901  1
  Co  Co23  1  0.568852  0.144901  0.144901  1
