# generated using pymatgen
data_Ho3Lu5(InPt)2
_symmetry_space_group_name_H-M   'P 1'
_cell_length_a   9.57411232
_cell_length_b   9.57411353
_cell_length_c   9.57411300
_cell_angle_alpha   59.99999838
_cell_angle_beta   59.99999419
_cell_angle_gamma   60.00000031
_symmetry_Int_Tables_number   1
_chemical_formula_structural   Ho3Lu5(InPt)2
_chemical_formula_sum   'Ho6 Lu10 In4 Pt4'
_cell_volume   620.55548539
_cell_formula_units_Z   2
loop_
 _symmetry_equiv_pos_site_id
 _symmetry_equiv_pos_as_xyz
  1  'x, y, z'
loop_
 _atom_site_type_symbol
 _atom_site_label
 _atom_site_symmetry_multiplicity
 _atom_site_fract_x
 _atom_site_fract_y
 _atom_site_fract_z
 _atom_site_occupancy
  Ho  Ho0  1  0.187779  0.812221  0.812221  1
  Ho  Ho1  1  0.812221  0.187779  0.187779  1
  Ho  Ho2  1  0.812221  0.187779  0.812221  1
  Ho  Ho3  1  0.187779  0.812221  0.187779  1
  Ho  Ho4  1  0.812221  0.812221  0.187779  1
  Ho  Ho5  1  0.187779  0.187779  0.812221  1
  Lu  Lu6  1  0.600724  0.600724  0.600724  1
  Lu  Lu7  1  0.600724  0.600724  0.197826  1
  Lu  Lu8  1  0.600724  0.197826  0.600724  1
  Lu  Lu9  1  0.197826  0.600724  0.600724  1
  Lu  Lu10  1  0.061646  0.438354  0.438354  1
  Lu  Lu11  1  0.438354  0.061646  0.061646  1
  Lu  Lu12  1  0.438354  0.061646  0.438354  1
  Lu  Lu13  1  0.061646  0.438354  0.061646  1
  Lu  Lu14  1  0.438354  0.438354  0.061646  1
  Lu  Lu15  1  0.061646  0.061646  0.438354  1
  In  In16  1  0.832835  0.832835  0.832835  1
  In  In17  1  0.832835  0.832835  0.501495  1
  In  In18  1  0.832835  0.501495  0.832835  1
  In  In19  1  0.501495  0.832835  0.832835  1
  Pt  Pt20  1  0.392763  0.392763  0.392763  1
  Pt  Pt21  1  0.392763  0.392763  0.821710  1
  Pt  Pt22  1  0.392763  0.821710  0.392763  1
  Pt  Pt23  1  0.821710  0.392763  0.392763  1
