# generated using pymatgen
data_PrHo5FeCl10
_symmetry_space_group_name_H-M   'P 1'
_cell_length_a   7.13210186
_cell_length_b   8.96551518
_cell_length_c   8.69703065
_cell_angle_alpha   108.72259615
_cell_angle_beta   104.48461191
_cell_angle_gamma   96.70299470
_symmetry_Int_Tables_number   1
_chemical_formula_structural   PrHo5FeCl10
_chemical_formula_sum   'Pr1 Ho5 Fe1 Cl10'
_cell_volume   498.03762061
_cell_formula_units_Z   1
loop_
 _symmetry_equiv_pos_site_id
 _symmetry_equiv_pos_as_xyz
  1  'x, y, z'
loop_
 _atom_site_type_symbol
 _atom_site_label
 _atom_site_symmetry_multiplicity
 _atom_site_fract_x
 _atom_site_fract_y
 _atom_site_fract_z
 _atom_site_occupancy
  Pr  Pr0  1  0.966048  0.090686  0.288299  1
  Ho  Ho1  1  0.364490  0.187690  0.135212  1
  Ho  Ho2  1  0.035302  0.913024  0.722745  1
  Ho  Ho3  1  0.130674  0.749445  0.054006  1
  Ho  Ho4  1  0.634203  0.811596  0.860087  1
  Ho  Ho5  1  0.865505  0.250086  0.946934  1
  Fe  Fe6  1  0.996877  0.002371  0.007889  1
  Cl  Cl7  1  0.446325  0.075182  0.821809  1
  Cl  Cl8  1  0.758654  0.546950  0.914819  1
  Cl  Cl9  1  0.237687  0.450588  0.076051  1
  Cl  Cl10  1  0.916289  0.164378  0.639368  1
  Cl  Cl11  1  0.668166  0.731228  0.556180  1
  Cl  Cl12  1  0.538007  0.915551  0.168175  1
  Cl  Cl13  1  0.093140  0.822057  0.369618  1
  Cl  Cl14  1  0.772217  0.350194  0.238906  1
  Cl  Cl15  1  0.213164  0.661468  0.752272  1
  Cl  Cl16  1  0.363253  0.277506  0.447628  1
