# generated using pymatgen
data_Er3Al2(FeOs)2
_symmetry_space_group_name_H-M   'P 1'
_cell_length_a   5.32157612
_cell_length_b   5.25139347
_cell_length_c   12.99353178
_cell_angle_alpha   90.25303565
_cell_angle_beta   90.02891248
_cell_angle_gamma   120.10465779
_symmetry_Int_Tables_number   1
_chemical_formula_structural   Er3Al2(FeOs)2
_chemical_formula_sum   'Er6 Al4 Fe4 Os4'
_cell_volume   314.12849064
_cell_formula_units_Z   2
loop_
 _symmetry_equiv_pos_site_id
 _symmetry_equiv_pos_as_xyz
  1  'x, y, z'
loop_
 _atom_site_type_symbol
 _atom_site_label
 _atom_site_symmetry_multiplicity
 _atom_site_fract_x
 _atom_site_fract_y
 _atom_site_fract_z
 _atom_site_occupancy
  Er  Er0  1  0.331711  0.659888  0.919372  1
  Er  Er1  1  0.004484  0.001312  0.250070  1
  Er  Er2  1  0.658029  0.323138  0.580561  1
  Er  Er3  1  0.341971  0.676862  0.669439  1
  Er  Er4  1  0.995516  0.998688  0.999930  1
  Er  Er5  1  0.668289  0.340112  0.330628  1
  Al  Al6  1  0.164093  0.339524  0.453477  1
  Al  Al7  1  0.835907  0.660476  0.796523  1
  Al  Al8  1  0.000000  0.000000  0.625000  1
  Al  Al9  1  0.000000  0.500000  0.125000  1
  Fe  Fe10  1  0.500000  0.500000  0.125000  1
  Fe  Fe11  1  0.161798  0.835724  0.456862  1
  Fe  Fe12  1  0.838202  0.164276  0.793138  1
  Fe  Fe13  1  0.500000  0.000000  0.125000  1
  Os  Os14  1  0.340328  0.678673  0.288874  1
  Os  Os15  1  0.659672  0.321327  0.961126  1
  Os  Os16  1  0.667791  0.835766  0.457450  1
  Os  Os17  1  0.332209  0.164234  0.792550  1
