# generated using pymatgen
data_Er2Lu3CoRu
_symmetry_space_group_name_H-M   'P 1'
_cell_length_a   6.19046395
_cell_length_b   7.08127852
_cell_length_c   8.32548170
_cell_angle_alpha   96.78559729
_cell_angle_beta   112.37501532
_cell_angle_gamma   89.63999457
_symmetry_Int_Tables_number   1
_chemical_formula_structural   Er2Lu3CoRu
_chemical_formula_sum   'Er4 Lu6 Co2 Ru2'
_cell_volume   334.82048124
_cell_formula_units_Z   2
loop_
 _symmetry_equiv_pos_site_id
 _symmetry_equiv_pos_as_xyz
  1  'x, y, z'
loop_
 _atom_site_type_symbol
 _atom_site_label
 _atom_site_symmetry_multiplicity
 _atom_site_fract_x
 _atom_site_fract_y
 _atom_site_fract_z
 _atom_site_occupancy
  Er  Er0  1  0.525827  0.088433  0.815014  1
  Er  Er1  1  0.474173  0.911567  0.184986  1
  Er  Er2  1  0.700505  0.417736  0.189071  1
  Er  Er3  1  0.299495  0.582264  0.810929  1
  Lu  Lu4  1  0.289514  0.320336  0.432846  1
  Lu  Lu5  1  0.710486  0.679664  0.567154  1
  Lu  Lu6  1  0.856560  0.186423  0.564662  1
  Lu  Lu7  1  0.143440  0.813577  0.435338  1
  Lu  Lu8  1  0.078422  0.258612  0.000271  1
  Lu  Lu9  1  0.921578  0.741388  0.999729  1
  Co  Co10  1  0.325621  0.577428  0.226786  1
  Co  Co11  1  0.674379  0.422572  0.773214  1
  Ru  Ru12  1  0.103043  0.925323  0.783432  1
  Ru  Ru13  1  0.896957  0.074677  0.216568  1
