# generated using pymatgen
data_Pr5OsRu
_symmetry_space_group_name_H-M   'P 1'
_cell_length_a   8.93408067
_cell_length_b   8.93407960
_cell_length_c   7.46236710
_cell_angle_alpha   83.72248725
_cell_angle_beta   83.72248567
_cell_angle_gamma   43.92057814
_symmetry_Int_Tables_number   1
_chemical_formula_structural   Pr5OsRu
_chemical_formula_sum   'Pr10 Os2 Ru2'
_cell_volume   410.28323638
_cell_formula_units_Z   2
loop_
 _symmetry_equiv_pos_site_id
 _symmetry_equiv_pos_as_xyz
  1  'x, y, z'
loop_
 _atom_site_type_symbol
 _atom_site_label
 _atom_site_symmetry_multiplicity
 _atom_site_fract_x
 _atom_site_fract_y
 _atom_site_fract_z
 _atom_site_occupancy
  Pr  Pr0  1  0.019079  0.797252  0.914242  1
  Pr  Pr1  1  0.202748  0.980921  0.585758  1
  Pr  Pr2  1  0.981424  0.203069  0.085800  1
  Pr  Pr3  1  0.796931  0.018576  0.414200  1
  Pr  Pr4  1  0.359166  0.207666  0.815193  1
  Pr  Pr5  1  0.792334  0.640834  0.684807  1
  Pr  Pr6  1  0.640511  0.792406  0.185022  1
  Pr  Pr7  1  0.207594  0.359489  0.314978  1
  Pr  Pr8  1  0.573700  0.426300  0.750000  1
  Pr  Pr9  1  0.425325  0.574675  0.250000  1
  Os  Os10  1  0.176949  0.601795  0.574701  1
  Os  Os11  1  0.398205  0.823051  0.925299  1
  Ru  Ru12  1  0.823950  0.397916  0.424925  1
  Ru  Ru13  1  0.602084  0.176050  0.075075  1
