# generated using pymatgen
data_CsK6Rb11(AlAs4)2
_symmetry_space_group_name_H-M   'P 1'
_cell_length_a   10.41345100
_cell_length_b   10.39896793
_cell_length_c   10.97309327
_cell_angle_alpha   90.06419620
_cell_angle_beta   90.00000000
_cell_angle_gamma   120.04607902
_symmetry_Int_Tables_number   1
_chemical_formula_structural   CsK6Rb11(AlAs4)2
_chemical_formula_sum   'Cs1 K6 Rb11 Al2 As8'
_cell_volume   1028.59027832
_cell_formula_units_Z   1
loop_
 _symmetry_equiv_pos_site_id
 _symmetry_equiv_pos_as_xyz
  1  'x, y, z'
loop_
 _atom_site_type_symbol
 _atom_site_label
 _atom_site_symmetry_multiplicity
 _atom_site_fract_x
 _atom_site_fract_y
 _atom_site_fract_z
 _atom_site_occupancy
  Cs  Cs0  1  0.208777  0.417553  0.547879  1
  K  K1  1  0.240770  0.119978  0.750284  1
  K  K2  1  0.879208  0.119978  0.750284  1
  K  K3  1  0.759330  0.879572  0.249946  1
  K  K4  1  0.120064  0.240128  0.249110  1
  K  K5  1  0.120242  0.879572  0.249946  1
  K  K6  1  0.879561  0.759122  0.750062  1
  Rb  Rb7  1  0.208038  0.791712  0.953655  1
  Rb  Rb8  1  0.208197  0.416394  0.954016  1
  Rb  Rb9  1  0.583674  0.791712  0.953655  1
  Rb  Rb10  1  0.416781  0.207963  0.453524  1
  Rb  Rb11  1  0.791830  0.583661  0.046186  1
  Rb  Rb12  1  0.791182  0.207963  0.453524  1
  Rb  Rb13  1  0.791834  0.583667  0.453563  1
  Rb  Rb14  1  0.208216  0.792388  0.546326  1
  Rb  Rb15  1  0.584172  0.792388  0.546326  1
  Rb  Rb16  1  0.416544  0.208377  0.046307  1
  Rb  Rb17  1  0.791834  0.208377  0.046307  1
  Al  Al18  1  0.333465  0.666931  0.249059  1
  Al  Al19  1  0.666827  0.333654  0.750830  1
  As  As20  1  0.000123  0.000246  0.999921  1
  As  As21  1  0.056805  0.528625  0.248891  1
  As  As22  1  0.471925  0.943851  0.250183  1
  As  As23  1  0.528169  0.056339  0.749918  1
  As  As24  1  0.528933  0.471313  0.750797  1
  As  As25  1  0.999299  0.998598  0.499815  1
  As  As26  1  0.471820  0.528625  0.248891  1
  As  As27  1  0.942380  0.471313  0.750797  1
