# generated using pymatgen
data_Dy7Lu3(Cd2Pt)4
_symmetry_space_group_name_H-M   'P 1'
_cell_length_a   3.65149500
_cell_length_b   7.95008178
_cell_length_c   18.25037109
_cell_angle_alpha   89.94272259
_cell_angle_beta   90.00000000
_cell_angle_gamma   90.00000000
_symmetry_Int_Tables_number   1
_chemical_formula_structural   Dy7Lu3(Cd2Pt)4
_chemical_formula_sum   'Dy7 Lu3 Cd8 Pt4'
_cell_volume   529.80223847
_cell_formula_units_Z   1
loop_
 _symmetry_equiv_pos_site_id
 _symmetry_equiv_pos_as_xyz
  1  'x, y, z'
loop_
 _atom_site_type_symbol
 _atom_site_label
 _atom_site_symmetry_multiplicity
 _atom_site_fract_x
 _atom_site_fract_y
 _atom_site_fract_z
 _atom_site_occupancy
  Dy  Dy0  1  0.000000  0.615193  0.085005  1
  Dy  Dy1  1  0.000000  0.244577  0.219822  1
  Dy  Dy2  1  0.000000  0.754764  0.780565  1
  Dy  Dy3  1  0.000000  0.255644  0.717667  1
  Dy  Dy4  1  0.000000  0.744007  0.282386  1
  Dy  Dy5  1  0.000000  0.000941  0.999371  1
  Dy  Dy6  1  0.000000  0.500537  0.500365  1
  Lu  Lu7  1  0.000000  0.113646  0.414432  1
  Lu  Lu8  1  0.000000  0.885823  0.586273  1
  Lu  Lu9  1  0.000000  0.385646  0.912930  1
  Cd  Cd10  1  0.500000  0.426771  0.354656  1
  Cd  Cd11  1  0.500000  0.573198  0.646269  1
  Cd  Cd12  1  0.500000  0.073582  0.852805  1
  Cd  Cd13  1  0.500000  0.930048  0.147107  1
  Cd  Cd14  1  0.500000  0.288389  0.064440  1
  Cd  Cd15  1  0.500000  0.710457  0.934049  1
  Cd  Cd16  1  0.500000  0.208341  0.563340  1
  Cd  Cd17  1  0.500000  0.791903  0.436995  1
  Pt  Pt18  1  0.500000  0.030297  0.305677  1
  Pt  Pt19  1  0.500000  0.968772  0.694780  1
  Pt  Pt20  1  0.500000  0.467590  0.804198  1
  Pt  Pt21  1  0.500000  0.529876  0.196868  1
