# generated using pymatgen
data_TbDy2Al7Cu2
_symmetry_space_group_name_H-M   'P 1'
_cell_length_a   9.05547280
_cell_length_b   9.05547310
_cell_length_c   9.05547311
_cell_angle_alpha   35.22319572
_cell_angle_beta   35.22318996
_cell_angle_gamma   35.22319107
_symmetry_Int_Tables_number   1
_chemical_formula_structural   TbDy2Al7Cu2
_chemical_formula_sum   'Tb1 Dy2 Al7 Cu2'
_cell_volume   220.64179138
_cell_formula_units_Z   1
loop_
 _symmetry_equiv_pos_site_id
 _symmetry_equiv_pos_as_xyz
  1  'x, y, z'
loop_
 _atom_site_type_symbol
 _atom_site_label
 _atom_site_symmetry_multiplicity
 _atom_site_fract_x
 _atom_site_fract_y
 _atom_site_fract_z
 _atom_site_occupancy
  Tb  Tb0  1  0.000000  0.000000  0.000000  1
  Dy  Dy1  1  0.858043  0.858043  0.858043  1
  Dy  Dy2  1  0.141957  0.141957  0.141957  1
  Al  Al3  1  0.418409  0.418409  0.927072  1
  Al  Al4  1  0.927072  0.418409  0.418409  1
  Al  Al5  1  0.418409  0.927072  0.418409  1
  Al  Al6  1  0.500000  0.500000  0.500000  1
  Al  Al7  1  0.581591  0.072928  0.581591  1
  Al  Al8  1  0.072928  0.581591  0.581591  1
  Al  Al9  1  0.581591  0.581591  0.072928  1
  Cu  Cu10  1  0.664786  0.664786  0.664786  1
  Cu  Cu11  1  0.335214  0.335214  0.335214  1
