# generated using pymatgen
data_YbEr9(PtPb3)2
_symmetry_space_group_name_H-M   'P 1'
_cell_length_a   9.16620100
_cell_length_b   9.16620182
_cell_length_c   6.80864800
_cell_angle_alpha   90.00000000
_cell_angle_beta   90.00000000
_cell_angle_gamma   120.00000788
_symmetry_Int_Tables_number   1
_chemical_formula_structural   YbEr9(PtPb3)2
_chemical_formula_sum   'Yb1 Er9 Pt2 Pb6'
_cell_volume   495.41627655
_cell_formula_units_Z   1
loop_
 _symmetry_equiv_pos_site_id
 _symmetry_equiv_pos_as_xyz
  1  'x, y, z'
loop_
 _atom_site_type_symbol
 _atom_site_label
 _atom_site_symmetry_multiplicity
 _atom_site_fract_x
 _atom_site_fract_y
 _atom_site_fract_z
 _atom_site_occupancy
  Yb  Yb0  1  0.333333  0.666667  0.000000  1
  Er  Er1  1  0.245154  0.000585  0.250172  1
  Er  Er2  1  0.755431  0.000585  0.749828  1
  Er  Er3  1  0.999415  0.244569  0.250172  1
  Er  Er4  1  0.999415  0.754846  0.749828  1
  Er  Er5  1  0.755431  0.754846  0.250172  1
  Er  Er6  1  0.245154  0.244569  0.749828  1
  Er  Er7  1  0.666667  0.333333  0.000000  1
  Er  Er8  1  0.666667  0.333333  0.500000  1
  Er  Er9  1  0.333333  0.666667  0.500000  1
  Pt  Pt10  1  0.000000  0.000000  0.000000  1
  Pt  Pt11  1  0.000000  0.000000  0.500000  1
  Pb  Pb12  1  0.600569  0.000674  0.251174  1
  Pb  Pb13  1  0.400105  0.000674  0.748826  1
  Pb  Pb14  1  0.999326  0.599895  0.251174  1
  Pb  Pb15  1  0.999326  0.399431  0.748826  1
  Pb  Pb16  1  0.400105  0.399431  0.251174  1
  Pb  Pb17  1  0.600569  0.599895  0.748826  1
