# generated using pymatgen
data_Sm8In(PdPt5)4
_symmetry_space_group_name_H-M   'P 1'
_cell_length_a   8.51969700
_cell_length_b   8.51865000
_cell_length_c   8.51865000
_cell_angle_alpha   90.00000000
_cell_angle_beta   90.00000000
_cell_angle_gamma   90.00000000
_symmetry_Int_Tables_number   1
_chemical_formula_structural   Sm8In(PdPt5)4
_chemical_formula_sum   'Sm8 In1 Pd4 Pt20'
_cell_volume   618.25224153
_cell_formula_units_Z   1
loop_
 _symmetry_equiv_pos_site_id
 _symmetry_equiv_pos_as_xyz
  1  'x, y, z'
loop_
 _atom_site_type_symbol
 _atom_site_label
 _atom_site_symmetry_multiplicity
 _atom_site_fract_x
 _atom_site_fract_y
 _atom_site_fract_z
 _atom_site_occupancy
  Sm  Sm0  1  0.249188  0.249470  0.249470  1
  Sm  Sm1  1  0.750812  0.750530  0.750530  1
  Sm  Sm2  1  0.750812  0.750530  0.249470  1
  Sm  Sm3  1  0.750812  0.249470  0.750530  1
  Sm  Sm4  1  0.249188  0.249470  0.750530  1
  Sm  Sm5  1  0.249188  0.750530  0.249470  1
  Sm  Sm6  1  0.249188  0.750530  0.750530  1
  Sm  Sm7  1  0.750812  0.249470  0.249470  1
  In  In8  1  0.000000  0.000000  0.000000  1
  Pd  Pd9  1  0.500000  0.256987  0.500000  1
  Pd  Pd10  1  0.500000  0.743013  0.500000  1
  Pd  Pd11  1  0.500000  0.500000  0.256987  1
  Pd  Pd12  1  0.500000  0.500000  0.743013  1
  Pt  Pt13  1  0.270393  0.500000  0.000000  1
  Pt  Pt14  1  0.729607  0.500000  0.000000  1
  Pt  Pt15  1  0.000000  0.269696  0.500000  1
  Pt  Pt16  1  0.500000  0.270083  0.000000  1
  Pt  Pt17  1  0.000000  0.730304  0.500000  1
  Pt  Pt18  1  0.500000  0.729917  0.000000  1
  Pt  Pt19  1  0.500000  0.000000  0.270083  1
  Pt  Pt20  1  0.270393  0.000000  0.500000  1
  Pt  Pt21  1  0.500000  0.000000  0.729917  1
  Pt  Pt22  1  0.729607  0.000000  0.500000  1
  Pt  Pt23  1  0.000000  0.500000  0.269696  1
  Pt  Pt24  1  0.000000  0.500000  0.730304  1
  Pt  Pt25  1  0.256361  0.500000  0.500000  1
  Pt  Pt26  1  0.743639  0.500000  0.500000  1
  Pt  Pt27  1  0.322236  0.000000  0.000000  1
  Pt  Pt28  1  0.677764  0.000000  0.000000  1
  Pt  Pt29  1  0.000000  0.321633  0.000000  1
  Pt  Pt30  1  0.000000  0.678367  0.000000  1
  Pt  Pt31  1  0.000000  0.000000  0.321633  1
  Pt  Pt32  1  0.000000  0.000000  0.678367  1
