# generated using pymatgen
data_CsNa3CrO4
_symmetry_space_group_name_H-M   'P 1'
_cell_length_a   11.69922333
_cell_length_b   8.59203376
_cell_length_c   6.55401358
_cell_angle_alpha   100.40260566
_cell_angle_beta   109.03967774
_cell_angle_gamma   91.53230095
_symmetry_Int_Tables_number   1
_chemical_formula_structural   CsNa3CrO4
_chemical_formula_sum   'Cs4 Na12 Cr4 O16'
_cell_volume   609.92808631
_cell_formula_units_Z   4
loop_
 _symmetry_equiv_pos_site_id
 _symmetry_equiv_pos_as_xyz
  1  'x, y, z'
loop_
 _atom_site_type_symbol
 _atom_site_label
 _atom_site_symmetry_multiplicity
 _atom_site_fract_x
 _atom_site_fract_y
 _atom_site_fract_z
 _atom_site_occupancy
  Cs  Cs0  1  0.128377  0.382625  0.095621  1
  Cs  Cs1  1  0.374700  0.135386  0.336820  1
  Cs  Cs2  1  0.625311  0.864619  0.663190  1
  Cs  Cs3  1  0.871622  0.617363  0.904363  1
  Na  Na4  1  0.895450  0.056830  0.103041  1
  Na  Na5  1  0.608543  0.664165  0.104884  1
  Na  Na6  1  0.625640  0.043990  0.199850  1
  Na  Na7  1  0.873848  0.431800  0.334745  1
  Na  Na8  1  0.146240  0.835583  0.352125  1
  Na  Na9  1  0.605055  0.446139  0.423301  1
  Na  Na10  1  0.394935  0.553857  0.576656  1
  Na  Na11  1  0.853755  0.164402  0.647875  1
  Na  Na12  1  0.126149  0.568182  0.665258  1
  Na  Na13  1  0.374359  0.956005  0.800142  1
  Na  Na14  1  0.391452  0.335833  0.895118  1
  Na  Na15  1  0.104554  0.943159  0.896957  1
  Cr  Cr16  1  0.354863  0.715945  0.187037  1
  Cr  Cr17  1  0.863535  0.788473  0.445132  1
  Cr  Cr18  1  0.136405  0.211482  0.554759  1
  Cr  Cr19  1  0.645166  0.284119  0.813112  1
  O  O20  1  0.197911  0.716822  0.016997  1
  O  O21  1  0.456979  0.836067  0.107158  1
  O  O22  1  0.412191  0.521867  0.212196  1
  O  O23  1  0.784896  0.884559  0.219571  1
  O  O24  1  0.102316  0.085126  0.284740  1
  O  O25  1  0.993906  0.690933  0.411862  1
  O  O26  1  0.754130  0.624100  0.424322  1
  O  O27  1  0.354679  0.797966  0.465365  1
  O  O28  1  0.645325  0.202068  0.534663  1
  O  O29  1  0.245867  0.375881  0.575673  1
  O  O30  1  0.006089  0.309054  0.588139  1
  O  O31  1  0.897680  0.914847  0.715240  1
  O  O32  1  0.215104  0.115438  0.780422  1
  O  O33  1  0.587822  0.478160  0.787796  1
  O  O34  1  0.543036  0.163964  0.892856  1
  O  O35  1  0.802105  0.283198  0.983015  1
