# generated using pymatgen
data_Tm4HgPd
_symmetry_space_group_name_H-M   'P 1'
_cell_length_a   9.52537722
_cell_length_b   9.52537871
_cell_length_c   9.52530900
_cell_angle_alpha   59.99969304
_cell_angle_beta   59.99977565
_cell_angle_gamma   59.99999151
_symmetry_Int_Tables_number   1
_chemical_formula_structural   Tm4HgPd
_chemical_formula_sum   'Tm16 Hg4 Pd4'
_cell_volume   611.12033896
_cell_formula_units_Z   4
loop_
 _symmetry_equiv_pos_site_id
 _symmetry_equiv_pos_as_xyz
  1  'x, y, z'
loop_
 _atom_site_type_symbol
 _atom_site_label
 _atom_site_symmetry_multiplicity
 _atom_site_fract_x
 _atom_site_fract_y
 _atom_site_fract_z
 _atom_site_occupancy
  Tm  Tm0  1  0.358047  0.358048  0.358050  1
  Tm  Tm1  1  0.358051  0.358050  0.925849  1
  Tm  Tm2  1  0.358049  0.925852  0.358050  1
  Tm  Tm3  1  0.925854  0.358049  0.358051  1
  Tm  Tm4  1  0.812346  0.187655  0.187654  1
  Tm  Tm5  1  0.187655  0.812345  0.812344  1
  Tm  Tm6  1  0.187655  0.812346  0.187653  1
  Tm  Tm7  1  0.812345  0.187654  0.812346  1
  Tm  Tm8  1  0.187654  0.187653  0.812347  1
  Tm  Tm9  1  0.812346  0.812347  0.187653  1
  Tm  Tm10  1  0.934217  0.565782  0.565783  1
  Tm  Tm11  1  0.565782  0.934218  0.934220  1
  Tm  Tm12  1  0.565782  0.934216  0.565783  1
  Tm  Tm13  1  0.934219  0.565782  0.934219  1
  Tm  Tm14  1  0.565781  0.565781  0.934219  1
  Tm  Tm15  1  0.934217  0.934218  0.565784  1
  Hg  Hg16  1  0.587811  0.587811  0.587798  1
  Hg  Hg17  1  0.587803  0.587803  0.236591  1
  Hg  Hg18  1  0.587811  0.236577  0.587800  1
  Hg  Hg19  1  0.236576  0.587812  0.587800  1
  Pd  Pd20  1  0.146162  0.146164  0.146169  1
  Pd  Pd21  1  0.146162  0.146163  0.561509  1
  Pd  Pd22  1  0.146160  0.561513  0.146164  1
  Pd  Pd23  1  0.561513  0.146161  0.146164  1
