# generated using pymatgen
data_Hf6Ta4(GaGe)3
_symmetry_space_group_name_H-M   'P 1'
_cell_length_a   7.92253700
_cell_length_b   7.91551925
_cell_length_c   5.43140300
_cell_angle_alpha   90.00000000
_cell_angle_beta   90.00000000
_cell_angle_gamma   120.02932801
_symmetry_Int_Tables_number   1
_chemical_formula_structural   Hf6Ta4(GaGe)3
_chemical_formula_sum   'Hf6 Ta4 Ga3 Ge3'
_cell_volume   294.88855882
_cell_formula_units_Z   1
loop_
 _symmetry_equiv_pos_site_id
 _symmetry_equiv_pos_as_xyz
  1  'x, y, z'
loop_
 _atom_site_type_symbol
 _atom_site_label
 _atom_site_symmetry_multiplicity
 _atom_site_fract_x
 _atom_site_fract_y
 _atom_site_fract_z
 _atom_site_occupancy
  Hf  Hf0  1  0.747413  0.746799  0.250000  1
  Hf  Hf1  1  0.744867  0.000000  0.750000  1
  Hf  Hf2  1  0.000614  0.253201  0.250000  1
  Hf  Hf3  1  0.251508  0.250915  0.750000  1
  Hf  Hf4  1  0.251551  0.000000  0.250000  1
  Hf  Hf5  1  0.000594  0.749085  0.750000  1
  Ta  Ta6  1  0.667158  0.333159  0.000152  1
  Ta  Ta7  1  0.667158  0.333159  0.499848  1
  Ta  Ta8  1  0.333998  0.666841  0.499848  1
  Ta  Ta9  1  0.333998  0.666841  0.000152  1
  Ga  Ga10  1  0.000741  0.606606  0.250000  1
  Ga  Ga11  1  0.394135  0.393394  0.250000  1
  Ga  Ga12  1  0.393623  0.000000  0.750000  1
  Ge  Ge13  1  0.605517  0.000000  0.250000  1
  Ge  Ge14  1  0.606167  0.605211  0.750000  1
  Ge  Ge15  1  0.000955  0.394789  0.750000  1
