# generated using pymatgen
data_SmGa4Cu9
_symmetry_space_group_name_H-M   'P 1'
_cell_length_a   8.29968970
_cell_length_b   8.29968894
_cell_length_c   8.29968875
_cell_angle_alpha   120.49522709
_cell_angle_beta   120.49522493
_cell_angle_gamma   89.14436353
_symmetry_Int_Tables_number   1
_chemical_formula_structural   SmGa4Cu9
_chemical_formula_sum   'Sm2 Ga8 Cu18'
_cell_volume   401.19443640
_cell_formula_units_Z   2
loop_
 _symmetry_equiv_pos_site_id
 _symmetry_equiv_pos_as_xyz
  1  'x, y, z'
loop_
 _atom_site_type_symbol
 _atom_site_label
 _atom_site_symmetry_multiplicity
 _atom_site_fract_x
 _atom_site_fract_y
 _atom_site_fract_z
 _atom_site_occupancy
  Sm  Sm0  1  0.750000  0.750000  0.000000  1
  Sm  Sm1  1  0.250000  0.250000  0.000000  1
  Ga  Ga2  1  0.057151  0.557151  0.861907  1
  Ga  Ga3  1  0.695244  0.195244  0.138093  1
  Ga  Ga4  1  0.557151  0.695244  0.500000  1
  Ga  Ga5  1  0.195244  0.057151  0.500000  1
  Ga  Ga6  1  0.942849  0.442849  0.138093  1
  Ga  Ga7  1  0.304756  0.804756  0.861907  1
  Ga  Ga8  1  0.442849  0.304756  0.500000  1
  Ga  Ga9  1  0.804756  0.942849  0.500000  1
  Cu  Cu10  1  0.061438  0.201759  0.263198  1
  Cu  Cu11  1  0.938562  0.798241  0.736802  1
  Cu  Cu12  1  0.561438  0.298241  0.859679  1
  Cu  Cu13  1  0.438562  0.701759  0.140321  1
  Cu  Cu14  1  0.798241  0.061438  0.859679  1
  Cu  Cu15  1  0.201759  0.938562  0.140321  1
  Cu  Cu16  1  0.701759  0.561438  0.263198  1
  Cu  Cu17  1  0.298241  0.438562  0.736802  1
  Cu  Cu18  1  0.438506  0.938506  0.733260  1
  Cu  Cu19  1  0.205246  0.705246  0.266740  1
  Cu  Cu20  1  0.938506  0.205246  0.500000  1
  Cu  Cu21  1  0.705246  0.438506  0.500000  1
  Cu  Cu22  1  0.561494  0.061494  0.266740  1
  Cu  Cu23  1  0.794754  0.294754  0.733260  1
  Cu  Cu24  1  0.061494  0.794754  0.500000  1
  Cu  Cu25  1  0.294754  0.561494  0.500000  1
  Cu  Cu26  1  0.000000  0.500000  0.500000  1
  Cu  Cu27  1  0.500000  0.000000  0.500000  1
