# generated using pymatgen
data_YbTi8(In2Co)7
_symmetry_space_group_name_H-M   'P 1'
_cell_length_a   9.22859579
_cell_length_b   9.23244077
_cell_length_c   9.22806100
_cell_angle_alpha   60.00633011
_cell_angle_beta   60.04718851
_cell_angle_gamma   59.99348876
_symmetry_Int_Tables_number   1
_chemical_formula_structural   YbTi8(In2Co)7
_chemical_formula_sum   'Yb1 Ti8 In14 Co7'
_cell_volume   556.16243212
_cell_formula_units_Z   1
loop_
 _symmetry_equiv_pos_site_id
 _symmetry_equiv_pos_as_xyz
  1  'x, y, z'
loop_
 _atom_site_type_symbol
 _atom_site_label
 _atom_site_symmetry_multiplicity
 _atom_site_fract_x
 _atom_site_fract_y
 _atom_site_fract_z
 _atom_site_occupancy
  Yb  Yb0  1  0.500000  0.500000  0.500000  1
  Ti  Ti1  1  0.116234  0.651115  0.116295  1
  Ti  Ti2  1  0.348884  0.883773  0.883764  1
  Ti  Ti3  1  0.883536  0.883622  0.883618  1
  Ti  Ti4  1  0.651116  0.116227  0.116236  1
  Ti  Ti5  1  0.883758  0.883704  0.348875  1
  Ti  Ti6  1  0.116464  0.116378  0.116382  1
  Ti  Ti7  1  0.883766  0.348885  0.883705  1
  Ti  Ti8  1  0.116242  0.116296  0.651125  1
  In  In9  1  0.500044  0.846534  0.153469  1
  In  In10  1  0.500078  0.846479  0.500054  1
  In  In11  1  0.499922  0.153521  0.499946  1
  In  In12  1  0.500058  0.500075  0.846460  1
  In  In13  1  0.153531  0.499905  0.499967  1
  In  In14  1  0.846537  0.153473  0.499992  1
  In  In15  1  0.153463  0.846527  0.500008  1
  In  In16  1  0.499956  0.153466  0.846531  1
  In  In17  1  0.153409  0.499990  0.846589  1
  In  In18  1  0.499942  0.499925  0.153540  1
  In  In19  1  0.846469  0.500095  0.500033  1
  In  In20  1  0.846591  0.500010  0.153411  1
  In  In21  1  0.250415  0.250427  0.250443  1
  In  In22  1  0.749585  0.749573  0.749557  1
  Co  Co23  1  0.788870  0.788842  0.211099  1
  Co  Co24  1  0.000000  0.000000  0.000000  1
  Co  Co25  1  0.211082  0.788947  0.211097  1
  Co  Co26  1  0.210978  0.788967  0.788965  1
  Co  Co27  1  0.211130  0.211158  0.788901  1
  Co  Co28  1  0.788918  0.211053  0.788903  1
  Co  Co29  1  0.789022  0.211033  0.211035  1
