# generated using pymatgen
data_Pr8Tm12Si15Tc
_symmetry_space_group_name_H-M   'P 1'
_cell_length_a   7.46032101
_cell_length_b   7.77188781
_cell_length_c   14.72305100
_cell_angle_alpha   90.00000000
_cell_angle_beta   90.00000000
_cell_angle_gamma   90.26527044
_symmetry_Int_Tables_number   1
_chemical_formula_structural   Pr8Tm12Si15Tc
_chemical_formula_sum   'Pr8 Tm12 Si15 Tc1'
_cell_volume   853.64480028
_cell_formula_units_Z   1
loop_
 _symmetry_equiv_pos_site_id
 _symmetry_equiv_pos_as_xyz
  1  'x, y, z'
loop_
 _atom_site_type_symbol
 _atom_site_label
 _atom_site_symmetry_multiplicity
 _atom_site_fract_x
 _atom_site_fract_y
 _atom_site_fract_z
 _atom_site_occupancy
  Pr  Pr0  1  0.020201  0.176457  0.400947  1
  Pr  Pr1  1  0.519164  0.324942  0.402989  1
  Pr  Pr2  1  0.474312  0.681627  0.900714  1
  Pr  Pr3  1  0.474312  0.681627  0.599286  1
  Pr  Pr4  1  0.984931  0.823225  0.598619  1
  Pr  Pr5  1  0.984931  0.823225  0.901381  1
  Pr  Pr6  1  0.519164  0.324942  0.097011  1
  Pr  Pr7  1  0.020201  0.176457  0.099053  1
  Tm  Tm8  1  0.321629  0.170936  0.626033  1
  Tm  Tm9  1  0.677556  0.820668  0.377427  1
  Tm  Tm10  1  0.645537  0.986150  0.750000  1
  Tm  Tm11  1  0.177178  0.677741  0.376189  1
  Tm  Tm12  1  0.823576  0.323958  0.876425  1
  Tm  Tm13  1  0.823576  0.323958  0.623575  1
  Tm  Tm14  1  0.845478  0.493096  0.250000  1
  Tm  Tm15  1  0.346355  0.010054  0.250000  1
  Tm  Tm16  1  0.321629  0.170936  0.873967  1
  Tm  Tm17  1  0.177178  0.677741  0.123811  1
  Tm  Tm18  1  0.677556  0.820668  0.122573  1
  Tm  Tm19  1  0.159108  0.513275  0.750000  1
  Si  Si20  1  0.470785  0.618184  0.250000  1
  Si  Si21  1  0.025271  0.115186  0.750000  1
  Si  Si22  1  0.532623  0.385244  0.750000  1
  Si  Si23  1  0.147217  0.465185  0.538341  1
  Si  Si24  1  0.971165  0.882708  0.250000  1
  Si  Si25  1  0.723695  0.120404  0.250000  1
  Si  Si26  1  0.854213  0.529562  0.040738  1
  Si  Si27  1  0.354399  0.968989  0.040645  1
  Si  Si28  1  0.147217  0.465185  0.961659  1
  Si  Si29  1  0.651007  0.037145  0.537968  1
  Si  Si30  1  0.354399  0.968989  0.459355  1
  Si  Si31  1  0.854213  0.529562  0.459262  1
  Si  Si32  1  0.772564  0.613935  0.750000  1
  Si  Si33  1  0.225264  0.379003  0.250000  1
  Si  Si34  1  0.651007  0.037145  0.962032  1
  Tc  Tc35  1  0.271390  0.881891  0.750000  1
