# generated using pymatgen
data_Dy2TmCo8P6Ru
_symmetry_space_group_name_H-M   'P 1'
_cell_length_a   3.70218800
_cell_length_b   10.51320000
_cell_length_c   12.24204600
_cell_angle_alpha   90.00000000
_cell_angle_beta   90.00000000
_cell_angle_gamma   90.00000000
_symmetry_Int_Tables_number   1
_chemical_formula_structural   Dy2TmCo8P6Ru
_chemical_formula_sum   'Dy4 Tm2 Co16 P12 Ru2'
_cell_volume   476.48299096
_cell_formula_units_Z   2
loop_
 _symmetry_equiv_pos_site_id
 _symmetry_equiv_pos_as_xyz
  1  'x, y, z'
loop_
 _atom_site_type_symbol
 _atom_site_label
 _atom_site_symmetry_multiplicity
 _atom_site_fract_x
 _atom_site_fract_y
 _atom_site_fract_z
 _atom_site_occupancy
  Dy  Dy0  1  0.000000  0.500000  0.524227  1
  Dy  Dy1  1  0.500000  0.000000  0.474972  1
  Dy  Dy2  1  0.000000  0.683017  0.793247  1
  Dy  Dy3  1  0.000000  0.316983  0.793247  1
  Tm  Tm4  1  0.500000  0.817512  0.206952  1
  Tm  Tm5  1  0.500000  0.182488  0.206952  1
  Co  Co6  1  0.500000  0.500000  0.703998  1
  Co  Co7  1  0.000000  0.000000  0.295323  1
  Co  Co8  1  0.000000  0.500000  0.987028  1
  Co  Co9  1  0.500000  0.000000  0.014681  1
  Co  Co10  1  0.500000  0.332053  0.991263  1
  Co  Co11  1  0.500000  0.667947  0.991263  1
  Co  Co12  1  0.000000  0.167208  0.010458  1
  Co  Co13  1  0.000000  0.832792  0.010458  1
  Co  Co14  1  0.500000  0.296992  0.430260  1
  Co  Co15  1  0.500000  0.703008  0.430260  1
  Co  Co16  1  0.000000  0.202607  0.568280  1
  Co  Co17  1  0.000000  0.797393  0.568280  1
  Co  Co18  1  0.500000  0.879244  0.707616  1
  Co  Co19  1  0.500000  0.120756  0.707616  1
  Co  Co20  1  0.000000  0.621634  0.291678  1
  Co  Co21  1  0.000000  0.378366  0.291678  1
  P  P22  1  0.500000  0.500000  0.882539  1
  P  P23  1  0.000000  0.000000  0.119034  1
  P  P24  1  0.500000  0.500000  0.349852  1
  P  P25  1  0.000000  0.000000  0.649919  1
  P  P26  1  0.500000  0.311166  0.615671  1
  P  P27  1  0.500000  0.688834  0.615671  1
  P  P28  1  0.000000  0.188302  0.382603  1
  P  P29  1  0.000000  0.811698  0.382603  1
  P  P30  1  0.500000  0.846914  0.893741  1
  P  P31  1  0.500000  0.153086  0.893741  1
  P  P32  1  0.000000  0.654291  0.107339  1
  P  P33  1  0.000000  0.345709  0.107339  1
  Ru  Ru34  1  0.500000  0.500000  0.159400  1
  Ru  Ru35  1  0.000000  0.000000  0.840813  1
