# generated using pymatgen
data_Ta3Tl2Br7O5
_symmetry_space_group_name_H-M   'P 1'
_cell_length_a   10.02344547
_cell_length_b   10.02344510
_cell_length_c   11.31880900
_cell_angle_alpha   71.94574756
_cell_angle_beta   71.94574825
_cell_angle_gamma   51.94319842
_symmetry_Int_Tables_number   1
_chemical_formula_structural   Ta3Tl2Br7O5
_chemical_formula_sum   'Ta6 Tl4 Br14 O10'
_cell_volume   840.53857981
_cell_formula_units_Z   2
loop_
 _symmetry_equiv_pos_site_id
 _symmetry_equiv_pos_as_xyz
  1  'x, y, z'
loop_
 _atom_site_type_symbol
 _atom_site_label
 _atom_site_symmetry_multiplicity
 _atom_site_fract_x
 _atom_site_fract_y
 _atom_site_fract_z
 _atom_site_occupancy
  Ta  Ta0  1  0.217866  0.786485  0.527336  1
  Ta  Ta1  1  0.213515  0.782134  0.972664  1
  Ta  Ta2  1  0.782134  0.213515  0.472664  1
  Ta  Ta3  1  0.786485  0.217866  0.027336  1
  Ta  Ta4  1  0.455156  0.544844  0.250000  1
  Ta  Ta5  1  0.544844  0.455156  0.750000  1
  Tl  Tl6  1  0.760381  0.848958  0.855867  1
  Tl  Tl7  1  0.151042  0.239619  0.644133  1
  Tl  Tl8  1  0.239619  0.151042  0.144133  1
  Tl  Tl9  1  0.848958  0.760381  0.355867  1
  Br  Br10  1  0.060680  0.636734  0.621101  1
  Br  Br11  1  0.363266  0.939320  0.878899  1
  Br  Br12  1  0.939320  0.363266  0.378899  1
  Br  Br13  1  0.636734  0.060680  0.121101  1
  Br  Br14  1  0.368024  0.940666  0.452073  1
  Br  Br15  1  0.059334  0.631976  0.047927  1
  Br  Br16  1  0.631976  0.059334  0.547927  1
  Br  Br17  1  0.940666  0.368024  0.952073  1
  Br  Br18  1  0.286194  0.411317  0.332284  1
  Br  Br19  1  0.588683  0.713806  0.167716  1
  Br  Br20  1  0.713806  0.588683  0.667716  1
  Br  Br21  1  0.411317  0.286194  0.832284  1
  Br  Br22  1  0.071181  0.928819  0.750000  1
  Br  Br23  1  0.928819  0.071181  0.250000  1
  O  O24  1  0.293035  0.708459  0.376780  1
  O  O25  1  0.291541  0.706965  0.123220  1
  O  O26  1  0.706965  0.291541  0.623220  1
  O  O27  1  0.708459  0.293035  0.876780  1
  O  O28  1  0.395021  0.606590  0.627582  1
  O  O29  1  0.393410  0.604979  0.872418  1
  O  O30  1  0.604979  0.393410  0.372418  1
  O  O31  1  0.606590  0.395021  0.127582  1
  O  O32  1  0.000000  0.000000  0.500000  1
  O  O33  1  0.000000  0.000000  0.000000  1
