# generated using pymatgen
data_HfB2PbO6
_symmetry_space_group_name_H-M   'P 1'
_cell_length_a   6.33879743
_cell_length_b   6.33879677
_cell_length_c   6.33879659
_cell_angle_alpha   47.42950435
_cell_angle_beta   47.42950514
_cell_angle_gamma   47.42950156
_symmetry_Int_Tables_number   1
_chemical_formula_structural   HfB2PbO6
_chemical_formula_sum   'Hf1 B2 Pb1 O6'
_cell_volume   126.38904375
_cell_formula_units_Z   1
loop_
 _symmetry_equiv_pos_site_id
 _symmetry_equiv_pos_as_xyz
  1  'x, y, z'
loop_
 _atom_site_type_symbol
 _atom_site_label
 _atom_site_symmetry_multiplicity
 _atom_site_fract_x
 _atom_site_fract_y
 _atom_site_fract_z
 _atom_site_occupancy
  Hf  Hf0  1  0.000000  0.000000  0.000000  1
  B  B1  1  0.261262  0.261262  0.261262  1
  B  B2  1  0.738738  0.738738  0.738738  1
  Pb  Pb3  1  0.500000  0.500000  0.500000  1
  O  O4  1  0.441932  0.803283  0.973950  1
  O  O5  1  0.026049  0.558070  0.196717  1
  O  O6  1  0.803282  0.973951  0.441931  1
  O  O7  1  0.196718  0.026049  0.558069  1
  O  O8  1  0.973951  0.441930  0.803283  1
  O  O9  1  0.558068  0.196717  0.026050  1
