# generated using pymatgen
data_Tb4Dy8Co4CuSn
_symmetry_space_group_name_H-M   'P 1'
_cell_length_a   8.32685155
_cell_length_b   8.32685143
_cell_length_c   8.32685120
_cell_angle_alpha   106.95775799
_cell_angle_beta   110.29594418
_cell_angle_gamma   111.19014273
_symmetry_Int_Tables_number   1
_chemical_formula_structural   Tb4Dy8Co4CuSn
_chemical_formula_sum   'Tb4 Dy8 Co4 Cu1 Sn1'
_cell_volume   443.78130825
_cell_formula_units_Z   1
loop_
 _symmetry_equiv_pos_site_id
 _symmetry_equiv_pos_as_xyz
  1  'x, y, z'
loop_
 _atom_site_type_symbol
 _atom_site_label
 _atom_site_symmetry_multiplicity
 _atom_site_fract_x
 _atom_site_fract_y
 _atom_site_fract_z
 _atom_site_occupancy
  Tb  Tb0  1  0.476224  0.290727  0.185497  1
  Tb  Tb1  1  0.105231  0.290727  0.814503  1
  Tb  Tb2  1  0.894769  0.709273  0.185497  1
  Tb  Tb3  1  0.523776  0.709273  0.814503  1
  Dy  Dy4  1  0.305538  0.620391  0.314853  1
  Dy  Dy5  1  0.305538  0.990685  0.685147  1
  Dy  Dy6  1  0.694462  0.379609  0.685147  1
  Dy  Dy7  1  0.694462  0.009315  0.314853  1
  Dy  Dy8  1  0.199614  0.214727  0.414340  1
  Dy  Dy9  1  0.800386  0.785273  0.585660  1
  Dy  Dy10  1  0.199614  0.785273  0.984887  1
  Dy  Dy11  1  0.800386  0.214727  0.015113  1
  Co  Co12  1  0.500000  0.612702  0.112702  1
  Co  Co13  1  0.500000  0.387298  0.887298  1
  Co  Co14  1  0.376794  0.000000  0.376794  1
  Co  Co15  1  0.623206  0.000000  0.623206  1
  Cu  Cu16  1  0.000000  0.000000  0.000000  1
  Sn  Sn17  1  0.000000  0.500000  0.500000  1
