# generated using pymatgen
data_Tm10Lu2InFe3Au
_symmetry_space_group_name_H-M   'P 1'
_cell_length_a   8.15499153
_cell_length_b   8.14747712
_cell_length_c   8.14754299
_cell_angle_alpha   110.21037392
_cell_angle_beta   107.27352419
_cell_angle_gamma   110.91528978
_symmetry_Int_Tables_number   1
_chemical_formula_structural   Tm10Lu2InFe3Au
_chemical_formula_sum   'Tm10 Lu2 In1 Fe3 Au1'
_cell_volume   416.44871144
_cell_formula_units_Z   1
loop_
 _symmetry_equiv_pos_site_id
 _symmetry_equiv_pos_as_xyz
  1  'x, y, z'
loop_
 _atom_site_type_symbol
 _atom_site_label
 _atom_site_symmetry_multiplicity
 _atom_site_fract_x
 _atom_site_fract_y
 _atom_site_fract_z
 _atom_site_occupancy
  Tm  Tm0  1  0.307688  0.310078  0.616953  1
  Tm  Tm1  1  0.692312  0.689922  0.383047  1
  Tm  Tm2  1  0.692309  0.309271  0.002392  1
  Tm  Tm3  1  0.307691  0.690729  0.997608  1
  Tm  Tm4  1  0.193327  0.448301  0.255764  1
  Tm  Tm5  1  0.806673  0.551699  0.744236  1
  Tm  Tm6  1  0.193327  0.937562  0.745021  1
  Tm  Tm7  1  0.961733  0.187751  0.773983  1
  Tm  Tm8  1  0.806673  0.062438  0.254979  1
  Tm  Tm9  1  0.038267  0.812249  0.226017  1
  Lu  Lu10  1  0.413595  0.187737  0.225855  1
  Lu  Lu11  1  0.586405  0.812263  0.774145  1
  In  In12  1  0.500000  0.000000  0.500000  1
  Fe  Fe13  1  0.382178  0.381987  0.000196  1
  Fe  Fe14  1  0.617822  0.618013  0.999804  1
  Fe  Fe15  1  0.000000  0.000000  0.000000  1
  Au  Au16  1  0.000000  0.500000  0.500000  1
