# generated using pymatgen
data_DyY3Mg2Ir3
_symmetry_space_group_name_H-M   'P 1'
_cell_length_a   7.46190800
_cell_length_b   7.45867373
_cell_length_c   4.11140000
_cell_angle_alpha   90.00000000
_cell_angle_beta   90.00000000
_cell_angle_gamma   120.01434527
_symmetry_Int_Tables_number   1
_chemical_formula_structural   DyY3Mg2Ir3
_chemical_formula_sum   'Dy1 Y3 Mg2 Ir3'
_cell_volume   198.13858930
_cell_formula_units_Z   1
loop_
 _symmetry_equiv_pos_site_id
 _symmetry_equiv_pos_as_xyz
  1  'x, y, z'
loop_
 _atom_site_type_symbol
 _atom_site_label
 _atom_site_symmetry_multiplicity
 _atom_site_fract_x
 _atom_site_fract_y
 _atom_site_fract_z
 _atom_site_occupancy
  Dy  Dy0  1  0.750729  0.000000  0.000000  1
  Y  Y1  1  0.389749  0.000000  0.499999  1
  Y  Y2  1  0.017283  0.431814  0.499999  1
  Y  Y3  1  0.585468  0.568186  0.499999  1
  Mg  Mg4  1  0.248258  0.249156  0.000000  1
  Mg  Mg5  1  0.999102  0.750845  0.000000  1
  Ir  Ir6  1  0.669674  0.332297  0.000000  1
  Ir  Ir7  1  0.337376  0.667702  0.000000  1
  Ir  Ir8  1  0.002360  0.000000  0.499999  1
