# generated using pymatgen
data_CeHoLu2(Si3Rh)2
_symmetry_space_group_name_H-M   'P 1'
_cell_length_a   8.13780117
_cell_length_b   8.13780084
_cell_length_c   7.87229800
_cell_angle_alpha   90.00000000
_cell_angle_beta   90.00000000
_cell_angle_gamma   119.97651382
_symmetry_Int_Tables_number   1
_chemical_formula_structural   CeHoLu2(Si3Rh)2
_chemical_formula_sum   'Ce2 Ho2 Lu4 Si12 Rh4'
_cell_volume   451.59489259
_cell_formula_units_Z   2
loop_
 _symmetry_equiv_pos_site_id
 _symmetry_equiv_pos_as_xyz
  1  'x, y, z'
loop_
 _atom_site_type_symbol
 _atom_site_label
 _atom_site_symmetry_multiplicity
 _atom_site_fract_x
 _atom_site_fract_y
 _atom_site_fract_z
 _atom_site_occupancy
  Ce  Ce0  1  0.999963  0.000037  0.250000  1
  Ce  Ce1  1  0.999875  0.000125  0.750000  1
  Ho  Ho2  1  0.491436  0.982163  0.750000  1
  Ho  Ho3  1  0.017837  0.508564  0.750000  1
  Lu  Lu4  1  0.509237  0.490763  0.250000  1
  Lu  Lu5  1  0.509106  0.018453  0.250000  1
  Lu  Lu6  1  0.981547  0.490894  0.250000  1
  Lu  Lu7  1  0.492082  0.507918  0.750000  1
  Si  Si8  1  0.167995  0.832005  0.499062  1
  Si  Si9  1  0.168347  0.335959  0.500599  1
  Si  Si10  1  0.664041  0.831653  0.500599  1
  Si  Si11  1  0.832240  0.167760  0.497052  1
  Si  Si12  1  0.832460  0.665226  0.497463  1
  Si  Si13  1  0.334774  0.167540  0.497463  1
  Si  Si14  1  0.832240  0.167760  0.002948  1
  Si  Si15  1  0.832460  0.665226  0.002537  1
  Si  Si16  1  0.334774  0.167540  0.002537  1
  Si  Si17  1  0.167995  0.832005  0.000938  1
  Si  Si18  1  0.168347  0.335959  0.999401  1
  Si  Si19  1  0.664041  0.831653  0.999401  1
  Rh  Rh20  1  0.333718  0.666282  0.460263  1
  Rh  Rh21  1  0.665884  0.334116  0.528713  1
  Rh  Rh22  1  0.665884  0.334116  0.971287  1
  Rh  Rh23  1  0.333718  0.666282  0.039737  1
