# generated using pymatgen
data_TiBe9NbMo
_symmetry_space_group_name_H-M   'P 1'
_cell_length_a   7.41610927
_cell_length_b   7.41610855
_cell_length_c   7.41611001
_cell_angle_alpha   35.15183381
_cell_angle_beta   35.15183859
_cell_angle_gamma   35.15181875
_symmetry_Int_Tables_number   1
_chemical_formula_structural   TiBe9NbMo
_chemical_formula_sum   'Ti1 Be9 Nb1 Mo1'
_cell_volume   120.75224358
_cell_formula_units_Z   1
loop_
 _symmetry_equiv_pos_site_id
 _symmetry_equiv_pos_as_xyz
  1  'x, y, z'
loop_
 _atom_site_type_symbol
 _atom_site_label
 _atom_site_symmetry_multiplicity
 _atom_site_fract_x
 _atom_site_fract_y
 _atom_site_fract_z
 _atom_site_occupancy
  Ti  Ti0  1  0.141173  0.141173  0.141173  1
  Be  Be1  1  0.415861  0.921247  0.415861  1
  Be  Be2  1  0.415861  0.415861  0.921247  1
  Be  Be3  1  0.921247  0.415861  0.415861  1
  Be  Be4  1  0.585900  0.075873  0.585900  1
  Be  Be5  1  0.585900  0.585900  0.075873  1
  Be  Be6  1  0.075873  0.585900  0.585900  1
  Be  Be7  1  0.667203  0.667203  0.667203  1
  Be  Be8  1  0.335740  0.335740  0.335740  1
  Be  Be9  1  0.499617  0.499617  0.499617  1
  Nb  Nb10  1  0.996768  0.996768  0.996768  1
  Mo  Mo11  1  0.858856  0.858856  0.858856  1
