# generated using pymatgen
data_HfZr2(TaSi2)2
_symmetry_space_group_name_H-M   'P 1'
_cell_length_a   6.95088064
_cell_length_b   6.95257406
_cell_length_c   12.81253459
_cell_angle_alpha   90.33348096
_cell_angle_beta   89.98185627
_cell_angle_gamma   89.97460093
_symmetry_Int_Tables_number   1
_chemical_formula_structural   HfZr2(TaSi2)2
_chemical_formula_sum   'Hf4 Zr8 Ta8 Si16'
_cell_volume   619.17453166
_cell_formula_units_Z   4
loop_
 _symmetry_equiv_pos_site_id
 _symmetry_equiv_pos_as_xyz
  1  'x, y, z'
loop_
 _atom_site_type_symbol
 _atom_site_label
 _atom_site_symmetry_multiplicity
 _atom_site_fract_x
 _atom_site_fract_y
 _atom_site_fract_z
 _atom_site_occupancy
  Hf  Hf0  1  0.650618  0.496688  0.876469  1
  Hf  Hf1  1  0.502523  0.351168  0.623084  1
  Hf  Hf2  1  0.499425  0.648122  0.124922  1
  Hf  Hf3  1  0.148185  0.999770  0.873750  1
  Zr  Zr4  1  0.000975  0.653840  0.035084  1
  Zr  Zr5  1  0.000868  0.345039  0.529424  1
  Zr  Zr6  1  0.655671  0.999011  0.968592  1
  Zr  Zr7  1  0.153391  0.498930  0.780852  1
  Zr  Zr8  1  0.845521  0.500959  0.281955  1
  Zr  Zr9  1  0.500795  0.155328  0.220958  1
  Zr  Zr10  1  0.501003  0.844780  0.715666  1
  Zr  Zr11  1  0.342234  0.001328  0.467895  1
  Ta  Ta12  1  0.349644  0.507557  0.375566  1
  Ta  Ta13  1  0.852655  0.996804  0.374311  1
  Ta  Ta14  1  0.006959  0.148794  0.126672  1
  Ta  Ta15  1  0.995146  0.850840  0.625002  1
  Ta  Ta16  1  0.672296  0.673419  0.498564  1
  Ta  Ta17  1  0.828720  0.170900  0.748580  1
  Ta  Ta18  1  0.171180  0.830566  0.251479  1
  Ta  Ta19  1  0.327857  0.325613  0.001328  1
  Si  Si20  1  0.045973  0.703166  0.436261  1
  Si  Si21  1  0.955350  0.298653  0.937226  1
  Si  Si22  1  0.703387  0.046032  0.562138  1
  Si  Si23  1  0.201735  0.451207  0.187234  1
  Si  Si24  1  0.800741  0.548390  0.684178  1
  Si  Si25  1  0.452873  0.198642  0.814076  1
  Si  Si26  1  0.548577  0.799867  0.315089  1
  Si  Si27  1  0.300018  0.954530  0.065402  1
  Si  Si28  1  0.856097  0.795865  0.818937  1
  Si  Si29  1  0.138132  0.208799  0.323242  1
  Si  Si30  1  0.796796  0.864533  0.179322  1
  Si  Si31  1  0.290533  0.641807  0.571394  1
  Si  Si32  1  0.708785  0.354063  0.073927  1
  Si  Si33  1  0.637747  0.293962  0.425478  1
  Si  Si34  1  0.355588  0.701798  0.929434  1
  Si  Si35  1  0.202004  0.139227  0.676510  1
