# generated using pymatgen
data_Pr2NdAl12Os3Rh
_symmetry_space_group_name_H-M   'P 1'
_cell_length_a   8.89194047
_cell_length_b   8.89193916
_cell_length_c   9.68332600
_cell_angle_alpha   90.00000000
_cell_angle_beta   90.00000000
_cell_angle_gamma   118.98772340
_symmetry_Int_Tables_number   1
_chemical_formula_structural   Pr2NdAl12Os3Rh
_chemical_formula_sum   'Pr4 Nd2 Al24 Os6 Rh2'
_cell_volume   669.71250598
_cell_formula_units_Z   2
loop_
 _symmetry_equiv_pos_site_id
 _symmetry_equiv_pos_as_xyz
  1  'x, y, z'
loop_
 _atom_site_type_symbol
 _atom_site_label
 _atom_site_symmetry_multiplicity
 _atom_site_fract_x
 _atom_site_fract_y
 _atom_site_fract_z
 _atom_site_occupancy
  Pr  Pr0  1  0.184022  0.382661  0.250000  1
  Pr  Pr1  1  0.815978  0.617339  0.750000  1
  Pr  Pr2  1  0.617339  0.815978  0.250000  1
  Pr  Pr3  1  0.382661  0.184022  0.750000  1
  Nd  Nd4  1  0.192939  0.807061  0.250000  1
  Nd  Nd5  1  0.807061  0.192939  0.750000  1
  Al  Al6  1  0.332381  0.667619  0.015056  1
  Al  Al7  1  0.667619  0.332381  0.984944  1
  Al  Al8  1  0.667619  0.332381  0.515056  1
  Al  Al9  1  0.332381  0.667619  0.484944  1
  Al  Al10  1  0.162273  0.324050  0.576343  1
  Al  Al11  1  0.837727  0.675950  0.423657  1
  Al  Al12  1  0.675950  0.837727  0.576343  1
  Al  Al13  1  0.837727  0.675950  0.076343  1
  Al  Al14  1  0.324050  0.162273  0.423657  1
  Al  Al15  1  0.162273  0.324050  0.923657  1
  Al  Al16  1  0.164833  0.835167  0.573884  1
  Al  Al17  1  0.324050  0.162273  0.076343  1
  Al  Al18  1  0.835167  0.164833  0.426116  1
  Al  Al19  1  0.675950  0.837727  0.923657  1
  Al  Al20  1  0.835167  0.164833  0.073884  1
  Al  Al21  1  0.164833  0.835167  0.926116  1
  Al  Al22  1  0.560281  0.126937  0.250000  1
  Al  Al23  1  0.439719  0.873063  0.750000  1
  Al  Al24  1  0.873063  0.439719  0.250000  1
  Al  Al25  1  0.126937  0.560281  0.750000  1
  Al  Al26  1  0.559381  0.440619  0.250000  1
  Al  Al27  1  0.440619  0.559381  0.750000  1
  Al  Al28  1  0.998408  0.001592  0.250000  1
  Al  Al29  1  0.001592  0.998408  0.750000  1
  Os  Os30  1  0.500000  0.000000  0.000000  1
  Os  Os31  1  0.000000  0.500000  0.000000  1
  Os  Os32  1  0.500000  0.000000  0.500000  1
  Os  Os33  1  0.000000  0.500000  0.500000  1
  Os  Os34  1  0.000000  0.000000  0.000000  1
  Os  Os35  1  0.000000  0.000000  0.500000  1
  Rh  Rh36  1  0.500000  0.500000  0.000000  1
  Rh  Rh37  1  0.500000  0.500000  0.500000  1
