# generated using pymatgen
data_Ba4Fe4PtRhN6
_symmetry_space_group_name_H-M   'P 1'
_cell_length_a   6.80206083
_cell_length_b   6.80206144
_cell_length_c   6.78392018
_cell_angle_alpha   89.02148830
_cell_angle_beta   89.02147962
_cell_angle_gamma   117.01809360
_symmetry_Int_Tables_number   1
_chemical_formula_structural   Ba4Fe4PtRhN6
_chemical_formula_sum   'Ba4 Fe4 Pt1 Rh1 N6'
_cell_volume   279.47344815
_cell_formula_units_Z   1
loop_
 _symmetry_equiv_pos_site_id
 _symmetry_equiv_pos_as_xyz
  1  'x, y, z'
loop_
 _atom_site_type_symbol
 _atom_site_label
 _atom_site_symmetry_multiplicity
 _atom_site_fract_x
 _atom_site_fract_y
 _atom_site_fract_z
 _atom_site_occupancy
  Ba  Ba0  1  0.839886  0.674698  0.902332  1
  Ba  Ba1  1  0.325302  0.160114  0.597668  1
  Ba  Ba2  1  0.163559  0.327711  0.099553  1
  Ba  Ba3  1  0.672289  0.836441  0.400447  1
  Fe  Fe4  1  0.554832  0.153115  0.104829  1
  Fe  Fe5  1  0.443429  0.845679  0.896677  1
  Fe  Fe6  1  0.846885  0.445168  0.395171  1
  Fe  Fe7  1  0.154321  0.556571  0.603323  1
  Pt  Pt8  1  0.806447  0.193553  0.750000  1
  Rh  Rh9  1  0.194754  0.805246  0.250000  1
  N  N10  1  0.383521  0.616479  0.750000  1
  N  N11  1  0.616026  0.383974  0.250000  1
  N  N12  1  0.013317  0.714467  0.503690  1
  N  N13  1  0.710149  0.010249  0.009697  1
  N  N14  1  0.989751  0.289851  0.490303  1
  N  N15  1  0.285533  0.986683  0.996310  1
