# generated using pymatgen
data_Pr10OsRuI15
_symmetry_space_group_name_H-M   'P 1'
_cell_length_a   10.15355442
_cell_length_b   11.06423976
_cell_length_c   11.89862213
_cell_angle_alpha   92.04981733
_cell_angle_beta   114.21351242
_cell_angle_gamma   110.55471724
_symmetry_Int_Tables_number   1
_chemical_formula_structural   Pr10OsRuI15
_chemical_formula_sum   'Pr10 Os1 Ru1 I15'
_cell_volume   1115.91739039
_cell_formula_units_Z   1
loop_
 _symmetry_equiv_pos_site_id
 _symmetry_equiv_pos_as_xyz
  1  'x, y, z'
loop_
 _atom_site_type_symbol
 _atom_site_label
 _atom_site_symmetry_multiplicity
 _atom_site_fract_x
 _atom_site_fract_y
 _atom_site_fract_z
 _atom_site_occupancy
  Pr  Pr0  1  0.225250  0.574436  0.047585  1
  Pr  Pr1  1  0.772316  0.418920  0.947161  1
  Pr  Pr2  1  0.297475  0.901965  0.274178  1
  Pr  Pr3  1  0.707902  0.101409  0.728656  1
  Pr  Pr4  1  0.086684  0.548605  0.325043  1
  Pr  Pr5  1  0.911165  0.455400  0.666768  1
  Pr  Pr6  1  0.832493  0.751711  0.177870  1
  Pr  Pr7  1  0.163919  0.249943  0.822255  1
  Pr  Pr8  1  0.975922  0.790910  0.908037  1
  Pr  Pr9  1  0.026580  0.205696  0.099886  1
  Os  Os10  1  0.967878  0.328947  0.882195  1
  Ru  Ru11  1  0.032132  0.672608  0.118816  1
  I  I12  1  0.340071  0.444166  0.302189  1
  I  I13  1  0.660619  0.557124  0.698675  1
  I  I14  1  0.211527  0.738783  0.816394  1
  I  I15  1  0.788097  0.261748  0.183811  1
  I  I16  1  0.143474  0.386612  0.583346  1
  I  I17  1  0.856398  0.615246  0.414468  1
  I  I18  1  0.387002  0.800001  0.530597  1
  I  I19  1  0.611165  0.199609  0.468044  1
  I  I20  1  0.264214  0.087064  0.055539  1
  I  I21  1  0.736041  0.911049  0.944833  1
  I  I22  1  0.564195  0.845224  0.227645  1
  I  I23  1  0.436584  0.154544  0.772518  1
  I  I24  1  0.093787  0.038035  0.340694  1
  I  I25  1  0.907593  0.960402  0.662725  1
  I  I26  1  0.499522  0.499845  0.000073  1
