# generated using pymatgen
data_Tb3Nd(Sc3Ga4)2
_symmetry_space_group_name_H-M   'P 1'
_cell_length_a   7.34721770
_cell_length_b   7.60269279
_cell_length_c   14.56518981
_cell_angle_alpha   90.09850318
_cell_angle_beta   90.05002421
_cell_angle_gamma   90.00036979
_symmetry_Int_Tables_number   1
_chemical_formula_structural   Tb3Nd(Sc3Ga4)2
_chemical_formula_sum   'Tb6 Nd2 Sc12 Ga16'
_cell_volume   813.59016736
_cell_formula_units_Z   2
loop_
 _symmetry_equiv_pos_site_id
 _symmetry_equiv_pos_as_xyz
  1  'x, y, z'
loop_
 _atom_site_type_symbol
 _atom_site_label
 _atom_site_symmetry_multiplicity
 _atom_site_fract_x
 _atom_site_fract_y
 _atom_site_fract_z
 _atom_site_occupancy
  Tb  Tb0  1  0.488203  0.677525  0.904667  1
  Tb  Tb1  1  0.988227  0.821787  0.595345  1
  Tb  Tb2  1  0.511797  0.322475  0.095333  1
  Tb  Tb3  1  0.011773  0.178213  0.404655  1
  Tb  Tb4  1  0.511881  0.321649  0.405004  1
  Tb  Tb5  1  0.488119  0.678351  0.594996  1
  Nd  Nd6  1  0.011551  0.176743  0.095248  1
  Nd  Nd7  1  0.988449  0.823257  0.904752  1
  Sc  Sc8  1  0.162225  0.502170  0.749569  1
  Sc  Sc9  1  0.837775  0.497830  0.250431  1
  Sc  Sc10  1  0.338548  0.002131  0.250417  1
  Sc  Sc11  1  0.661452  0.997869  0.749583  1
  Sc  Sc12  1  0.330124  0.173906  0.624196  1
  Sc  Sc13  1  0.669876  0.826094  0.375804  1
  Sc  Sc14  1  0.170097  0.674298  0.375897  1
  Sc  Sc15  1  0.668855  0.825782  0.124887  1
  Sc  Sc16  1  0.829903  0.325702  0.624103  1
  Sc  Sc17  1  0.331145  0.174218  0.875113  1
  Sc  Sc18  1  0.829267  0.326272  0.875182  1
  Sc  Sc19  1  0.170733  0.673728  0.124818  1
  Ga  Ga20  1  0.031775  0.119272  0.749441  1
  Ga  Ga21  1  0.968225  0.880728  0.250559  1
  Ga  Ga22  1  0.468329  0.618571  0.250098  1
  Ga  Ga23  1  0.531671  0.381429  0.749902  1
  Ga  Ga24  1  0.285802  0.874065  0.748942  1
  Ga  Ga25  1  0.714198  0.125935  0.251058  1
  Ga  Ga26  1  0.216506  0.374594  0.250743  1
  Ga  Ga27  1  0.783494  0.625406  0.749257  1
  Ga  Ga28  1  0.160095  0.464997  0.540157  1
  Ga  Ga29  1  0.839905  0.535003  0.459843  1
  Ga  Ga30  1  0.340032  0.964740  0.459821  1
  Ga  Ga31  1  0.838344  0.535787  0.040379  1
  Ga  Ga32  1  0.659968  0.035260  0.540179  1
  Ga  Ga33  1  0.161656  0.464213  0.959621  1
  Ga  Ga34  1  0.657161  0.036307  0.959852  1
  Ga  Ga35  1  0.342839  0.963693  0.040148  1
