# generated using pymatgen
data_TbYb3(Ho3Ir2)2
_symmetry_space_group_name_H-M   'P 1'
_cell_length_a   6.46930658
_cell_length_b   7.26906049
_cell_length_c   8.48026390
_cell_angle_alpha   96.88328158
_cell_angle_beta   112.36251593
_cell_angle_gamma   90.44249783
_symmetry_Int_Tables_number   1
_chemical_formula_structural   TbYb3(Ho3Ir2)2
_chemical_formula_sum   'Tb1 Yb3 Ho6 Ir4'
_cell_volume   365.52385572
_cell_formula_units_Z   1
loop_
 _symmetry_equiv_pos_site_id
 _symmetry_equiv_pos_as_xyz
  1  'x, y, z'
loop_
 _atom_site_type_symbol
 _atom_site_label
 _atom_site_symmetry_multiplicity
 _atom_site_fract_x
 _atom_site_fract_y
 _atom_site_fract_z
 _atom_site_occupancy
  Tb  Tb0  1  0.974659  0.918639  0.184662  1
  Yb  Yb1  1  0.791512  0.579701  0.815800  1
  Yb  Yb2  1  0.025527  0.079215  0.816177  1
  Yb  Yb3  1  0.207688  0.419804  0.182292  1
  Ho  Ho4  1  0.650349  0.818500  0.439632  1
  Ho  Ho5  1  0.211489  0.682778  0.560917  1
  Ho  Ho6  1  0.348683  0.181480  0.559870  1
  Ho  Ho7  1  0.791996  0.316166  0.439190  1
  Ho  Ho8  1  0.428695  0.750323  0.999755  1
  Ho  Ho9  1  0.568599  0.249583  0.998992  1
  Ir  Ir10  1  0.816719  0.577291  0.226069  1
  Ir  Ir11  1  0.591670  0.928932  0.777305  1
  Ir  Ir12  1  0.184996  0.427658  0.771959  1
  Ir  Ir13  1  0.407418  0.069931  0.227379  1
