# generated using pymatgen
data_NdReF7
_symmetry_space_group_name_H-M   'P 1'
_cell_length_a   5.80218200
_cell_length_b   6.19899910
_cell_length_c   8.38837399
_cell_angle_alpha   101.80964292
_cell_angle_beta   90.00000000
_cell_angle_gamma   90.00000000
_symmetry_Int_Tables_number   1
_chemical_formula_structural   NdReF7
_chemical_formula_sum   'Nd2 Re2 F14'
_cell_volume   295.32437238
_cell_formula_units_Z   2
loop_
 _symmetry_equiv_pos_site_id
 _symmetry_equiv_pos_as_xyz
  1  'x, y, z'
loop_
 _atom_site_type_symbol
 _atom_site_label
 _atom_site_symmetry_multiplicity
 _atom_site_fract_x
 _atom_site_fract_y
 _atom_site_fract_z
 _atom_site_occupancy
  Nd  Nd0  1  0.700982  0.659284  0.688503  1
  Nd  Nd1  1  0.200982  0.340716  0.311497  1
  Re  Re2  1  0.710282  0.811100  0.224391  1
  Re  Re3  1  0.210282  0.188900  0.775609  1
  F  F4  1  0.886465  0.447530  0.474448  1
  F  F5  1  0.386465  0.552470  0.525552  1
  F  F6  1  0.420208  0.936799  0.771441  1
  F  F7  1  0.920208  0.063201  0.228559  1
  F  F8  1  0.948937  0.977941  0.762196  1
  F  F9  1  0.448937  0.022059  0.237804  1
  F  F10  1  0.001766  0.445969  0.788516  1
  F  F11  1  0.501766  0.554031  0.211484  1
  F  F12  1  0.704830  0.760423  0.983767  1
  F  F13  1  0.204830  0.239577  0.016233  1
  F  F14  1  0.716070  0.864985  0.465661  1
  F  F15  1  0.216070  0.135015  0.534339  1
  F  F16  1  0.486821  0.381277  0.788909  1
  F  F17  1  0.986821  0.618723  0.211091  1
