# generated using pymatgen
data_Na4TbNpS6
_symmetry_space_group_name_H-M   'P 1'
_cell_length_a   6.92965848
_cell_length_b   6.92965833
_cell_length_c   6.98202800
_cell_angle_alpha   80.39484645
_cell_angle_beta   80.39485504
_cell_angle_gamma   119.99722854
_symmetry_Int_Tables_number   1
_chemical_formula_structural   Na4TbNpS6
_chemical_formula_sum   'Na4 Tb1 Np1 S6'
_cell_volume   273.72335919
_cell_formula_units_Z   1
loop_
 _symmetry_equiv_pos_site_id
 _symmetry_equiv_pos_as_xyz
  1  'x, y, z'
loop_
 _atom_site_type_symbol
 _atom_site_label
 _atom_site_symmetry_multiplicity
 _atom_site_fract_x
 _atom_site_fract_y
 _atom_site_fract_z
 _atom_site_occupancy
  Na  Na0  1  0.000309  0.999691  0.000000  1
  Na  Na1  1  0.500458  0.499542  0.500000  1
  Na  Na2  1  0.839731  0.160269  0.500000  1
  Na  Na3  1  0.159631  0.840369  0.500000  1
  Tb  Tb4  1  0.665858  0.334142  0.000000  1
  Np  Np5  1  0.332343  0.667657  0.000000  1
  S  S6  1  0.272744  0.284087  0.229764  1
  S  S7  1  0.426855  0.064174  0.770683  1
  S  S8  1  0.091546  0.441215  0.775133  1
  S  S9  1  0.715913  0.727256  0.770236  1
  S  S10  1  0.558785  0.908454  0.224867  1
  S  S11  1  0.935826  0.573145  0.229317  1
