# generated using pymatgen
data_Zr3PdC
_symmetry_space_group_name_H-M   'P 1'
_cell_length_a   6.17895883
_cell_length_b   6.17895824
_cell_length_c   9.06868500
_cell_angle_alpha   90.00000000
_cell_angle_beta   90.00000000
_cell_angle_gamma   148.79522283
_symmetry_Int_Tables_number   1
_chemical_formula_structural   Zr3PdC
_chemical_formula_sum   'Zr6 Pd2 C2'
_cell_volume   179.38538939
_cell_formula_units_Z   2
loop_
 _symmetry_equiv_pos_site_id
 _symmetry_equiv_pos_as_xyz
  1  'x, y, z'
loop_
 _atom_site_type_symbol
 _atom_site_label
 _atom_site_symmetry_multiplicity
 _atom_site_fract_x
 _atom_site_fract_y
 _atom_site_fract_z
 _atom_site_occupancy
  Zr  Zr0  1  0.373910  0.626090  0.057141  1
  Zr  Zr1  1  0.055496  0.944504  0.250000  1
  Zr  Zr2  1  0.373910  0.626090  0.442859  1
  Zr  Zr3  1  0.626090  0.373910  0.557141  1
  Zr  Zr4  1  0.944504  0.055496  0.750000  1
  Zr  Zr5  1  0.626090  0.373910  0.942858  1
  Pd  Pd6  1  0.748885  0.251115  0.250000  1
  Pd  Pd7  1  0.251115  0.748885  0.750000  1
  C  C8  1  0.000000  0.000000  0.000000  1
  C  C9  1  0.000000  0.000000  0.500000  1
