# generated using pymatgen
data_Tb2Sm7Er11Pb16
_symmetry_space_group_name_H-M   'P 1'
_cell_length_a   8.21382345
_cell_length_b   8.31973165
_cell_length_c   15.67558551
_cell_angle_alpha   90.02261021
_cell_angle_beta   90.17745921
_cell_angle_gamma   90.08633738
_symmetry_Int_Tables_number   1
_chemical_formula_structural   Tb2Sm7Er11Pb16
_chemical_formula_sum   'Tb2 Sm7 Er11 Pb16'
_cell_volume   1071.21302068
_cell_formula_units_Z   1
loop_
 _symmetry_equiv_pos_site_id
 _symmetry_equiv_pos_as_xyz
  1  'x, y, z'
loop_
 _atom_site_type_symbol
 _atom_site_label
 _atom_site_symmetry_multiplicity
 _atom_site_fract_x
 _atom_site_fract_y
 _atom_site_fract_z
 _atom_site_occupancy
  Tb  Tb0  1  0.129523  0.341229  0.620640  1
  Tb  Tb1  1  0.471405  0.679095  0.598014  1
  Sm  Sm2  1  0.973496  0.821875  0.903496  1
  Sm  Sm3  1  0.527213  0.322367  0.097331  1
  Sm  Sm4  1  0.029149  0.175777  0.400660  1
  Sm  Sm5  1  0.526728  0.322472  0.401966  1
  Sm  Sm6  1  0.026877  0.177769  0.097659  1
  Sm  Sm7  1  0.473706  0.678080  0.903355  1
  Sm  Sm8  1  0.971791  0.822848  0.598071  1
  Er  Er9  1  0.631146  0.158566  0.622914  1
  Er  Er10  1  0.131656  0.342291  0.878093  1
  Er  Er11  1  0.368371  0.842190  0.122407  1
  Er  Er12  1  0.869251  0.657524  0.377712  1
  Er  Er13  1  0.370542  0.842038  0.376271  1
  Er  Er14  1  0.868538  0.657915  0.122320  1
  Er  Er15  1  0.631348  0.157826  0.878511  1
  Er  Er16  1  0.797285  0.494957  0.750353  1
  Er  Er17  1  0.298554  0.005222  0.750495  1
  Er  Er18  1  0.202255  0.505590  0.249224  1
  Er  Er19  1  0.702411  0.994727  0.250089  1
  Pb  Pb20  1  0.710136  0.960927  0.457186  1
  Pb  Pb21  1  0.208996  0.539631  0.042955  1
  Pb  Pb22  1  0.290788  0.039881  0.957512  1
  Pb  Pb23  1  0.784457  0.463651  0.543053  1
  Pb  Pb24  1  0.292664  0.035381  0.542528  1
  Pb  Pb25  1  0.791522  0.460285  0.957285  1
  Pb  Pb26  1  0.709087  0.960015  0.043213  1
  Pb  Pb27  1  0.210746  0.541130  0.455588  1
  Pb  Pb28  1  0.435443  0.373090  0.751145  1
  Pb  Pb29  1  0.934894  0.125880  0.751105  1
  Pb  Pb30  1  0.565089  0.626765  0.249450  1
  Pb  Pb31  1  0.064432  0.872394  0.249512  1
  Pb  Pb32  1  0.660302  0.846973  0.750361  1
  Pb  Pb33  1  0.161177  0.653430  0.750603  1
  Pb  Pb34  1  0.339470  0.153010  0.249272  1
  Pb  Pb35  1  0.839552  0.347196  0.249650  1
