# generated using pymatgen
data_Tm18Hf2N19
_symmetry_space_group_name_H-M   'P 1'
_cell_length_a   8.87848602
_cell_length_b   8.88012873
_cell_length_c   8.88686400
_cell_angle_alpha   106.59463760
_cell_angle_beta   106.61324501
_cell_angle_gamma   115.36518754
_symmetry_Int_Tables_number   1
_chemical_formula_structural   Tm18Hf2N19
_chemical_formula_sum   'Tm18 Hf2 N19'
_cell_volume   535.08243200
_cell_formula_units_Z   1
loop_
 _symmetry_equiv_pos_site_id
 _symmetry_equiv_pos_as_xyz
  1  'x, y, z'
loop_
 _atom_site_type_symbol
 _atom_site_label
 _atom_site_symmetry_multiplicity
 _atom_site_fract_x
 _atom_site_fract_y
 _atom_site_fract_z
 _atom_site_occupancy
  Tm  Tm0  1  0.396176  0.706428  0.103355  1
  Tm  Tm1  1  0.100369  0.799197  0.899643  1
  Tm  Tm2  1  0.757144  0.756996  0.000272  1
  Tm  Tm3  1  0.798419  0.900280  0.698688  1
  Tm  Tm4  1  0.449185  0.847735  0.799190  1
  Tm  Tm5  1  0.152492  0.951441  0.601324  1
  Tm  Tm6  1  0.201762  0.099412  0.301079  1
  Tm  Tm7  1  0.847166  0.047694  0.398346  1
  Tm  Tm8  1  0.900378  0.201669  0.101310  1
  Tm  Tm9  1  0.550691  0.152129  0.200313  1
  Tm  Tm10  1  0.603527  0.293646  0.896417  1
  Tm  Tm11  1  0.243412  0.243508  0.000190  1
  Tm  Tm12  1  0.293768  0.396215  0.690011  1
  Tm  Tm13  1  0.951797  0.350231  0.799822  1
  Tm  Tm14  1  0.000497  0.500382  0.499962  1
  Tm  Tm15  1  0.649831  0.449095  0.601682  1
  Tm  Tm16  1  0.706872  0.604039  0.309996  1
  Tm  Tm17  1  0.349987  0.550995  0.398392  1
  Hf  Hf18  1  0.047689  0.649536  0.200246  1
  Hf  Hf19  1  0.499829  0.999934  0.499744  1
  N  N20  1  0.898929  0.698577  0.598693  1
  N  N21  1  0.549988  0.648997  0.701327  1
  N  N22  1  0.595878  0.807427  0.403253  1
  N  N23  1  0.250744  0.754207  0.489407  1
  N  N24  1  0.299621  0.894944  0.209520  1
  N  N25  1  0.952613  0.840613  0.295089  1
  N  N26  1  0.000337  0.001004  0.000421  1
  N  N27  1  0.649142  0.949143  0.099009  1
  N  N28  1  0.690365  0.096649  0.787885  1
  N  N29  1  0.350657  0.052174  0.901493  1
  N  N30  1  0.052036  0.151188  0.700990  1
  N  N31  1  0.740121  0.239613  0.499157  1
  N  N32  1  0.404677  0.192410  0.596624  1
  N  N33  1  0.451150  0.351053  0.299626  1
  N  N34  1  0.099987  0.299613  0.401003  1
  N  N35  1  0.145795  0.457331  0.103487  1
  N  N36  1  0.200221  0.599208  0.799118  1
  N  N37  1  0.808969  0.410651  0.200611  1
  N  N38  1  0.857779  0.554634  0.913304  1
