# generated using pymatgen
data_TmLu9(InBi2)2
_symmetry_space_group_name_H-M   'P 1'
_cell_length_a   6.38584907
_cell_length_b   8.97635148
_cell_length_c   8.92256677
_cell_angle_alpha   120.19961405
_cell_angle_beta   90.00946495
_cell_angle_gamma   89.98119632
_symmetry_Int_Tables_number   1
_chemical_formula_structural   TmLu9(InBi2)2
_chemical_formula_sum   'Tm1 Lu9 In2 Bi4'
_cell_volume   442.04027095
_cell_formula_units_Z   1
loop_
 _symmetry_equiv_pos_site_id
 _symmetry_equiv_pos_as_xyz
  1  'x, y, z'
loop_
 _atom_site_type_symbol
 _atom_site_label
 _atom_site_symmetry_multiplicity
 _atom_site_fract_x
 _atom_site_fract_y
 _atom_site_fract_z
 _atom_site_occupancy
  Tm  Tm0  1  0.750205  0.234242  0.000000  1
  Lu  Lu1  1  0.495924  0.332241  0.659704  1
  Lu  Lu2  1  0.495924  0.672536  0.340296  1
  Lu  Lu3  1  0.004126  0.672361  0.340108  1
  Lu  Lu4  1  0.004126  0.332254  0.659892  1
  Lu  Lu5  1  0.750182  0.765992  0.764015  1
  Lu  Lu6  1  0.750182  0.001977  0.235985  1
  Lu  Lu7  1  0.250505  0.767777  0.000000  1
  Lu  Lu8  1  0.250244  0.231356  0.241790  1
  Lu  Lu9  1  0.250244  0.989565  0.758210  1
  In  In10  1  0.249084  0.603995  0.605157  1
  In  In11  1  0.249084  0.998839  0.394843  1
  Bi  Bi12  1  0.750106  0.605968  0.000000  1
  Bi  Bi13  1  0.749918  0.397606  0.393236  1
  Bi  Bi14  1  0.749918  0.004370  0.606764  1
  Bi  Bi15  1  0.250231  0.388924  0.000000  1
