# generated using pymatgen
data_Dy8Ho2B2I15
_symmetry_space_group_name_H-M   'P 1'
_cell_length_a   9.61503653
_cell_length_b   10.34639838
_cell_length_c   11.29405314
_cell_angle_alpha   91.71544370
_cell_angle_beta   114.44846049
_cell_angle_gamma   110.46828678
_symmetry_Int_Tables_number   1
_chemical_formula_structural   Dy8Ho2B2I15
_chemical_formula_sum   'Dy8 Ho2 B2 I15'
_cell_volume   937.91633490
_cell_formula_units_Z   1
loop_
 _symmetry_equiv_pos_site_id
 _symmetry_equiv_pos_as_xyz
  1  'x, y, z'
loop_
 _atom_site_type_symbol
 _atom_site_label
 _atom_site_symmetry_multiplicity
 _atom_site_fract_x
 _atom_site_fract_y
 _atom_site_fract_z
 _atom_site_occupancy
  Dy  Dy0  1  0.784218  0.393279  0.267605  1
  Dy  Dy1  1  0.215782  0.606721  0.732395  1
  Dy  Dy2  1  0.663051  0.752289  0.825647  1
  Dy  Dy3  1  0.336949  0.247711  0.174353  1
  Dy  Dy4  1  0.523160  0.713185  0.085867  1
  Dy  Dy5  1  0.476840  0.286815  0.914133  1
  Dy  Dy6  1  0.580355  0.043586  0.308540  1
  Dy  Dy7  1  0.419645  0.956414  0.691460  1
  Ho  Ho8  1  0.706086  0.069648  0.045404  1
  Ho  Ho9  1  0.293914  0.930352  0.954596  1
  B  B10  1  0.468739  0.823624  0.880606  1
  B  B11  1  0.531261  0.176376  0.119394  1
  I  I12  1  0.000000  0.000000  0.000000  1
  I  I13  1  0.638341  0.882407  0.583027  1
  I  I14  1  0.361659  0.117593  0.416973  1
  I  I15  1  0.884649  0.299263  0.531012  1
  I  I16  1  0.115351  0.700737  0.468988  1
  I  I17  1  0.284415  0.760199  0.177152  1
  I  I18  1  0.715585  0.239801  0.822848  1
  I  I19  1  0.054249  0.339707  0.225314  1
  I  I20  1  0.160078  0.055719  0.702057  1
  I  I21  1  0.839922  0.944281  0.297943  1
  I  I22  1  0.228431  0.409836  0.942006  1
  I  I23  1  0.771569  0.590164  0.057994  1
  I  I24  1  0.409846  0.459787  0.660175  1
  I  I25  1  0.590154  0.540213  0.339825  1
  I  I26  1  0.945751  0.660293  0.774686  1
