# generated using pymatgen
data_Y2Ho6Sc12Si15Ag
_symmetry_space_group_name_H-M   'P 1'
_cell_length_a   7.12227593
_cell_length_b   7.36425376
_cell_length_c   14.06278572
_cell_angle_alpha   89.86079850
_cell_angle_beta   89.55669154
_cell_angle_gamma   90.20015195
_symmetry_Int_Tables_number   1
_chemical_formula_structural   Y2Ho6Sc12Si15Ag
_chemical_formula_sum   'Y2 Ho6 Sc12 Si15 Ag1'
_cell_volume   737.56778449
_cell_formula_units_Z   1
loop_
 _symmetry_equiv_pos_site_id
 _symmetry_equiv_pos_as_xyz
  1  'x, y, z'
loop_
 _atom_site_type_symbol
 _atom_site_label
 _atom_site_symmetry_multiplicity
 _atom_site_fract_x
 _atom_site_fract_y
 _atom_site_fract_z
 _atom_site_occupancy
  Y  Y0  1  0.011056  0.174733  0.097431  1
  Y  Y1  1  0.988584  0.826836  0.904182  1
  Ho  Ho2  1  0.487838  0.676878  0.903536  1
  Ho  Ho3  1  0.990009  0.831249  0.597693  1
  Ho  Ho4  1  0.511448  0.323898  0.096643  1
  Ho  Ho5  1  0.007843  0.171199  0.398645  1
  Ho  Ho6  1  0.511435  0.322132  0.400285  1
  Ho  Ho7  1  0.494695  0.678574  0.600041  1
  Sc  Sc8  1  0.164170  0.502388  0.753179  1
  Sc  Sc9  1  0.836506  0.497991  0.251062  1
  Sc  Sc10  1  0.336343  0.000301  0.249089  1
  Sc  Sc11  1  0.665768  0.996544  0.751202  1
  Sc  Sc12  1  0.343725  0.173807  0.626863  1
  Sc  Sc13  1  0.663688  0.822842  0.374102  1
  Sc  Sc14  1  0.166142  0.674889  0.372003  1
  Sc  Sc15  1  0.669049  0.823838  0.124665  1
  Sc  Sc16  1  0.826829  0.325609  0.625270  1
  Sc  Sc17  1  0.329404  0.175843  0.876020  1
  Sc  Sc18  1  0.831163  0.322997  0.875897  1
  Sc  Sc19  1  0.168605  0.675652  0.125126  1
  Si  Si20  1  0.037612  0.122153  0.749552  1
  Si  Si21  1  0.963667  0.882522  0.248903  1
  Si  Si22  1  0.465708  0.614477  0.248275  1
  Si  Si23  1  0.535200  0.386634  0.752278  1
  Si  Si24  1  0.286889  0.874126  0.750712  1
  Si  Si25  1  0.710978  0.127120  0.248574  1
  Si  Si26  1  0.213928  0.370329  0.248822  1
  Si  Si27  1  0.788959  0.628287  0.752168  1
  Si  Si28  1  0.834369  0.537060  0.459349  1
  Si  Si29  1  0.335672  0.961567  0.461211  1
  Si  Si30  1  0.842350  0.535313  0.039043  1
  Si  Si31  1  0.661376  0.036056  0.537693  1
  Si  Si32  1  0.156474  0.464748  0.961725  1
  Si  Si33  1  0.656823  0.035515  0.960710  1
  Si  Si34  1  0.342591  0.964087  0.039764  1
  Ag  Ag35  1  0.163104  0.461806  0.538286  1
