# generated using pymatgen
data_Cs2Nd10Ni2Br17
_symmetry_space_group_name_H-M   'P 1'
_cell_length_a   9.49324154
_cell_length_b   11.20386220
_cell_length_c   11.20402561
_cell_angle_alpha   106.98008002
_cell_angle_beta   94.29008788
_cell_angle_gamma   94.29043317
_symmetry_Int_Tables_number   1
_chemical_formula_structural   Cs2Nd10Ni2Br17
_chemical_formula_sum   'Cs2 Nd10 Ni2 Br17'
_cell_volume   1130.67636201
_cell_formula_units_Z   1
loop_
 _symmetry_equiv_pos_site_id
 _symmetry_equiv_pos_as_xyz
  1  'x, y, z'
loop_
 _atom_site_type_symbol
 _atom_site_label
 _atom_site_symmetry_multiplicity
 _atom_site_fract_x
 _atom_site_fract_y
 _atom_site_fract_z
 _atom_site_occupancy
  Cs  Cs0  1  0.999857  0.822104  0.177718  1
  Cs  Cs1  1  0.999854  0.177714  0.822107  1
  Nd  Nd2  1  0.439706  0.164120  0.164121  1
  Nd  Nd3  1  0.573715  0.507428  0.200137  1
  Nd  Nd4  1  0.833536  0.290442  0.290444  1
  Nd  Nd5  1  0.313311  0.437265  0.437262  1
  Nd  Nd6  1  0.425338  0.799549  0.491991  1
  Nd  Nd7  1  0.573715  0.200136  0.507426  1
  Nd  Nd8  1  0.678900  0.560002  0.560002  1
  Nd  Nd9  1  0.170480  0.710355  0.710358  1
  Nd  Nd10  1  0.425339  0.491990  0.799546  1
  Nd  Nd11  1  0.563670  0.837737  0.837736  1
  Ni  Ni12  1  0.571907  0.352986  0.352985  1
  Ni  Ni13  1  0.427261  0.646924  0.646925  1
  Br  Br14  1  0.582275  0.687924  0.022948  1
  Br  Br15  1  0.713754  0.067580  0.067563  1
  Br  Br16  1  0.857624  0.450906  0.120544  1
  Br  Br17  1  0.136639  0.212270  0.212287  1
  Br  Br18  1  0.286888  0.603239  0.258290  1
  Br  Br19  1  0.417617  0.977155  0.312230  1
  Br  Br20  1  0.712937  0.741376  0.397269  1
  Br  Br21  1  0.857625  0.120539  0.450901  1
  Br  Br22  1  0.000056  0.500552  0.500562  1
  Br  Br23  1  0.142536  0.879230  0.548997  1
  Br  Br24  1  0.286889  0.258288  0.603240  1
  Br  Br25  1  0.582265  0.022958  0.687924  1
  Br  Br26  1  0.712948  0.397288  0.741375  1
  Br  Br27  1  0.864438  0.787165  0.787173  1
  Br  Br28  1  0.142537  0.548996  0.879232  1
  Br  Br29  1  0.288775  0.933543  0.933551  1
  Br  Br30  1  0.417610  0.312238  0.977157  1
