# generated using pymatgen
data_Tb4TcOsC4
_symmetry_space_group_name_H-M   'P 1'
_cell_length_a   5.14395800
_cell_length_b   6.54497061
_cell_length_c   9.86828590
_cell_angle_alpha   89.72087900
_cell_angle_beta   90.00000000
_cell_angle_gamma   90.00000000
_symmetry_Int_Tables_number   1
_chemical_formula_structural   Tb4TcOsC4
_chemical_formula_sum   'Tb8 Tc2 Os2 C8'
_cell_volume   332.23217158
_cell_formula_units_Z   2
loop_
 _symmetry_equiv_pos_site_id
 _symmetry_equiv_pos_as_xyz
  1  'x, y, z'
loop_
 _atom_site_type_symbol
 _atom_site_label
 _atom_site_symmetry_multiplicity
 _atom_site_fract_x
 _atom_site_fract_y
 _atom_site_fract_z
 _atom_site_occupancy
  Tb  Tb0  1  0.250000  0.680924  0.554820  1
  Tb  Tb1  1  0.750000  0.319076  0.445180  1
  Tb  Tb2  1  0.750000  0.820236  0.054836  1
  Tb  Tb3  1  0.250000  0.179764  0.945164  1
  Tb  Tb4  1  0.250000  0.530072  0.214896  1
  Tb  Tb5  1  0.750000  0.469928  0.785104  1
  Tb  Tb6  1  0.750000  0.971756  0.713169  1
  Tb  Tb7  1  0.250000  0.028244  0.286831  1
  Tc  Tc8  1  0.250000  0.722599  0.864114  1
  Tc  Tc9  1  0.750000  0.277401  0.135886  1
  Os  Os10  1  0.750000  0.776313  0.363982  1
  Os  Os11  1  0.250000  0.223687  0.636018  1
  C  C12  1  0.250000  0.456722  0.758028  1
  C  C13  1  0.750000  0.543278  0.241972  1
  C  C14  1  0.750000  0.041782  0.258863  1
  C  C15  1  0.250000  0.958218  0.741137  1
  C  C16  1  0.250000  0.820893  0.048526  1
  C  C17  1  0.750000  0.179107  0.951474  1
  C  C18  1  0.750000  0.678192  0.548851  1
  C  C19  1  0.250000  0.321808  0.451149  1
