# generated using pymatgen
data_MnGa2FeCo4
_symmetry_space_group_name_H-M   'P 1'
_cell_length_a   7.02179115
_cell_length_b   7.02179127
_cell_length_c   7.02179076
_cell_angle_alpha   33.54244720
_cell_angle_beta   33.54244969
_cell_angle_gamma   33.54244623
_symmetry_Int_Tables_number   1
_chemical_formula_structural   MnGa2FeCo4
_chemical_formula_sum   'Mn1 Ga2 Fe1 Co4'
_cell_volume   94.15132911
_cell_formula_units_Z   1
loop_
 _symmetry_equiv_pos_site_id
 _symmetry_equiv_pos_as_xyz
  1  'x, y, z'
loop_
 _atom_site_type_symbol
 _atom_site_label
 _atom_site_symmetry_multiplicity
 _atom_site_fract_x
 _atom_site_fract_y
 _atom_site_fract_z
 _atom_site_occupancy
  Mn  Mn0  1  0.000000  0.000000  0.000000  1
  Ga  Ga1  1  0.250817  0.250817  0.250817  1
  Ga  Ga2  1  0.749183  0.749183  0.749183  1
  Fe  Fe3  1  0.500000  0.500000  0.500000  1
  Co  Co4  1  0.624217  0.624217  0.624217  1
  Co  Co5  1  0.125953  0.125953  0.125953  1
  Co  Co6  1  0.874047  0.874047  0.874047  1
  Co  Co7  1  0.375783  0.375783  0.375783  1
