# generated using pymatgen
data_Ho2Lu3In4CuPt
_symmetry_space_group_name_H-M   'P 1'
_cell_length_a   3.58582200
_cell_length_b   8.01464436
_cell_length_c   17.98479106
_cell_angle_alpha   90.11463763
_cell_angle_beta   90.00000000
_cell_angle_gamma   90.00000000
_symmetry_Int_Tables_number   1
_chemical_formula_structural   Ho2Lu3In4CuPt
_chemical_formula_sum   'Ho4 Lu6 In8 Cu2 Pt2'
_cell_volume   516.86545950
_cell_formula_units_Z   2
loop_
 _symmetry_equiv_pos_site_id
 _symmetry_equiv_pos_as_xyz
  1  'x, y, z'
loop_
 _atom_site_type_symbol
 _atom_site_label
 _atom_site_symmetry_multiplicity
 _atom_site_fract_x
 _atom_site_fract_y
 _atom_site_fract_z
 _atom_site_occupancy
  Ho  Ho0  1  0.000000  0.117506  0.415474  1
  Ho  Ho1  1  0.000000  0.882494  0.584526  1
  Ho  Ho2  1  0.000000  0.000000  0.000000  1
  Ho  Ho3  1  0.000000  0.500000  0.500000  1
  Lu  Lu4  1  0.000000  0.383450  0.915354  1
  Lu  Lu5  1  0.000000  0.616550  0.084646  1
  Lu  Lu6  1  0.000000  0.248344  0.220009  1
  Lu  Lu7  1  0.000000  0.751656  0.779991  1
  Lu  Lu8  1  0.000000  0.260310  0.720964  1
  Lu  Lu9  1  0.000000  0.739690  0.279036  1
  In  In10  1  0.500000  0.422827  0.351967  1
  In  In11  1  0.500000  0.577173  0.648033  1
  In  In12  1  0.500000  0.074170  0.849671  1
  In  In13  1  0.500000  0.925830  0.150329  1
  In  In14  1  0.500000  0.293448  0.066104  1
  In  In15  1  0.500000  0.706552  0.933896  1
  In  In16  1  0.500000  0.207577  0.568370  1
  In  In17  1  0.500000  0.792423  0.431630  1
  Cu  Cu18  1  0.500000  0.025798  0.301660  1
  Cu  Cu19  1  0.500000  0.974202  0.698340  1
  Pt  Pt20  1  0.500000  0.472516  0.803039  1
  Pt  Pt21  1  0.500000  0.527484  0.196961  1
