# generated using pymatgen
data_La3Tb2(Sn5Ir2)2
_symmetry_space_group_name_H-M   'P 1'
_cell_length_a   14.18812800
_cell_length_b   14.18812800
_cell_length_c   4.66545900
_cell_angle_alpha   90.00000000
_cell_angle_beta   90.00000000
_cell_angle_gamma   90.00000000
_symmetry_Int_Tables_number   1
_chemical_formula_structural   La3Tb2(Sn5Ir2)2
_chemical_formula_sum   'La6 Tb4 Sn20 Ir8'
_cell_volume   939.17078178
_cell_formula_units_Z   2
loop_
 _symmetry_equiv_pos_site_id
 _symmetry_equiv_pos_as_xyz
  1  'x, y, z'
loop_
 _atom_site_type_symbol
 _atom_site_label
 _atom_site_symmetry_multiplicity
 _atom_site_fract_x
 _atom_site_fract_y
 _atom_site_fract_z
 _atom_site_occupancy
  La  La0  1  0.500000  0.500000  0.000000  1
  La  La1  1  0.000000  0.000000  0.000000  1
  La  La2  1  0.887151  0.387151  0.500000  1
  La  La3  1  0.112849  0.612849  0.500000  1
  La  La4  1  0.387151  0.112849  0.500000  1
  La  La5  1  0.612849  0.887151  0.500000  1
  Tb  Tb6  1  0.675807  0.175807  0.500000  1
  Tb  Tb7  1  0.324193  0.824193  0.500000  1
  Tb  Tb8  1  0.175807  0.324193  0.500000  1
  Tb  Tb9  1  0.824193  0.675807  0.500000  1
  Sn  Sn10  1  0.570182  0.070182  0.000000  1
  Sn  Sn11  1  0.429818  0.929818  0.000000  1
  Sn  Sn12  1  0.070182  0.429818  0.000000  1
  Sn  Sn13  1  0.929818  0.570182  0.000000  1
  Sn  Sn14  1  0.655695  0.698271  0.000000  1
  Sn  Sn15  1  0.344305  0.301729  0.000000  1
  Sn  Sn16  1  0.155695  0.801729  0.000000  1
  Sn  Sn17  1  0.844305  0.198271  0.000000  1
  Sn  Sn18  1  0.301729  0.655695  0.000000  1
  Sn  Sn19  1  0.698271  0.344305  0.000000  1
  Sn  Sn20  1  0.198271  0.155695  0.000000  1
  Sn  Sn21  1  0.801729  0.844305  0.000000  1
  Sn  Sn22  1  0.663571  0.505854  0.500000  1
  Sn  Sn23  1  0.336429  0.494146  0.500000  1
  Sn  Sn24  1  0.163571  0.994146  0.500000  1
  Sn  Sn25  1  0.836429  0.005854  0.500000  1
  Sn  Sn26  1  0.494146  0.663571  0.500000  1
  Sn  Sn27  1  0.505854  0.336429  0.500000  1
  Sn  Sn28  1  0.005854  0.163571  0.500000  1
  Sn  Sn29  1  0.994146  0.836429  0.500000  1
  Ir  Ir30  1  0.747070  0.529106  0.000000  1
  Ir  Ir31  1  0.252930  0.470894  0.000000  1
  Ir  Ir32  1  0.247070  0.970894  0.000000  1
  Ir  Ir33  1  0.752930  0.029106  0.000000  1
  Ir  Ir34  1  0.470894  0.747070  0.000000  1
  Ir  Ir35  1  0.529106  0.252930  0.000000  1
  Ir  Ir36  1  0.029106  0.247070  0.000000  1
  Ir  Ir37  1  0.970894  0.752930  0.000000  1
