# generated using pymatgen
data_La3Nd5AsPd24
_symmetry_space_group_name_H-M   'P 1'
_cell_length_a   8.51916127
_cell_length_b   8.51916154
_cell_length_c   8.51916100
_cell_angle_alpha   90.01444641
_cell_angle_beta   90.01444641
_cell_angle_gamma   90.01444277
_symmetry_Int_Tables_number   1
_chemical_formula_structural   La3Nd5AsPd24
_chemical_formula_sum   'La3 Nd5 As1 Pd24'
_cell_volume   618.28751595
_cell_formula_units_Z   1
loop_
 _symmetry_equiv_pos_site_id
 _symmetry_equiv_pos_as_xyz
  1  'x, y, z'
loop_
 _atom_site_type_symbol
 _atom_site_label
 _atom_site_symmetry_multiplicity
 _atom_site_fract_x
 _atom_site_fract_y
 _atom_site_fract_z
 _atom_site_occupancy
  La  La0  1  0.253479  0.253479  0.746579  1
  La  La1  1  0.253479  0.746579  0.253479  1
  La  La2  1  0.746579  0.253479  0.253479  1
  Nd  Nd3  1  0.746895  0.746895  0.746895  1
  Nd  Nd4  1  0.747397  0.747397  0.252790  1
  Nd  Nd5  1  0.747397  0.252790  0.747397  1
  Nd  Nd6  1  0.252790  0.747397  0.747397  1
  Nd  Nd7  1  0.252343  0.252343  0.252343  1
  As  As8  1  0.000127  0.000127  0.000127  1
  Pd  Pd9  1  0.500667  0.500667  0.746488  1
  Pd  Pd10  1  0.499963  0.253473  0.499963  1
  Pd  Pd11  1  0.253473  0.499963  0.499963  1
  Pd  Pd12  1  0.499963  0.499963  0.253473  1
  Pd  Pd13  1  0.500667  0.746488  0.500667  1
  Pd  Pd14  1  0.746488  0.500667  0.500667  1
  Pd  Pd15  1  0.999130  0.999130  0.707773  1
  Pd  Pd16  1  0.999968  0.292554  0.999968  1
  Pd  Pd17  1  0.292554  0.999968  0.999968  1
  Pd  Pd18  1  0.999968  0.999968  0.292554  1
  Pd  Pd19  1  0.999130  0.707773  0.999130  1
  Pd  Pd20  1  0.707773  0.999130  0.999130  1
  Pd  Pd21  1  0.999411  0.500426  0.739077  1
  Pd  Pd22  1  0.500153  0.260825  0.999992  1
  Pd  Pd23  1  0.260825  0.999992  0.500153  1
  Pd  Pd24  1  0.999992  0.260825  0.500153  1
  Pd  Pd25  1  0.500426  0.999411  0.739077  1
  Pd  Pd26  1  0.260825  0.500153  0.999992  1
  Pd  Pd27  1  0.999992  0.500153  0.260825  1
  Pd  Pd28  1  0.500426  0.739077  0.999411  1
  Pd  Pd29  1  0.999411  0.739077  0.500426  1
  Pd  Pd30  1  0.500153  0.999992  0.260825  1
  Pd  Pd31  1  0.739077  0.999411  0.500426  1
  Pd  Pd32  1  0.739077  0.500426  0.999411  1
