# generated using pymatgen
data_Sr3(SnPd)2
_symmetry_space_group_name_H-M   'P 1'
_cell_length_a   6.16988700
_cell_length_b   8.99866100
_cell_length_c   14.40740000
_cell_angle_alpha   90.00000000
_cell_angle_beta   90.00000000
_cell_angle_gamma   90.00000000
_symmetry_Int_Tables_number   1
_chemical_formula_structural   Sr3(SnPd)2
_chemical_formula_sum   'Sr12 Sn8 Pd8'
_cell_volume   799.90924325
_cell_formula_units_Z   4
loop_
 _symmetry_equiv_pos_site_id
 _symmetry_equiv_pos_as_xyz
  1  'x, y, z'
loop_
 _atom_site_type_symbol
 _atom_site_label
 _atom_site_symmetry_multiplicity
 _atom_site_fract_x
 _atom_site_fract_y
 _atom_site_fract_z
 _atom_site_occupancy
  Sr  Sr0  1  0.146758  0.104398  0.099975  1
  Sr  Sr1  1  0.853241  0.604397  0.099975  1
  Sr  Sr2  1  0.650145  0.245641  0.250000  1
  Sr  Sr3  1  0.349855  0.745640  0.250000  1
  Sr  Sr4  1  0.146758  0.104398  0.400025  1
  Sr  Sr5  1  0.853241  0.604397  0.400025  1
  Sr  Sr6  1  0.146758  0.395602  0.599975  1
  Sr  Sr7  1  0.853241  0.895603  0.599975  1
  Sr  Sr8  1  0.650145  0.254359  0.750000  1
  Sr  Sr9  1  0.349855  0.754360  0.750000  1
  Sr  Sr10  1  0.146758  0.395602  0.900024  1
  Sr  Sr11  1  0.853241  0.895603  0.900024  1
  Sn  Sn12  1  0.631238  0.250000  0.000000  1
  Sn  Sn13  1  0.368761  0.749999  0.000000  1
  Sn  Sn14  1  0.158559  0.396955  0.250000  1
  Sn  Sn15  1  0.841442  0.896954  0.250000  1
  Sn  Sn16  1  0.631238  0.250000  0.500000  1
  Sn  Sn17  1  0.368761  0.749999  0.500000  1
  Sn  Sn18  1  0.158559  0.103045  0.750000  1
  Sn  Sn19  1  0.841442  0.603046  0.750000  1
  Pd  Pd20  1  0.381279  0.468427  0.087195  1
  Pd  Pd21  1  0.618722  0.968428  0.087195  1
  Pd  Pd22  1  0.381279  0.468427  0.412804  1
  Pd  Pd23  1  0.618722  0.968428  0.412804  1
  Pd  Pd24  1  0.381279  0.031573  0.587195  1
  Pd  Pd25  1  0.618722  0.531572  0.587195  1
  Pd  Pd26  1  0.381279  0.031573  0.912805  1
  Pd  Pd27  1  0.618722  0.531572  0.912805  1
