# generated using pymatgen
data_Ca3Yb2Bi3Br
_symmetry_space_group_name_H-M   'P 1'
_cell_length_a   9.38874685
_cell_length_b   9.38874873
_cell_length_c   7.20701400
_cell_angle_alpha   90.00000000
_cell_angle_beta   90.00000000
_cell_angle_gamma   120.08935352
_symmetry_Int_Tables_number   1
_chemical_formula_structural   Ca3Yb2Bi3Br
_chemical_formula_sum   'Ca6 Yb4 Bi6 Br2'
_cell_volume   549.67958304
_cell_formula_units_Z   2
loop_
 _symmetry_equiv_pos_site_id
 _symmetry_equiv_pos_as_xyz
  1  'x, y, z'
loop_
 _atom_site_type_symbol
 _atom_site_label
 _atom_site_symmetry_multiplicity
 _atom_site_fract_x
 _atom_site_fract_y
 _atom_site_fract_z
 _atom_site_occupancy
  Ca  Ca0  1  0.738449  0.999913  0.750000  1
  Ca  Ca1  1  0.000087  0.261551  0.250000  1
  Ca  Ca2  1  0.333358  0.666642  0.500000  1
  Ca  Ca3  1  0.333358  0.666642  0.000000  1
  Ca  Ca4  1  0.666531  0.333469  0.500000  1
  Ca  Ca5  1  0.666531  0.333469  0.000000  1
  Yb  Yb6  1  0.740141  0.740072  0.250000  1
  Yb  Yb7  1  0.260045  0.000030  0.250000  1
  Yb  Yb8  1  0.259928  0.259859  0.750000  1
  Yb  Yb9  1  0.999970  0.739955  0.750000  1
  Bi  Bi10  1  0.391238  0.000017  0.750000  1
  Bi  Bi11  1  0.607882  0.999878  0.250000  1
  Bi  Bi12  1  0.999983  0.608762  0.250000  1
  Bi  Bi13  1  0.608149  0.608038  0.750000  1
  Bi  Bi14  1  0.000122  0.392118  0.750000  1
  Bi  Bi15  1  0.391962  0.391851  0.250000  1
  Br  Br16  1  0.001133  0.998867  0.500000  1
  Br  Br17  1  0.001133  0.998867  0.000000  1
