# generated using pymatgen
data_MgZn2(CdCu2)3
_symmetry_space_group_name_H-M   'P 1'
_cell_length_a   5.12032700
_cell_length_b   5.12032616
_cell_length_c   8.01387400
_cell_angle_alpha   90.00000000
_cell_angle_beta   90.00000000
_cell_angle_gamma   120.00001188
_symmetry_Int_Tables_number   1
_chemical_formula_structural   MgZn2(CdCu2)3
_chemical_formula_sum   'Mg1 Zn2 Cd3 Cu6'
_cell_volume   181.95685129
_cell_formula_units_Z   1
loop_
 _symmetry_equiv_pos_site_id
 _symmetry_equiv_pos_as_xyz
  1  'x, y, z'
loop_
 _atom_site_type_symbol
 _atom_site_label
 _atom_site_symmetry_multiplicity
 _atom_site_fract_x
 _atom_site_fract_y
 _atom_site_fract_z
 _atom_site_occupancy
  Mg  Mg0  1  0.333333  0.666667  0.434999  1
  Zn  Zn1  1  0.000000  0.000000  0.499956  1
  Zn  Zn2  1  0.000000  0.000000  0.999936  1
  Cd  Cd3  1  0.666667  0.333333  0.563316  1
  Cd  Cd4  1  0.666667  0.333333  0.934956  1
  Cd  Cd5  1  0.333333  0.666667  0.066492  1
  Cu  Cu6  1  0.829453  0.170547  0.251537  1
  Cu  Cu7  1  0.829453  0.658908  0.251537  1
  Cu  Cu8  1  0.341092  0.170547  0.251537  1
  Cu  Cu9  1  0.171184  0.828816  0.748578  1
  Cu  Cu10  1  0.171184  0.342366  0.748578  1
  Cu  Cu11  1  0.657634  0.828816  0.748578  1
