# generated using pymatgen
data_DyYTm2MnRu7
_symmetry_space_group_name_H-M   'P 1'
_cell_length_a   5.31923125
_cell_length_b   5.32570154
_cell_length_c   8.66987865
_cell_angle_alpha   89.99999938
_cell_angle_beta   90.00569745
_cell_angle_gamma   59.95972410
_symmetry_Int_Tables_number   1
_chemical_formula_structural   DyYTm2MnRu7
_chemical_formula_sum   'Dy1 Y1 Tm2 Mn1 Ru7'
_cell_volume   212.61453154
_cell_formula_units_Z   1
loop_
 _symmetry_equiv_pos_site_id
 _symmetry_equiv_pos_as_xyz
  1  'x, y, z'
loop_
 _atom_site_type_symbol
 _atom_site_label
 _atom_site_symmetry_multiplicity
 _atom_site_fract_x
 _atom_site_fract_y
 _atom_site_fract_z
 _atom_site_occupancy
  Dy  Dy0  1  0.666489  0.666756  0.434504  1
  Y  Y1  1  0.333401  0.333299  0.565320  1
  Tm  Tm2  1  0.666439  0.666781  0.067444  1
  Tm  Tm3  1  0.333413  0.333294  0.932827  1
  Mn  Mn4  1  0.000099  0.999951  0.999930  1
  Ru  Ru5  1  0.999990  0.000005  0.499840  1
  Ru  Ru6  1  0.828819  0.342674  0.755525  1
  Ru  Ru7  1  0.342628  0.828685  0.755525  1
  Ru  Ru8  1  0.828819  0.828505  0.755525  1
  Ru  Ru9  1  0.171191  0.657592  0.244508  1
  Ru  Ru10  1  0.657520  0.171241  0.244545  1
  Ru  Ru11  1  0.171191  0.171218  0.244508  1
