# generated using pymatgen
data_Cs3Cd16
_symmetry_space_group_name_H-M   'P 1'
_cell_length_a   9.66586500
_cell_length_b   9.66586500
_cell_length_c   11.77886900
_cell_angle_alpha   90.00000000
_cell_angle_beta   90.00000000
_cell_angle_gamma   90.00000000
_symmetry_Int_Tables_number   1
_chemical_formula_structural   Cs3Cd16
_chemical_formula_sum   'Cs6 Cd32'
_cell_volume   1100.48731808
_cell_formula_units_Z   2
loop_
 _symmetry_equiv_pos_site_id
 _symmetry_equiv_pos_as_xyz
  1  'x, y, z'
loop_
 _atom_site_type_symbol
 _atom_site_label
 _atom_site_symmetry_multiplicity
 _atom_site_fract_x
 _atom_site_fract_y
 _atom_site_fract_z
 _atom_site_occupancy
  Cs  Cs0  1  0.500000  0.500000  0.500000  1
  Cs  Cs1  1  0.000000  0.000000  0.000000  1
  Cs  Cs2  1  0.500000  0.500000  0.164426  1
  Cs  Cs3  1  0.500000  0.500000  0.835574  1
  Cs  Cs4  1  0.000000  0.000000  0.335574  1
  Cs  Cs5  1  0.000000  0.000000  0.664426  1
  Cd  Cd6  1  0.152444  0.363122  0.687427  1
  Cd  Cd7  1  0.847556  0.636878  0.687427  1
  Cd  Cd8  1  0.847556  0.363122  0.312573  1
  Cd  Cd9  1  0.152444  0.636878  0.312573  1
  Cd  Cd10  1  0.347556  0.136878  0.812573  1
  Cd  Cd11  1  0.652444  0.863122  0.812573  1
  Cd  Cd12  1  0.652444  0.136878  0.187427  1
  Cd  Cd13  1  0.347556  0.863122  0.187427  1
  Cd  Cd14  1  0.363122  0.152444  0.312573  1
  Cd  Cd15  1  0.636878  0.847556  0.312573  1
  Cd  Cd16  1  0.363122  0.847556  0.687427  1
  Cd  Cd17  1  0.636878  0.152444  0.687427  1
  Cd  Cd18  1  0.136878  0.347556  0.187427  1
  Cd  Cd19  1  0.863122  0.652444  0.187427  1
  Cd  Cd20  1  0.136878  0.652444  0.812573  1
  Cd  Cd21  1  0.863122  0.347556  0.812573  1
  Cd  Cd22  1  0.646590  0.858296  0.562442  1
  Cd  Cd23  1  0.353410  0.141704  0.562442  1
  Cd  Cd24  1  0.353410  0.858296  0.437558  1
  Cd  Cd25  1  0.646590  0.141704  0.437558  1
  Cd  Cd26  1  0.853410  0.641704  0.937558  1
  Cd  Cd27  1  0.146590  0.358296  0.937558  1
  Cd  Cd28  1  0.146590  0.641704  0.062442  1
  Cd  Cd29  1  0.853410  0.358296  0.062442  1
  Cd  Cd30  1  0.858296  0.646590  0.437558  1
  Cd  Cd31  1  0.141704  0.353410  0.437558  1
  Cd  Cd32  1  0.858296  0.353410  0.562442  1
  Cd  Cd33  1  0.141704  0.646590  0.562442  1
  Cd  Cd34  1  0.641704  0.853410  0.062442  1
  Cd  Cd35  1  0.358296  0.146590  0.062442  1
  Cd  Cd36  1  0.641704  0.146590  0.937558  1
  Cd  Cd37  1  0.358296  0.853410  0.937558  1
