# generated using pymatgen
data_Tm2Re3Si4
_symmetry_space_group_name_H-M   'P 1'
_cell_length_a   6.74797700
_cell_length_b   6.74797700
_cell_length_c   12.69356100
_cell_angle_alpha   90.00000000
_cell_angle_beta   90.00000000
_cell_angle_gamma   90.00000000
_symmetry_Int_Tables_number   1
_chemical_formula_structural   Tm2Re3Si4
_chemical_formula_sum   'Tm8 Re12 Si16'
_cell_volume   578.00375751
_cell_formula_units_Z   4
loop_
 _symmetry_equiv_pos_site_id
 _symmetry_equiv_pos_as_xyz
  1  'x, y, z'
loop_
 _atom_site_type_symbol
 _atom_site_label
 _atom_site_symmetry_multiplicity
 _atom_site_fract_x
 _atom_site_fract_y
 _atom_site_fract_z
 _atom_site_occupancy
  Tm  Tm0  1  0.007237  0.661609  0.030835  1
  Tm  Tm1  1  0.992763  0.338391  0.530835  1
  Tm  Tm2  1  0.338391  0.992763  0.469165  1
  Tm  Tm3  1  0.161609  0.492763  0.780835  1
  Tm  Tm4  1  0.838391  0.507237  0.280835  1
  Tm  Tm5  1  0.492763  0.161609  0.219165  1
  Tm  Tm6  1  0.507237  0.838391  0.719165  1
  Tm  Tm7  1  0.661609  0.007237  0.969165  1
  Re  Re8  1  0.665013  0.665013  0.500000  1
  Re  Re9  1  0.165013  0.834987  0.250000  1
  Re  Re10  1  0.334987  0.334987  0.000000  1
  Re  Re11  1  0.020165  0.812814  0.630938  1
  Re  Re12  1  0.979835  0.187186  0.130938  1
  Re  Re13  1  0.812814  0.020165  0.369062  1
  Re  Re14  1  0.312814  0.479835  0.380938  1
  Re  Re15  1  0.687186  0.520165  0.880938  1
  Re  Re16  1  0.479835  0.312814  0.619062  1
  Re  Re17  1  0.520165  0.687186  0.119062  1
  Re  Re18  1  0.187186  0.979835  0.869062  1
  Re  Re19  1  0.834987  0.165013  0.750000  1
  Si  Si20  1  0.020900  0.725293  0.437839  1
  Si  Si21  1  0.615307  0.304599  0.433773  1
  Si  Si22  1  0.384693  0.695401  0.933773  1
  Si  Si23  1  0.195401  0.115307  0.683773  1
  Si  Si24  1  0.304599  0.615307  0.566227  1
  Si  Si25  1  0.695401  0.384693  0.066227  1
  Si  Si26  1  0.804599  0.884693  0.183773  1
  Si  Si27  1  0.115307  0.195401  0.316227  1
  Si  Si28  1  0.979100  0.274707  0.937839  1
  Si  Si29  1  0.725293  0.020900  0.562161  1
  Si  Si30  1  0.225293  0.479100  0.187839  1
  Si  Si31  1  0.774707  0.520900  0.687839  1
  Si  Si32  1  0.479100  0.225293  0.812161  1
  Si  Si33  1  0.520900  0.774707  0.312161  1
  Si  Si34  1  0.274707  0.979100  0.062161  1
  Si  Si35  1  0.884693  0.804599  0.816227  1
