# generated using pymatgen
data_Th3Ga3IrPdPt
_symmetry_space_group_name_H-M   'P 1'
_cell_length_a   7.36050200
_cell_length_b   7.36050051
_cell_length_c   4.09318000
_cell_angle_alpha   90.00000000
_cell_angle_beta   90.00000000
_cell_angle_gamma   120.00000668
_symmetry_Int_Tables_number   1
_chemical_formula_structural   Th3Ga3IrPdPt
_chemical_formula_sum   'Th3 Ga3 Ir1 Pd1 Pt1'
_cell_volume   192.04642553
_cell_formula_units_Z   1
loop_
 _symmetry_equiv_pos_site_id
 _symmetry_equiv_pos_as_xyz
  1  'x, y, z'
loop_
 _atom_site_type_symbol
 _atom_site_label
 _atom_site_symmetry_multiplicity
 _atom_site_fract_x
 _atom_site_fract_y
 _atom_site_fract_z
 _atom_site_occupancy
  Th  Th0  1  0.414879  0.419954  0.500000  1
  Th  Th1  1  0.580046  0.994925  0.500000  1
  Th  Th2  1  0.005075  0.585121  0.500000  1
  Ga  Ga3  1  0.757245  0.759996  0.000000  1
  Ga  Ga4  1  0.240004  0.997248  0.000000  1
  Ga  Ga5  1  0.002752  0.242755  0.000000  1
  Ir  Ir6  1  0.333333  0.666667  0.000000  1
  Pd  Pd7  1  0.000000  0.000000  0.500000  1
  Pt  Pt8  1  0.666667  0.333333  0.000000  1
