# generated using pymatgen
data_TbDy2Mg3Ag2Ir
_symmetry_space_group_name_H-M   'P 1'
_cell_length_a   7.81379025
_cell_length_b   7.81200948
_cell_length_c   3.91303500
_cell_angle_alpha   90.00000000
_cell_angle_beta   90.00000000
_cell_angle_gamma   120.03654597
_symmetry_Int_Tables_number   1
_chemical_formula_structural   TbDy2Mg3Ag2Ir
_chemical_formula_sum   'Tb1 Dy2 Mg3 Ag2 Ir1'
_cell_volume   206.78013900
_cell_formula_units_Z   1
loop_
 _symmetry_equiv_pos_site_id
 _symmetry_equiv_pos_as_xyz
  1  'x, y, z'
loop_
 _atom_site_type_symbol
 _atom_site_label
 _atom_site_symmetry_multiplicity
 _atom_site_fract_x
 _atom_site_fract_y
 _atom_site_fract_z
 _atom_site_occupancy
  Tb  Tb0  1  0.430374  0.399186  0.500000  1
  Dy  Dy1  1  0.601046  0.031490  0.500000  1
  Dy  Dy2  1  0.968500  0.569494  0.500000  1
  Mg  Mg3  1  0.745816  0.745442  0.000000  1
  Mg  Mg4  1  0.254693  0.000210  0.000000  1
  Mg  Mg5  1  0.999479  0.254344  0.000000  1
  Ag  Ag6  1  0.333238  0.666856  0.000000  1
  Ag  Ag7  1  0.999794  0.999803  0.500000  1
  Ir  Ir8  1  0.667062  0.333176  0.000000  1
