# generated using pymatgen
data_Nb3(Ga2Co)2
_symmetry_space_group_name_H-M   'P 1'
_cell_length_a   8.74797100
_cell_length_b   8.81348402
_cell_length_c   8.14131200
_cell_angle_alpha   90.00000000
_cell_angle_beta   90.00000000
_cell_angle_gamma   120.97675849
_symmetry_Int_Tables_number   1
_chemical_formula_structural   Nb3(Ga2Co)2
_chemical_formula_sum   'Nb12 Ga16 Co8'
_cell_volume   538.17157202
_cell_formula_units_Z   4
loop_
 _symmetry_equiv_pos_site_id
 _symmetry_equiv_pos_as_xyz
  1  'x, y, z'
loop_
 _atom_site_type_symbol
 _atom_site_label
 _atom_site_symmetry_multiplicity
 _atom_site_fract_x
 _atom_site_fract_y
 _atom_site_fract_z
 _atom_site_occupancy
  Nb  Nb0  1  0.330257  0.999862  0.065073  1
  Nb  Nb1  1  0.669743  0.000138  0.934927  1
  Nb  Nb2  1  0.998784  0.330253  0.065875  1
  Nb  Nb3  1  0.669743  0.000138  0.565073  1
  Nb  Nb4  1  0.998784  0.330253  0.434125  1
  Nb  Nb5  1  0.001216  0.669747  0.934125  1
  Nb  Nb6  1  0.330257  0.999862  0.434927  1
  Nb  Nb7  1  0.001216  0.669747  0.565875  1
  Nb  Nb8  1  0.669196  0.668131  0.065867  1
  Nb  Nb9  1  0.330804  0.331869  0.934133  1
  Nb  Nb10  1  0.330804  0.331869  0.565867  1
  Nb  Nb11  1  0.669196  0.668131  0.434133  1
  Ga  Ga12  1  0.344773  0.848581  0.750000  1
  Ga  Ga13  1  0.650409  0.505336  0.750000  1
  Ga  Ga14  1  0.655227  0.151419  0.250000  1
  Ga  Ga15  1  0.349591  0.494664  0.250000  1
  Ga  Ga16  1  0.843613  0.338888  0.750000  1
  Ga  Ga17  1  0.156387  0.661112  0.250000  1
  Ga  Ga18  1  0.341492  0.666467  0.504697  1
  Ga  Ga19  1  0.658508  0.333533  0.495303  1
  Ga  Ga20  1  0.658508  0.333533  0.004697  1
  Ga  Ga21  1  0.341492  0.666467  0.995303  1
  Ga  Ga22  1  0.179781  0.009339  0.750000  1
  Ga  Ga23  1  0.820219  0.990661  0.250000  1
  Ga  Ga24  1  0.010814  0.181315  0.750000  1
  Ga  Ga25  1  0.989186  0.818685  0.250000  1
  Ga  Ga26  1  0.826310  0.834686  0.750000  1
  Ga  Ga27  1  0.173690  0.165314  0.250000  1
  Co  Co28  1  0.000000  0.000000  0.500000  1
  Co  Co29  1  0.000000  0.000000  0.000000  1
  Co  Co30  1  0.169069  0.502843  0.750000  1
  Co  Co31  1  0.830931  0.497157  0.250000  1
  Co  Co32  1  0.502671  0.670384  0.750000  1
  Co  Co33  1  0.504910  0.171497  0.750000  1
  Co  Co34  1  0.497329  0.329616  0.250000  1
  Co  Co35  1  0.495090  0.828503  0.250000  1
