# generated using pymatgen
data_MgTaNb2(Pd3Rh)3
_symmetry_space_group_name_H-M   'P 1'
_cell_length_a   5.61354600
_cell_length_b   5.61354512
_cell_length_c   9.08264000
_cell_angle_alpha   90.00000000
_cell_angle_beta   90.00000000
_cell_angle_gamma   119.99999341
_symmetry_Int_Tables_number   1
_chemical_formula_structural   MgTaNb2(Pd3Rh)3
_chemical_formula_sum   'Mg1 Ta1 Nb2 Pd9 Rh3'
_cell_volume   247.86617487
_cell_formula_units_Z   1
loop_
 _symmetry_equiv_pos_site_id
 _symmetry_equiv_pos_as_xyz
  1  'x, y, z'
loop_
 _atom_site_type_symbol
 _atom_site_label
 _atom_site_symmetry_multiplicity
 _atom_site_fract_x
 _atom_site_fract_y
 _atom_site_fract_z
 _atom_site_occupancy
  Mg  Mg0  1  0.333333  0.666667  0.000000  1
  Ta  Ta1  1  0.666667  0.333333  0.500000  1
  Nb  Nb2  1  0.000000  0.000000  0.738721  1
  Nb  Nb3  1  0.000000  0.000000  0.261279  1
  Pd  Pd4  1  0.833216  0.166784  0.000000  1
  Pd  Pd5  1  0.833216  0.666433  0.000000  1
  Pd  Pd6  1  0.333567  0.166784  0.000000  1
  Pd  Pd7  1  0.997368  0.498685  0.747477  1
  Pd  Pd8  1  0.501315  0.498685  0.747477  1
  Pd  Pd9  1  0.501315  0.002632  0.747477  1
  Pd  Pd10  1  0.997368  0.498685  0.252523  1
  Pd  Pd11  1  0.501315  0.498685  0.252523  1
  Pd  Pd12  1  0.501315  0.002632  0.252523  1
  Rh  Rh13  1  0.167289  0.832711  0.500000  1
  Rh  Rh14  1  0.167289  0.334580  0.500000  1
  Rh  Rh15  1  0.665420  0.832711  0.500000  1
