# generated using pymatgen
data_Pr2Ho4TaWO14
_symmetry_space_group_name_H-M   'P 1'
_cell_length_a   6.50844657
_cell_length_b   6.50844674
_cell_length_c   7.60705220
_cell_angle_alpha   89.63114260
_cell_angle_beta   90.36885854
_cell_angle_gamma   109.09421907
_symmetry_Int_Tables_number   1
_chemical_formula_structural   Pr2Ho4TaWO14
_chemical_formula_sum   'Pr2 Ho4 Ta1 W1 O14'
_cell_volume   304.49560875
_cell_formula_units_Z   1
loop_
 _symmetry_equiv_pos_site_id
 _symmetry_equiv_pos_as_xyz
  1  'x, y, z'
loop_
 _atom_site_type_symbol
 _atom_site_label
 _atom_site_symmetry_multiplicity
 _atom_site_fract_x
 _atom_site_fract_y
 _atom_site_fract_z
 _atom_site_occupancy
  Pr  Pr0  1  0.504669  0.504669  0.500000  1
  Pr  Pr1  1  0.490448  0.490448  0.000000  1
  Ho  Ho2  1  0.001572  0.532265  0.246343  1
  Ho  Ho3  1  0.998553  0.466338  0.747959  1
  Ho  Ho4  1  0.532265  0.001572  0.753657  1
  Ho  Ho5  1  0.466338  0.998553  0.252041  1
  Ta  Ta6  1  0.998533  0.998533  0.000000  1
  W  W7  1  0.999569  0.999569  0.500000  1
  O  O8  1  0.931333  0.068076  0.750458  1
  O  O9  1  0.068076  0.931333  0.249542  1
  O  O10  1  0.356050  0.643980  0.249517  1
  O  O11  1  0.643980  0.356050  0.750483  1
  O  O12  1  0.361159  0.639289  0.749943  1
  O  O13  1  0.639289  0.361159  0.250057  1
  O  O14  1  0.322176  0.071709  0.970009  1
  O  O15  1  0.677107  0.927511  0.472573  1
  O  O16  1  0.320113  0.069136  0.531489  1
  O  O17  1  0.683746  0.936666  0.037023  1
  O  O18  1  0.069136  0.320113  0.468511  1
  O  O19  1  0.936666  0.683746  0.962977  1
  O  O20  1  0.927511  0.677107  0.527427  1
  O  O21  1  0.071709  0.322176  0.029991  1
