# generated using pymatgen
data_Ca3Al2SiPd6
_symmetry_space_group_name_H-M   'P 1'
_cell_length_a   8.64286110
_cell_length_b   8.64286011
_cell_length_c   8.64286178
_cell_angle_alpha   37.95361462
_cell_angle_beta   37.95362299
_cell_angle_gamma   37.95362182
_symmetry_Int_Tables_number   1
_chemical_formula_structural   Ca3Al2SiPd6
_chemical_formula_sum   'Ca3 Al2 Si1 Pd6'
_cell_volume   219.19137216
_cell_formula_units_Z   1
loop_
 _symmetry_equiv_pos_site_id
 _symmetry_equiv_pos_as_xyz
  1  'x, y, z'
loop_
 _atom_site_type_symbol
 _atom_site_label
 _atom_site_symmetry_multiplicity
 _atom_site_fract_x
 _atom_site_fract_y
 _atom_site_fract_z
 _atom_site_occupancy
  Ca  Ca0  1  0.359454  0.359454  0.359454  1
  Ca  Ca1  1  0.500000  0.500000  0.500000  1
  Ca  Ca2  1  0.640546  0.640546  0.640546  1
  Al  Al3  1  0.167820  0.167820  0.167820  1
  Al  Al4  1  0.832180  0.832180  0.832180  1
  Si  Si5  1  0.000000  0.000000  0.000000  1
  Pd  Pd6  1  0.584858  0.081641  0.081641  1
  Pd  Pd7  1  0.081641  0.584858  0.081641  1
  Pd  Pd8  1  0.918359  0.918359  0.415142  1
  Pd  Pd9  1  0.081641  0.081641  0.584858  1
  Pd  Pd10  1  0.918359  0.415142  0.918359  1
  Pd  Pd11  1  0.415142  0.918359  0.918359  1
