# generated using pymatgen
data_Dy9LuCuPPb6
_symmetry_space_group_name_H-M   'P 1'
_cell_length_a   9.16020400
_cell_length_b   9.16020368
_cell_length_c   6.71548900
_cell_angle_alpha   90.00000000
_cell_angle_beta   90.00000000
_cell_angle_gamma   120.00000115
_symmetry_Int_Tables_number   1
_chemical_formula_structural   Dy9LuCuPPb6
_chemical_formula_sum   'Dy9 Lu1 Cu1 P1 Pb6'
_cell_volume   487.99856493
_cell_formula_units_Z   1
loop_
 _symmetry_equiv_pos_site_id
 _symmetry_equiv_pos_as_xyz
  1  'x, y, z'
loop_
 _atom_site_type_symbol
 _atom_site_label
 _atom_site_symmetry_multiplicity
 _atom_site_fract_x
 _atom_site_fract_y
 _atom_site_fract_z
 _atom_site_occupancy
  Dy  Dy0  1  0.246036  0.999858  0.738005  1
  Dy  Dy1  1  0.753821  0.999858  0.261995  1
  Dy  Dy2  1  0.000142  0.246179  0.738005  1
  Dy  Dy3  1  0.000142  0.753964  0.261995  1
  Dy  Dy4  1  0.753821  0.753964  0.738005  1
  Dy  Dy5  1  0.246036  0.246179  0.261995  1
  Dy  Dy6  1  0.333333  0.666667  0.500000  1
  Dy  Dy7  1  0.666667  0.333333  0.500000  1
  Dy  Dy8  1  0.666667  0.333333  0.000000  1
  Lu  Lu9  1  0.333333  0.666667  0.000000  1
  Cu  Cu10  1  0.000000  0.000000  0.000000  1
  P  P11  1  0.000000  0.000000  0.500000  1
  Pb  Pb12  1  0.604373  0.999193  0.750213  1
  Pb  Pb13  1  0.394819  0.999193  0.249787  1
  Pb  Pb14  1  0.000807  0.605181  0.750213  1
  Pb  Pb15  1  0.000807  0.395627  0.249787  1
  Pb  Pb16  1  0.394819  0.395627  0.750213  1
  Pb  Pb17  1  0.604373  0.605181  0.249787  1
