# generated using pymatgen
data_Lu2Sc3In4PtRh
_symmetry_space_group_name_H-M   'P 1'
_cell_length_a   3.49924800
_cell_length_b   7.80944515
_cell_length_c   17.66512145
_cell_angle_alpha   90.17146520
_cell_angle_beta   90.00000000
_cell_angle_gamma   90.00000000
_symmetry_Int_Tables_number   1
_chemical_formula_structural   Lu2Sc3In4PtRh
_chemical_formula_sum   'Lu4 Sc6 In8 Pt2 Rh2'
_cell_volume   482.73588576
_cell_formula_units_Z   2
loop_
 _symmetry_equiv_pos_site_id
 _symmetry_equiv_pos_as_xyz
  1  'x, y, z'
loop_
 _atom_site_type_symbol
 _atom_site_label
 _atom_site_symmetry_multiplicity
 _atom_site_fract_x
 _atom_site_fract_y
 _atom_site_fract_z
 _atom_site_occupancy
  Lu  Lu0  1  0.000000  0.241436  0.221164  1
  Lu  Lu1  1  0.000000  0.758564  0.778836  1
  Lu  Lu2  1  0.000000  0.251687  0.720122  1
  Lu  Lu3  1  0.000000  0.748313  0.279878  1
  Sc  Sc4  1  0.000000  0.116256  0.413463  1
  Sc  Sc5  1  0.000000  0.883744  0.586537  1
  Sc  Sc6  1  0.000000  0.381553  0.914728  1
  Sc  Sc7  1  0.000000  0.618447  0.085272  1
  Sc  Sc8  1  0.000000  0.000000  0.000000  1
  Sc  Sc9  1  0.000000  0.500000  0.500000  1
  In  In10  1  0.500000  0.420950  0.355341  1
  In  In11  1  0.500000  0.579050  0.644659  1
  In  In12  1  0.500000  0.074220  0.854106  1
  In  In13  1  0.500000  0.925780  0.145894  1
  In  In14  1  0.500000  0.294579  0.061685  1
  In  In15  1  0.500000  0.705421  0.938315  1
  In  In16  1  0.500000  0.204258  0.562967  1
  In  In17  1  0.500000  0.795742  0.437033  1
  Pt  Pt18  1  0.500000  0.472667  0.806440  1
  Pt  Pt19  1  0.500000  0.527333  0.193560  1
  Rh  Rh20  1  0.500000  0.027650  0.307323  1
  Rh  Rh21  1  0.500000  0.972350  0.692677  1
