# generated using pymatgen
data_TlSb5O13
_symmetry_space_group_name_H-M   'P 1'
_cell_length_a   5.62216600
_cell_length_b   5.62216590
_cell_length_c   16.78283300
_cell_angle_alpha   90.00000000
_cell_angle_beta   90.00000000
_cell_angle_gamma   107.09087866
_symmetry_Int_Tables_number   1
_chemical_formula_structural   TlSb5O13
_chemical_formula_sum   'Tl2 Sb10 O26'
_cell_volume   507.05808277
_cell_formula_units_Z   2
loop_
 _symmetry_equiv_pos_site_id
 _symmetry_equiv_pos_as_xyz
  1  'x, y, z'
loop_
 _atom_site_type_symbol
 _atom_site_label
 _atom_site_symmetry_multiplicity
 _atom_site_fract_x
 _atom_site_fract_y
 _atom_site_fract_z
 _atom_site_occupancy
  Tl  Tl0  1  0.883352  0.140767  0.750000  1
  Tl  Tl1  1  0.140767  0.883352  0.250000  1
  Sb  Sb2  1  0.387129  0.613642  0.078224  1
  Sb  Sb3  1  0.613642  0.387129  0.921776  1
  Sb  Sb4  1  0.000480  0.000480  0.000000  1
  Sb  Sb5  1  0.387129  0.613642  0.421776  1
  Sb  Sb6  1  0.613642  0.387129  0.578224  1
  Sb  Sb7  1  0.000480  0.000480  0.500000  1
  Sb  Sb8  1  0.767884  0.235400  0.362105  1
  Sb  Sb9  1  0.767884  0.235400  0.137895  1
  Sb  Sb10  1  0.235400  0.767884  0.862105  1
  Sb  Sb11  1  0.235400  0.767884  0.637895  1
  O  O12  1  0.528114  0.069209  0.866069  1
  O  O13  1  0.069209  0.528114  0.366069  1
  O  O14  1  0.069209  0.528114  0.133931  1
  O  O15  1  0.528114  0.069209  0.633931  1
  O  O16  1  0.311229  0.311229  0.000000  1
  O  O17  1  0.311229  0.311229  0.500000  1
  O  O18  1  0.017435  0.986298  0.614302  1
  O  O19  1  0.180730  0.817415  0.750000  1
  O  O20  1  0.227170  0.774863  0.989872  1
  O  O21  1  0.227170  0.774863  0.510128  1
  O  O22  1  0.446969  0.551468  0.653472  1
  O  O23  1  0.551468  0.446969  0.153472  1
  O  O24  1  0.774863  0.227170  0.489872  1
  O  O25  1  0.986298  0.017435  0.385698  1
  O  O26  1  0.551468  0.446969  0.346528  1
  O  O27  1  0.986298  0.017435  0.114302  1
  O  O28  1  0.817415  0.180730  0.250000  1
  O  O29  1  0.774863  0.227170  0.010128  1
  O  O30  1  0.017435  0.986298  0.885698  1
  O  O31  1  0.446969  0.551468  0.846528  1
  O  O32  1  0.689989  0.689989  0.500000  1
  O  O33  1  0.689989  0.689989  0.000000  1
  O  O34  1  0.476383  0.932729  0.367151  1
  O  O35  1  0.932729  0.476383  0.632849  1
  O  O36  1  0.932729  0.476383  0.867151  1
  O  O37  1  0.476383  0.932729  0.132849  1
