# generated using pymatgen
data_Dy3Er3Zr2(Co4P3)4
_symmetry_space_group_name_H-M   'P 1'
_cell_length_a   3.71337600
_cell_length_b   10.68136722
_cell_length_c   12.39719126
_cell_angle_alpha   89.97651896
_cell_angle_beta   90.00000000
_cell_angle_gamma   90.00000000
_symmetry_Int_Tables_number   1
_chemical_formula_structural   Dy3Er3Zr2(Co4P3)4
_chemical_formula_sum   'Dy3 Er3 Zr2 Co16 P12'
_cell_volume   491.72131849
_cell_formula_units_Z   1
loop_
 _symmetry_equiv_pos_site_id
 _symmetry_equiv_pos_as_xyz
  1  'x, y, z'
loop_
 _atom_site_type_symbol
 _atom_site_label
 _atom_site_symmetry_multiplicity
 _atom_site_fract_x
 _atom_site_fract_y
 _atom_site_fract_z
 _atom_site_occupancy
  Dy  Dy0  1  0.750000  0.250024  0.470328  1
  Dy  Dy1  1  0.250000  0.749929  0.529496  1
  Dy  Dy2  1  0.250000  0.927960  0.795252  1
  Er  Er3  1  0.250000  0.571862  0.795361  1
  Er  Er4  1  0.750000  0.072004  0.204465  1
  Er  Er5  1  0.750000  0.428109  0.204680  1
  Zr  Zr6  1  0.250000  0.250329  0.841724  1
  Zr  Zr7  1  0.750000  0.749984  0.158442  1
  Co  Co8  1  0.250000  0.250026  0.296210  1
  Co  Co9  1  0.750000  0.749193  0.703522  1
  Co  Co10  1  0.750000  0.250226  0.014425  1
  Co  Co11  1  0.250000  0.749751  0.986041  1
  Co  Co12  1  0.250000  0.418049  0.007380  1
  Co  Co13  1  0.250000  0.082156  0.007588  1
  Co  Co14  1  0.750000  0.581717  0.992870  1
  Co  Co15  1  0.750000  0.918007  0.993123  1
  Co  Co16  1  0.250000  0.455056  0.566625  1
  Co  Co17  1  0.250000  0.045010  0.566217  1
  Co  Co18  1  0.750000  0.544846  0.433264  1
  Co  Co19  1  0.750000  0.955141  0.433038  1
  Co  Co20  1  0.250000  0.872955  0.298452  1
  Co  Co21  1  0.250000  0.627070  0.298500  1
  Co  Co22  1  0.750000  0.127688  0.701095  1
  Co  Co23  1  0.750000  0.373057  0.701543  1
  P  P24  1  0.250000  0.250121  0.116861  1
  P  P25  1  0.750000  0.749419  0.883564  1
  P  P26  1  0.250000  0.249927  0.636655  1
  P  P27  1  0.750000  0.749976  0.363312  1
  P  P28  1  0.250000  0.439776  0.383930  1
  P  P29  1  0.250000  0.060259  0.383746  1
  P  P30  1  0.750000  0.560031  0.616049  1
  P  P31  1  0.750000  0.939921  0.615408  1
  P  P32  1  0.250000  0.912447  0.106523  1
  P  P33  1  0.250000  0.587433  0.106659  1
  P  P34  1  0.750000  0.088133  0.894155  1
  P  P35  1  0.750000  0.412409  0.893495  1
