# generated using pymatgen
data_SrNd3(USe5)2
_symmetry_space_group_name_H-M   'P 1'
_cell_length_a   7.92665120
_cell_length_b   8.46719448
_cell_length_c   12.49518400
_cell_angle_alpha   90.00000000
_cell_angle_beta   90.00000000
_cell_angle_gamma   90.48306896
_symmetry_Int_Tables_number   1
_chemical_formula_structural   SrNd3(USe5)2
_chemical_formula_sum   'Sr2 Nd6 U4 Se20'
_cell_volume   838.60317681
_cell_formula_units_Z   2
loop_
 _symmetry_equiv_pos_site_id
 _symmetry_equiv_pos_as_xyz
  1  'x, y, z'
loop_
 _atom_site_type_symbol
 _atom_site_label
 _atom_site_symmetry_multiplicity
 _atom_site_fract_x
 _atom_site_fract_y
 _atom_site_fract_z
 _atom_site_occupancy
  Sr  Sr0  1  0.530798  0.502474  0.324618  1
  Sr  Sr1  1  0.969202  0.997526  0.824618  1
  Nd  Nd2  1  0.474424  0.998572  0.679428  1
  Nd  Nd3  1  0.025576  0.501428  0.179428  1
  Nd  Nd4  1  0.469598  0.501316  0.676613  1
  Nd  Nd5  1  0.030402  0.998684  0.176613  1
  Nd  Nd6  1  0.525881  0.002248  0.322724  1
  Nd  Nd7  1  0.974119  0.497752  0.822724  1
  U  U8  1  0.068689  0.751813  0.491633  1
  U  U9  1  0.431311  0.748187  0.991633  1
  U  U10  1  0.929236  0.249367  0.507986  1
  U  U11  1  0.570764  0.250633  0.007986  1
  Se  Se12  1  0.832979  0.952958  0.587402  1
  Se  Se13  1  0.667021  0.547042  0.087402  1
  Se  Se14  1  0.157576  0.460647  0.406388  1
  Se  Se15  1  0.342424  0.039353  0.906388  1
  Se  Se16  1  0.166677  0.043625  0.407442  1
  Se  Se17  1  0.333323  0.456375  0.907442  1
  Se  Se18  1  0.834339  0.543044  0.592911  1
  Se  Se19  1  0.665661  0.956956  0.092911  1
  Se  Se20  1  0.840506  0.755833  0.312945  1
  Se  Se21  1  0.659494  0.744167  0.812945  1
  Se  Se22  1  0.169160  0.257508  0.682188  1
  Se  Se23  1  0.330840  0.242492  0.182188  1
  Se  Se24  1  0.449799  0.758861  0.502307  1
  Se  Se25  1  0.050201  0.741139  0.002307  1
  Se  Se26  1  0.549419  0.243115  0.505792  1
  Se  Se27  1  0.950581  0.256885  0.005792  1
  Se  Se28  1  0.192391  0.743166  0.711874  1
  Se  Se29  1  0.307609  0.756834  0.211874  1
  Se  Se30  1  0.813094  0.242574  0.287748  1
  Se  Se31  1  0.686906  0.257426  0.787748  1
