# generated using pymatgen
data_Dy6Si24Os3Ru5
_symmetry_space_group_name_H-M   'P 1'
_cell_length_a   10.12427063
_cell_length_b   10.12427077
_cell_length_c   8.15211300
_cell_angle_alpha   89.99995019
_cell_angle_beta   89.99995626
_cell_angle_gamma   132.51733609
_symmetry_Int_Tables_number   1
_chemical_formula_structural   Dy6Si24Os3Ru5
_chemical_formula_sum   'Dy6 Si24 Os3 Ru5'
_cell_volume   615.89705186
_cell_formula_units_Z   1
loop_
 _symmetry_equiv_pos_site_id
 _symmetry_equiv_pos_as_xyz
  1  'x, y, z'
loop_
 _atom_site_type_symbol
 _atom_site_label
 _atom_site_symmetry_multiplicity
 _atom_site_fract_x
 _atom_site_fract_y
 _atom_site_fract_z
 _atom_site_occupancy
  Dy  Dy0  1  0.500010  0.499990  0.500000  1
  Dy  Dy1  1  0.999935  0.000065  0.000000  1
  Dy  Dy2  1  0.502474  0.002531  0.750193  1
  Dy  Dy3  1  0.997469  0.497526  0.249807  1
  Dy  Dy4  1  0.497640  0.997425  0.249697  1
  Dy  Dy5  1  0.002575  0.502360  0.750303  1
  Si  Si6  1  0.795892  0.204108  0.500000  1
  Si  Si7  1  0.295813  0.704187  0.000000  1
  Si  Si8  1  0.204201  0.795799  0.500000  1
  Si  Si9  1  0.704783  0.295217  0.000000  1
  Si  Si10  1  0.332674  0.332455  0.833589  1
  Si  Si11  1  0.667545  0.667326  0.166411  1
  Si  Si12  1  0.166574  0.166687  0.332688  1
  Si  Si13  1  0.833313  0.833426  0.667312  1
  Si  Si14  1  0.121818  0.888515  0.728354  1
  Si  Si15  1  0.111485  0.878182  0.271646  1
  Si  Si16  1  0.612184  0.378355  0.227391  1
  Si  Si17  1  0.621645  0.387816  0.772609  1
  Si  Si18  1  0.877713  0.111460  0.270665  1
  Si  Si19  1  0.888540  0.122287  0.729335  1
  Si  Si20  1  0.388483  0.622213  0.772239  1
  Si  Si21  1  0.377787  0.611517  0.227761  1
  Si  Si22  1  0.344880  0.111674  0.505786  1
  Si  Si23  1  0.888326  0.655120  0.494214  1
  Si  Si24  1  0.388479  0.155471  0.004899  1
  Si  Si25  1  0.844529  0.611521  0.995101  1
  Si  Si26  1  0.655337  0.888501  0.494016  1
  Si  Si27  1  0.111499  0.344663  0.505984  1
  Si  Si28  1  0.612837  0.846210  0.994453  1
  Si  Si29  1  0.153790  0.387163  0.005547  1
  Os  Os30  1  0.669843  0.330157  0.500000  1
  Os  Os31  1  0.169852  0.830148  0.000000  1
  Os  Os32  1  0.330149  0.669851  0.500000  1
  Ru  Ru33  1  0.830048  0.169952  0.000000  1
  Ru  Ru34  1  0.127887  0.127736  0.626924  1
  Ru  Ru35  1  0.872264  0.872113  0.373076  1
  Ru  Ru36  1  0.373441  0.373711  0.128053  1
  Ru  Ru37  1  0.626289  0.626559  0.871947  1
