# generated using pymatgen
data_ErTmCo3P7Ru9
_symmetry_space_group_name_H-M   'P 1'
_cell_length_a   9.31963100
_cell_length_b   9.31963058
_cell_length_c   3.81913900
_cell_angle_alpha   90.00000000
_cell_angle_beta   90.00000000
_cell_angle_gamma   119.99999795
_symmetry_Int_Tables_number   1
_chemical_formula_structural   ErTmCo3P7Ru9
_chemical_formula_sum   'Er1 Tm1 Co3 P7 Ru9'
_cell_volume   287.27214728
_cell_formula_units_Z   1
loop_
 _symmetry_equiv_pos_site_id
 _symmetry_equiv_pos_as_xyz
  1  'x, y, z'
loop_
 _atom_site_type_symbol
 _atom_site_label
 _atom_site_symmetry_multiplicity
 _atom_site_fract_x
 _atom_site_fract_y
 _atom_site_fract_z
 _atom_site_occupancy
  Er  Er0  1  0.666667  0.333333  0.000000  1
  Tm  Tm1  1  0.000000  0.000000  0.500000  1
  Co  Co2  1  0.491139  0.936305  0.000000  1
  Co  Co3  1  0.063695  0.554834  0.000000  1
  Co  Co4  1  0.445166  0.508861  0.000000  1
  P  P5  1  0.333333  0.666667  0.000000  1
  P  P6  1  0.449206  0.068481  0.500000  1
  P  P7  1  0.931519  0.380726  0.500000  1
  P  P8  1  0.619274  0.550794  0.500000  1
  P  P9  1  0.744527  0.967208  0.000000  1
  P  P10  1  0.032792  0.777319  0.000000  1
  P  P11  1  0.222681  0.255473  0.000000  1
  Ru  Ru12  1  0.760467  0.729213  0.000000  1
  Ru  Ru13  1  0.270787  0.031253  0.000000  1
  Ru  Ru14  1  0.968747  0.239533  0.000000  1
  Ru  Ru15  1  0.715765  0.102664  0.500000  1
  Ru  Ru16  1  0.897336  0.613100  0.500000  1
  Ru  Ru17  1  0.386900  0.284235  0.500000  1
  Ru  Ru18  1  0.539975  0.752251  0.500000  1
  Ru  Ru19  1  0.247749  0.787725  0.500000  1
  Ru  Ru20  1  0.212275  0.460025  0.500000  1
