# generated using pymatgen
data_Pr9ThZn2(GaRu3)2
_symmetry_space_group_name_H-M   'P 1'
_cell_length_a   8.58953642
_cell_length_b   8.52407275
_cell_length_c   8.57338862
_cell_angle_alpha   108.77663214
_cell_angle_beta   109.84187908
_cell_angle_gamma   109.26113215
_symmetry_Int_Tables_number   1
_chemical_formula_structural   Pr9ThZn2(GaRu3)2
_chemical_formula_sum   'Pr9 Th1 Zn2 Ga2 Ru6'
_cell_volume   486.34980670
_cell_formula_units_Z   1
loop_
 _symmetry_equiv_pos_site_id
 _symmetry_equiv_pos_as_xyz
  1  'x, y, z'
loop_
 _atom_site_type_symbol
 _atom_site_label
 _atom_site_symmetry_multiplicity
 _atom_site_fract_x
 _atom_site_fract_y
 _atom_site_fract_z
 _atom_site_occupancy
  Pr  Pr0  1  0.751989  0.815732  0.064474  1
  Pr  Pr1  1  0.437265  0.250247  0.686767  1
  Pr  Pr2  1  0.684917  0.436901  0.249588  1
  Pr  Pr3  1  0.062268  0.750183  0.814191  1
  Pr  Pr4  1  0.813863  0.063743  0.752179  1
  Pr  Pr5  1  0.221726  0.219655  0.222815  1
  Pr  Pr6  1  0.502797  0.999149  0.281486  1
  Pr  Pr7  1  0.276131  0.498526  0.996801  1
  Pr  Pr8  1  0.997165  0.278048  0.497993  1
  Th  Th9  1  0.251375  0.691897  0.439157  1
  Zn  Zn10  1  0.908181  0.496777  0.997890  1
  Zn  Zn11  1  0.997699  0.911673  0.502555  1
  Ga  Ga12  1  0.593818  0.592664  0.590362  1
  Ga  Ga13  1  0.502262  0.004894  0.911148  1
  Ru  Ru14  1  0.253280  0.125759  0.878961  1
  Ru  Ru15  1  0.747262  0.376310  0.622698  1
  Ru  Ru16  1  0.873817  0.246706  0.127937  1
  Ru  Ru17  1  0.134586  0.861561  0.262910  1
  Ru  Ru18  1  0.617460  0.745445  0.372025  1
  Ru  Ru19  1  0.372139  0.634130  0.728064  1
