# generated using pymatgen
data_La3(MoC3)2
_symmetry_space_group_name_H-M   'P 1'
_cell_length_a   8.65465300
_cell_length_b   8.65465281
_cell_length_c   5.38709300
_cell_angle_alpha   90.00000000
_cell_angle_beta   90.00000000
_cell_angle_gamma   119.99998928
_symmetry_Int_Tables_number   1
_chemical_formula_structural   La3(MoC3)2
_chemical_formula_sum   'La6 Mo4 C12'
_cell_volume   349.44953086
_cell_formula_units_Z   2
loop_
 _symmetry_equiv_pos_site_id
 _symmetry_equiv_pos_as_xyz
  1  'x, y, z'
loop_
 _atom_site_type_symbol
 _atom_site_label
 _atom_site_symmetry_multiplicity
 _atom_site_fract_x
 _atom_site_fract_y
 _atom_site_fract_z
 _atom_site_occupancy
  La  La0  1  0.617428  0.695305  0.750000  1
  La  La1  1  0.922123  0.617428  0.250000  1
  La  La2  1  0.695305  0.077877  0.250000  1
  La  La3  1  0.304695  0.922123  0.750000  1
  La  La4  1  0.077877  0.382572  0.750000  1
  La  La5  1  0.382572  0.304695  0.250000  1
  Mo  Mo6  1  0.000000  0.000000  0.500000  1
  Mo  Mo7  1  0.000000  0.000000  0.000000  1
  Mo  Mo8  1  0.666667  0.333333  0.750000  1
  Mo  Mo9  1  0.333333  0.666667  0.250000  1
  C  C10  1  0.953583  0.771106  0.750000  1
  C  C11  1  0.182476  0.953583  0.250000  1
  C  C12  1  0.771106  0.817524  0.250000  1
  C  C13  1  0.228894  0.182476  0.750000  1
  C  C14  1  0.817524  0.046417  0.750000  1
  C  C15  1  0.046417  0.228894  0.250000  1
  C  C16  1  0.860441  0.587506  0.750000  1
  C  C17  1  0.272934  0.860441  0.250000  1
  C  C18  1  0.587506  0.727066  0.250000  1
  C  C19  1  0.412494  0.272934  0.750000  1
  C  C20  1  0.139559  0.412494  0.250000  1
  C  C21  1  0.727066  0.139559  0.750000  1
