# generated using pymatgen
data_Lu8Zn4Ag3Ir
_symmetry_space_group_name_H-M   'P 1'
_cell_length_a   7.09398000
_cell_length_b   7.06710800
_cell_length_c   7.09369700
_cell_angle_alpha   90.00000000
_cell_angle_beta   89.99886119
_cell_angle_gamma   90.00000000
_symmetry_Int_Tables_number   1
_chemical_formula_structural   Lu8Zn4Ag3Ir
_chemical_formula_sum   'Lu8 Zn4 Ag3 Ir1'
_cell_volume   355.63485783
_cell_formula_units_Z   1
loop_
 _symmetry_equiv_pos_site_id
 _symmetry_equiv_pos_as_xyz
  1  'x, y, z'
loop_
 _atom_site_type_symbol
 _atom_site_label
 _atom_site_symmetry_multiplicity
 _atom_site_fract_x
 _atom_site_fract_y
 _atom_site_fract_z
 _atom_site_occupancy
  Lu  Lu0  1  0.243211  0.993717  0.256807  1
  Lu  Lu1  1  0.243197  0.506280  0.256798  1
  Lu  Lu2  1  0.756843  0.506661  0.256841  1
  Lu  Lu3  1  0.756832  0.993334  0.256858  1
  Lu  Lu4  1  0.243166  0.993714  0.743158  1
  Lu  Lu5  1  0.243150  0.506287  0.743167  1
  Lu  Lu6  1  0.756803  0.506646  0.743211  1
  Lu  Lu7  1  0.756789  0.993349  0.743196  1
  Zn  Zn8  1  0.000197  0.249847  0.999974  1
  Zn  Zn9  1  0.999920  0.750149  0.000069  1
  Zn  Zn10  1  0.499939  0.749845  0.500048  1
  Zn  Zn11  1  0.499786  0.250193  0.499908  1
  Ag  Ag12  1  0.499783  0.249995  0.000027  1
  Ag  Ag13  1  0.500057  0.749908  0.999987  1
  Ag  Ag14  1  0.999967  0.250101  0.499933  1
  Ir  Ir15  1  0.000360  0.749963  0.500020  1
