# generated using pymatgen
data_HfSc4Nb3Os8
_symmetry_space_group_name_H-M   'P 1'
_cell_length_a   6.40262000
_cell_length_b   4.54916800
_cell_length_c   9.08939400
_cell_angle_alpha   90.00000000
_cell_angle_beta   90.00008622
_cell_angle_gamma   90.00000000
_symmetry_Int_Tables_number   1
_chemical_formula_structural   HfSc4Nb3Os8
_chemical_formula_sum   'Hf1 Sc4 Nb3 Os8'
_cell_volume   264.74308893
_cell_formula_units_Z   1
loop_
 _symmetry_equiv_pos_site_id
 _symmetry_equiv_pos_as_xyz
  1  'x, y, z'
loop_
 _atom_site_type_symbol
 _atom_site_label
 _atom_site_symmetry_multiplicity
 _atom_site_fract_x
 _atom_site_fract_y
 _atom_site_fract_z
 _atom_site_occupancy
  Hf  Hf0  1  0.249995  0.250001  0.125006  1
  Sc  Sc1  1  0.750002  0.250001  0.124997  1
  Sc  Sc2  1  0.250002  0.749999  0.374793  1
  Sc  Sc3  1  0.749996  0.250001  0.624998  1
  Sc  Sc4  1  0.250003  0.749999  0.875206  1
  Nb  Nb5  1  0.750004  0.749999  0.375136  1
  Nb  Nb6  1  0.250005  0.250001  0.625007  1
  Nb  Nb7  1  0.749996  0.749999  0.874859  1
  Os  Os8  1  0.505209  0.749999  0.124997  1
  Os  Os9  1  0.994787  0.749999  0.124997  1
  Os  Os10  1  0.502055  0.250001  0.378497  1
  Os  Os11  1  0.997953  0.250001  0.378492  1
  Os  Os12  1  0.000194  0.749999  0.625000  1
  Os  Os13  1  0.499809  0.749999  0.625004  1
  Os  Os14  1  0.997946  0.250001  0.871508  1
  Os  Os15  1  0.502045  0.250001  0.871504  1
