# generated using pymatgen
data_Tb8Tm12Si13Ni3
_symmetry_space_group_name_H-M   'P 1'
_cell_length_a   7.13395976
_cell_length_b   7.80478439
_cell_length_c   14.48096500
_cell_angle_alpha   90.00000000
_cell_angle_beta   90.00000000
_cell_angle_gamma   89.95545534
_symmetry_Int_Tables_number   1
_chemical_formula_structural   Tb8Tm12Si13Ni3
_chemical_formula_sum   'Tb8 Tm12 Si13 Ni3'
_cell_volume   806.28566391
_cell_formula_units_Z   1
loop_
 _symmetry_equiv_pos_site_id
 _symmetry_equiv_pos_as_xyz
  1  'x, y, z'
loop_
 _atom_site_type_symbol
 _atom_site_label
 _atom_site_symmetry_multiplicity
 _atom_site_fract_x
 _atom_site_fract_y
 _atom_site_fract_z
 _atom_site_occupancy
  Tb  Tb0  1  0.008053  0.181502  0.092541  1
  Tb  Tb1  1  0.990405  0.818224  0.911202  1
  Tb  Tb2  1  0.489620  0.682795  0.908484  1
  Tb  Tb3  1  0.990405  0.818224  0.588798  1
  Tb  Tb4  1  0.509774  0.317537  0.092702  1
  Tb  Tb5  1  0.008053  0.181502  0.407459  1
  Tb  Tb6  1  0.509774  0.317537  0.407298  1
  Tb  Tb7  1  0.489620  0.682795  0.591516  1
  Tm  Tm8  1  0.160896  0.522972  0.750000  1
  Tm  Tm9  1  0.822413  0.488528  0.250000  1
  Tm  Tm10  1  0.320554  0.015398  0.250000  1
  Tm  Tm11  1  0.679518  0.988297  0.750000  1
  Tm  Tm12  1  0.315627  0.173820  0.626739  1
  Tm  Tm13  1  0.680214  0.828054  0.370717  1
  Tm  Tm14  1  0.182476  0.674100  0.370479  1
  Tm  Tm15  1  0.680214  0.828054  0.129283  1
  Tm  Tm16  1  0.832053  0.318926  0.625509  1
  Tm  Tm17  1  0.315627  0.173820  0.873261  1
  Tm  Tm18  1  0.832053  0.318926  0.874491  1
  Tm  Tm19  1  0.182476  0.674100  0.129521  1
  Si  Si20  1  0.531838  0.394325  0.750000  1
  Si  Si21  1  0.277097  0.874366  0.750000  1
  Si  Si22  1  0.727548  0.127453  0.250000  1
  Si  Si23  1  0.226654  0.375804  0.250000  1
  Si  Si24  1  0.772703  0.622622  0.750000  1
  Si  Si25  1  0.159263  0.469634  0.537198  1
  Si  Si26  1  0.840317  0.532139  0.462518  1
  Si  Si27  1  0.341185  0.969994  0.461761  1
  Si  Si28  1  0.840317  0.532139  0.037482  1
  Si  Si29  1  0.656539  0.030954  0.538875  1
  Si  Si30  1  0.159263  0.469634  0.962802  1
  Si  Si31  1  0.656539  0.030954  0.961125  1
  Si  Si32  1  0.341185  0.969994  0.038239  1
  Ni  Ni33  1  0.035278  0.095147  0.750000  1
  Ni  Ni34  1  0.965823  0.905780  0.250000  1
  Ni  Ni35  1  0.468626  0.593952  0.250000  1
