# generated using pymatgen
data_Tm4Cr5Co6(P4Rh3)3
_symmetry_space_group_name_H-M   'P 1'
_cell_length_a   3.72885500
_cell_length_b   10.69411357
_cell_length_c   12.30664108
_cell_angle_alpha   90.10503880
_cell_angle_beta   90.00000000
_cell_angle_gamma   90.00000000
_symmetry_Int_Tables_number   1
_chemical_formula_structural   Tm4Cr5Co6(P4Rh3)3
_chemical_formula_sum   'Tm4 Cr5 Co6 P12 Rh9'
_cell_volume   490.74862635
_cell_formula_units_Z   1
loop_
 _symmetry_equiv_pos_site_id
 _symmetry_equiv_pos_as_xyz
  1  'x, y, z'
loop_
 _atom_site_type_symbol
 _atom_site_label
 _atom_site_symmetry_multiplicity
 _atom_site_fract_x
 _atom_site_fract_y
 _atom_site_fract_z
 _atom_site_occupancy
  Tm  Tm0  1  0.250000  0.581850  0.709010  1
  Tm  Tm1  1  0.250000  0.918365  0.210209  1
  Tm  Tm2  1  0.750000  0.416107  0.292714  1
  Tm  Tm3  1  0.750000  0.084614  0.792204  1
  Cr  Cr4  1  0.250000  0.707582  0.987555  1
  Cr  Cr5  1  0.250000  0.792189  0.488001  1
  Cr  Cr6  1  0.750000  0.291781  0.011468  1
  Cr  Cr7  1  0.750000  0.207661  0.512214  1
  Cr  Cr8  1  0.750000  0.594101  0.509989  1
  Co  Co9  1  0.750000  0.115574  0.305701  1
  Co  Co10  1  0.750000  0.385250  0.805936  1
  Co  Co11  1  0.250000  0.463294  0.933049  1
  Co  Co12  1  0.250000  0.037064  0.433155  1
  Co  Co13  1  0.750000  0.533544  0.061025  1
  Co  Co14  1  0.750000  0.965833  0.561707  1
  P  P15  1  0.250000  0.420201  0.106193  1
  P  P16  1  0.250000  0.078774  0.606949  1
  P  P17  1  0.750000  0.571139  0.887280  1
  P  P18  1  0.750000  0.929506  0.387618  1
  P  P19  1  0.250000  0.272576  0.870799  1
  P  P20  1  0.250000  0.228205  0.372504  1
  P  P21  1  0.750000  0.728869  0.125507  1
  P  P22  1  0.750000  0.764041  0.622046  1
  P  P23  1  0.250000  0.597741  0.391666  1
  P  P24  1  0.250000  0.900244  0.889347  1
  P  P25  1  0.750000  0.408210  0.616777  1
  P  P26  1  0.750000  0.098323  0.118373  1
  Rh  Rh27  1  0.250000  0.404927  0.487700  1
  Rh  Rh28  1  0.250000  0.096988  0.986088  1
  Rh  Rh29  1  0.750000  0.905682  0.015916  1
  Rh  Rh30  1  0.250000  0.225248  0.182302  1
  Rh  Rh31  1  0.250000  0.274847  0.681530  1
  Rh  Rh32  1  0.750000  0.769144  0.821133  1
  Rh  Rh33  1  0.750000  0.731770  0.321590  1
  Rh  Rh34  1  0.250000  0.889776  0.697259  1
  Rh  Rh35  1  0.250000  0.608980  0.197486  1
