# generated using pymatgen
data_Yb2Y2IrPd3O14
_symmetry_space_group_name_H-M   'P 1'
_cell_length_a   7.23483460
_cell_length_b   7.23940551
_cell_length_c   7.28284282
_cell_angle_alpha   60.19711569
_cell_angle_beta   60.05166257
_cell_angle_gamma   59.97910708
_symmetry_Int_Tables_number   1
_chemical_formula_structural   Yb2Y2IrPd3O14
_chemical_formula_sum   'Yb2 Y2 Ir1 Pd3 O14'
_cell_volume   270.18494951
_cell_formula_units_Z   1
loop_
 _symmetry_equiv_pos_site_id
 _symmetry_equiv_pos_as_xyz
  1  'x, y, z'
loop_
 _atom_site_type_symbol
 _atom_site_label
 _atom_site_symmetry_multiplicity
 _atom_site_fract_x
 _atom_site_fract_y
 _atom_site_fract_z
 _atom_site_occupancy
  Yb  Yb0  1  0.125000  0.625000  0.125000  1
  Yb  Yb1  1  0.125000  0.125000  0.125000  1
  Y  Y2  1  0.625000  0.125000  0.125000  1
  Y  Y3  1  0.125000  0.125000  0.625000  1
  Ir  Ir4  1  0.625000  0.625000  0.125000  1
  Pd  Pd5  1  0.125000  0.625000  0.625000  1
  Pd  Pd6  1  0.625000  0.125000  0.625000  1
  Pd  Pd7  1  0.625000  0.625000  0.625000  1
  O  O8  1  0.698703  0.709919  0.291725  1
  O  O9  1  0.285490  0.285329  0.717120  1
  O  O10  1  0.710820  0.285433  0.718314  1
  O  O11  1  0.303833  0.702194  0.291778  1
  O  O12  1  0.285490  0.712061  0.717120  1
  O  O13  1  0.698703  0.299653  0.291725  1
  O  O14  1  0.551297  0.540081  0.958275  1
  O  O15  1  0.964510  0.964671  0.532880  1
  O  O16  1  0.539180  0.964567  0.531686  1
  O  O17  1  0.946167  0.547806  0.958222  1
  O  O18  1  0.964510  0.537939  0.532880  1
  O  O19  1  0.551297  0.950347  0.958275  1
  O  O20  1  0.255167  0.246709  0.251415  1
  O  O21  1  0.994833  0.003291  0.998585  1
