# generated using pymatgen
data_Pr3AlSiPd2
_symmetry_space_group_name_H-M   'P 1'
_cell_length_a   5.81666800
_cell_length_b   8.21579600
_cell_length_c   13.86955900
_cell_angle_alpha   90.00000000
_cell_angle_beta   90.00000000
_cell_angle_gamma   90.00000000
_symmetry_Int_Tables_number   1
_chemical_formula_structural   Pr3AlSiPd2
_chemical_formula_sum   'Pr12 Al4 Si4 Pd8'
_cell_volume   662.80622037
_cell_formula_units_Z   4
loop_
 _symmetry_equiv_pos_site_id
 _symmetry_equiv_pos_as_xyz
  1  'x, y, z'
loop_
 _atom_site_type_symbol
 _atom_site_label
 _atom_site_symmetry_multiplicity
 _atom_site_fract_x
 _atom_site_fract_y
 _atom_site_fract_z
 _atom_site_occupancy
  Pr  Pr0  1  0.646999  0.246578  0.250000  1
  Pr  Pr1  1  0.353001  0.753422  0.750000  1
  Pr  Pr2  1  0.353001  0.746578  0.250000  1
  Pr  Pr3  1  0.646999  0.253422  0.750000  1
  Pr  Pr4  1  0.135614  0.390294  0.106653  1
  Pr  Pr5  1  0.864386  0.609706  0.893347  1
  Pr  Pr6  1  0.864386  0.609706  0.606653  1
  Pr  Pr7  1  0.864386  0.890294  0.393347  1
  Pr  Pr8  1  0.135614  0.390294  0.393347  1
  Pr  Pr9  1  0.135614  0.109706  0.606653  1
  Pr  Pr10  1  0.135614  0.109706  0.893347  1
  Pr  Pr11  1  0.864386  0.890294  0.106653  1
  Al  Al12  1  0.646441  0.250000  0.000000  1
  Al  Al13  1  0.353559  0.750000  0.000000  1
  Al  Al14  1  0.353559  0.750000  0.500000  1
  Al  Al15  1  0.646441  0.250000  0.500000  1
  Si  Si16  1  0.159922  0.097818  0.250000  1
  Si  Si17  1  0.840078  0.902182  0.750000  1
  Si  Si18  1  0.840078  0.597818  0.250000  1
  Si  Si19  1  0.159922  0.402182  0.750000  1
  Pd  Pd20  1  0.378159  0.035256  0.091206  1
  Pd  Pd21  1  0.621841  0.964744  0.908794  1
  Pd  Pd22  1  0.621841  0.964744  0.591206  1
  Pd  Pd23  1  0.621841  0.535256  0.408794  1
  Pd  Pd24  1  0.378159  0.035256  0.408794  1
  Pd  Pd25  1  0.378159  0.464744  0.591206  1
  Pd  Pd26  1  0.378159  0.464744  0.908794  1
  Pd  Pd27  1  0.621841  0.535256  0.091206  1
