# generated using pymatgen
data_Tb2Er2B12MoIr
_symmetry_space_group_name_H-M   'P 1'
_cell_length_a   3.66442800
_cell_length_b   9.14350178
_cell_length_c   11.54439300
_cell_angle_alpha   90.30526974
_cell_angle_beta   90.00000000
_cell_angle_gamma   90.00000000
_symmetry_Int_Tables_number   1
_chemical_formula_structural   Tb2Er2B12MoIr
_chemical_formula_sum   'Tb4 Er4 B24 Mo2 Ir2'
_cell_volume   386.79752387
_cell_formula_units_Z   2
loop_
 _symmetry_equiv_pos_site_id
 _symmetry_equiv_pos_as_xyz
  1  'x, y, z'
loop_
 _atom_site_type_symbol
 _atom_site_label
 _atom_site_symmetry_multiplicity
 _atom_site_fract_x
 _atom_site_fract_y
 _atom_site_fract_z
 _atom_site_occupancy
  Tb  Tb0  1  0.000000  0.318118  0.411464  1
  Tb  Tb1  1  0.000000  0.681882  0.588536  1
  Tb  Tb2  1  0.000000  0.824747  0.083634  1
  Tb  Tb3  1  0.000000  0.175253  0.916366  1
  Er  Er4  1  0.000000  0.945496  0.372234  1
  Er  Er5  1  0.000000  0.054504  0.627766  1
  Er  Er6  1  0.000000  0.442623  0.126131  1
  Er  Er7  1  0.000000  0.557377  0.873869  1
  B  B8  1  0.500000  0.554349  0.433720  1
  B  B9  1  0.500000  0.445651  0.566280  1
  B  B10  1  0.500000  0.051891  0.066417  1
  B  B11  1  0.500000  0.948109  0.933583  1
  B  B12  1  0.500000  0.749988  0.420238  1
  B  B13  1  0.500000  0.250012  0.579762  1
  B  B14  1  0.500000  0.250276  0.079878  1
  B  B15  1  0.500000  0.749724  0.920122  1
  B  B16  1  0.500000  0.790910  0.266403  1
  B  B17  1  0.500000  0.209090  0.733597  1
  B  B18  1  0.500000  0.295019  0.235619  1
  B  B19  1  0.500000  0.704981  0.764381  1
  B  B20  1  0.500000  0.630698  0.184524  1
  B  B21  1  0.500000  0.369302  0.815476  1
  B  B22  1  0.500000  0.131819  0.317110  1
  B  B23  1  0.500000  0.868181  0.682890  1
  B  B24  1  0.500000  0.979838  0.214107  1
  B  B25  1  0.500000  0.020162  0.785893  1
  B  B26  1  0.500000  0.482857  0.287428  1
  B  B27  1  0.500000  0.517143  0.712572  1
  B  B28  1  0.500000  0.604053  0.029559  1
  B  B29  1  0.500000  0.395947  0.970441  1
  B  B30  1  0.500000  0.105584  0.471987  1
  B  B31  1  0.500000  0.894416  0.528013  1
  Mo  Mo32  1  0.000000  0.139135  0.180969  1
  Mo  Mo33  1  0.000000  0.860865  0.819031  1
  Ir  Ir34  1  0.000000  0.637251  0.321774  1
  Ir  Ir35  1  0.000000  0.362749  0.678226  1
