# generated using pymatgen
data_TbMnGaO5
_symmetry_space_group_name_H-M   'P 1'
_cell_length_a   5.75845500
_cell_length_b   7.38908600
_cell_length_c   8.56166200
_cell_angle_alpha   90.00000000
_cell_angle_beta   90.00000000
_cell_angle_gamma   90.00000000
_symmetry_Int_Tables_number   1
_chemical_formula_structural   TbMnGaO5
_chemical_formula_sum   'Tb4 Mn4 Ga4 O20'
_cell_volume   364.29631417
_cell_formula_units_Z   4
loop_
 _symmetry_equiv_pos_site_id
 _symmetry_equiv_pos_as_xyz
  1  'x, y, z'
loop_
 _atom_site_type_symbol
 _atom_site_label
 _atom_site_symmetry_multiplicity
 _atom_site_fract_x
 _atom_site_fract_y
 _atom_site_fract_z
 _atom_site_occupancy
  Tb  Tb0  1  0.500000  0.366605  0.331384  1
  Tb  Tb1  1  0.500000  0.633395  0.668616  1
  Tb  Tb2  1  0.500000  0.133395  0.831384  1
  Tb  Tb3  1  0.500000  0.866605  0.168616  1
  Mn  Mn4  1  0.248377  0.000000  0.500000  1
  Mn  Mn5  1  0.751623  0.000000  0.500000  1
  Mn  Mn6  1  0.751623  0.500000  0.000000  1
  Mn  Mn7  1  0.248377  0.500000  0.000000  1
  Ga  Ga8  1  0.000000  0.109263  0.146235  1
  Ga  Ga9  1  0.000000  0.890737  0.853765  1
  Ga  Ga10  1  0.000000  0.390737  0.646235  1
  Ga  Ga11  1  0.000000  0.609263  0.353765  1
  O  O12  1  0.500000  0.339800  0.057761  1
  O  O13  1  0.500000  0.660200  0.942239  1
  O  O14  1  0.500000  0.160200  0.557761  1
  O  O15  1  0.500000  0.839800  0.442239  1
  O  O16  1  0.227905  0.000000  0.000000  1
  O  O17  1  0.772095  0.000000  0.000000  1
  O  O18  1  0.772095  0.500000  0.500000  1
  O  O19  1  0.227905  0.500000  0.500000  1
  O  O20  1  0.257772  0.107500  0.293986  1
  O  O21  1  0.742228  0.892500  0.706014  1
  O  O22  1  0.257772  0.892500  0.706014  1
  O  O23  1  0.742228  0.392500  0.793986  1
  O  O24  1  0.742228  0.107500  0.293986  1
  O  O25  1  0.257772  0.607500  0.206014  1
  O  O26  1  0.742228  0.607500  0.206014  1
  O  O27  1  0.257772  0.392500  0.793986  1
  O  O28  1  0.000000  0.350309  0.071963  1
  O  O29  1  0.000000  0.649691  0.928037  1
  O  O30  1  0.000000  0.149691  0.571963  1
  O  O31  1  0.000000  0.850309  0.428037  1
