# generated using pymatgen
data_Dy5HfSbO12
_symmetry_space_group_name_H-M   'P 1'
_cell_length_a   6.45606421
_cell_length_b   6.43980564
_cell_length_c   6.46444600
_cell_angle_alpha   99.40804929
_cell_angle_beta   98.62990102
_cell_angle_gamma   98.73936251
_symmetry_Int_Tables_number   1
_chemical_formula_structural   Dy5HfSbO12
_chemical_formula_sum   'Dy5 Hf1 Sb1 O12'
_cell_volume   257.82132627
_cell_formula_units_Z   1
loop_
 _symmetry_equiv_pos_site_id
 _symmetry_equiv_pos_as_xyz
  1  'x, y, z'
loop_
 _atom_site_type_symbol
 _atom_site_label
 _atom_site_symmetry_multiplicity
 _atom_site_fract_x
 _atom_site_fract_y
 _atom_site_fract_z
 _atom_site_occupancy
  Dy  Dy0  1  0.392010  0.691844  0.856460  1
  Dy  Dy1  1  0.859425  0.388003  0.691594  1
  Dy  Dy2  1  0.311497  0.142883  0.607825  1
  Dy  Dy3  1  0.609380  0.310789  0.139933  1
  Dy  Dy4  1  0.139564  0.611197  0.306725  1
  Hf  Hf5  1  0.682804  0.855445  0.389821  1
  Sb  Sb6  1  0.996280  0.995775  0.000482  1
  O  O7  1  0.445300  0.609226  0.185575  1
  O  O8  1  0.176325  0.434335  0.582707  1
  O  O9  1  0.599918  0.163830  0.426747  1
  O  O10  1  0.564587  0.409006  0.820169  1
  O  O11  1  0.815154  0.586471  0.415367  1
  O  O12  1  0.436376  0.823266  0.564236  1
  O  O13  1  0.908778  0.024571  0.689317  1
  O  O14  1  0.956117  0.303912  0.068098  1
  O  O15  1  0.299615  0.073807  0.953232  1
  O  O16  1  0.067987  0.959007  0.308159  1
  O  O17  1  0.043159  0.692156  0.931371  1
  O  O18  1  0.695727  0.924474  0.062181  1
