# generated using pymatgen
data_Ho3Mg2InSn2Pd
_symmetry_space_group_name_H-M   'P 1'
_cell_length_a   7.44096600
_cell_length_b   7.43570032
_cell_length_c   4.50994900
_cell_angle_alpha   90.00000000
_cell_angle_beta   90.00000000
_cell_angle_gamma   120.02343750
_symmetry_Int_Tables_number   1
_chemical_formula_structural   Ho3Mg2InSn2Pd
_chemical_formula_sum   'Ho3 Mg2 In1 Sn2 Pd1'
_cell_volume   216.04829529
_cell_formula_units_Z   1
loop_
 _symmetry_equiv_pos_site_id
 _symmetry_equiv_pos_as_xyz
  1  'x, y, z'
loop_
 _atom_site_type_symbol
 _atom_site_label
 _atom_site_symmetry_multiplicity
 _atom_site_fract_x
 _atom_site_fract_y
 _atom_site_fract_z
 _atom_site_occupancy
  Ho  Ho0  1  0.595282  0.000000  0.000000  1
  Ho  Ho1  1  0.000090  0.595445  0.000000  1
  Ho  Ho2  1  0.404645  0.404555  0.000000  1
  Mg  Mg3  1  0.999323  0.231916  0.500000  1
  Mg  Mg4  1  0.767407  0.768084  0.500000  1
  In  In5  1  0.232170  0.000000  0.500000  1
  Sn  Sn6  1  0.334076  0.664733  0.500000  1
  Sn  Sn7  1  0.669344  0.335267  0.500000  1
  Pd  Pd8  1  0.997662  0.000000  0.000000  1
