# generated using pymatgen
data_Li4Y4BiPb3
_symmetry_space_group_name_H-M   'P 1'
_cell_length_a   9.55692166
_cell_length_b   9.55439190
_cell_length_c   7.34373747
_cell_angle_alpha   90.09138546
_cell_angle_beta   89.83036997
_cell_angle_gamma   120.01893213
_symmetry_Int_Tables_number   1
_chemical_formula_structural   Li4Y4BiPb3
_chemical_formula_sum   'Li8 Y8 Bi2 Pb6'
_cell_volume   580.60939841
_cell_formula_units_Z   2
loop_
 _symmetry_equiv_pos_site_id
 _symmetry_equiv_pos_as_xyz
  1  'x, y, z'
loop_
 _atom_site_type_symbol
 _atom_site_label
 _atom_site_symmetry_multiplicity
 _atom_site_fract_x
 _atom_site_fract_y
 _atom_site_fract_z
 _atom_site_occupancy
  Li  Li0  1  0.165181  0.830148  0.197169  1
  Li  Li1  1  0.335013  0.169826  0.697361  1
  Li  Li2  1  0.830797  0.664548  0.694449  1
  Li  Li3  1  0.166309  0.335503  0.194068  1
  Li  Li4  1  0.665911  0.832428  0.198634  1
  Li  Li5  1  0.833420  0.167586  0.698821  1
  Li  Li6  1  0.334061  0.665134  0.812331  1
  Li  Li7  1  0.668989  0.334877  0.312428  1
  Y  Y8  1  0.514026  0.491064  0.989882  1
  Y  Y9  1  0.023134  0.508771  0.489824  1
  Y  Y10  1  0.493498  0.975965  0.491865  1
  Y  Y11  1  0.517562  0.024037  0.991807  1
  Y  Y12  1  0.973190  0.483584  0.992419  1
  Y  Y13  1  0.489289  0.516232  0.492300  1
  Y  Y14  1  0.994999  0.000240  0.984488  1
  Y  Y15  1  0.994961  0.000061  0.484399  1
  Bi  Bi16  1  0.167258  0.834074  0.752194  1
  Bi  Bi17  1  0.333186  0.165975  0.252209  1
  Pb  Pb18  1  0.166935  0.333335  0.753752  1
  Pb  Pb19  1  0.666545  0.833305  0.753199  1
  Pb  Pb20  1  0.833202  0.166669  0.253192  1
  Pb  Pb21  1  0.333341  0.667679  0.224693  1
  Pb  Pb22  1  0.665653  0.332296  0.724788  1
  Pb  Pb23  1  0.833543  0.666662  0.253730  1
