# generated using pymatgen
data_Tb2Pr2Sn10(PtRh)3
_symmetry_space_group_name_H-M   'P 1'
_cell_length_a   13.66129332
_cell_length_b   13.66129408
_cell_length_c   7.42860557
_cell_angle_alpha   89.87420223
_cell_angle_beta   90.12579802
_cell_angle_gamma   161.18698429
_symmetry_Int_Tables_number   1
_chemical_formula_structural   Tb2Pr2Sn10(PtRh)3
_chemical_formula_sum   'Tb2 Pr2 Sn10 Pt3 Rh3'
_cell_volume   447.08866005
_cell_formula_units_Z   1
loop_
 _symmetry_equiv_pos_site_id
 _symmetry_equiv_pos_as_xyz
  1  'x, y, z'
loop_
 _atom_site_type_symbol
 _atom_site_label
 _atom_site_symmetry_multiplicity
 _atom_site_fract_x
 _atom_site_fract_y
 _atom_site_fract_z
 _atom_site_occupancy
  Tb  Tb0  1  0.476252  0.523748  0.739038  1
  Tb  Tb1  1  0.523963  0.476037  0.238475  1
  Pr  Pr2  1  0.174635  0.825365  0.748907  1
  Pr  Pr3  1  0.827008  0.172992  0.248398  1
  Sn  Sn4  1  0.881305  0.118695  0.725230  1
  Sn  Sn5  1  0.119867  0.880133  0.228182  1
  Sn  Sn6  1  0.700883  0.299117  0.053917  1
  Sn  Sn7  1  0.297418  0.702582  0.544187  1
  Sn  Sn8  1  0.596761  0.403239  0.619375  1
  Sn  Sn9  1  0.403321  0.596679  0.118952  1
  Sn  Sn10  1  0.952315  0.047685  0.398623  1
  Sn  Sn11  1  0.048078  0.951922  0.899070  1
  Sn  Sn12  1  0.288403  0.711597  0.979906  1
  Sn  Sn13  1  0.709966  0.290034  0.469095  1
  Pt  Pt14  1  0.049602  0.950398  0.515451  1
  Pt  Pt15  1  0.950647  0.049353  0.015535  1
  Pt  Pt16  1  0.777567  0.222433  0.769677  1
  Rh  Rh17  1  0.222480  0.777520  0.269040  1
  Rh  Rh18  1  0.397289  0.602711  0.488562  1
  Rh  Rh19  1  0.602241  0.397759  0.986376  1
