# generated using pymatgen
data_Sc2TaReSi3Ru2
_symmetry_space_group_name_H-M   'P 1'
_cell_length_a   6.81344400
_cell_length_b   6.81344482
_cell_length_c   3.42238800
_cell_angle_alpha   90.00000000
_cell_angle_beta   90.00000000
_cell_angle_gamma   119.43447282
_symmetry_Int_Tables_number   1
_chemical_formula_structural   Sc2TaReSi3Ru2
_chemical_formula_sum   'Sc2 Ta1 Re1 Si3 Ru2'
_cell_volume   138.36941073
_cell_formula_units_Z   1
loop_
 _symmetry_equiv_pos_site_id
 _symmetry_equiv_pos_as_xyz
  1  'x, y, z'
loop_
 _atom_site_type_symbol
 _atom_site_label
 _atom_site_symmetry_multiplicity
 _atom_site_fract_x
 _atom_site_fract_y
 _atom_site_fract_z
 _atom_site_occupancy
  Sc  Sc0  1  0.591614  0.993359  0.500000  1
  Sc  Sc1  1  0.993359  0.591614  0.500000  1
  Ta  Ta2  1  0.414473  0.414473  0.500000  1
  Re  Re3  1  0.742651  0.742651  0.000000  1
  Si  Si4  1  0.662062  0.328731  0.000000  1
  Si  Si5  1  0.328731  0.662062  0.000000  1
  Si  Si6  1  0.008361  0.008361  0.500000  1
  Ru  Ru7  1  0.253565  0.005186  0.000000  1
  Ru  Ru8  1  0.005186  0.253565  0.000000  1
