# generated using pymatgen
data_Zr4Al7Os
_symmetry_space_group_name_H-M   'P 1'
_cell_length_a   5.32331400
_cell_length_b   5.32331423
_cell_length_c   8.58605800
_cell_angle_alpha   90.00000000
_cell_angle_beta   90.00000000
_cell_angle_gamma   119.99998614
_symmetry_Int_Tables_number   1
_chemical_formula_structural   Zr4Al7Os
_chemical_formula_sum   'Zr4 Al7 Os1'
_cell_volume   210.71172250
_cell_formula_units_Z   1
loop_
 _symmetry_equiv_pos_site_id
 _symmetry_equiv_pos_as_xyz
  1  'x, y, z'
loop_
 _atom_site_type_symbol
 _atom_site_label
 _atom_site_symmetry_multiplicity
 _atom_site_fract_x
 _atom_site_fract_y
 _atom_site_fract_z
 _atom_site_occupancy
  Zr  Zr0  1  0.333333  0.666667  0.438654  1
  Zr  Zr1  1  0.666667  0.333333  0.932965  1
  Zr  Zr2  1  0.666667  0.333333  0.561346  1
  Zr  Zr3  1  0.333333  0.666667  0.067035  1
  Al  Al4  1  0.169949  0.339898  0.759299  1
  Al  Al5  1  0.830051  0.169949  0.240701  1
  Al  Al6  1  0.339898  0.169949  0.240701  1
  Al  Al7  1  0.660102  0.830051  0.759299  1
  Al  Al8  1  0.000000  0.000000  0.500000  1
  Al  Al9  1  0.830051  0.660102  0.240701  1
  Al  Al10  1  0.169949  0.830051  0.759299  1
  Os  Os11  1  0.000000  0.000000  0.000000  1
