# generated using pymatgen
data_Al8Ir3Ru4Au
_symmetry_space_group_name_H-M   'P 1'
_cell_length_a   6.07668600
_cell_length_b   4.26267200
_cell_length_c   8.55402000
_cell_angle_alpha   90.00000000
_cell_angle_beta   90.00022701
_cell_angle_gamma   90.00000000
_symmetry_Int_Tables_number   1
_chemical_formula_structural   Al8Ir3Ru4Au
_chemical_formula_sum   'Al8 Ir3 Ru4 Au1'
_cell_volume   221.57408945
_cell_formula_units_Z   1
loop_
 _symmetry_equiv_pos_site_id
 _symmetry_equiv_pos_as_xyz
  1  'x, y, z'
loop_
 _atom_site_type_symbol
 _atom_site_label
 _atom_site_symmetry_multiplicity
 _atom_site_fract_x
 _atom_site_fract_y
 _atom_site_fract_z
 _atom_site_occupancy
  Al  Al0  1  0.015630  0.749999  0.124999  1
  Al  Al1  1  0.484366  0.749999  0.125006  1
  Al  Al2  1  0.007661  0.250001  0.383257  1
  Al  Al3  1  0.492336  0.250001  0.383258  1
  Al  Al4  1  0.499508  0.749999  0.624999  1
  Al  Al5  1  0.000497  0.749999  0.625004  1
  Al  Al6  1  0.492341  0.250001  0.866737  1
  Al  Al7  1  0.007664  0.250001  0.866740  1
  Ir  Ir8  1  0.250002  0.749999  0.374839  1
  Ir  Ir9  1  0.750002  0.250001  0.625000  1
  Ir  Ir10  1  0.249999  0.749999  0.875162  1
  Ru  Ru11  1  0.249998  0.250001  0.124998  1
  Ru  Ru12  1  0.749998  0.749999  0.368955  1
  Ru  Ru13  1  0.250000  0.250001  0.624999  1
  Ru  Ru14  1  0.750002  0.749999  0.881048  1
  Au  Au15  1  0.749996  0.250001  0.124998  1
