# generated using pymatgen
data_Cs4Zr5TiCoBr18
_symmetry_space_group_name_H-M   'P 1'
_cell_length_a   10.87752390
_cell_length_b   11.21205681
_cell_length_c   11.27279948
_cell_angle_alpha   118.16673279
_cell_angle_beta   100.93850222
_cell_angle_gamma   104.22795216
_symmetry_Int_Tables_number   1
_chemical_formula_structural   Cs4Zr5TiCoBr18
_chemical_formula_sum   'Cs4 Zr5 Ti1 Co1 Br18'
_cell_volume   1097.04942917
_cell_formula_units_Z   1
loop_
 _symmetry_equiv_pos_site_id
 _symmetry_equiv_pos_as_xyz
  1  'x, y, z'
loop_
 _atom_site_type_symbol
 _atom_site_label
 _atom_site_symmetry_multiplicity
 _atom_site_fract_x
 _atom_site_fract_y
 _atom_site_fract_z
 _atom_site_occupancy
  Cs  Cs0  1  0.663210  0.539241  0.231614  1
  Cs  Cs1  1  0.335511  0.458556  0.765464  1
  Cs  Cs2  1  0.695389  0.227313  0.563957  1
  Cs  Cs3  1  0.301839  0.772944  0.432898  1
  Zr  Zr4  1  0.847897  0.943132  0.770770  1
  Zr  Zr5  1  0.864092  0.123459  0.134112  1
  Zr  Zr6  1  0.143270  0.879153  0.876649  1
  Zr  Zr7  1  0.150012  0.238770  0.051086  1
  Zr  Zr8  1  0.857169  0.764198  0.959756  1
  Ti  Ti9  1  0.149160  0.055997  0.225828  1
  Co  Co10  1  0.999861  0.999944  0.999739  1
  Br  Br11  1  0.006530  0.392653  0.186664  1
  Br  Br12  1  0.992188  0.606668  0.811209  1
  Br  Br13  1  0.322030  0.320548  0.303006  1
  Br  Br14  1  0.677372  0.675988  0.698020  1
  Br  Br15  1  0.313747  0.505487  0.098353  1
  Br  Br16  1  0.685776  0.493907  0.900650  1
  Br  Br17  1  0.007606  0.807395  0.204098  1
  Br  Br18  1  0.996073  0.196603  0.798804  1
  Br  Br19  1  0.708517  0.258900  0.271387  1
  Br  Br20  1  0.291404  0.741259  0.727535  1
  Br  Br21  1  0.310201  0.126705  0.908771  1
  Br  Br22  1  0.688548  0.872933  0.089305  1
  Br  Br23  1  0.018181  0.193820  0.391289  1
  Br  Br24  1  0.985024  0.804819  0.608448  1
  Br  Br25  1  0.312656  0.931435  0.113457  1
  Br  Br26  1  0.685919  0.071272  0.890820  1
  Br  Br27  1  0.319163  0.117704  0.474569  1
  Br  Br28  1  0.671654  0.879198  0.511743  1
