# generated using pymatgen
data_La4Y12Cd4FePd3
_symmetry_space_group_name_H-M   'P 1'
_cell_length_a   9.85263355
_cell_length_b   9.85263401
_cell_length_c   9.85263366
_cell_angle_alpha   59.62833753
_cell_angle_beta   59.62833216
_cell_angle_gamma   59.62834021
_symmetry_Int_Tables_number   1
_chemical_formula_structural   La4Y12Cd4FePd3
_chemical_formula_sum   'La4 Y12 Cd4 Fe1 Pd3'
_cell_volume   670.59202520
_cell_formula_units_Z   1
loop_
 _symmetry_equiv_pos_site_id
 _symmetry_equiv_pos_as_xyz
  1  'x, y, z'
loop_
 _atom_site_type_symbol
 _atom_site_label
 _atom_site_symmetry_multiplicity
 _atom_site_fract_x
 _atom_site_fract_y
 _atom_site_fract_z
 _atom_site_occupancy
  La  La0  1  0.354947  0.354947  0.354947  1
  La  La1  1  0.345482  0.345482  0.948203  1
  La  La2  1  0.345482  0.948203  0.345482  1
  La  La3  1  0.948203  0.345482  0.345482  1
  Y  Y4  1  0.822871  0.185609  0.185609  1
  Y  Y5  1  0.186357  0.811973  0.811973  1
  Y  Y6  1  0.185609  0.822871  0.185609  1
  Y  Y7  1  0.811973  0.186357  0.811973  1
  Y  Y8  1  0.185609  0.185609  0.822871  1
  Y  Y9  1  0.811973  0.811973  0.186357  1
  Y  Y10  1  0.933707  0.566231  0.566231  1
  Y  Y11  1  0.564324  0.933006  0.933006  1
  Y  Y12  1  0.566231  0.933707  0.566231  1
  Y  Y13  1  0.933006  0.564324  0.933006  1
  Y  Y14  1  0.566231  0.566231  0.933707  1
  Y  Y15  1  0.933006  0.933006  0.564324  1
  Cd  Cd16  1  0.581301  0.581301  0.581301  1
  Cd  Cd17  1  0.583514  0.583514  0.249107  1
  Cd  Cd18  1  0.583514  0.249107  0.583514  1
  Cd  Cd19  1  0.249107  0.583514  0.583514  1
  Fe  Fe20  1  0.144144  0.144144  0.144144  1
  Pd  Pd21  1  0.143439  0.143439  0.576532  1
  Pd  Pd22  1  0.143439  0.576532  0.143439  1
  Pd  Pd23  1  0.576532  0.143439  0.143439  1
