# generated using pymatgen
data_La19Nd(Ir2Ru)4
_symmetry_space_group_name_H-M   'P 1'
_cell_length_a   11.38197900
_cell_length_b   11.38197900
_cell_length_c   6.69796500
_cell_angle_alpha   90.00000000
_cell_angle_beta   90.00000000
_cell_angle_gamma   90.00000000
_symmetry_Int_Tables_number   1
_chemical_formula_structural   La19Nd(Ir2Ru)4
_chemical_formula_sum   'La19 Nd1 Ir8 Ru4'
_cell_volume   867.71765479
_cell_formula_units_Z   1
loop_
 _symmetry_equiv_pos_site_id
 _symmetry_equiv_pos_as_xyz
  1  'x, y, z'
loop_
 _atom_site_type_symbol
 _atom_site_label
 _atom_site_symmetry_multiplicity
 _atom_site_fract_x
 _atom_site_fract_y
 _atom_site_fract_z
 _atom_site_occupancy
  La  La0  1  0.090045  0.294538  0.107104  1
  La  La1  1  0.795219  0.409936  0.106271  1
  La  La2  1  0.204781  0.590064  0.106271  1
  La  La3  1  0.909955  0.705462  0.107104  1
  La  La4  1  0.409142  0.795230  0.392607  1
  La  La5  1  0.590858  0.204770  0.392607  1
  La  La6  1  0.294258  0.090781  0.394491  1
  La  La7  1  0.705742  0.909219  0.394491  1
  La  La8  1  0.409936  0.204781  0.893729  1
  La  La9  1  0.705462  0.090045  0.892896  1
  La  La10  1  0.294538  0.909955  0.892896  1
  La  La11  1  0.590064  0.795219  0.893729  1
  La  La12  1  0.090781  0.705742  0.605509  1
  La  La13  1  0.909219  0.294258  0.605509  1
  La  La14  1  0.204770  0.409142  0.607393  1
  La  La15  1  0.795230  0.590858  0.607393  1
  La  La16  1  0.000000  0.000000  0.000000  1
  La  La17  1  0.500000  0.500000  0.000000  1
  La  La18  1  0.500000  0.500000  0.500000  1
  Nd  Nd19  1  0.000000  0.000000  0.500000  1
  Ir  Ir20  1  0.152222  0.847468  0.249778  1
  Ir  Ir21  1  0.347551  0.347481  0.250219  1
  Ir  Ir22  1  0.652449  0.652519  0.250219  1
  Ir  Ir23  1  0.847778  0.152532  0.249778  1
  Ir  Ir24  1  0.347481  0.652449  0.749781  1
  Ir  Ir25  1  0.152532  0.152222  0.750222  1
  Ir  Ir26  1  0.847468  0.847778  0.750222  1
  Ir  Ir27  1  0.652519  0.347551  0.749781  1
  Ru  Ru28  1  0.000000  0.500000  0.376300  1
  Ru  Ru29  1  0.500000  0.000000  0.124184  1
  Ru  Ru30  1  0.500000  0.000000  0.623700  1
  Ru  Ru31  1  0.000000  0.500000  0.875816  1
