# generated using pymatgen
data_Tb16CdHg3(IrPd)2
_symmetry_space_group_name_H-M   'P 1'
_cell_length_a   9.68643908
_cell_length_b   9.69597165
_cell_length_c   9.66285500
_cell_angle_alpha   60.11291646
_cell_angle_beta   60.08050492
_cell_angle_gamma   60.33606192
_symmetry_Int_Tables_number   1
_chemical_formula_structural   Tb16CdHg3(IrPd)2
_chemical_formula_sum   'Tb16 Cd1 Hg3 Ir2 Pd2'
_cell_volume   644.27800687
_cell_formula_units_Z   1
loop_
 _symmetry_equiv_pos_site_id
 _symmetry_equiv_pos_as_xyz
  1  'x, y, z'
loop_
 _atom_site_type_symbol
 _atom_site_label
 _atom_site_symmetry_multiplicity
 _atom_site_fract_x
 _atom_site_fract_y
 _atom_site_fract_z
 _atom_site_occupancy
  Tb  Tb0  1  0.602502  0.602192  0.596094  1
  Tb  Tb1  1  0.602502  0.602192  0.199214  1
  Tb  Tb2  1  0.610971  0.186749  0.601141  1
  Tb  Tb3  1  0.184075  0.611354  0.602286  1
  Tb  Tb4  1  0.055345  0.441110  0.440054  1
  Tb  Tb5  1  0.440035  0.056011  0.064144  1
  Tb  Tb6  1  0.440035  0.056011  0.439811  1
  Tb  Tb7  1  0.055345  0.441110  0.063492  1
  Tb  Tb8  1  0.440723  0.441571  0.058853  1
  Tb  Tb9  1  0.061124  0.061135  0.438871  1
  Tb  Tb10  1  0.187168  0.815860  0.811406  1
  Tb  Tb11  1  0.815008  0.188316  0.185480  1
  Tb  Tb12  1  0.815008  0.188316  0.811197  1
  Tb  Tb13  1  0.187168  0.815860  0.185566  1
  Tb  Tb14  1  0.812450  0.813329  0.187110  1
  Tb  Tb15  1  0.186401  0.187778  0.812911  1
  Cd  Cd16  1  0.507859  0.829073  0.831534  1
  Hg  Hg17  1  0.833832  0.835842  0.837413  1
  Hg  Hg18  1  0.833832  0.835842  0.492914  1
  Hg  Hg19  1  0.832877  0.493220  0.836951  1
  Ir  Ir20  1  0.390187  0.821275  0.394270  1
  Ir  Ir21  1  0.821336  0.390735  0.393965  1
  Pd  Pd22  1  0.392111  0.392561  0.397902  1
  Pd  Pd23  1  0.392111  0.392561  0.817425  1
