# generated using pymatgen
data_LiEu16Mg3Ru4
_symmetry_space_group_name_H-M   'P 1'
_cell_length_a   10.20851042
_cell_length_b   10.20851007
_cell_length_c   10.20850901
_cell_angle_alpha   60.78280278
_cell_angle_beta   60.78280545
_cell_angle_gamma   60.78280207
_symmetry_Int_Tables_number   1
_chemical_formula_structural   LiEu16Mg3Ru4
_chemical_formula_sum   'Li1 Eu16 Mg3 Ru4'
_cell_volume   765.55083017
_cell_formula_units_Z   1
loop_
 _symmetry_equiv_pos_site_id
 _symmetry_equiv_pos_as_xyz
  1  'x, y, z'
loop_
 _atom_site_type_symbol
 _atom_site_label
 _atom_site_symmetry_multiplicity
 _atom_site_fract_x
 _atom_site_fract_y
 _atom_site_fract_z
 _atom_site_occupancy
  Li  Li0  1  0.826022  0.826022  0.826022  1
  Eu  Eu1  1  0.799829  0.200634  0.200634  1
  Eu  Eu2  1  0.200634  0.200634  0.799829  1
  Eu  Eu3  1  0.799163  0.799163  0.201310  1
  Eu  Eu4  1  0.201310  0.799163  0.799163  1
  Eu  Eu5  1  0.591043  0.591043  0.224859  1
  Eu  Eu6  1  0.437174  0.062686  0.062686  1
  Eu  Eu7  1  0.062686  0.437174  0.062686  1
  Eu  Eu8  1  0.438607  0.061763  0.438607  1
  Eu  Eu9  1  0.224859  0.591043  0.591043  1
  Eu  Eu10  1  0.061763  0.438607  0.438607  1
  Eu  Eu11  1  0.591043  0.224859  0.591043  1
  Eu  Eu12  1  0.592599  0.592599  0.592599  1
  Eu  Eu13  1  0.200634  0.799829  0.200634  1
  Eu  Eu14  1  0.799163  0.201310  0.799163  1
  Eu  Eu15  1  0.062686  0.062686  0.437174  1
  Eu  Eu16  1  0.438607  0.438607  0.061763  1
  Mg  Mg17  1  0.519398  0.827270  0.827270  1
  Mg  Mg18  1  0.827270  0.519398  0.827270  1
  Mg  Mg19  1  0.827270  0.827270  0.519398  1
  Ru  Ru20  1  0.845161  0.384372  0.384372  1
  Ru  Ru21  1  0.384340  0.384340  0.384340  1
  Ru  Ru22  1  0.384372  0.845161  0.384372  1
  Ru  Ru23  1  0.384372  0.384372  0.845161  1
