# generated using pymatgen
data_Sr6Sn8SbI
_symmetry_space_group_name_H-M   'P 1'
_cell_length_a   9.09207020
_cell_length_b   9.09207036
_cell_length_c   9.09206994
_cell_angle_alpha   120.49305044
_cell_angle_beta   120.49304847
_cell_angle_gamma   89.14811818
_symmetry_Int_Tables_number   1
_chemical_formula_structural   Sr6Sn8SbI
_chemical_formula_sum   'Sr6 Sn8 Sb1 I1'
_cell_volume   527.43944149
_cell_formula_units_Z   1
loop_
 _symmetry_equiv_pos_site_id
 _symmetry_equiv_pos_as_xyz
  1  'x, y, z'
loop_
 _atom_site_type_symbol
 _atom_site_label
 _atom_site_symmetry_multiplicity
 _atom_site_fract_x
 _atom_site_fract_y
 _atom_site_fract_z
 _atom_site_occupancy
  Sr  Sr0  1  0.255588  0.255588  0.000000  1
  Sr  Sr1  1  0.744412  0.744412  0.000000  1
  Sr  Sr2  1  0.170269  0.654332  0.824602  1
  Sr  Sr3  1  0.829731  0.345668  0.175398  1
  Sr  Sr4  1  0.654332  0.829731  0.484063  1
  Sr  Sr5  1  0.345668  0.170269  0.515937  1
  Sn  Sn6  1  0.831590  0.331819  0.784101  1
  Sn  Sn7  1  0.168410  0.668181  0.215899  1
  Sn  Sn8  1  0.547718  0.047489  0.215899  1
  Sn  Sn9  1  0.331819  0.547718  0.500229  1
  Sn  Sn10  1  0.952511  0.168410  0.500229  1
  Sn  Sn11  1  0.452282  0.952511  0.784101  1
  Sn  Sn12  1  0.668181  0.452282  0.499771  1
  Sn  Sn13  1  0.047489  0.831590  0.499771  1
  Sb  Sb14  1  0.500000  0.500000  0.000000  1
  I  I15  1  0.000000  0.000000  0.000000  1
