# generated using pymatgen
data_Nd4PtSe7
_symmetry_space_group_name_H-M   'P 1'
_cell_length_a   4.05089916
_cell_length_b   8.31884484
_cell_length_c   8.75620862
_cell_angle_alpha   90.02581513
_cell_angle_beta   89.98478727
_cell_angle_gamma   89.99144033
_symmetry_Int_Tables_number   1
_chemical_formula_structural   Nd4PtSe7
_chemical_formula_sum   'Nd4 Pt1 Se7'
_cell_volume   295.07369328
_cell_formula_units_Z   1
loop_
 _symmetry_equiv_pos_site_id
 _symmetry_equiv_pos_as_xyz
  1  'x, y, z'
loop_
 _atom_site_type_symbol
 _atom_site_label
 _atom_site_symmetry_multiplicity
 _atom_site_fract_x
 _atom_site_fract_y
 _atom_site_fract_z
 _atom_site_occupancy
  Nd  Nd0  1  0.250534  0.125533  0.701919  1
  Nd  Nd1  1  0.250790  0.625675  0.749873  1
  Nd  Nd2  1  0.750075  0.867524  0.271762  1
  Nd  Nd3  1  0.749599  0.381563  0.272937  1
  Pt  Pt4  1  0.749183  0.125188  0.001226  1
  Se  Se5  1  0.248904  0.319499  0.997660  1
  Se  Se6  1  0.750420  0.624069  0.006121  1
  Se  Se7  1  0.750663  0.871039  0.632470  1
  Se  Se8  1  0.250059  0.624956  0.374630  1
  Se  Se9  1  0.249256  0.930724  0.996903  1
  Se  Se10  1  0.750528  0.379685  0.632957  1
  Se  Se11  1  0.249989  0.124545  0.361543  1
