# generated using pymatgen
data_Y2Sc3(SiGe)2
_symmetry_space_group_name_H-M   'P 1'
_cell_length_a   7.16734700
_cell_length_b   7.42908100
_cell_length_c   14.07851900
_cell_angle_alpha   90.00000000
_cell_angle_beta   90.00000000
_cell_angle_gamma   90.00000000
_symmetry_Int_Tables_number   1
_chemical_formula_structural   Y2Sc3(SiGe)2
_chemical_formula_sum   'Y8 Sc12 Si8 Ge8'
_cell_volume   749.63610545
_cell_formula_units_Z   4
loop_
 _symmetry_equiv_pos_site_id
 _symmetry_equiv_pos_as_xyz
  1  'x, y, z'
loop_
 _atom_site_type_symbol
 _atom_site_label
 _atom_site_symmetry_multiplicity
 _atom_site_fract_x
 _atom_site_fract_y
 _atom_site_fract_z
 _atom_site_occupancy
  Y  Y0  1  0.009306  0.176242  0.098887  1
  Y  Y1  1  0.990694  0.823758  0.901113  1
  Y  Y2  1  0.490694  0.676242  0.901113  1
  Y  Y3  1  0.990694  0.823758  0.598887  1
  Y  Y4  1  0.509306  0.323758  0.098887  1
  Y  Y5  1  0.009306  0.176242  0.401113  1
  Y  Y6  1  0.509306  0.323758  0.401113  1
  Y  Y7  1  0.490694  0.676242  0.598887  1
  Sc  Sc8  1  0.162084  0.501484  0.750000  1
  Sc  Sc9  1  0.837916  0.498516  0.250000  1
  Sc  Sc10  1  0.337916  0.001484  0.250000  1
  Sc  Sc11  1  0.662084  0.998516  0.750000  1
  Sc  Sc12  1  0.333317  0.173709  0.626719  1
  Sc  Sc13  1  0.666683  0.826291  0.373281  1
  Sc  Sc14  1  0.166683  0.673709  0.373281  1
  Sc  Sc15  1  0.666683  0.826291  0.126719  1
  Sc  Sc16  1  0.833317  0.326291  0.626719  1
  Sc  Sc17  1  0.333317  0.173709  0.873281  1
  Sc  Sc18  1  0.833317  0.326291  0.873281  1
  Sc  Sc19  1  0.166683  0.673709  0.126719  1
  Si  Si20  1  0.034184  0.117948  0.750000  1
  Si  Si21  1  0.965816  0.882052  0.250000  1
  Si  Si22  1  0.465816  0.617948  0.250000  1
  Si  Si23  1  0.534184  0.382052  0.750000  1
  Si  Si24  1  0.287385  0.872724  0.750000  1
  Si  Si25  1  0.712615  0.127276  0.250000  1
  Si  Si26  1  0.212615  0.372724  0.250000  1
  Si  Si27  1  0.787385  0.627276  0.750000  1
  Ge  Ge28  1  0.167878  0.461536  0.540873  1
  Ge  Ge29  1  0.832122  0.538464  0.459127  1
  Ge  Ge30  1  0.332122  0.961536  0.459127  1
  Ge  Ge31  1  0.832122  0.538464  0.040873  1
  Ge  Ge32  1  0.667878  0.038464  0.540873  1
  Ge  Ge33  1  0.167878  0.461536  0.959127  1
  Ge  Ge34  1  0.667878  0.038464  0.959127  1
  Ge  Ge35  1  0.332122  0.961536  0.040873  1
