# generated using pymatgen
data_Er6P5S
_symmetry_space_group_name_H-M   'P 1'
_cell_length_a   6.82585248
_cell_length_b   7.86379251
_cell_length_c   6.82237200
_cell_angle_alpha   106.78618619
_cell_angle_beta   119.98093439
_cell_angle_gamma   106.72581740
_symmetry_Int_Tables_number   1
_chemical_formula_structural   Er6P5S
_chemical_formula_sum   'Er6 P5 S1'
_cell_volume   259.20259565
_cell_formula_units_Z   1
loop_
 _symmetry_equiv_pos_site_id
 _symmetry_equiv_pos_as_xyz
  1  'x, y, z'
loop_
 _atom_site_type_symbol
 _atom_site_label
 _atom_site_symmetry_multiplicity
 _atom_site_fract_x
 _atom_site_fract_y
 _atom_site_fract_z
 _atom_site_occupancy
  Er  Er0  1  0.795630  0.549151  0.524043  1
  Er  Er1  1  0.134550  0.044676  0.187993  1
  Er  Er2  1  0.132956  0.548905  0.187762  1
  Er  Er3  1  0.796568  0.044590  0.524652  1
  Er  Er4  1  0.458970  0.044541  0.850506  1
  Er  Er5  1  0.470103  0.549060  0.860976  1
  P  P6  1  0.964711  0.796858  0.355803  1
  P  P7  1  0.632005  0.296871  0.689258  1
  P  P8  1  0.630556  0.797176  0.690880  1
  P  P9  1  0.299163  0.796491  0.021345  1
  P  P10  1  0.297865  0.297125  0.022848  1
  S  S11  1  0.964385  0.296275  0.355665  1
