# generated using pymatgen
data_CaCeTh(SnIr)3
_symmetry_space_group_name_H-M   'P 1'
_cell_length_a   7.57254995
_cell_length_b   7.52106643
_cell_length_c   4.12610700
_cell_angle_alpha   90.00000000
_cell_angle_beta   90.00000000
_cell_angle_gamma   121.11839930
_symmetry_Int_Tables_number   1
_chemical_formula_structural   CaCeTh(SnIr)3
_chemical_formula_sum   'Ca1 Ce1 Th1 Sn3 Ir3'
_cell_volume   201.18108520
_cell_formula_units_Z   1
loop_
 _symmetry_equiv_pos_site_id
 _symmetry_equiv_pos_as_xyz
  1  'x, y, z'
loop_
 _atom_site_type_symbol
 _atom_site_label
 _atom_site_symmetry_multiplicity
 _atom_site_fract_x
 _atom_site_fract_y
 _atom_site_fract_z
 _atom_site_occupancy
  Ca  Ca0  1  0.407866  0.407842  0.000000  1
  Ce  Ce1  1  0.000044  0.587539  0.000000  1
  Th  Th2  1  0.586306  0.000470  0.000000  1
  Sn  Sn3  1  0.015164  0.257092  0.500000  1
  Sn  Sn4  1  0.736852  0.732958  0.500000  1
  Sn  Sn5  1  0.248357  0.010507  0.500000  1
  Ir  Ir6  1  0.984630  0.987019  0.000000  1
  Ir  Ir7  1  0.688038  0.327182  0.500000  1
  Ir  Ir8  1  0.332744  0.689393  0.500000  1
