# generated using pymatgen
data_BeCr20(WC3)2
_symmetry_space_group_name_H-M   'P 1'
_cell_length_a   7.51179480
_cell_length_b   7.51118321
_cell_length_c   7.51166801
_cell_angle_alpha   60.00022865
_cell_angle_beta   59.99846499
_cell_angle_gamma   59.99820795
_symmetry_Int_Tables_number   1
_chemical_formula_structural   BeCr20(WC3)2
_chemical_formula_sum   'Be1 Cr20 W2 C6'
_cell_volume   299.68381477
_cell_formula_units_Z   1
loop_
 _symmetry_equiv_pos_site_id
 _symmetry_equiv_pos_as_xyz
  1  'x, y, z'
loop_
 _atom_site_type_symbol
 _atom_site_label
 _atom_site_symmetry_multiplicity
 _atom_site_fract_x
 _atom_site_fract_y
 _atom_site_fract_z
 _atom_site_occupancy
  Be  Be0  1  0.000027  0.999971  0.999964  1
  Cr  Cr1  1  0.615915  0.615994  0.152196  1
  Cr  Cr2  1  0.615881  0.152190  0.616009  1
  Cr  Cr3  1  0.152212  0.615899  0.615959  1
  Cr  Cr4  1  0.615931  0.615923  0.615918  1
  Cr  Cr5  1  0.384083  0.384002  0.847782  1
  Cr  Cr6  1  0.384076  0.847808  0.384051  1
  Cr  Cr7  1  0.847780  0.384059  0.384110  1
  Cr  Cr8  1  0.384048  0.384045  0.384152  1
  Cr  Cr9  1  0.000034  0.999930  0.335266  1
  Cr  Cr10  1  0.664701  0.999960  0.335325  1
  Cr  Cr11  1  0.999999  0.664802  0.335201  1
  Cr  Cr12  1  0.664797  0.335150  0.999979  1
  Cr  Cr13  1  0.000077  0.335272  0.999966  1
  Cr  Cr14  1  0.000042  0.335133  0.664766  1
  Cr  Cr15  1  0.335147  0.664872  0.000007  1
  Cr  Cr16  1  0.335242  0.000035  0.664761  1
  Cr  Cr17  1  0.335257  0.000011  0.999940  1
  Cr  Cr18  1  0.999956  0.000009  0.664859  1
  Cr  Cr19  1  0.999969  0.664783  0.999979  1
  Cr  Cr20  1  0.664805  0.999995  0.999924  1
  W  W21  1  0.750023  0.750160  0.749915  1
  W  W22  1  0.249997  0.250038  0.249955  1
  C  C23  1  0.722976  0.722932  0.277031  1
  C  C24  1  0.277125  0.722865  0.277127  1
  C  C25  1  0.722881  0.277086  0.277147  1
  C  C26  1  0.277138  0.277062  0.722911  1
  C  C27  1  0.722843  0.277096  0.722860  1
  C  C28  1  0.277037  0.722922  0.722941  1
