# generated using pymatgen
data_Yb7ThSb6
_symmetry_space_group_name_H-M   'P 1'
_cell_length_a   8.22523206
_cell_length_b   8.22523149
_cell_length_c   8.14842900
_cell_angle_alpha   109.28218122
_cell_angle_beta   109.28217982
_cell_angle_gamma   109.65959603
_symmetry_Int_Tables_number   1
_chemical_formula_structural   Yb7ThSb6
_chemical_formula_sum   'Yb7 Th1 Sb6'
_cell_volume   425.35955193
_cell_formula_units_Z   1
loop_
 _symmetry_equiv_pos_site_id
 _symmetry_equiv_pos_as_xyz
  1  'x, y, z'
loop_
 _atom_site_type_symbol
 _atom_site_label
 _atom_site_symmetry_multiplicity
 _atom_site_fract_x
 _atom_site_fract_y
 _atom_site_fract_z
 _atom_site_occupancy
  Yb  Yb0  1  0.649122  0.649034  0.649226  1
  Yb  Yb1  1  0.007183  0.360706  0.502131  1
  Yb  Yb2  1  0.353523  0.492817  0.994949  1
  Yb  Yb3  1  0.999912  0.850878  0.500104  1
  Yb  Yb4  1  0.850966  0.500088  0.000192  1
  Yb  Yb5  1  0.500000  0.000000  0.853979  1
  Yb  Yb6  1  0.139294  0.146477  0.141426  1
  Th  Th7  1  0.500000  0.000000  0.353886  1
  Sb  Sb8  1  0.872999  0.125002  0.745462  1
  Sb  Sb9  1  0.374998  0.247997  0.620460  1
  Sb  Sb10  1  0.130689  0.754718  0.883710  1
  Sb  Sb11  1  0.745282  0.875972  0.128992  1
  Sb  Sb12  1  0.252003  0.627001  0.372464  1
  Sb  Sb13  1  0.624028  0.369311  0.253020  1
