# generated using pymatgen
data_Tb2YPa(FeB4)4
_symmetry_space_group_name_H-M   'P 1'
_cell_length_a   3.40383600
_cell_length_b   5.90795682
_cell_length_c   11.43874000
_cell_angle_alpha   89.95333298
_cell_angle_beta   90.00000000
_cell_angle_gamma   90.00000000
_symmetry_Int_Tables_number   1
_chemical_formula_structural   Tb2YPa(FeB4)4
_chemical_formula_sum   'Tb2 Y1 Pa1 Fe4 B16'
_cell_volume   230.02973794
_cell_formula_units_Z   1
loop_
 _symmetry_equiv_pos_site_id
 _symmetry_equiv_pos_as_xyz
  1  'x, y, z'
loop_
 _atom_site_type_symbol
 _atom_site_label
 _atom_site_symmetry_multiplicity
 _atom_site_fract_x
 _atom_site_fract_y
 _atom_site_fract_z
 _atom_site_occupancy
  Tb  Tb0  1  0.500000  0.627330  0.848209  1
  Tb  Tb1  1  0.500000  0.126457  0.650132  1
  Y  Y2  1  0.500000  0.873834  0.351869  1
  Pa  Pa3  1  0.500000  0.372898  0.150121  1
  Fe  Fe4  1  0.500000  0.367999  0.409449  1
  Fe  Fe5  1  0.500000  0.631465  0.587907  1
  Fe  Fe6  1  0.500000  0.134657  0.913167  1
  Fe  Fe7  1  0.500000  0.865974  0.091042  1
  B  B8  1  0.000000  0.110005  0.045388  1
  B  B9  1  0.000000  0.888426  0.953320  1
  B  B10  1  0.000000  0.388953  0.545477  1
  B  B11  1  0.000000  0.612629  0.454872  1
  B  B12  1  0.000000  0.140161  0.467667  1
  B  B13  1  0.000000  0.860954  0.532366  1
  B  B14  1  0.000000  0.359784  0.966616  1
  B  B15  1  0.000000  0.639247  0.032367  1
  B  B16  1  0.000000  0.022830  0.190451  1
  B  B17  1  0.000000  0.975902  0.809784  1
  B  B18  1  0.000000  0.475387  0.689551  1
  B  B19  1  0.000000  0.525186  0.310931  1
  B  B20  1  0.000000  0.218592  0.316309  1
  B  B21  1  0.000000  0.781482  0.683169  1
  B  B22  1  0.000000  0.280812  0.815193  1
  B  B23  1  0.000000  0.719034  0.184641  1
