# generated using pymatgen
data_Th4Si8Tc15Os
_symmetry_space_group_name_H-M   'P 1'
_cell_length_a   4.14873400
_cell_length_b   7.19553658
_cell_length_c   15.72344348
_cell_angle_alpha   90.07607136
_cell_angle_beta   90.00000000
_cell_angle_gamma   90.00000000
_symmetry_Int_Tables_number   1
_chemical_formula_structural   Th4Si8Tc15Os
_chemical_formula_sum   'Th4 Si8 Tc15 Os1'
_cell_volume   469.38159552
_cell_formula_units_Z   1
loop_
 _symmetry_equiv_pos_site_id
 _symmetry_equiv_pos_as_xyz
  1  'x, y, z'
loop_
 _atom_site_type_symbol
 _atom_site_label
 _atom_site_symmetry_multiplicity
 _atom_site_fract_x
 _atom_site_fract_y
 _atom_site_fract_z
 _atom_site_occupancy
  Th  Th0  1  0.000000  0.588505  0.118008  1
  Th  Th1  1  0.000000  0.409039  0.881690  1
  Th  Th2  1  0.500000  0.091887  0.382061  1
  Th  Th3  1  0.500000  0.908508  0.617495  1
  Si  Si4  1  0.000000  0.827648  0.472694  1
  Si  Si5  1  0.000000  0.172095  0.527196  1
  Si  Si6  1  0.500000  0.327906  0.027015  1
  Si  Si7  1  0.500000  0.671714  0.973100  1
  Si  Si8  1  0.000000  0.311481  0.274036  1
  Si  Si9  1  0.000000  0.688641  0.726076  1
  Si  Si10  1  0.500000  0.811535  0.225884  1
  Si  Si11  1  0.500000  0.186983  0.774126  1
  Tc  Tc12  1  0.000000  0.858870  0.949907  1
  Tc  Tc13  1  0.500000  0.641283  0.448981  1
  Tc  Tc14  1  0.500000  0.358848  0.550950  1
  Tc  Tc15  1  0.000000  0.734657  0.319577  1
  Tc  Tc16  1  0.000000  0.264585  0.680100  1
  Tc  Tc17  1  0.500000  0.235835  0.179042  1
  Tc  Tc18  1  0.500000  0.763862  0.820858  1
  Tc  Tc19  1  0.000000  0.429579  0.421269  1
  Tc  Tc20  1  0.000000  0.570222  0.578960  1
  Tc  Tc21  1  0.500000  0.928907  0.079277  1
  Tc  Tc22  1  0.500000  0.070487  0.921849  1
  Tc  Tc23  1  0.000000  0.004540  0.205393  1
  Tc  Tc24  1  0.000000  0.994924  0.794526  1
  Tc  Tc25  1  0.500000  0.506236  0.294120  1
  Tc  Tc26  1  0.500000  0.493949  0.706040  1
  Os  Os27  1  0.000000  0.147272  0.049769  1
