# generated using pymatgen
data_Gd4Sc6Ga7Ge
_symmetry_space_group_name_H-M   'P 1'
_cell_length_a   7.27507700
_cell_length_b   7.48542255
_cell_length_c   14.51320000
_cell_angle_alpha   90.00000000
_cell_angle_beta   90.00000000
_cell_angle_gamma   90.20421755
_symmetry_Int_Tables_number   1
_chemical_formula_structural   Gd4Sc6Ga7Ge
_chemical_formula_sum   'Gd8 Sc12 Ga14 Ge2'
_cell_volume   790.34068090
_cell_formula_units_Z   2
loop_
 _symmetry_equiv_pos_site_id
 _symmetry_equiv_pos_as_xyz
  1  'x, y, z'
loop_
 _atom_site_type_symbol
 _atom_site_label
 _atom_site_symmetry_multiplicity
 _atom_site_fract_x
 _atom_site_fract_y
 _atom_site_fract_z
 _atom_site_occupancy
  Gd  Gd0  1  0.011574  0.176811  0.095726  1
  Gd  Gd1  1  0.988020  0.823074  0.903505  1
  Gd  Gd2  1  0.489095  0.676726  0.904279  1
  Gd  Gd3  1  0.988020  0.823074  0.596495  1
  Gd  Gd4  1  0.511188  0.323214  0.095263  1
  Gd  Gd5  1  0.011574  0.176811  0.404274  1
  Gd  Gd6  1  0.511188  0.323214  0.404737  1
  Gd  Gd7  1  0.489095  0.676726  0.595721  1
  Sc  Sc8  1  0.161049  0.501961  0.750000  1
  Sc  Sc9  1  0.838118  0.498139  0.250000  1
  Sc  Sc10  1  0.337578  0.003202  0.250000  1
  Sc  Sc11  1  0.663060  0.996484  0.750000  1
  Sc  Sc12  1  0.330894  0.173969  0.623011  1
  Sc  Sc13  1  0.668741  0.826231  0.377010  1
  Sc  Sc14  1  0.170666  0.671916  0.376283  1
  Sc  Sc15  1  0.668741  0.826231  0.122990  1
  Sc  Sc16  1  0.829870  0.328014  0.623745  1
  Sc  Sc17  1  0.330894  0.173969  0.876989  1
  Sc  Sc18  1  0.829870  0.328014  0.876255  1
  Sc  Sc19  1  0.170666  0.671916  0.123717  1
  Ga  Ga20  1  0.032771  0.119867  0.750000  1
  Ga  Ga21  1  0.967366  0.880518  0.250000  1
  Ga  Ga22  1  0.468929  0.617283  0.250000  1
  Ga  Ga23  1  0.531146  0.383019  0.750000  1
  Ga  Ga24  1  0.285686  0.873893  0.750000  1
  Ga  Ga25  1  0.714623  0.126300  0.250000  1
  Ga  Ga26  1  0.158232  0.464087  0.540697  1
  Ga  Ga27  1  0.841867  0.535747  0.459716  1
  Ga  Ga28  1  0.339873  0.964124  0.459761  1
  Ga  Ga29  1  0.841867  0.535747  0.040284  1
  Ga  Ga30  1  0.660159  0.036254  0.540706  1
  Ga  Ga31  1  0.158232  0.464087  0.959303  1
  Ga  Ga32  1  0.660159  0.036254  0.959294  1
  Ga  Ga33  1  0.339873  0.964124  0.040239  1
  Ge  Ge34  1  0.786248  0.625492  0.750000  1
  Ge  Ge35  1  0.213070  0.373509  0.250000  1
