# generated using pymatgen
data_Ti12FeTc6Rh5
_symmetry_space_group_name_H-M   'P 1'
_cell_length_a   4.37171700
_cell_length_b   6.17952400
_cell_length_c   13.14013900
_cell_angle_alpha   90.00000000
_cell_angle_beta   90.00003055
_cell_angle_gamma   90.00000000
_symmetry_Int_Tables_number   1
_chemical_formula_structural   Ti12FeTc6Rh5
_chemical_formula_sum   'Ti12 Fe1 Tc6 Rh5'
_cell_volume   354.98256492
_cell_formula_units_Z   1
loop_
 _symmetry_equiv_pos_site_id
 _symmetry_equiv_pos_as_xyz
  1  'x, y, z'
loop_
 _atom_site_type_symbol
 _atom_site_label
 _atom_site_symmetry_multiplicity
 _atom_site_fract_x
 _atom_site_fract_y
 _atom_site_fract_z
 _atom_site_occupancy
  Ti  Ti0  1  0.500002  0.257613  0.000000  1
  Ti  Ti1  1  0.500002  0.742386  0.000000  1
  Ti  Ti2  1  0.000049  0.253011  0.161986  1
  Ti  Ti3  1  0.000049  0.746990  0.161986  1
  Ti  Ti4  1  0.500051  0.249685  0.332286  1
  Ti  Ti5  1  0.500051  0.750314  0.332286  1
  Ti  Ti6  1  0.000000  0.249532  0.500000  1
  Ti  Ti7  1  0.000000  0.750469  0.500000  1
  Ti  Ti8  1  0.499948  0.249685  0.667714  1
  Ti  Ti9  1  0.499948  0.750314  0.667714  1
  Ti  Ti10  1  0.999950  0.253011  0.838014  1
  Ti  Ti11  1  0.999950  0.746990  0.838014  1
  Fe  Fe12  1  0.000000  0.500000  0.000000  1
  Tc  Tc13  1  0.000000  0.000000  0.000000  1
  Tc  Tc14  1  0.500053  0.500000  0.165684  1
  Tc  Tc15  1  0.000049  0.000000  0.332694  1
  Tc  Tc16  1  0.500002  0.500000  0.500000  1
  Tc  Tc17  1  0.999952  0.000000  0.667305  1
  Tc  Tc18  1  0.499948  0.500000  0.834316  1
  Rh  Rh19  1  0.500053  0.000000  0.165915  1
  Rh  Rh20  1  0.000055  0.500000  0.332524  1
  Rh  Rh21  1  0.500002  0.000000  0.500000  1
  Rh  Rh22  1  0.999944  0.500000  0.667477  1
  Rh  Rh23  1  0.499946  0.000000  0.834085  1
