# generated using pymatgen
data_DyEr(NiIr)2
_symmetry_space_group_name_H-M   'P 1'
_cell_length_a   5.20301456
_cell_length_b   5.38129476
_cell_length_c   5.20301572
_cell_angle_alpha   58.85991531
_cell_angle_beta   58.18501034
_cell_angle_gamma   58.85990833
_symmetry_Int_Tables_number   1
_chemical_formula_structural   DyEr(NiIr)2
_chemical_formula_sum   'Dy1 Er1 Ni2 Ir2'
_cell_volume   99.78678505
_cell_formula_units_Z   1
loop_
 _symmetry_equiv_pos_site_id
 _symmetry_equiv_pos_as_xyz
  1  'x, y, z'
loop_
 _atom_site_type_symbol
 _atom_site_label
 _atom_site_symmetry_multiplicity
 _atom_site_fract_x
 _atom_site_fract_y
 _atom_site_fract_z
 _atom_site_occupancy
  Dy  Dy0  1  0.997669  0.002331  0.997669  1
  Er  Er1  1  0.752458  0.747542  0.752458  1
  Ni  Ni2  1  0.874788  0.375124  0.374964  1
  Ni  Ni3  1  0.374964  0.375124  0.874788  1
  Ir  Ir4  1  0.375061  0.874662  0.375061  1
  Ir  Ir5  1  0.375061  0.375217  0.375061  1
