# generated using pymatgen
data_La8Y11PaRh16
_symmetry_space_group_name_H-M   'P 1'
_cell_length_a   7.57643490
_cell_length_b   7.65670850
_cell_length_c   14.74211024
_cell_angle_alpha   89.71563778
_cell_angle_beta   90.29137448
_cell_angle_gamma   89.85684754
_symmetry_Int_Tables_number   1
_chemical_formula_structural   La8Y11PaRh16
_chemical_formula_sum   'La8 Y11 Pa1 Rh16'
_cell_volume   855.17366042
_cell_formula_units_Z   1
loop_
 _symmetry_equiv_pos_site_id
 _symmetry_equiv_pos_as_xyz
  1  'x, y, z'
loop_
 _atom_site_type_symbol
 _atom_site_label
 _atom_site_symmetry_multiplicity
 _atom_site_fract_x
 _atom_site_fract_y
 _atom_site_fract_z
 _atom_site_occupancy
  La  La0  1  0.488602  0.317241  0.905619  1
  La  La1  1  0.990104  0.181836  0.592977  1
  La  La2  1  0.511157  0.680859  0.405120  1
  La  La3  1  0.009486  0.824494  0.096164  1
  La  La4  1  0.505282  0.681761  0.097299  1
  La  La5  1  0.011511  0.817688  0.405505  1
  La  La6  1  0.487347  0.316853  0.591114  1
  La  La7  1  0.994476  0.175838  0.904609  1
  Y  Y8  1  0.341486  0.836394  0.878752  1
  Y  Y9  1  0.839313  0.663936  0.623262  1
  Y  Y10  1  0.661480  0.166155  0.375863  1
  Y  Y11  1  0.158708  0.336528  0.121668  1
  Y  Y12  1  0.659186  0.165554  0.121886  1
  Y  Y13  1  0.160492  0.334970  0.376330  1
  Y  Y14  1  0.339525  0.836138  0.623676  1
  Y  Y15  1  0.185228  0.494844  0.748739  1
  Y  Y16  1  0.675828  0.006172  0.748438  1
  Y  Y17  1  0.822513  0.502398  0.249902  1
  Y  Y18  1  0.323179  0.000170  0.250235  1
  Pa  Pa19  1  0.839364  0.657823  0.876557  1
  Rh  Rh20  1  0.327584  0.035057  0.044260  1
  Rh  Rh21  1  0.821734  0.468314  0.455441  1
  Rh  Rh22  1  0.677590  0.970964  0.545804  1
  Rh  Rh23  1  0.154650  0.543436  0.950623  1
  Rh  Rh24  1  0.694805  0.940192  0.955389  1
  Rh  Rh25  1  0.180734  0.532964  0.545270  1
  Rh  Rh26  1  0.321234  0.033595  0.456449  1
  Rh  Rh27  1  0.807315  0.473700  0.029502  1
  Rh  Rh28  1  0.558363  0.627579  0.759473  1
  Rh  Rh29  1  0.034337  0.866726  0.759675  1
  Rh  Rh30  1  0.455556  0.385669  0.248575  1
  Rh  Rh31  1  0.955438  0.120410  0.247800  1
  Rh  Rh32  1  0.300398  0.132637  0.750749  1
  Rh  Rh33  1  0.819643  0.368667  0.758222  1
  Rh  Rh34  1  0.694496  0.861901  0.250146  1
  Rh  Rh35  1  0.191855  0.640538  0.248909  1
