# generated using pymatgen
data_Ba2CaP2
_symmetry_space_group_name_H-M   'P 1'
_cell_length_a   9.15860992
_cell_length_b   9.15861068
_cell_length_c   8.23660800
_cell_angle_alpha   90.00000000
_cell_angle_beta   90.00000000
_cell_angle_gamma   150.26594200
_symmetry_Int_Tables_number   1
_chemical_formula_structural   Ba2CaP2
_chemical_formula_sum   'Ba4 Ca2 P4'
_cell_volume   342.66304533
_cell_formula_units_Z   2
loop_
 _symmetry_equiv_pos_site_id
 _symmetry_equiv_pos_as_xyz
  1  'x, y, z'
loop_
 _atom_site_type_symbol
 _atom_site_label
 _atom_site_symmetry_multiplicity
 _atom_site_fract_x
 _atom_site_fract_y
 _atom_site_fract_z
 _atom_site_occupancy
  Ba  Ba0  1  0.296006  0.703994  0.887501  1
  Ba  Ba1  1  0.703994  0.296006  0.387501  1
  Ba  Ba2  1  0.454802  0.545198  0.230284  1
  Ba  Ba3  1  0.545198  0.454802  0.730284  1
  Ca  Ca4  1  0.094074  0.905926  0.086318  1
  Ca  Ca5  1  0.905926  0.094074  0.586318  1
  P  P6  1  0.056307  0.943693  0.428735  1
  P  P7  1  0.943693  0.056307  0.928735  1
  P  P8  1  0.325529  0.674471  0.501182  1
  P  P9  1  0.674471  0.325529  0.001182  1
