# generated using pymatgen
data_La3DyCoI5
_symmetry_space_group_name_H-M   'P 1'
_cell_length_a   9.88967362
_cell_length_b   9.88967542
_cell_length_c   9.28661810
_cell_angle_alpha   76.74982551
_cell_angle_beta   76.74982418
_cell_angle_gamma   25.23128886
_symmetry_Int_Tables_number   1
_chemical_formula_structural   La3DyCoI5
_chemical_formula_sum   'La3 Dy1 Co1 I5'
_cell_volume   376.34623839
_cell_formula_units_Z   1
loop_
 _symmetry_equiv_pos_site_id
 _symmetry_equiv_pos_as_xyz
  1  'x, y, z'
loop_
 _atom_site_type_symbol
 _atom_site_label
 _atom_site_symmetry_multiplicity
 _atom_site_fract_x
 _atom_site_fract_y
 _atom_site_fract_z
 _atom_site_occupancy
  La  La0  1  0.867309  0.867309  0.063358  1
  La  La1  1  0.132964  0.132964  0.926178  1
  La  La2  1  0.500904  0.500904  0.224206  1
  Dy  Dy3  1  0.499573  0.499573  0.796217  1
  Co  Co4  1  0.000227  0.000227  0.998990  1
  I  I5  1  0.675584  0.675584  0.166291  1
  I  I6  1  0.331151  0.331151  0.818782  1
  I  I7  1  0.663093  0.663093  0.652519  1
  I  I8  1  0.329821  0.329821  0.339624  1
  I  I9  1  0.999374  0.999374  0.513834  1
