# generated using pymatgen
data_Tb2Al20FeRh3
_symmetry_space_group_name_H-M   'P 1'
_cell_length_a   6.82752312
_cell_length_b   6.82984551
_cell_length_c   9.11889509
_cell_angle_alpha   90.15002529
_cell_angle_beta   90.01742691
_cell_angle_gamma   97.28572660
_symmetry_Int_Tables_number   1
_chemical_formula_structural   Tb2Al20FeRh3
_chemical_formula_sum   'Tb2 Al20 Fe1 Rh3'
_cell_volume   421.78779001
_cell_formula_units_Z   1
loop_
 _symmetry_equiv_pos_site_id
 _symmetry_equiv_pos_as_xyz
  1  'x, y, z'
loop_
 _atom_site_type_symbol
 _atom_site_label
 _atom_site_symmetry_multiplicity
 _atom_site_fract_x
 _atom_site_fract_y
 _atom_site_fract_z
 _atom_site_occupancy
  Tb  Tb0  1  0.870133  0.127101  0.748719  1
  Tb  Tb1  1  0.129867  0.872899  0.251281  1
  Al  Al2  1  0.619697  0.371475  0.547194  1
  Al  Al3  1  0.380303  0.628525  0.452806  1
  Al  Al4  1  0.378579  0.622704  0.050320  1
  Al  Al5  1  0.621421  0.377296  0.949680  1
  Al  Al6  1  0.227341  0.218800  0.497687  1
  Al  Al7  1  0.772659  0.781200  0.502313  1
  Al  Al8  1  0.776081  0.777090  0.001110  1
  Al  Al9  1  0.223919  0.222910  0.998890  1
  Al  Al10  1  0.845599  0.154745  0.103802  1
  Al  Al11  1  0.154401  0.845255  0.896198  1
  Al  Al12  1  0.159935  0.848050  0.600451  1
  Al  Al13  1  0.840065  0.151950  0.399549  1
  Al  Al14  1  0.857582  0.590420  0.748885  1
  Al  Al15  1  0.142418  0.409580  0.251115  1
  Al  Al16  1  0.412665  0.138954  0.745123  1
  Al  Al17  1  0.587335  0.861046  0.254877  1
  Al  Al18  1  0.226611  0.479324  0.749137  1
  Al  Al19  1  0.773389  0.520676  0.250863  1
  Al  Al20  1  0.519149  0.776722  0.743996  1
  Al  Al21  1  0.480851  0.223278  0.256004  1
  Fe  Fe22  1  0.500000  0.000000  0.500000  1
  Rh  Rh23  1  0.000000  0.500000  0.500000  1
  Rh  Rh24  1  0.000000  0.500000  0.000000  1
  Rh  Rh25  1  0.500000  0.000000  0.000000  1
