# generated using pymatgen
data_Tb4Er(InSb)2
_symmetry_space_group_name_H-M   'P 1'
_cell_length_a   8.82987221
_cell_length_b   8.82987330
_cell_length_c   8.12117300
_cell_angle_alpha   90.00000000
_cell_angle_beta   90.00000000
_cell_angle_gamma   125.17784696
_symmetry_Int_Tables_number   1
_chemical_formula_structural   Tb4Er(InSb)2
_chemical_formula_sum   'Tb8 Er2 In4 Sb4'
_cell_volume   517.54144005
_cell_formula_units_Z   2
loop_
 _symmetry_equiv_pos_site_id
 _symmetry_equiv_pos_as_xyz
  1  'x, y, z'
loop_
 _atom_site_type_symbol
 _atom_site_label
 _atom_site_symmetry_multiplicity
 _atom_site_fract_x
 _atom_site_fract_y
 _atom_site_fract_z
 _atom_site_occupancy
  Tb  Tb0  1  0.031689  0.306955  0.334172  1
  Tb  Tb1  1  0.968311  0.693045  0.665828  1
  Tb  Tb2  1  0.468311  0.193045  0.834172  1
  Tb  Tb3  1  0.806955  0.531689  0.165828  1
  Tb  Tb4  1  0.531689  0.806955  0.165828  1
  Tb  Tb5  1  0.193045  0.468311  0.834172  1
  Tb  Tb6  1  0.693045  0.968311  0.665828  1
  Tb  Tb7  1  0.306955  0.031689  0.334172  1
  Er  Er8  1  0.000000  0.000000  0.000000  1
  Er  Er9  1  0.500000  0.500000  0.500000  1
  In  In10  1  0.370233  0.370233  0.128873  1
  In  In11  1  0.629767  0.629767  0.871127  1
  In  In12  1  0.129767  0.129767  0.628873  1
  In  In13  1  0.870233  0.870233  0.371127  1
  Sb  Sb14  1  0.797587  0.202413  0.000000  1
  Sb  Sb15  1  0.202413  0.797587  0.000000  1
  Sb  Sb16  1  0.702413  0.297587  0.500000  1
  Sb  Sb17  1  0.297587  0.702413  0.500000  1
