# generated using pymatgen
data_Tb2PrThS6
_symmetry_space_group_name_H-M   'P 1'
_cell_length_a   3.98206500
_cell_length_b   10.52295303
_cell_length_c   10.83804206
_cell_angle_alpha   89.98942563
_cell_angle_beta   90.00000000
_cell_angle_gamma   90.00000000
_symmetry_Int_Tables_number   1
_chemical_formula_structural   Tb2PrThS6
_chemical_formula_sum   'Tb4 Pr2 Th2 S12'
_cell_volume   454.14736793
_cell_formula_units_Z   2
loop_
 _symmetry_equiv_pos_site_id
 _symmetry_equiv_pos_as_xyz
  1  'x, y, z'
loop_
 _atom_site_type_symbol
 _atom_site_label
 _atom_site_symmetry_multiplicity
 _atom_site_fract_x
 _atom_site_fract_y
 _atom_site_fract_z
 _atom_site_occupancy
  Tb  Tb0  1  0.250000  0.184291  0.490029  1
  Tb  Tb1  1  0.750000  0.815709  0.509971  1
  Tb  Tb2  1  0.750000  0.688095  0.011943  1
  Tb  Tb3  1  0.250000  0.311905  0.988057  1
  Pr  Pr4  1  0.250000  0.993810  0.806504  1
  Pr  Pr5  1  0.750000  0.006190  0.193496  1
  Th  Th6  1  0.750000  0.504084  0.695437  1
  Th  Th7  1  0.250000  0.495916  0.304563  1
  S  S8  1  0.250000  0.305135  0.724547  1
  S  S9  1  0.750000  0.694865  0.275453  1
  S  S10  1  0.750000  0.786972  0.766761  1
  S  S11  1  0.250000  0.213028  0.233239  1
  S  S12  1  0.250000  0.945415  0.382385  1
  S  S13  1  0.750000  0.054585  0.617615  1
  S  S14  1  0.750000  0.446418  0.115668  1
  S  S15  1  0.250000  0.553582  0.884332  1
  S  S16  1  0.250000  0.866988  0.047253  1
  S  S17  1  0.750000  0.133012  0.952747  1
  S  S18  1  0.750000  0.371373  0.456588  1
  S  S19  1  0.250000  0.628627  0.543412  1
