# generated using pymatgen
data_Tb16MgCd3CuRu3
_symmetry_space_group_name_H-M   'P 1'
_cell_length_a   9.68445844
_cell_length_b   9.71944159
_cell_length_c   9.71944303
_cell_angle_alpha   59.72645197
_cell_angle_beta   59.50991074
_cell_angle_gamma   59.50990589
_symmetry_Int_Tables_number   1
_chemical_formula_structural   Tb16MgCd3CuRu3
_chemical_formula_sum   'Tb16 Mg1 Cd3 Cu1 Ru3'
_cell_volume   640.75716275
_cell_formula_units_Z   1
loop_
 _symmetry_equiv_pos_site_id
 _symmetry_equiv_pos_as_xyz
  1  'x, y, z'
loop_
 _atom_site_type_symbol
 _atom_site_label
 _atom_site_symmetry_multiplicity
 _atom_site_fract_x
 _atom_site_fract_y
 _atom_site_fract_z
 _atom_site_occupancy
  Tb  Tb0  1  0.346399  0.351070  0.351070  1
  Tb  Tb1  1  0.345454  0.349825  0.956773  1
  Tb  Tb2  1  0.345454  0.956773  0.349825  1
  Tb  Tb3  1  0.963827  0.345098  0.345098  1
  Tb  Tb4  1  0.814583  0.189874  0.189874  1
  Tb  Tb5  1  0.185495  0.812030  0.812030  1
  Tb  Tb6  1  0.188542  0.810848  0.189052  1
  Tb  Tb7  1  0.815768  0.188366  0.806393  1
  Tb  Tb8  1  0.188542  0.189052  0.810848  1
  Tb  Tb9  1  0.815768  0.806393  0.188366  1
  Tb  Tb10  1  0.936758  0.562798  0.562798  1
  Tb  Tb11  1  0.557787  0.937810  0.937810  1
  Tb  Tb12  1  0.558145  0.938355  0.567124  1
  Tb  Tb13  1  0.936840  0.562296  0.938446  1
  Tb  Tb14  1  0.558145  0.567124  0.938355  1
  Tb  Tb15  1  0.936840  0.938446  0.562296  1
  Mg  Mg16  1  0.575769  0.574903  0.574903  1
  Cd  Cd17  1  0.581445  0.580374  0.256807  1
  Cd  Cd18  1  0.581445  0.256807  0.580374  1
  Cd  Cd19  1  0.255444  0.581079  0.581079  1
  Cu  Cu20  1  0.574934  0.143300  0.143300  1
  Ru  Ru21  1  0.145142  0.138639  0.138639  1
  Ru  Ru22  1  0.145737  0.140262  0.578478  1
  Ru  Ru23  1  0.145737  0.578478  0.140262  1
