# generated using pymatgen
data_CaLa7BiPd24
_symmetry_space_group_name_H-M   'P 1'
_cell_length_a   8.58870462
_cell_length_b   8.58870524
_cell_length_c   8.58870500
_cell_angle_alpha   89.96482349
_cell_angle_beta   89.96482349
_cell_angle_gamma   89.96482191
_symmetry_Int_Tables_number   1
_chemical_formula_structural   CaLa7BiPd24
_chemical_formula_sum   'Ca1 La7 Bi1 Pd24'
_cell_volume   633.55278662
_cell_formula_units_Z   1
loop_
 _symmetry_equiv_pos_site_id
 _symmetry_equiv_pos_as_xyz
  1  'x, y, z'
loop_
 _atom_site_type_symbol
 _atom_site_label
 _atom_site_symmetry_multiplicity
 _atom_site_fract_x
 _atom_site_fract_y
 _atom_site_fract_z
 _atom_site_occupancy
  Ca  Ca0  1  0.250583  0.250583  0.250583  1
  La  La1  1  0.747775  0.747775  0.747775  1
  La  La2  1  0.746862  0.746862  0.252391  1
  La  La3  1  0.746862  0.252391  0.746862  1
  La  La4  1  0.253383  0.253383  0.747305  1
  La  La5  1  0.253383  0.747305  0.253383  1
  La  La6  1  0.252391  0.746862  0.746862  1
  La  La7  1  0.747305  0.253383  0.253383  1
  Bi  Bi8  1  0.000534  0.000534  0.000534  1
  Pd  Pd9  1  0.270207  0.499724  0.001367  1
  Pd  Pd10  1  0.730221  0.499665  0.999356  1
  Pd  Pd11  1  0.001367  0.270207  0.499724  1
  Pd  Pd12  1  0.499724  0.270207  0.001367  1
  Pd  Pd13  1  0.999356  0.730221  0.499665  1
  Pd  Pd14  1  0.499665  0.730221  0.999356  1
  Pd  Pd15  1  0.499724  0.001367  0.270207  1
  Pd  Pd16  1  0.270207  0.001367  0.499724  1
  Pd  Pd17  1  0.499665  0.999356  0.730221  1
  Pd  Pd18  1  0.730221  0.999356  0.499665  1
  Pd  Pd19  1  0.001367  0.499724  0.270207  1
  Pd  Pd20  1  0.999356  0.499665  0.730221  1
  Pd  Pd21  1  0.256375  0.498895  0.498895  1
  Pd  Pd22  1  0.743308  0.500264  0.500264  1
  Pd  Pd23  1  0.498895  0.256375  0.498895  1
  Pd  Pd24  1  0.500264  0.743308  0.500264  1
  Pd  Pd25  1  0.498895  0.498895  0.256375  1
  Pd  Pd26  1  0.500264  0.500264  0.743308  1
  Pd  Pd27  1  0.322567  0.001170  0.001170  1
  Pd  Pd28  1  0.676445  0.000243  0.000243  1
  Pd  Pd29  1  0.001170  0.322567  0.001170  1
  Pd  Pd30  1  0.000243  0.676445  0.000243  1
  Pd  Pd31  1  0.001170  0.001170  0.322567  1
  Pd  Pd32  1  0.000243  0.000243  0.676445  1
