# generated using pymatgen
data_Y2NbIr3
_symmetry_space_group_name_H-M   'P 1'
_cell_length_a   5.27956725
_cell_length_b   5.65246333
_cell_length_c   5.65246400
_cell_angle_alpha   59.99999611
_cell_angle_beta   57.63471763
_cell_angle_gamma   57.63471923
_symmetry_Int_Tables_number   1
_chemical_formula_structural   Y2NbIr3
_chemical_formula_sum   'Y2 Nb1 Ir3'
_cell_volume   114.83376022
_cell_formula_units_Z   1
loop_
 _symmetry_equiv_pos_site_id
 _symmetry_equiv_pos_as_xyz
  1  'x, y, z'
loop_
 _atom_site_type_symbol
 _atom_site_label
 _atom_site_symmetry_multiplicity
 _atom_site_fract_x
 _atom_site_fract_y
 _atom_site_fract_z
 _atom_site_occupancy
  Y  Y0  1  0.503537  0.498821  0.498821  1
  Y  Y1  1  0.746463  0.751179  0.751179  1
  Nb  Nb2  1  0.625000  0.125000  0.125000  1
  Ir  Ir3  1  0.125000  0.125000  0.125000  1
  Ir  Ir4  1  0.125000  0.125000  0.625000  1
  Ir  Ir5  1  0.125000  0.625000  0.125000  1
