# generated using pymatgen
data_Dy16Cd4OsPt2Rh
_symmetry_space_group_name_H-M   'P 1'
_cell_length_a   9.64165757
_cell_length_b   9.62881321
_cell_length_c   9.68493608
_cell_angle_alpha   60.18726646
_cell_angle_beta   60.14771421
_cell_angle_gamma   59.95586591
_symmetry_Int_Tables_number   1
_chemical_formula_structural   Dy16Cd4OsPt2Rh
_chemical_formula_sum   'Dy16 Cd4 Os1 Pt2 Rh1'
_cell_volume   637.16977913
_cell_formula_units_Z   1
loop_
 _symmetry_equiv_pos_site_id
 _symmetry_equiv_pos_as_xyz
  1  'x, y, z'
loop_
 _atom_site_type_symbol
 _atom_site_label
 _atom_site_symmetry_multiplicity
 _atom_site_fract_x
 _atom_site_fract_y
 _atom_site_fract_z
 _atom_site_occupancy
  Dy  Dy0  1  0.562285  0.561294  0.934553  1
  Dy  Dy1  1  0.151228  0.552103  0.145442  1
  Dy  Dy2  1  0.691274  0.309658  0.307793  1
  Dy  Dy3  1  0.936377  0.563729  0.563517  1
  Dy  Dy4  1  0.941868  0.561294  0.934553  1
  Dy  Dy5  1  0.687508  0.693458  0.309799  1
  Dy  Dy6  1  0.562530  0.940904  0.934036  1
  Dy  Dy7  1  0.153239  0.150008  0.149232  1
  Dy  Dy8  1  0.309235  0.693458  0.309799  1
  Dy  Dy9  1  0.547521  0.150008  0.149232  1
  Dy  Dy10  1  0.309165  0.311252  0.693931  1
  Dy  Dy11  1  0.311386  0.687138  0.690089  1
  Dy  Dy12  1  0.150108  0.144583  0.555202  1
  Dy  Dy13  1  0.685652  0.311252  0.693931  1
  Dy  Dy14  1  0.936659  0.935605  0.562788  1
  Dy  Dy15  1  0.564948  0.935605  0.562788  1
  Cd  Cd16  1  0.918765  0.919107  0.918527  1
  Cd  Cd17  1  0.243601  0.919107  0.918527  1
  Cd  Cd18  1  0.918633  0.919136  0.243597  1
  Cd  Cd19  1  0.918682  0.244163  0.918473  1
  Os  Os20  1  0.357869  0.357107  0.927156  1
  Pt  Pt21  1  0.356222  0.356836  0.359141  1
  Pt  Pt22  1  0.927802  0.356836  0.359141  1
  Rh  Rh23  1  0.357444  0.926359  0.358753  1
