# generated using pymatgen
data_HoTm2Zr(Al3Ir)6
_symmetry_space_group_name_H-M   'P 1'
_cell_length_a   7.53084100
_cell_length_b   7.52288813
_cell_length_c   9.39607500
_cell_angle_alpha   90.00000000
_cell_angle_beta   90.00000000
_cell_angle_gamma   119.61331560
_symmetry_Int_Tables_number   1
_chemical_formula_structural   HoTm2Zr(Al3Ir)6
_chemical_formula_sum   'Ho1 Tm2 Zr1 Al18 Ir6'
_cell_volume   462.79031156
_cell_formula_units_Z   1
loop_
 _symmetry_equiv_pos_site_id
 _symmetry_equiv_pos_as_xyz
  1  'x, y, z'
loop_
 _atom_site_type_symbol
 _atom_site_label
 _atom_site_symmetry_multiplicity
 _atom_site_fract_x
 _atom_site_fract_y
 _atom_site_fract_z
 _atom_site_occupancy
  Ho  Ho0  1  0.006038  0.327291  0.750000  1
  Tm  Tm1  1  0.671365  0.995683  0.250000  1
  Tm  Tm2  1  0.328570  0.006635  0.750000  1
  Zr  Zr3  1  0.996385  0.671832  0.250000  1
  Al  Al4  1  0.125770  0.123578  0.250000  1
  Al  Al5  1  0.870858  0.869427  0.750000  1
  Al  Al6  1  0.999951  0.337377  0.078604  1
  Al  Al7  1  0.999682  0.665102  0.928542  1
  Al  Al8  1  0.999682  0.665102  0.571458  1
  Al  Al9  1  0.332902  0.998281  0.421360  1
  Al  Al10  1  0.999951  0.337377  0.421396  1
  Al  Al11  1  0.664208  0.998515  0.575140  1
  Al  Al12  1  0.664208  0.998515  0.924860  1
  Al  Al13  1  0.332902  0.998281  0.078640  1
  Al  Al14  1  0.333846  0.333712  0.551785  1
  Al  Al15  1  0.668951  0.667360  0.443039  1
  Al  Al16  1  0.668951  0.667360  0.056961  1
  Al  Al17  1  0.333846  0.333712  0.948215  1
  Al  Al18  1  0.336284  0.550022  0.250000  1
  Al  Al19  1  0.660545  0.451523  0.750000  1
  Al  Al20  1  0.554735  0.343602  0.250000  1
  Al  Al21  1  0.450590  0.659553  0.750000  1
  Ir  Ir22  1  0.672198  0.327638  0.000626  1
  Ir  Ir23  1  0.328054  0.672664  0.001334  1
  Ir  Ir24  1  0.328054  0.672664  0.498666  1
  Ir  Ir25  1  0.672198  0.327638  0.499374  1
  Ir  Ir26  1  0.999642  0.999776  0.000499  1
  Ir  Ir27  1  0.999642  0.999776  0.499501  1
