# generated using pymatgen
data_Pr10SnBi5N2
_symmetry_space_group_name_H-M   'P 1'
_cell_length_a   9.47234910
_cell_length_b   9.46993091
_cell_length_c   6.65302200
_cell_angle_alpha   90.00000000
_cell_angle_beta   90.00000000
_cell_angle_gamma   119.99155279
_symmetry_Int_Tables_number   1
_chemical_formula_structural   Pr10SnBi5N2
_chemical_formula_sum   'Pr10 Sn1 Bi5 N2'
_cell_volume   516.88158283
_cell_formula_units_Z   1
loop_
 _symmetry_equiv_pos_site_id
 _symmetry_equiv_pos_as_xyz
  1  'x, y, z'
loop_
 _atom_site_type_symbol
 _atom_site_label
 _atom_site_symmetry_multiplicity
 _atom_site_fract_x
 _atom_site_fract_y
 _atom_site_fract_z
 _atom_site_occupancy
  Pr  Pr0  1  0.669622  0.333956  0.001174  1
  Pr  Pr1  1  0.330378  0.664336  0.001174  1
  Pr  Pr2  1  0.330378  0.664336  0.498826  1
  Pr  Pr3  1  0.669622  0.333956  0.498826  1
  Pr  Pr4  1  0.786602  0.786749  0.750000  1
  Pr  Pr5  1  0.213398  0.000147  0.750000  1
  Pr  Pr6  1  0.000000  0.216293  0.750000  1
  Pr  Pr7  1  0.211221  0.215197  0.250000  1
  Pr  Pr8  1  0.788779  0.003976  0.250000  1
  Pr  Pr9  1  0.000000  0.783539  0.250000  1
  Sn  Sn10  1  0.000000  0.400945  0.250000  1
  Bi  Bi11  1  0.400728  0.400066  0.750000  1
  Bi  Bi12  1  0.599272  0.999338  0.750000  1
  Bi  Bi13  1  0.000000  0.598816  0.750000  1
  Bi  Bi14  1  0.599723  0.600246  0.250000  1
  Bi  Bi15  1  0.400277  0.000523  0.250000  1
  N  N16  1  0.000000  0.998790  0.999317  1
  N  N17  1  0.000000  0.998790  0.500683  1
