# generated using pymatgen
data_Y4MgCo16(P4Ru)3
_symmetry_space_group_name_H-M   'P 1'
_cell_length_a   3.70068500
_cell_length_b   10.40600731
_cell_length_c   11.85968319
_cell_angle_alpha   90.18336228
_cell_angle_beta   90.00000000
_cell_angle_gamma   90.00000000
_symmetry_Int_Tables_number   1
_chemical_formula_structural   Y4MgCo16(P4Ru)3
_chemical_formula_sum   'Y4 Mg1 Co16 P12 Ru3'
_cell_volume   456.70641358
_cell_formula_units_Z   1
loop_
 _symmetry_equiv_pos_site_id
 _symmetry_equiv_pos_as_xyz
  1  'x, y, z'
loop_
 _atom_site_type_symbol
 _atom_site_label
 _atom_site_symmetry_multiplicity
 _atom_site_fract_x
 _atom_site_fract_y
 _atom_site_fract_z
 _atom_site_occupancy
  Y  Y0  1  0.250000  0.915423  0.200787  1
  Y  Y1  1  0.750000  0.085260  0.796717  1
  Y  Y2  1  0.750000  0.415502  0.294865  1
  Y  Y3  1  0.250000  0.583553  0.706536  1
  Mg  Mg4  1  0.250000  0.795265  0.489805  1
  Co  Co5  1  0.250000  0.092382  0.990023  1
  Co  Co6  1  0.750000  0.909569  0.012112  1
  Co  Co7  1  0.750000  0.590230  0.511904  1
  Co  Co8  1  0.250000  0.404072  0.488887  1
  Co  Co9  1  0.250000  0.277324  0.676669  1
  Co  Co10  1  0.750000  0.720968  0.320695  1
  Co  Co11  1  0.750000  0.780471  0.829207  1
  Co  Co12  1  0.250000  0.221639  0.175823  1
  Co  Co13  1  0.250000  0.610677  0.200422  1
  Co  Co14  1  0.750000  0.386833  0.796868  1
  Co  Co15  1  0.750000  0.116424  0.297941  1
  Co  Co16  1  0.250000  0.884810  0.702762  1
  Co  Co17  1  0.250000  0.036759  0.431553  1
  Co  Co18  1  0.750000  0.964564  0.566992  1
  Co  Co19  1  0.750000  0.533797  0.067902  1
  Co  Co20  1  0.250000  0.464740  0.930222  1
  P  P21  1  0.250000  0.079130  0.612918  1
  P  P22  1  0.750000  0.924228  0.381313  1
  P  P23  1  0.750000  0.579916  0.888842  1
  P  P24  1  0.250000  0.419430  0.110492  1
  P  P25  1  0.250000  0.230389  0.365932  1
  P  P26  1  0.750000  0.771687  0.642938  1
  P  P27  1  0.750000  0.726620  0.133162  1
  P  P28  1  0.250000  0.271840  0.866179  1
  P  P29  1  0.250000  0.904629  0.892774  1
  P  P30  1  0.750000  0.097712  0.109636  1
  P  P31  1  0.750000  0.402513  0.608466  1
  P  P32  1  0.250000  0.592150  0.388823  1
  Ru  Ru33  1  0.750000  0.209898  0.510304  1
  Ru  Ru34  1  0.750000  0.282847  0.006198  1
  Ru  Ru35  1  0.250000  0.716751  0.993331  1
