# generated using pymatgen
data_BaCdFe(PO4)2
_symmetry_space_group_name_H-M   'P 1'
_cell_length_a   5.75584993
_cell_length_b   7.01772824
_cell_length_c   9.81749072
_cell_angle_alpha   109.03652354
_cell_angle_beta   101.12215498
_cell_angle_gamma   97.96582029
_symmetry_Int_Tables_number   1
_chemical_formula_structural   BaCdFe(PO4)2
_chemical_formula_sum   'Ba2 Cd2 Fe2 P4 O16'
_cell_volume   359.04531609
_cell_formula_units_Z   2
loop_
 _symmetry_equiv_pos_site_id
 _symmetry_equiv_pos_as_xyz
  1  'x, y, z'
loop_
 _atom_site_type_symbol
 _atom_site_label
 _atom_site_symmetry_multiplicity
 _atom_site_fract_x
 _atom_site_fract_y
 _atom_site_fract_z
 _atom_site_occupancy
  Ba  Ba0  1  0.263233  0.804842  0.062827  1
  Ba  Ba1  1  0.736767  0.195158  0.937173  1
  Cd  Cd2  1  0.014365  0.417913  0.656639  1
  Cd  Cd3  1  0.985635  0.582087  0.343361  1
  Fe  Fe4  1  0.632151  0.843533  0.554350  1
  Fe  Fe5  1  0.367849  0.156467  0.445650  1
  P  P6  1  0.390142  0.426893  0.235618  1
  P  P7  1  0.609858  0.573107  0.764382  1
  P  P8  1  0.845528  0.038302  0.308289  1
  P  P9  1  0.154472  0.961698  0.691711  1
  O  O10  1  0.838007  0.553146  0.870117  1
  O  O11  1  0.620033  0.475171  0.180938  1
  O  O12  1  0.644322  0.789013  0.754444  1
  O  O13  1  0.951944  0.089953  0.676030  1
  O  O14  1  0.379967  0.524829  0.819062  1
  O  O15  1  0.018520  0.730632  0.592254  1
  O  O16  1  0.981480  0.269368  0.407746  1
  O  O17  1  0.245949  0.992204  0.856135  1
  O  O18  1  0.355678  0.210987  0.245556  1
  O  O19  1  0.754051  0.007796  0.143865  1
  O  O20  1  0.161993  0.446854  0.129883  1
  O  O21  1  0.407434  0.592960  0.392190  1
  O  O22  1  0.592566  0.407040  0.607810  1
  O  O23  1  0.633569  0.969526  0.372563  1
  O  O24  1  0.048056  0.910047  0.323970  1
  O  O25  1  0.366431  0.030474  0.627437  1
