# generated using pymatgen
data_Rb12Co3NiBr20
_symmetry_space_group_name_H-M   'P 1'
_cell_length_a   9.18087607
_cell_length_b   10.66438200
_cell_length_c   13.82346512
_cell_angle_alpha   90.00000000
_cell_angle_beta   90.02191317
_cell_angle_gamma   90.00000000
_symmetry_Int_Tables_number   1
_chemical_formula_structural   Rb12Co3NiBr20
_chemical_formula_sum   'Rb12 Co3 Ni1 Br20'
_cell_volume   1353.43283263
_cell_formula_units_Z   1
loop_
 _symmetry_equiv_pos_site_id
 _symmetry_equiv_pos_as_xyz
  1  'x, y, z'
loop_
 _atom_site_type_symbol
 _atom_site_label
 _atom_site_symmetry_multiplicity
 _atom_site_fract_x
 _atom_site_fract_y
 _atom_site_fract_z
 _atom_site_occupancy
  Rb  Rb0  1  0.910474  0.020624  0.670086  1
  Rb  Rb1  1  0.590391  0.979232  0.172014  1
  Rb  Rb2  1  0.590391  0.520768  0.172014  1
  Rb  Rb3  1  0.085845  0.518619  0.328960  1
  Rb  Rb4  1  0.085845  0.981381  0.328960  1
  Rb  Rb5  1  0.410124  0.020561  0.829070  1
  Rb  Rb6  1  0.584617  0.750000  0.454821  1
  Rb  Rb7  1  0.914413  0.250000  0.955719  1
  Rb  Rb8  1  0.085717  0.750000  0.045287  1
  Rb  Rb9  1  0.415581  0.250000  0.543135  1
  Rb  Rb10  1  0.410124  0.479439  0.829070  1
  Rb  Rb11  1  0.910474  0.479376  0.670086  1
  Co  Co12  1  0.688990  0.750000  0.891650  1
  Co  Co13  1  0.310999  0.250000  0.108283  1
  Co  Co14  1  0.190249  0.750000  0.607888  1
  Ni  Ni15  1  0.798431  0.250000  0.396487  1
  Br  Br16  1  0.657397  0.250000  0.735270  1
  Br  Br17  1  0.312695  0.558568  0.565992  1
  Br  Br18  1  0.862347  0.250000  0.228850  1
  Br  Br19  1  0.841777  0.750000  0.235174  1
  Br  Br20  1  0.637691  0.750000  0.722236  1
  Br  Br21  1  0.700108  0.451463  0.431254  1
  Br  Br22  1  0.812027  0.559451  0.933745  1
  Br  Br23  1  0.533302  0.250000  0.015868  1
  Br  Br24  1  0.968220  0.750000  0.515633  1
  Br  Br25  1  0.158006  0.250000  0.762630  1
  Br  Br26  1  0.812027  0.940549  0.933745  1
  Br  Br27  1  0.312695  0.941432  0.565992  1
  Br  Br28  1  0.339860  0.750000  0.264296  1
  Br  Br29  1  0.187870  0.059840  0.065541  1
  Br  Br30  1  0.700108  0.048537  0.431254  1
  Br  Br31  1  0.138718  0.750000  0.777231  1
  Br  Br32  1  0.362722  0.250000  0.278280  1
  Br  Br33  1  0.024935  0.250000  0.483667  1
  Br  Br34  1  0.187870  0.440160  0.065541  1
  Br  Br35  1  0.466951  0.750000  0.984277  1
