# generated using pymatgen
data_Ho16Tl2CdAgRh4
_symmetry_space_group_name_H-M   'P 1'
_cell_length_a   9.61075254
_cell_length_b   9.59320001
_cell_length_c   9.61075254
_cell_angle_alpha   59.73653974
_cell_angle_beta   59.76511708
_cell_angle_gamma   59.73654546
_symmetry_Int_Tables_number   1
_chemical_formula_structural   Ho16Tl2CdAgRh4
_chemical_formula_sum   'Ho16 Tl2 Cd1 Ag1 Rh4'
_cell_volume   622.94778996
_cell_formula_units_Z   1
loop_
 _symmetry_equiv_pos_site_id
 _symmetry_equiv_pos_as_xyz
  1  'x, y, z'
loop_
 _atom_site_type_symbol
 _atom_site_label
 _atom_site_symmetry_multiplicity
 _atom_site_fract_x
 _atom_site_fract_y
 _atom_site_fract_z
 _atom_site_occupancy
  Ho  Ho0  1  0.937456  0.937094  0.565997  1
  Ho  Ho1  1  0.565595  0.559342  0.938254  1
  Ho  Ho2  1  0.688569  0.689403  0.311896  1
  Ho  Ho3  1  0.148763  0.552138  0.148763  1
  Ho  Ho4  1  0.688042  0.313388  0.688042  1
  Ho  Ho5  1  0.150238  0.150195  0.150238  1
  Ho  Ho6  1  0.551075  0.148875  0.148447  1
  Ho  Ho7  1  0.689751  0.311119  0.309983  1
  Ho  Ho8  1  0.148447  0.148875  0.551075  1
  Ho  Ho9  1  0.309385  0.691329  0.309385  1
  Ho  Ho10  1  0.311896  0.689403  0.688569  1
  Ho  Ho11  1  0.938254  0.559342  0.565595  1
  Ho  Ho12  1  0.937950  0.563883  0.937950  1
  Ho  Ho13  1  0.562120  0.937932  0.562120  1
  Ho  Ho14  1  0.565997  0.937094  0.937456  1
  Ho  Ho15  1  0.309983  0.311119  0.689751  1
  Tl  Tl16  1  0.914054  0.917620  0.252605  1
  Tl  Tl17  1  0.252605  0.917620  0.914054  1
  Cd  Cd18  1  0.917258  0.246062  0.917258  1
  Ag  Ag19  1  0.914680  0.918164  0.914680  1
  Rh  Rh20  1  0.356227  0.357379  0.927919  1
  Rh  Rh21  1  0.357050  0.927829  0.357050  1
  Rh  Rh22  1  0.927919  0.357379  0.356227  1
  Rh  Rh23  1  0.356688  0.357415  0.356688  1
