# generated using pymatgen
data_Sc2Fe7Co5P7
_symmetry_space_group_name_H-M   'P 1'
_cell_length_a   8.87948407
_cell_length_b   8.89988112
_cell_length_c   3.55495200
_cell_angle_alpha   90.00000000
_cell_angle_beta   90.00000000
_cell_angle_gamma   119.98052548
_symmetry_Int_Tables_number   1
_chemical_formula_structural   Sc2Fe7Co5P7
_chemical_formula_sum   'Sc2 Fe7 Co5 P7'
_cell_volume   243.34448199
_cell_formula_units_Z   1
loop_
 _symmetry_equiv_pos_site_id
 _symmetry_equiv_pos_as_xyz
  1  'x, y, z'
loop_
 _atom_site_type_symbol
 _atom_site_label
 _atom_site_symmetry_multiplicity
 _atom_site_fract_x
 _atom_site_fract_y
 _atom_site_fract_z
 _atom_site_occupancy
  Sc  Sc0  1  0.667225  0.333617  0.000000  1
  Sc  Sc1  1  0.998539  0.000040  0.500000  1
  Fe  Fe2  1  0.766502  0.037355  0.000000  1
  Fe  Fe3  1  0.719310  0.616804  0.500000  1
  Fe  Fe4  1  0.383821  0.102292  0.500000  1
  Fe  Fe5  1  0.897890  0.282655  0.500000  1
  Fe  Fe6  1  0.553632  0.791593  0.500000  1
  Fe  Fe7  1  0.206532  0.763061  0.500000  1
  Fe  Fe8  1  0.237172  0.442819  0.500000  1
  Co  Co9  1  0.963332  0.730286  0.000000  1
  Co  Co10  1  0.269986  0.232938  0.000000  1
  Co  Co11  1  0.490616  0.546863  0.000000  1
  Co  Co12  1  0.452218  0.942505  0.000000  1
  Co  Co13  1  0.058400  0.510400  0.000000  1
  P  P14  1  0.745673  0.783031  0.000000  1
  P  P15  1  0.217499  0.963867  0.000000  1
  P  P16  1  0.035341  0.253452  0.000000  1
  P  P17  1  0.452976  0.376835  0.500000  1
  P  P18  1  0.624361  0.074740  0.500000  1
  P  P19  1  0.924872  0.548126  0.500000  1
  P  P20  1  0.334101  0.666722  0.000000  1
