# generated using pymatgen
data_Ce6Zn4Pt13
_symmetry_space_group_name_H-M   'P 1'
_cell_length_a   8.36524980
_cell_length_b   8.36524943
_cell_length_c   8.36525000
_cell_angle_alpha   109.47122443
_cell_angle_beta   109.47122355
_cell_angle_gamma   109.47122202
_symmetry_Int_Tables_number   1
_chemical_formula_structural   Ce6Zn4Pt13
_chemical_formula_sum   'Ce6 Zn4 Pt13'
_cell_volume   450.62449935
_cell_formula_units_Z   1
loop_
 _symmetry_equiv_pos_site_id
 _symmetry_equiv_pos_as_xyz
  1  'x, y, z'
loop_
 _atom_site_type_symbol
 _atom_site_label
 _atom_site_symmetry_multiplicity
 _atom_site_fract_x
 _atom_site_fract_y
 _atom_site_fract_z
 _atom_site_occupancy
  Ce  Ce0  1  0.698698  0.698698  0.000000  1
  Ce  Ce1  1  0.301302  0.000000  0.301302  1
  Ce  Ce2  1  0.000000  0.301302  0.301302  1
  Ce  Ce3  1  0.301302  0.301302  0.000000  1
  Ce  Ce4  1  0.698698  0.000000  0.698698  1
  Ce  Ce5  1  0.000000  0.698698  0.698698  1
  Zn  Zn6  1  0.000000  0.000000  0.500000  1
  Zn  Zn7  1  0.000000  0.500000  0.000000  1
  Zn  Zn8  1  0.500000  0.000000  0.000000  1
  Zn  Zn9  1  0.500000  0.500000  0.500000  1
  Pt  Pt10  1  0.329158  0.329158  0.658316  1
  Pt  Pt11  1  0.670842  0.000000  0.329158  1
  Pt  Pt12  1  0.000000  0.670842  0.329158  1
  Pt  Pt13  1  0.670842  0.329158  0.000000  1
  Pt  Pt14  1  0.329158  0.658316  0.329158  1
  Pt  Pt15  1  0.000000  0.329158  0.670842  1
  Pt  Pt16  1  0.329158  0.670842  0.000000  1
  Pt  Pt17  1  0.329158  0.000000  0.670842  1
  Pt  Pt18  1  0.658316  0.329158  0.329158  1
  Pt  Pt19  1  0.670842  0.670842  0.341684  1
  Pt  Pt20  1  0.670842  0.341684  0.670842  1
  Pt  Pt21  1  0.341684  0.670842  0.670842  1
  Pt  Pt22  1  0.000000  0.000000  0.000000  1
