# generated using pymatgen
data_CeI16
_symmetry_space_group_name_H-M   'P 1'
_cell_length_a   9.04610787
_cell_length_b   11.20001082
_cell_length_c   12.86272557
_cell_angle_alpha   103.64766745
_cell_angle_beta   97.34818648
_cell_angle_gamma   121.95221997
_symmetry_Int_Tables_number   1
_chemical_formula_structural   CeI16
_chemical_formula_sum   'Ce1 I16'
_cell_volume   1022.79960461
_cell_formula_units_Z   1
loop_
 _symmetry_equiv_pos_site_id
 _symmetry_equiv_pos_as_xyz
  1  'x, y, z'
loop_
 _atom_site_type_symbol
 _atom_site_label
 _atom_site_symmetry_multiplicity
 _atom_site_fract_x
 _atom_site_fract_y
 _atom_site_fract_z
 _atom_site_occupancy
  Ce  Ce0  1  0.500000  0.500000  0.500000  1
  I  I1  1  0.536256  0.235317  0.489446  1
  I  I2  1  0.463744  0.764683  0.510554  1
  I  I3  1  0.168219  0.301929  0.300524  1
  I  I4  1  0.831781  0.698071  0.699476  1
  I  I5  1  0.709134  0.563449  0.321096  1
  I  I6  1  0.290866  0.436551  0.678904  1
  I  I7  1  0.067793  0.969878  0.174835  1
  I  I8  1  0.932207  0.030122  0.825165  1
  I  I9  1  0.050327  0.318202  0.947397  1
  I  I10  1  0.949673  0.681798  0.052603  1
  I  I11  1  0.579990  0.011776  0.119026  1
  I  I12  1  0.420010  0.988224  0.880974  1
  I  I13  1  0.076050  0.657461  0.418925  1
  I  I14  1  0.923950  0.342539  0.581075  1
  I  I15  1  0.468977  0.124826  0.722733  1
  I  I16  1  0.531023  0.875174  0.277267  1
