# generated using pymatgen
data_Ba2Bi3SbAu4
_symmetry_space_group_name_H-M   'P 1'
_cell_length_a   4.88363300
_cell_length_b   5.02733244
_cell_length_c   11.92922762
_cell_angle_alpha   88.18457086
_cell_angle_beta   90.00000000
_cell_angle_gamma   90.00000000
_symmetry_Int_Tables_number   1
_chemical_formula_structural   Ba2Bi3SbAu4
_chemical_formula_sum   'Ba2 Bi3 Sb1 Au4'
_cell_volume   292.73517297
_cell_formula_units_Z   1
loop_
 _symmetry_equiv_pos_site_id
 _symmetry_equiv_pos_as_xyz
  1  'x, y, z'
loop_
 _atom_site_type_symbol
 _atom_site_label
 _atom_site_symmetry_multiplicity
 _atom_site_fract_x
 _atom_site_fract_y
 _atom_site_fract_z
 _atom_site_occupancy
  Ba  Ba0  1  0.250000  0.736697  0.761535  1
  Ba  Ba1  1  0.750000  0.274030  0.238406  1
  Bi  Bi2  1  0.750000  0.751617  0.503390  1
  Bi  Bi3  1  0.250000  0.245088  0.502603  1
  Bi  Bi4  1  0.250000  0.808100  0.121989  1
  Sb  Sb5  1  0.750000  0.190008  0.880175  1
  Au  Au6  1  0.750000  0.683647  0.990648  1
  Au  Au7  1  0.750000  0.246539  0.651848  1
  Au  Au8  1  0.250000  0.749514  0.358527  1
  Au  Au9  1  0.250000  0.314760  0.990879  1
