# generated using pymatgen
data_Sm4Y3Ho(ReB6)4
_symmetry_space_group_name_H-M   'P 1'
_cell_length_a   3.71612100
_cell_length_b   9.23373301
_cell_length_c   11.66140201
_cell_angle_alpha   90.00508915
_cell_angle_beta   90.00000000
_cell_angle_gamma   90.00000000
_symmetry_Int_Tables_number   1
_chemical_formula_structural   Sm4Y3Ho(ReB6)4
_chemical_formula_sum   'Sm4 Y3 Ho1 Re4 B24'
_cell_volume   400.14548879
_cell_formula_units_Z   1
loop_
 _symmetry_equiv_pos_site_id
 _symmetry_equiv_pos_as_xyz
  1  'x, y, z'
loop_
 _atom_site_type_symbol
 _atom_site_label
 _atom_site_symmetry_multiplicity
 _atom_site_fract_x
 _atom_site_fract_y
 _atom_site_fract_z
 _atom_site_occupancy
  Sm  Sm0  1  0.000000  0.323394  0.414097  1
  Sm  Sm1  1  0.000000  0.676581  0.586002  1
  Sm  Sm2  1  0.000000  0.823285  0.085840  1
  Sm  Sm3  1  0.000000  0.176727  0.914073  1
  Y  Y4  1  0.000000  0.942941  0.369700  1
  Y  Y5  1  0.000000  0.057052  0.630354  1
  Y  Y6  1  0.000000  0.443022  0.130140  1
  Ho  Ho7  1  0.000000  0.557161  0.869448  1
  Re  Re8  1  0.000000  0.638917  0.320111  1
  Re  Re9  1  0.000000  0.361381  0.680215  1
  Re  Re10  1  0.000000  0.138937  0.179851  1
  Re  Re11  1  0.000000  0.860581  0.820172  1
  B  B12  1  0.500000  0.554239  0.431503  1
  B  B13  1  0.500000  0.445771  0.568563  1
  B  B14  1  0.500000  0.054228  0.068497  1
  B  B15  1  0.500000  0.945697  0.931468  1
  B  B16  1  0.500000  0.749118  0.416938  1
  B  B17  1  0.500000  0.250911  0.583080  1
  B  B18  1  0.500000  0.249136  0.083048  1
  B  B19  1  0.500000  0.750484  0.916856  1
  B  B20  1  0.500000  0.791369  0.265821  1
  B  B21  1  0.500000  0.208721  0.734193  1
  B  B22  1  0.500000  0.291389  0.234167  1
  B  B23  1  0.500000  0.708316  0.766021  1
  B  B24  1  0.500000  0.630401  0.186224  1
  B  B25  1  0.500000  0.369959  0.813869  1
  B  B26  1  0.500000  0.130415  0.313742  1
  B  B27  1  0.500000  0.869526  0.686308  1
  B  B28  1  0.500000  0.983394  0.212426  1
  B  B29  1  0.500000  0.016551  0.787590  1
  B  B30  1  0.500000  0.483392  0.287557  1
  B  B31  1  0.500000  0.516713  0.712744  1
  B  B32  1  0.500000  0.597992  0.026928  1
  B  B33  1  0.500000  0.402301  0.972443  1
  B  B34  1  0.500000  0.098123  0.472702  1
  B  B35  1  0.500000  0.901876  0.527311  1
