# generated using pymatgen
data_Dy4GaBr6
_symmetry_space_group_name_H-M   'P 1'
_cell_length_a   4.04287700
_cell_length_b   13.29409100
_cell_length_c   14.05287900
_cell_angle_alpha   90.00000000
_cell_angle_beta   90.00000000
_cell_angle_gamma   90.00000000
_symmetry_Int_Tables_number   1
_chemical_formula_structural   Dy4GaBr6
_chemical_formula_sum   'Dy8 Ga2 Br12'
_cell_volume   755.29130091
_cell_formula_units_Z   2
loop_
 _symmetry_equiv_pos_site_id
 _symmetry_equiv_pos_as_xyz
  1  'x, y, z'
loop_
 _atom_site_type_symbol
 _atom_site_label
 _atom_site_symmetry_multiplicity
 _atom_site_fract_x
 _atom_site_fract_y
 _atom_site_fract_z
 _atom_site_occupancy
  Dy  Dy0  1  0.500000  0.118638  0.339472  1
  Dy  Dy1  1  0.500000  0.881362  0.660528  1
  Dy  Dy2  1  0.500000  0.618638  0.160528  1
  Dy  Dy3  1  0.500000  0.381362  0.839472  1
  Dy  Dy4  1  0.000000  0.121488  0.580537  1
  Dy  Dy5  1  0.000000  0.878512  0.419463  1
  Dy  Dy6  1  0.000000  0.621488  0.919463  1
  Dy  Dy7  1  0.000000  0.378512  0.080537  1
  Ga  Ga8  1  0.500000  0.000000  0.500000  1
  Ga  Ga9  1  0.500000  0.500000  0.000000  1
  Br  Br10  1  0.500000  0.244887  0.165056  1
  Br  Br11  1  0.500000  0.755113  0.834944  1
  Br  Br12  1  0.500000  0.744887  0.334944  1
  Br  Br13  1  0.500000  0.255113  0.665056  1
  Br  Br14  1  0.000000  0.255543  0.411010  1
  Br  Br15  1  0.000000  0.744457  0.588990  1
  Br  Br16  1  0.000000  0.755543  0.088990  1
  Br  Br17  1  0.000000  0.244457  0.911010  1
  Br  Br18  1  0.000000  0.001365  0.242351  1
  Br  Br19  1  0.000000  0.998635  0.757649  1
  Br  Br20  1  0.000000  0.501365  0.257649  1
  Br  Br21  1  0.000000  0.498635  0.742351  1
