# generated using pymatgen
data_Hf3SiN
_symmetry_space_group_name_H-M   'P 1'
_cell_length_a   5.81676356
_cell_length_b   5.81676362
_cell_length_c   8.54552000
_cell_angle_alpha   90.00000000
_cell_angle_beta   90.00000000
_cell_angle_gamma   146.31070464
_symmetry_Int_Tables_number   1
_chemical_formula_structural   Hf3SiN
_chemical_formula_sum   'Hf6 Si2 N2'
_cell_volume   160.38024097
_cell_formula_units_Z   2
loop_
 _symmetry_equiv_pos_site_id
 _symmetry_equiv_pos_as_xyz
  1  'x, y, z'
loop_
 _atom_site_type_symbol
 _atom_site_label
 _atom_site_symmetry_multiplicity
 _atom_site_fract_x
 _atom_site_fract_y
 _atom_site_fract_z
 _atom_site_occupancy
  Hf  Hf0  1  0.632101  0.367899  0.447346  1
  Hf  Hf1  1  0.367899  0.632101  0.552654  1
  Hf  Hf2  1  0.632101  0.367899  0.052654  1
  Hf  Hf3  1  0.367899  0.632101  0.947346  1
  Hf  Hf4  1  0.944998  0.055002  0.250000  1
  Hf  Hf5  1  0.055002  0.944998  0.750000  1
  Si  Si6  1  0.256180  0.743820  0.250000  1
  Si  Si7  1  0.743820  0.256180  0.750000  1
  N  N8  1  0.000000  0.000000  0.500000  1
  N  N9  1  0.000000  0.000000  0.000000  1
