# generated using pymatgen
data_Ac4NdCoBi2
_symmetry_space_group_name_H-M   'P 1'
_cell_length_a   8.73399900
_cell_length_b   9.45624300
_cell_length_c   13.21274500
_cell_angle_alpha   90.00000000
_cell_angle_beta   90.00000000
_cell_angle_gamma   90.00000000
_symmetry_Int_Tables_number   1
_chemical_formula_structural   Ac4NdCoBi2
_chemical_formula_sum   'Ac16 Nd4 Co4 Bi8'
_cell_volume   1091.25140312
_cell_formula_units_Z   4
loop_
 _symmetry_equiv_pos_site_id
 _symmetry_equiv_pos_as_xyz
  1  'x, y, z'
loop_
 _atom_site_type_symbol
 _atom_site_label
 _atom_site_symmetry_multiplicity
 _atom_site_fract_x
 _atom_site_fract_y
 _atom_site_fract_z
 _atom_site_occupancy
  Ac  Ac0  1  0.848676  0.750000  0.797366  1
  Ac  Ac1  1  0.151324  0.250000  0.202634  1
  Ac  Ac2  1  0.348676  0.250000  0.702634  1
  Ac  Ac3  1  0.651324  0.750000  0.297366  1
  Ac  Ac4  1  0.378507  0.750000  0.694038  1
  Ac  Ac5  1  0.621493  0.250000  0.305962  1
  Ac  Ac6  1  0.878507  0.250000  0.805962  1
  Ac  Ac7  1  0.121493  0.750000  0.194038  1
  Ac  Ac8  1  0.681320  0.037877  0.565258  1
  Ac  Ac9  1  0.318680  0.962123  0.434742  1
  Ac  Ac10  1  0.181320  0.962123  0.934742  1
  Ac  Ac11  1  0.318680  0.537877  0.434742  1
  Ac  Ac12  1  0.818680  0.037877  0.065258  1
  Ac  Ac13  1  0.681320  0.462123  0.565258  1
  Ac  Ac14  1  0.818680  0.462123  0.065258  1
  Ac  Ac15  1  0.181320  0.537877  0.934742  1
  Nd  Nd16  1  0.944279  0.750000  0.505153  1
  Nd  Nd17  1  0.055721  0.250000  0.494847  1
  Nd  Nd18  1  0.444279  0.250000  0.994847  1
  Nd  Nd19  1  0.555721  0.750000  0.005153  1
  Co  Co20  1  0.582285  0.750000  0.510783  1
  Co  Co21  1  0.417715  0.250000  0.489217  1
  Co  Co22  1  0.082285  0.250000  0.989217  1
  Co  Co23  1  0.917715  0.750000  0.010783  1
  Bi  Bi24  1  0.572376  0.494288  0.833693  1
  Bi  Bi25  1  0.427624  0.505712  0.166307  1
  Bi  Bi26  1  0.072376  0.505712  0.666307  1
  Bi  Bi27  1  0.427624  0.994288  0.166307  1
  Bi  Bi28  1  0.927624  0.494288  0.333693  1
  Bi  Bi29  1  0.572376  0.005712  0.833693  1
  Bi  Bi30  1  0.927624  0.005712  0.333693  1
  Bi  Bi31  1  0.072376  0.994288  0.666307  1
