# generated using pymatgen
data_Tb8Dy2Ga3NiBi2
_symmetry_space_group_name_H-M   'P 1'
_cell_length_a   8.60163788
_cell_length_b   8.60163874
_cell_length_c   8.79207298
_cell_angle_alpha   124.15954196
_cell_angle_beta   124.15954567
_cell_angle_gamma   81.49701156
_symmetry_Int_Tables_number   1
_chemical_formula_structural   Tb8Dy2Ga3NiBi2
_chemical_formula_sum   'Tb8 Dy2 Ga3 Ni1 Bi2'
_cell_volume   431.89616133
_cell_formula_units_Z   1
loop_
 _symmetry_equiv_pos_site_id
 _symmetry_equiv_pos_as_xyz
  1  'x, y, z'
loop_
 _atom_site_type_symbol
 _atom_site_label
 _atom_site_symmetry_multiplicity
 _atom_site_fract_x
 _atom_site_fract_y
 _atom_site_fract_z
 _atom_site_occupancy
  Tb  Tb0  1  0.779710  0.296850  0.795612  1
  Tb  Tb1  1  0.203150  0.720290  0.204388  1
  Tb  Tb2  1  0.484098  0.001239  0.204388  1
  Tb  Tb3  1  0.303892  0.459047  0.500000  1
  Tb  Tb4  1  0.040953  0.196108  0.500000  1
  Tb  Tb5  1  0.498761  0.015902  0.795612  1
  Tb  Tb6  1  0.706162  0.516439  0.500000  1
  Tb  Tb7  1  0.983561  0.793838  0.500000  1
  Dy  Dy8  1  0.993918  0.996666  0.990585  1
  Dy  Dy9  1  0.503334  0.506082  0.009415  1
  Ga  Ga10  1  0.147807  0.645068  0.792874  1
  Ga  Ga11  1  0.854932  0.352193  0.207126  1
  Ga  Ga12  1  0.634321  0.865679  0.500000  1
  Ni  Ni13  1  0.376902  0.123098  0.500000  1
  Bi  Bi14  1  0.244248  0.255752  0.000000  1
  Bi  Bi15  1  0.744248  0.755752  0.000000  1
