# generated using pymatgen
data_Ho8Er12CoBi8Ru3
_symmetry_space_group_name_H-M   'P 1'
_cell_length_a   7.92331169
_cell_length_b   8.95199300
_cell_length_c   12.36306506
_cell_angle_alpha   90.00000000
_cell_angle_beta   89.78716092
_cell_angle_gamma   90.00000000
_symmetry_Int_Tables_number   1
_chemical_formula_structural   Ho8Er12CoBi8Ru3
_chemical_formula_sum   'Ho8 Er12 Co1 Bi8 Ru3'
_cell_volume   876.89911785
_cell_formula_units_Z   1
loop_
 _symmetry_equiv_pos_site_id
 _symmetry_equiv_pos_as_xyz
  1  'x, y, z'
loop_
 _atom_site_type_symbol
 _atom_site_label
 _atom_site_symmetry_multiplicity
 _atom_site_fract_x
 _atom_site_fract_y
 _atom_site_fract_z
 _atom_site_occupancy
  Ho  Ho0  1  0.879908  0.750000  0.806703  1
  Ho  Ho1  1  0.119515  0.250000  0.192737  1
  Ho  Ho2  1  0.379575  0.250000  0.692215  1
  Ho  Ho3  1  0.616034  0.750000  0.312291  1
  Ho  Ho4  1  0.054769  0.750000  0.497109  1
  Ho  Ho5  1  0.947229  0.250000  0.503223  1
  Ho  Ho6  1  0.554665  0.250000  0.003451  1
  Ho  Ho7  1  0.445545  0.750000  0.995993  1
  Er  Er8  1  0.344989  0.750000  0.701239  1
  Er  Er9  1  0.656628  0.250000  0.293553  1
  Er  Er10  1  0.843582  0.250000  0.792613  1
  Er  Er11  1  0.155167  0.750000  0.205663  1
  Er  Er12  1  0.675358  0.543761  0.563766  1
  Er  Er13  1  0.325221  0.461993  0.436892  1
  Er  Er14  1  0.175631  0.458146  0.935709  1
  Er  Er15  1  0.325221  0.038007  0.436892  1
  Er  Er16  1  0.824150  0.542888  0.064469  1
  Er  Er17  1  0.675358  0.956239  0.563766  1
  Er  Er18  1  0.824150  0.957112  0.064469  1
  Er  Er19  1  0.175631  0.041854  0.935709  1
  Co  Co20  1  0.429647  0.750000  0.491233  1
  Bi  Bi21  1  0.570818  0.508663  0.826872  1
  Bi  Bi22  1  0.428804  0.492068  0.173133  1
  Bi  Bi23  1  0.071812  0.491747  0.672285  1
  Bi  Bi24  1  0.428804  0.007932  0.173133  1
  Bi  Bi25  1  0.928787  0.508827  0.328105  1
  Bi  Bi26  1  0.570818  0.991337  0.826872  1
  Bi  Bi27  1  0.928787  0.991173  0.328105  1
  Bi  Bi28  1  0.071812  0.008253  0.672285  1
  Ru  Ru29  1  0.073428  0.750000  0.989425  1
  Ru  Ru30  1  0.925855  0.250000  0.010261  1
  Ru  Ru31  1  0.572301  0.250000  0.509825  1
