# generated using pymatgen
data_Nd8SiGeI12
_symmetry_space_group_name_H-M   'P 1'
_cell_length_a   4.35981500
_cell_length_b   14.50059035
_cell_length_c   15.29063942
_cell_angle_alpha   90.04943928
_cell_angle_beta   90.00000000
_cell_angle_gamma   90.00000000
_symmetry_Int_Tables_number   1
_chemical_formula_structural   Nd8SiGeI12
_chemical_formula_sum   'Nd8 Si1 Ge1 I12'
_cell_volume   966.67220259
_cell_formula_units_Z   1
loop_
 _symmetry_equiv_pos_site_id
 _symmetry_equiv_pos_as_xyz
  1  'x, y, z'
loop_
 _atom_site_type_symbol
 _atom_site_label
 _atom_site_symmetry_multiplicity
 _atom_site_fract_x
 _atom_site_fract_y
 _atom_site_fract_z
 _atom_site_occupancy
  Nd  Nd0  1  0.500000  0.115456  0.345380  1
  Nd  Nd1  1  0.500000  0.884544  0.654620  1
  Nd  Nd2  1  0.500000  0.614717  0.153631  1
  Nd  Nd3  1  0.500000  0.385283  0.846369  1
  Nd  Nd4  1  0.000000  0.114074  0.576283  1
  Nd  Nd5  1  0.000000  0.885926  0.423717  1
  Nd  Nd6  1  0.000000  0.613101  0.924365  1
  Nd  Nd7  1  0.000000  0.386899  0.075635  1
  Si  Si8  1  0.500000  0.500000  0.000000  1
  Ge  Ge9  1  0.500000  0.000000  0.500000  1
  I  I10  1  0.500000  0.244251  0.161744  1
  I  I11  1  0.500000  0.755749  0.838256  1
  I  I12  1  0.500000  0.744372  0.338370  1
  I  I13  1  0.500000  0.255628  0.661630  1
  I  I14  1  0.000000  0.258187  0.413928  1
  I  I15  1  0.000000  0.741813  0.586072  1
  I  I16  1  0.000000  0.758270  0.086125  1
  I  I17  1  0.000000  0.241730  0.913875  1
  I  I18  1  0.000000  0.998802  0.240784  1
  I  I19  1  0.000000  0.001198  0.759216  1
  I  I20  1  0.000000  0.498822  0.259311  1
  I  I21  1  0.000000  0.501178  0.740689  1
