# generated using pymatgen
data_Nd16MgHg3IrRh3
_symmetry_space_group_name_H-M   'P 1'
_cell_length_a   9.94507874
_cell_length_b   9.92909879
_cell_length_c   9.92907251
_cell_angle_alpha   60.18181822
_cell_angle_beta   60.26095290
_cell_angle_gamma   60.26098021
_symmetry_Int_Tables_number   1
_chemical_formula_structural   Nd16MgHg3IrRh3
_chemical_formula_sum   'Nd16 Mg1 Hg3 Ir1 Rh3'
_cell_volume   696.96583522
_cell_formula_units_Z   1
loop_
 _symmetry_equiv_pos_site_id
 _symmetry_equiv_pos_as_xyz
  1  'x, y, z'
loop_
 _atom_site_type_symbol
 _atom_site_label
 _atom_site_symmetry_multiplicity
 _atom_site_fract_x
 _atom_site_fract_y
 _atom_site_fract_z
 _atom_site_occupancy
  Nd  Nd0  1  0.650822  0.046162  0.650835  1
  Nd  Nd1  1  0.807203  0.191366  0.807955  1
  Nd  Nd2  1  0.191148  0.807962  0.807961  1
  Nd  Nd3  1  0.063102  0.437023  0.437026  1
  Nd  Nd4  1  0.061516  0.060993  0.438722  1
  Nd  Nd5  1  0.436829  0.062120  0.439346  1
  Nd  Nd6  1  0.811170  0.189392  0.189391  1
  Nd  Nd7  1  0.438653  0.060566  0.060559  1
  Nd  Nd8  1  0.189487  0.812083  0.189054  1
  Nd  Nd9  1  0.436842  0.439342  0.062108  1
  Nd  Nd10  1  0.807202  0.807962  0.191365  1
  Nd  Nd11  1  0.189486  0.189058  0.812088  1
  Nd  Nd12  1  0.046857  0.650557  0.650559  1
  Nd  Nd13  1  0.649576  0.649292  0.649299  1
  Nd  Nd14  1  0.061518  0.438714  0.061003  1
  Nd  Nd15  1  0.650825  0.650836  0.046166  1
  Mg  Mg16  1  0.429516  0.429902  0.429907  1
  Hg  Hg17  1  0.412663  0.413166  0.755581  1
  Hg  Hg18  1  0.755627  0.412947  0.412954  1
  Hg  Hg19  1  0.412666  0.755582  0.413165  1
  Ir  Ir20  1  0.425521  0.856435  0.856438  1
  Rh  Rh21  1  0.857988  0.857386  0.857389  1
  Rh  Rh22  1  0.856881  0.424745  0.856385  1
  Rh  Rh23  1  0.856900  0.856409  0.424747  1
