# generated using pymatgen
data_Ac3Yb(ZnSn)4
_symmetry_space_group_name_H-M   'P 1'
_cell_length_a   4.66064300
_cell_length_b   4.66064305
_cell_length_c   17.64522100
_cell_angle_alpha   90.00000000
_cell_angle_beta   90.00000000
_cell_angle_gamma   120.00000677
_symmetry_Int_Tables_number   1
_chemical_formula_structural   Ac3Yb(ZnSn)4
_chemical_formula_sum   'Ac3 Yb1 Zn4 Sn4'
_cell_volume   331.93219962
_cell_formula_units_Z   1
loop_
 _symmetry_equiv_pos_site_id
 _symmetry_equiv_pos_as_xyz
  1  'x, y, z'
loop_
 _atom_site_type_symbol
 _atom_site_label
 _atom_site_symmetry_multiplicity
 _atom_site_fract_x
 _atom_site_fract_y
 _atom_site_fract_z
 _atom_site_occupancy
  Ac  Ac0  1  0.000000  0.000000  0.250000  1
  Ac  Ac1  1  0.000000  0.000000  0.987327  1
  Ac  Ac2  1  0.000000  0.000000  0.512673  1
  Yb  Yb3  1  0.000000  0.000000  0.750000  1
  Zn  Zn4  1  0.333333  0.666667  0.144825  1
  Zn  Zn5  1  0.666667  0.333333  0.829844  1
  Zn  Zn6  1  0.666667  0.333333  0.670156  1
  Zn  Zn7  1  0.333333  0.666667  0.355175  1
  Sn  Sn8  1  0.333333  0.666667  0.628982  1
  Sn  Sn9  1  0.666667  0.333333  0.386928  1
  Sn  Sn10  1  0.666667  0.333333  0.113072  1
  Sn  Sn11  1  0.333333  0.666667  0.871018  1
