# generated using pymatgen
data_Tb3Y(PS4)4
_symmetry_space_group_name_H-M   'P 1'
_cell_length_a   6.57904934
_cell_length_b   8.85845742
_cell_length_c   12.79901893
_cell_angle_alpha   59.22328659
_cell_angle_beta   89.96855636
_cell_angle_gamma   89.97059804
_symmetry_Int_Tables_number   1
_chemical_formula_structural   Tb3Y(PS4)4
_chemical_formula_sum   'Tb3 Y1 P4 S16'
_cell_volume   640.87879951
_cell_formula_units_Z   1
loop_
 _symmetry_equiv_pos_site_id
 _symmetry_equiv_pos_as_xyz
  1  'x, y, z'
loop_
 _atom_site_type_symbol
 _atom_site_label
 _atom_site_symmetry_multiplicity
 _atom_site_fract_x
 _atom_site_fract_y
 _atom_site_fract_z
 _atom_site_occupancy
  Tb  Tb0  1  0.318183  0.556665  0.835158  1
  Tb  Tb1  1  0.818488  0.443933  0.664769  1
  Tb  Tb2  1  0.681703  0.444333  0.164456  1
  Y  Y3  1  0.180487  0.555142  0.335899  1
  P  P4  1  0.229619  0.686829  0.039937  1
  P  P5  1  0.729830  0.313761  0.460641  1
  P  P6  1  0.770337  0.312899  0.960766  1
  P  P7  1  0.270321  0.686485  0.538654  1
  S  S8  1  0.232747  0.425027  0.588253  1
  S  S9  1  0.732870  0.574553  0.911030  1
  S  S10  1  0.768416  0.575001  0.411258  1
  S  S11  1  0.267283  0.425551  0.088888  1
  S  S12  1  0.255318  0.842389  0.356999  1
  S  S13  1  0.754961  0.156376  0.142300  1
  S  S14  1  0.744535  0.156880  0.642184  1
  S  S15  1  0.245171  0.843749  0.858372  1
  S  S16  1  0.536978  0.718216  0.611692  1
  S  S17  1  0.037449  0.281585  0.887640  1
  S  S18  1  0.463048  0.282564  0.387428  1
  S  S19  1  0.962812  0.718229  0.113244  1
  S  S20  1  0.051491  0.738231  0.632021  1
  S  S21  1  0.551203  0.261940  0.867322  1
  S  S22  1  0.948788  0.262084  0.367265  1
  S  S23  1  0.447962  0.737579  0.133821  1
