# generated using pymatgen
data_Tb4Ho4Hf12Si15Sn
_symmetry_space_group_name_H-M   'P 1'
_cell_length_a   7.30586400
_cell_length_b   7.33128875
_cell_length_c   13.42973832
_cell_angle_alpha   89.74594973
_cell_angle_beta   89.99510115
_cell_angle_gamma   89.85340238
_symmetry_Int_Tables_number   1
_chemical_formula_structural   Tb4Ho4Hf12Si15Sn
_chemical_formula_sum   'Tb4 Ho4 Hf12 Si15 Sn1'
_cell_volume   719.30613901
_cell_formula_units_Z   1
loop_
 _symmetry_equiv_pos_site_id
 _symmetry_equiv_pos_as_xyz
  1  'x, y, z'
loop_
 _atom_site_type_symbol
 _atom_site_label
 _atom_site_symmetry_multiplicity
 _atom_site_fract_x
 _atom_site_fract_y
 _atom_site_fract_z
 _atom_site_occupancy
  Tb  Tb0  1  0.844550  0.504114  0.964129  1
  Tb  Tb1  1  0.497888  0.153894  0.538871  1
  Tb  Tb2  1  0.343846  0.995648  0.784989  1
  Tb  Tb3  1  0.661923  0.997827  0.283323  1
  Ho  Ho4  1  0.989035  0.345234  0.212509  1
  Ho  Ho5  1  0.004202  0.655591  0.715988  1
  Ho  Ho6  1  0.148500  0.505384  0.470513  1
  Ho  Ho7  1  0.505329  0.842629  0.032955  1
  Hf  Hf8  1  0.174343  0.174869  0.999165  1
  Hf  Hf9  1  0.825954  0.826370  0.501214  1
  Hf  Hf10  1  0.326114  0.681187  0.248128  1
  Hf  Hf11  1  0.675156  0.325286  0.750281  1
  Hf  Hf12  1  0.142394  0.987461  0.373925  1
  Hf  Hf13  1  0.851823  0.003754  0.873896  1
  Hf  Hf14  1  0.503691  0.650017  0.624665  1
  Hf  Hf15  1  0.350811  0.495375  0.875788  1
  Hf  Hf16  1  0.496321  0.351729  0.118602  1
  Hf  Hf17  1  0.660280  0.514653  0.379549  1
  Hf  Hf18  1  0.994681  0.149177  0.626681  1
  Hf  Hf19  1  0.002831  0.849308  0.123981  1
  Si  Si20  1  0.637404  0.704943  0.816780  1
  Si  Si21  1  0.204264  0.863701  0.568149  1
  Si  Si22  1  0.137894  0.794771  0.932441  1
  Si  Si23  1  0.795527  0.136527  0.065671  1
  Si  Si24  1  0.862560  0.204828  0.433403  1
  Si  Si25  1  0.294936  0.363741  0.683524  1
  Si  Si26  1  0.703021  0.636535  0.182345  1
  Si  Si27  1  0.294627  0.042127  0.180591  1
  Si  Si28  1  0.706043  0.949420  0.686453  1
  Si  Si29  1  0.450047  0.796449  0.435592  1
  Si  Si30  1  0.204405  0.548976  0.064576  1
  Si  Si31  1  0.548993  0.203481  0.933938  1
  Si  Si32  1  0.794198  0.450962  0.566750  1
  Si  Si33  1  0.049088  0.295123  0.814399  1
  Si  Si34  1  0.953350  0.702016  0.313134  1
  Sn  Sn35  1  0.363969  0.296894  0.323103  1
