# generated using pymatgen
data_TbEu2TaO7
_symmetry_space_group_name_H-M   'P 1'
_cell_length_a   6.55605672
_cell_length_b   6.55605708
_cell_length_c   7.62574881
_cell_angle_alpha   90.05725648
_cell_angle_beta   90.05725516
_cell_angle_gamma   109.19015176
_symmetry_Int_Tables_number   1
_chemical_formula_structural   TbEu2TaO7
_chemical_formula_sum   'Tb2 Eu4 Ta2 O14'
_cell_volume   309.55539510
_cell_formula_units_Z   2
loop_
 _symmetry_equiv_pos_site_id
 _symmetry_equiv_pos_as_xyz
  1  'x, y, z'
loop_
 _atom_site_type_symbol
 _atom_site_label
 _atom_site_symmetry_multiplicity
 _atom_site_fract_x
 _atom_site_fract_y
 _atom_site_fract_z
 _atom_site_occupancy
  Tb  Tb0  1  0.535982  0.998446  0.754582  1
  Tb  Tb1  1  0.001554  0.464018  0.745418  1
  Eu  Eu2  1  0.469842  0.001639  0.253967  1
  Eu  Eu3  1  0.998361  0.530158  0.246033  1
  Eu  Eu4  1  0.485851  0.485452  0.995864  1
  Eu  Eu5  1  0.514548  0.514149  0.504136  1
  Ta  Ta6  1  0.001494  0.999784  0.501692  1
  Ta  Ta7  1  0.000216  0.998506  0.998308  1
  O  O8  1  0.933857  0.066143  0.750000  1
  O  O9  1  0.639754  0.360246  0.750000  1
  O  O10  1  0.309410  0.055828  0.542427  1
  O  O11  1  0.944172  0.690590  0.957573  1
  O  O12  1  0.629248  0.370752  0.250000  1
  O  O13  1  0.926530  0.678764  0.530897  1
  O  O14  1  0.321236  0.073470  0.969103  1
  O  O15  1  0.077743  0.324903  0.021833  1
  O  O16  1  0.675097  0.922257  0.478167  1
  O  O17  1  0.368573  0.631427  0.750000  1
  O  O18  1  0.685564  0.937289  0.031131  1
  O  O19  1  0.062711  0.314436  0.468869  1
  O  O20  1  0.362945  0.637055  0.250000  1
  O  O21  1  0.055313  0.944687  0.250000  1
