# generated using pymatgen
data_Tb6InSiOs
_symmetry_space_group_name_H-M   'P 1'
_cell_length_a   8.57591275
_cell_length_b   8.57591124
_cell_length_c   8.57591200
_cell_angle_alpha   112.67865253
_cell_angle_beta   111.15297888
_cell_angle_gamma   104.68937011
_symmetry_Int_Tables_number   1
_chemical_formula_structural   Tb6InSiOs
_chemical_formula_sum   'Tb12 In2 Si2 Os2'
_cell_volume   482.93110736
_cell_formula_units_Z   2
loop_
 _symmetry_equiv_pos_site_id
 _symmetry_equiv_pos_as_xyz
  1  'x, y, z'
loop_
 _atom_site_type_symbol
 _atom_site_label
 _atom_site_symmetry_multiplicity
 _atom_site_fract_x
 _atom_site_fract_y
 _atom_site_fract_z
 _atom_site_occupancy
  Tb  Tb0  1  0.441401  0.239990  0.201412  1
  Tb  Tb1  1  0.558599  0.760010  0.798588  1
  Tb  Tb2  1  0.038578  0.239990  0.798588  1
  Tb  Tb3  1  0.961422  0.760010  0.201412  1
  Tb  Tb4  1  0.185682  0.273827  0.459510  1
  Tb  Tb5  1  0.814318  0.726173  0.540490  1
  Tb  Tb6  1  0.185682  0.726173  0.911855  1
  Tb  Tb7  1  0.814318  0.273827  0.088145  1
  Tb  Tb8  1  0.332713  0.643522  0.310809  1
  Tb  Tb9  1  0.667287  0.356478  0.689191  1
  Tb  Tb10  1  0.332713  0.021906  0.689191  1
  Tb  Tb11  1  0.667287  0.978094  0.310809  1
  In  In12  1  0.500000  0.500000  0.000000  1
  In  In13  1  0.000000  0.000000  0.000000  1
  Si  Si14  1  0.113215  0.613215  0.500000  1
  Si  Si15  1  0.886785  0.386785  0.500000  1
  Os  Os16  1  0.336710  0.000000  0.336710  1
  Os  Os17  1  0.663290  0.000000  0.663290  1
