# generated using pymatgen
data_La7Dy2YSi8O3
_symmetry_space_group_name_H-M   'P 1'
_cell_length_a   10.78748400
_cell_length_b   10.78748434
_cell_length_c   4.55407100
_cell_angle_alpha   90.00000000
_cell_angle_beta   90.00000000
_cell_angle_gamma   120.00000510
_symmetry_Int_Tables_number   1
_chemical_formula_structural   La7Dy2YSi8O3
_chemical_formula_sum   'La7 Dy2 Y1 Si8 O3'
_cell_volume   458.95568034
_cell_formula_units_Z   1
loop_
 _symmetry_equiv_pos_site_id
 _symmetry_equiv_pos_as_xyz
  1  'x, y, z'
loop_
 _atom_site_type_symbol
 _atom_site_label
 _atom_site_symmetry_multiplicity
 _atom_site_fract_x
 _atom_site_fract_y
 _atom_site_fract_z
 _atom_site_occupancy
  La  La0  1  0.211411  0.788589  0.000000  1
  La  La1  1  0.577179  0.788589  0.000000  1
  La  La2  1  0.788589  0.577179  0.000000  1
  La  La3  1  0.000000  0.000000  0.000000  1
  La  La4  1  0.211411  0.422821  0.000000  1
  La  La5  1  0.422821  0.211411  0.000000  1
  La  La6  1  0.788589  0.211411  0.000000  1
  Dy  Dy7  1  0.000000  0.500000  0.500000  1
  Dy  Dy8  1  0.500000  0.000000  0.500000  1
  Y  Y9  1  0.500000  0.500000  0.500000  1
  Si  Si10  1  0.000000  0.776947  0.500000  1
  Si  Si11  1  0.000000  0.223053  0.500000  1
  Si  Si12  1  0.223053  0.223053  0.500000  1
  Si  Si13  1  0.776947  0.000000  0.500000  1
  Si  Si14  1  0.333333  0.666667  0.500000  1
  Si  Si15  1  0.223053  0.000000  0.500000  1
  Si  Si16  1  0.666667  0.333333  0.500000  1
  Si  Si17  1  0.776947  0.776947  0.500000  1
  O  O18  1  0.000000  0.500000  0.000000  1
  O  O19  1  0.500000  0.500000  0.000000  1
  O  O20  1  0.500000  0.000000  0.000000  1
