# generated using pymatgen
data_Dy4Si4Ru3Rh
_symmetry_space_group_name_H-M   'P 1'
_cell_length_a   4.36756900
_cell_length_b   6.98683948
_cell_length_c   7.08610567
_cell_angle_alpha   89.80133628
_cell_angle_beta   90.00000000
_cell_angle_gamma   90.00000000
_symmetry_Int_Tables_number   1
_chemical_formula_structural   Dy4Si4Ru3Rh
_chemical_formula_sum   'Dy4 Si4 Ru3 Rh1'
_cell_volume   216.23478266
_cell_formula_units_Z   1
loop_
 _symmetry_equiv_pos_site_id
 _symmetry_equiv_pos_as_xyz
  1  'x, y, z'
loop_
 _atom_site_type_symbol
 _atom_site_label
 _atom_site_symmetry_multiplicity
 _atom_site_fract_x
 _atom_site_fract_y
 _atom_site_fract_z
 _atom_site_occupancy
  Dy  Dy0  1  0.250000  0.984547  0.814000  1
  Dy  Dy1  1  0.750000  0.017461  0.186418  1
  Dy  Dy2  1  0.250000  0.484439  0.685739  1
  Dy  Dy3  1  0.750000  0.512437  0.313624  1
  Si  Si4  1  0.250000  0.303804  0.105404  1
  Si  Si5  1  0.750000  0.696326  0.899166  1
  Si  Si6  1  0.250000  0.804362  0.386930  1
  Si  Si7  1  0.750000  0.198040  0.607057  1
  Ru  Ru8  1  0.250000  0.151268  0.432879  1
  Ru  Ru9  1  0.750000  0.347383  0.931010  1
  Ru  Ru10  1  0.250000  0.652985  0.068187  1
  Rh  Rh11  1  0.750000  0.846946  0.569584  1
