# generated using pymatgen
data_Dy6Y2ReRu3C8
_symmetry_space_group_name_H-M   'P 1'
_cell_length_a   5.12172500
_cell_length_b   6.51086603
_cell_length_c   9.81369648
_cell_angle_alpha   90.01263475
_cell_angle_beta   90.00000000
_cell_angle_gamma   90.00000000
_symmetry_Int_Tables_number   1
_chemical_formula_structural   Dy6Y2ReRu3C8
_chemical_formula_sum   'Dy6 Y2 Re1 Ru3 C8'
_cell_volume   327.25600680
_cell_formula_units_Z   1
loop_
 _symmetry_equiv_pos_site_id
 _symmetry_equiv_pos_as_xyz
  1  'x, y, z'
loop_
 _atom_site_type_symbol
 _atom_site_label
 _atom_site_symmetry_multiplicity
 _atom_site_fract_x
 _atom_site_fract_y
 _atom_site_fract_z
 _atom_site_occupancy
  Dy  Dy0  1  0.750000  0.527141  0.785613  1
  Dy  Dy1  1  0.250000  0.971787  0.284087  1
  Dy  Dy2  1  0.750000  0.676610  0.444949  1
  Dy  Dy3  1  0.250000  0.823455  0.945017  1
  Dy  Dy4  1  0.750000  0.182389  0.056302  1
  Dy  Dy5  1  0.250000  0.323527  0.555761  1
  Y  Y6  1  0.250000  0.470195  0.217393  1
  Y  Y7  1  0.750000  0.028182  0.713435  1
  Re  Re8  1  0.750000  0.721667  0.133759  1
  Ru  Ru9  1  0.250000  0.279909  0.864431  1
  Ru  Ru10  1  0.250000  0.780064  0.635985  1
  Ru  Ru11  1  0.750000  0.221580  0.366614  1
  C  C12  1  0.250000  0.673722  0.448571  1
  C  C13  1  0.250000  0.544608  0.757708  1
  C  C14  1  0.750000  0.456465  0.239749  1
  C  C15  1  0.750000  0.821380  0.947078  1
  C  C16  1  0.250000  0.044267  0.742903  1
  C  C17  1  0.250000  0.174144  0.051743  1
  C  C18  1  0.750000  0.323687  0.552166  1
  C  C19  1  0.750000  0.955223  0.256736  1
