# generated using pymatgen
data_La6NiRuBr6
_symmetry_space_group_name_H-M   'P 1'
_cell_length_a   10.60666261
_cell_length_b   10.60666305
_cell_length_c   10.54349413
_cell_angle_alpha   109.45463072
_cell_angle_beta   109.45463713
_cell_angle_gamma   109.74571028
_symmetry_Int_Tables_number   1
_chemical_formula_structural   La6NiRuBr6
_chemical_formula_sum   'La12 Ni2 Ru2 Br12'
_cell_volume   910.36849765
_cell_formula_units_Z   2
loop_
 _symmetry_equiv_pos_site_id
 _symmetry_equiv_pos_as_xyz
  1  'x, y, z'
loop_
 _atom_site_type_symbol
 _atom_site_label
 _atom_site_symmetry_multiplicity
 _atom_site_fract_x
 _atom_site_fract_y
 _atom_site_fract_z
 _atom_site_occupancy
  La  La0  1  0.390353  0.609647  0.000000  1
  La  La1  1  0.609647  0.390353  0.000000  1
  La  La2  1  0.644223  0.144223  0.288446  1
  La  La3  1  0.855777  0.355777  0.711554  1
  La  La4  1  0.409229  0.394208  0.266227  1
  La  La5  1  0.127980  0.143003  0.733773  1
  La  La6  1  0.128118  0.358812  0.514199  1
  La  La7  1  0.844613  0.613918  0.485801  1
  La  La8  1  0.605792  0.590771  0.733773  1
  La  La9  1  0.856997  0.872020  0.266227  1
  La  La10  1  0.641188  0.871882  0.485801  1
  La  La11  1  0.386082  0.155387  0.514199  1
  Ni  Ni12  1  0.875553  0.124447  0.500000  1
  Ni  Ni13  1  0.624447  0.375553  0.500000  1
  Ru  Ru14  1  0.626838  0.626838  0.253673  1
  Ru  Ru15  1  0.373162  0.373162  0.746327  1
  Br  Br16  1  0.367091  0.632909  0.500000  1
  Br  Br17  1  0.132909  0.867091  0.500000  1
  Br  Br18  1  0.117794  0.117794  0.235589  1
  Br  Br19  1  0.882206  0.882206  0.764411  1
  Br  Br20  1  0.884799  0.628055  0.002355  1
  Br  Br21  1  0.625698  0.882442  0.997645  1
  Br  Br22  1  0.623393  0.119839  0.753396  1
  Br  Br23  1  0.366442  0.869997  0.246604  1
  Br  Br24  1  0.371945  0.115201  0.997645  1
  Br  Br25  1  0.117558  0.374302  0.002355  1
  Br  Br26  1  0.880161  0.376607  0.246604  1
  Br  Br27  1  0.130003  0.633558  0.753396  1
