# generated using pymatgen
data_BaV2F12
_symmetry_space_group_name_H-M   'P 1'
_cell_length_a   5.60584328
_cell_length_b   5.60420405
_cell_length_c   9.72744857
_cell_angle_alpha   97.33827588
_cell_angle_beta   95.25005776
_cell_angle_gamma   118.84197445
_symmetry_Int_Tables_number   1
_chemical_formula_structural   BaV2F12
_chemical_formula_sum   'Ba1 V2 F12'
_cell_volume   261.34310140
_cell_formula_units_Z   1
loop_
 _symmetry_equiv_pos_site_id
 _symmetry_equiv_pos_as_xyz
  1  'x, y, z'
loop_
 _atom_site_type_symbol
 _atom_site_label
 _atom_site_symmetry_multiplicity
 _atom_site_fract_x
 _atom_site_fract_y
 _atom_site_fract_z
 _atom_site_occupancy
  Ba  Ba0  1  0.990141  0.962509  0.911033  1
  V  V1  1  0.219579  0.500853  0.592530  1
  V  V2  1  0.376491  0.692689  0.134237  1
  F  F3  1  0.242874  0.886822  0.220955  1
  F  F4  1  0.546892  0.660811  0.726419  1
  F  F5  1  0.050592  0.521677  0.996643  1
  F  F6  1  0.213454  0.397600  0.213097  1
  F  F7  1  0.492582  0.495539  0.015279  1
  F  F8  1  0.321357  0.280773  0.502796  1
  F  F9  1  0.696580  0.854007  0.248135  1
  F  F10  1  0.128637  0.729300  0.707450  1
  F  F11  1  0.898264  0.353406  0.479453  1
  F  F12  1  0.062002  0.246180  0.710052  1
  F  F13  1  0.388922  0.769299  0.498849  1
  F  F14  1  0.519632  0.958536  0.021069  1
