# generated using pymatgen
data_TbY5Al24(Os3Rh)2
_symmetry_space_group_name_H-M   'P 1'
_cell_length_a   8.80592148
_cell_length_b   8.88008529
_cell_length_c   9.60074500
_cell_angle_alpha   89.99975621
_cell_angle_beta   90.00029909
_cell_angle_gamma   120.31262356
_symmetry_Int_Tables_number   1
_chemical_formula_structural   TbY5Al24(Os3Rh)2
_chemical_formula_sum   'Tb1 Y5 Al24 Os6 Rh2'
_cell_volume   648.11303932
_cell_formula_units_Z   1
loop_
 _symmetry_equiv_pos_site_id
 _symmetry_equiv_pos_as_xyz
  1  'x, y, z'
loop_
 _atom_site_type_symbol
 _atom_site_label
 _atom_site_symmetry_multiplicity
 _atom_site_fract_x
 _atom_site_fract_y
 _atom_site_fract_z
 _atom_site_occupancy
  Tb  Tb0  1  0.198729  0.384644  0.250000  1
  Y  Y1  1  0.801343  0.615164  0.750000  1
  Y  Y2  1  0.611361  0.805369  0.250001  1
  Y  Y3  1  0.388515  0.194582  0.749999  1
  Y  Y4  1  0.198810  0.813494  0.250001  1
  Y  Y5  1  0.801137  0.186328  0.750000  1
  Al  Al6  1  0.334059  0.667058  0.021111  1
  Al  Al7  1  0.665922  0.333063  0.978931  1
  Al  Al8  1  0.665926  0.333066  0.521069  1
  Al  Al9  1  0.334063  0.667060  0.478889  1
  Al  Al10  1  0.163160  0.326133  0.576559  1
  Al  Al11  1  0.836846  0.673872  0.423559  1
  Al  Al12  1  0.671392  0.835602  0.575009  1
  Al  Al13  1  0.836846  0.673872  0.076443  1
  Al  Al14  1  0.328596  0.164321  0.425027  1
  Al  Al15  1  0.163159  0.326132  0.923439  1
  Al  Al16  1  0.163165  0.837481  0.576561  1
  Al  Al17  1  0.328596  0.164321  0.074974  1
  Al  Al18  1  0.836839  0.162521  0.423456  1
  Al  Al19  1  0.671393  0.835603  0.924990  1
  Al  Al20  1  0.836838  0.162520  0.076544  1
  Al  Al21  1  0.163163  0.837480  0.923438  1
  Al  Al22  1  0.564878  0.125774  0.250001  1
  Al  Al23  1  0.435074  0.874162  0.750000  1
  Al  Al24  1  0.880098  0.440168  0.250000  1
  Al  Al25  1  0.119736  0.559827  0.749998  1
  Al  Al26  1  0.564875  0.439097  0.250000  1
  Al  Al27  1  0.435460  0.560932  0.749999  1
  Al  Al28  1  0.002364  0.001318  0.250000  1
  Al  Al29  1  0.997832  0.998911  0.749999  1
  Os  Os30  1  0.500071  0.000098  0.999960  1
  Os  Os31  1  0.500073  0.000099  0.500041  1
  Os  Os32  1  0.500000  0.500003  0.000012  1
  Os  Os33  1  0.500000  0.500001  0.499987  1
  Os  Os34  1  0.999945  0.999915  0.999934  1
  Os  Os35  1  0.999946  0.999914  0.500065  1
  Rh  Rh36  1  0.999899  0.500051  0.999909  1
  Rh  Rh37  1  0.999893  0.500046  0.500094  1
