# generated using pymatgen
data_Nd3Cd(NiSb)5
_symmetry_space_group_name_H-M   'P 1'
_cell_length_a   4.41981600
_cell_length_b   9.86294100
_cell_length_c   13.32111700
_cell_angle_alpha   90.00000000
_cell_angle_beta   90.00000000
_cell_angle_gamma   90.00000000
_symmetry_Int_Tables_number   1
_chemical_formula_structural   Nd3Cd(NiSb)5
_chemical_formula_sum   'Nd6 Cd2 Ni10 Sb10'
_cell_volume   580.69925342
_cell_formula_units_Z   2
loop_
 _symmetry_equiv_pos_site_id
 _symmetry_equiv_pos_as_xyz
  1  'x, y, z'
loop_
 _atom_site_type_symbol
 _atom_site_label
 _atom_site_symmetry_multiplicity
 _atom_site_fract_x
 _atom_site_fract_y
 _atom_site_fract_z
 _atom_site_occupancy
  Nd  Nd0  1  0.000000  0.233680  0.000000  1
  Nd  Nd1  1  0.500000  0.766320  0.500000  1
  Nd  Nd2  1  0.000000  0.238040  0.323506  1
  Nd  Nd3  1  0.500000  0.761960  0.176494  1
  Nd  Nd4  1  0.000000  0.238040  0.676494  1
  Nd  Nd5  1  0.500000  0.761960  0.823506  1
  Cd  Cd6  1  0.500000  0.515533  0.000000  1
  Cd  Cd7  1  0.000000  0.484467  0.500000  1
  Ni  Ni8  1  0.000000  0.994405  0.161835  1
  Ni  Ni9  1  0.500000  0.005595  0.338165  1
  Ni  Ni10  1  0.000000  0.994405  0.838165  1
  Ni  Ni11  1  0.500000  0.005595  0.661835  1
  Ni  Ni12  1  0.500000  0.987273  0.000000  1
  Ni  Ni13  1  0.000000  0.012727  0.500000  1
  Ni  Ni14  1  0.000000  0.619613  0.327649  1
  Ni  Ni15  1  0.500000  0.380387  0.172351  1
  Ni  Ni16  1  0.000000  0.619613  0.672351  1
  Ni  Ni17  1  0.500000  0.380387  0.827649  1
  Sb  Sb18  1  0.000000  0.508464  0.152811  1
  Sb  Sb19  1  0.500000  0.491536  0.347189  1
  Sb  Sb20  1  0.000000  0.508464  0.847189  1
  Sb  Sb21  1  0.500000  0.491536  0.652811  1
  Sb  Sb22  1  0.000000  0.874992  0.336768  1
  Sb  Sb23  1  0.500000  0.125008  0.163232  1
  Sb  Sb24  1  0.000000  0.874992  0.663232  1
  Sb  Sb25  1  0.500000  0.125008  0.836768  1
  Sb  Sb26  1  0.000000  0.850279  0.000000  1
  Sb  Sb27  1  0.500000  0.149721  0.500000  1
