# generated using pymatgen
data_SmAl10TcRh
_symmetry_space_group_name_H-M   'P 1'
_cell_length_a   6.89907704
_cell_length_b   6.89907587
_cell_length_c   9.19555159
_cell_angle_alpha   89.29053909
_cell_angle_beta   89.29054001
_cell_angle_gamma   96.90100153
_symmetry_Int_Tables_number   1
_chemical_formula_structural   SmAl10TcRh
_chemical_formula_sum   'Sm2 Al20 Tc2 Rh2'
_cell_volume   434.43639286
_cell_formula_units_Z   2
loop_
 _symmetry_equiv_pos_site_id
 _symmetry_equiv_pos_as_xyz
  1  'x, y, z'
loop_
 _atom_site_type_symbol
 _atom_site_label
 _atom_site_symmetry_multiplicity
 _atom_site_fract_x
 _atom_site_fract_y
 _atom_site_fract_z
 _atom_site_occupancy
  Sm  Sm0  1  0.873718  0.126282  0.750000  1
  Sm  Sm1  1  0.126282  0.873718  0.250000  1
  Al  Al2  1  0.623389  0.380449  0.549507  1
  Al  Al3  1  0.376611  0.619551  0.450493  1
  Al  Al4  1  0.380449  0.623389  0.049507  1
  Al  Al5  1  0.619551  0.376611  0.950493  1
  Al  Al6  1  0.225479  0.226454  0.500507  1
  Al  Al7  1  0.774521  0.773546  0.499493  1
  Al  Al8  1  0.773546  0.774521  0.999493  1
  Al  Al9  1  0.226454  0.225479  0.000507  1
  Al  Al10  1  0.839775  0.156185  0.100387  1
  Al  Al11  1  0.160225  0.843815  0.899613  1
  Al  Al12  1  0.156185  0.839775  0.600387  1
  Al  Al13  1  0.843815  0.160225  0.399613  1
  Al  Al14  1  0.860056  0.590806  0.749886  1
  Al  Al15  1  0.139944  0.409194  0.250114  1
  Al  Al16  1  0.409194  0.139944  0.750114  1
  Al  Al17  1  0.590806  0.860056  0.249886  1
  Al  Al18  1  0.220965  0.480164  0.745137  1
  Al  Al19  1  0.779035  0.519836  0.254863  1
  Al  Al20  1  0.519836  0.779035  0.754863  1
  Al  Al21  1  0.480164  0.220965  0.245137  1
  Tc  Tc22  1  0.000000  0.500000  0.500000  1
  Tc  Tc23  1  0.500000  0.000000  0.000000  1
  Rh  Rh24  1  0.000000  0.500000  0.000000  1
  Rh  Rh25  1  0.500000  0.000000  0.500000  1
