# generated using pymatgen
data_Dy3Y2Sc5(In2Pt)4
_symmetry_space_group_name_H-M   'P 1'
_cell_length_a   3.57867100
_cell_length_b   7.93841765
_cell_length_c   17.79931845
_cell_angle_alpha   89.73983217
_cell_angle_beta   90.00000000
_cell_angle_gamma   90.00000000
_symmetry_Int_Tables_number   1
_chemical_formula_structural   Dy3Y2Sc5(In2Pt)4
_chemical_formula_sum   'Dy3 Y2 Sc5 In8 Pt4'
_cell_volume   505.65535838
_cell_formula_units_Z   1
loop_
 _symmetry_equiv_pos_site_id
 _symmetry_equiv_pos_as_xyz
  1  'x, y, z'
loop_
 _atom_site_type_symbol
 _atom_site_label
 _atom_site_symmetry_multiplicity
 _atom_site_fract_x
 _atom_site_fract_y
 _atom_site_fract_z
 _atom_site_occupancy
  Dy  Dy0  1  0.000000  0.757529  0.782843  1
  Dy  Dy1  1  0.000000  0.258796  0.716535  1
  Dy  Dy2  1  0.000000  0.742660  0.282057  1
  Y  Y3  1  0.000000  0.998161  0.000081  1
  Y  Y4  1  0.000000  0.501066  0.498449  1
  Sc  Sc5  1  0.000000  0.119001  0.412167  1
  Sc  Sc6  1  0.000000  0.882785  0.584827  1
  Sc  Sc7  1  0.000000  0.381101  0.915546  1
  Sc  Sc8  1  0.000000  0.615258  0.088255  1
  Sc  Sc9  1  0.000000  0.245937  0.220324  1
  In  In10  1  0.500000  0.410841  0.348945  1
  In  In11  1  0.500000  0.586546  0.648279  1
  In  In12  1  0.500000  0.085764  0.850983  1
  In  In13  1  0.500000  0.922029  0.149582  1
  In  In14  1  0.500000  0.300449  0.065123  1
  In  In15  1  0.500000  0.691746  0.940701  1
  In  In16  1  0.500000  0.193119  0.559112  1
  In  In17  1  0.500000  0.809344  0.437947  1
  Pt  Pt18  1  0.500000  0.038498  0.304435  1
  Pt  Pt19  1  0.500000  0.969507  0.691521  1
  Pt  Pt20  1  0.500000  0.468278  0.808705  1
  Pt  Pt21  1  0.500000  0.521584  0.193580  1
