# generated using pymatgen
data_Ti8Al14PRu7
_symmetry_space_group_name_H-M   'P 1'
_cell_length_a   8.63806768
_cell_length_b   8.63795475
_cell_length_c   8.63793839
_cell_angle_alpha   120.08861890
_cell_angle_beta   120.07875917
_cell_angle_gamma   89.85469216
_symmetry_Int_Tables_number   1
_chemical_formula_structural   Ti8Al14PRu7
_chemical_formula_sum   'Ti8 Al14 P1 Ru7'
_cell_volume   455.16931860
_cell_formula_units_Z   1
loop_
 _symmetry_equiv_pos_site_id
 _symmetry_equiv_pos_as_xyz
  1  'x, y, z'
loop_
 _atom_site_type_symbol
 _atom_site_label
 _atom_site_symmetry_multiplicity
 _atom_site_fract_x
 _atom_site_fract_y
 _atom_site_fract_z
 _atom_site_occupancy
  Ti  Ti0  1  0.803084  0.299604  0.096948  1
  Ti  Ti1  1  0.202655  0.299620  0.496532  1
  Ti  Ti2  1  0.198950  0.698942  0.500003  1
  Ti  Ti3  1  0.202647  0.706116  0.903023  1
  Ti  Ti4  1  0.803088  0.706132  0.503482  1
  Ti  Ti5  1  0.794443  0.294443  0.500011  1
  Ti  Ti6  1  0.378382  0.117667  0.739275  1
  Ti  Ti7  1  0.378379  0.639106  0.260705  1
  Al  Al8  1  0.159596  0.339998  0.180410  1
  Al  Al9  1  0.159596  0.979176  0.819600  1
  Al  Al10  1  0.157583  0.342323  0.815272  1
  Al  Al11  1  0.527030  0.342306  0.184725  1
  Al  Al12  1  0.842262  0.658546  0.816305  1
  Al  Al13  1  0.842255  0.025956  0.183711  1
  Al  Al14  1  0.840422  0.658563  0.181855  1
  Al  Al15  1  0.476687  0.658556  0.818138  1
  Al  Al16  1  0.380281  0.120102  0.260173  1
  Al  Al17  1  0.859932  0.120113  0.739823  1
  Al  Al18  1  0.619427  0.877621  0.258174  1
  Al  Al19  1  0.619437  0.361261  0.741815  1
  Al  Al20  1  0.620617  0.879192  0.741422  1
  Al  Al21  1  0.137772  0.879192  0.258568  1
  P  P22  1  0.997194  0.497178  0.500027  1
  Ru  Ru23  1  0.000532  0.000125  0.500577  1
  Ru  Ru24  1  0.499545  0.000127  0.999594  1
  Ru  Ru25  1  0.498766  0.498771  0.000006  1
  Ru  Ru26  1  0.499543  0.499955  0.499415  1
  Ru  Ru27  1  0.000539  0.499958  0.000410  1
  Ru  Ru28  1  0.000573  0.000570  0.000005  1
  Ru  Ru29  1  0.498776  0.998778  0.499996  1
