# generated using pymatgen
data_AcCeAu4
_symmetry_space_group_name_H-M   'P 1'
_cell_length_a   4.79753200
_cell_length_b   4.79753336
_cell_length_c   7.46230100
_cell_angle_alpha   90.00000000
_cell_angle_beta   90.00000000
_cell_angle_gamma   120.00001822
_symmetry_Int_Tables_number   1
_chemical_formula_structural   AcCeAu4
_chemical_formula_sum   'Ac1 Ce1 Au4'
_cell_volume   148.74391154
_cell_formula_units_Z   1
loop_
 _symmetry_equiv_pos_site_id
 _symmetry_equiv_pos_as_xyz
  1  'x, y, z'
loop_
 _atom_site_type_symbol
 _atom_site_label
 _atom_site_symmetry_multiplicity
 _atom_site_fract_x
 _atom_site_fract_y
 _atom_site_fract_z
 _atom_site_occupancy
  Ac  Ac0  1  0.000000  0.000000  0.500000  1
  Ce  Ce1  1  0.000000  0.000000  0.000000  1
  Au  Au2  1  0.666667  0.333333  0.228635  1
  Au  Au3  1  0.333333  0.666667  0.771365  1
  Au  Au4  1  0.333333  0.666667  0.228996  1
  Au  Au5  1  0.666667  0.333333  0.771004  1
