# generated using pymatgen
data_Al7Cu2Os
_symmetry_space_group_name_H-M   'P 1'
_cell_length_a   6.46850900
_cell_length_b   6.46850900
_cell_length_c   14.86007800
_cell_angle_alpha   90.00000000
_cell_angle_beta   90.00000000
_cell_angle_gamma   90.00000000
_symmetry_Int_Tables_number   1
_chemical_formula_structural   Al7Cu2Os
_chemical_formula_sum   'Al28 Cu8 Os4'
_cell_volume   621.76956868
_cell_formula_units_Z   4
loop_
 _symmetry_equiv_pos_site_id
 _symmetry_equiv_pos_as_xyz
  1  'x, y, z'
loop_
 _atom_site_type_symbol
 _atom_site_label
 _atom_site_symmetry_multiplicity
 _atom_site_fract_x
 _atom_site_fract_y
 _atom_site_fract_z
 _atom_site_occupancy
  Al  Al0  1  0.584200  0.199737  0.097855  1
  Al  Al1  1  0.199737  0.415800  0.097855  1
  Al  Al2  1  0.800263  0.584200  0.097855  1
  Al  Al3  1  0.415800  0.800263  0.097855  1
  Al  Al4  1  0.000000  0.000000  0.129743  1
  Al  Al5  1  0.345585  0.154416  0.250000  1
  Al  Al6  1  0.845584  0.345585  0.250000  1
  Al  Al7  1  0.154416  0.654416  0.250000  1
  Al  Al8  1  0.654416  0.845584  0.250000  1
  Al  Al9  1  0.499999  0.499999  0.370256  1
  Al  Al10  1  0.699736  0.084201  0.402145  1
  Al  Al11  1  0.084201  0.300264  0.402145  1
  Al  Al12  1  0.915800  0.699736  0.402145  1
  Al  Al13  1  0.300264  0.915800  0.402145  1
  Al  Al14  1  0.699736  0.084201  0.597855  1
  Al  Al15  1  0.084201  0.300264  0.597855  1
  Al  Al16  1  0.915800  0.699736  0.597855  1
  Al  Al17  1  0.300264  0.915800  0.597855  1
  Al  Al18  1  0.499999  0.499999  0.629744  1
  Al  Al19  1  0.345585  0.154416  0.750000  1
  Al  Al20  1  0.845584  0.345585  0.750000  1
  Al  Al21  1  0.154416  0.654416  0.750000  1
  Al  Al22  1  0.654416  0.845584  0.750000  1
  Al  Al23  1  0.000000  0.000000  0.870256  1
  Al  Al24  1  0.584200  0.199737  0.902145  1
  Al  Al25  1  0.199737  0.415800  0.902145  1
  Al  Al26  1  0.800263  0.584200  0.902145  1
  Al  Al27  1  0.415800  0.800263  0.902145  1
  Cu  Cu28  1  0.267855  0.087622  0.000000  1
  Cu  Cu29  1  0.912378  0.267855  0.000000  1
  Cu  Cu30  1  0.087622  0.732145  0.000000  1
  Cu  Cu31  1  0.732145  0.912378  0.000000  1
  Cu  Cu32  1  0.412377  0.232146  0.500000  1
  Cu  Cu33  1  0.767854  0.412377  0.500000  1
  Cu  Cu34  1  0.232146  0.587623  0.500000  1
  Cu  Cu35  1  0.587623  0.767854  0.500000  1
  Os  Os36  1  0.499999  0.499999  0.200255  1
  Os  Os37  1  0.000000  0.000000  0.299745  1
  Os  Os38  1  0.000000  0.000000  0.700255  1
  Os  Os39  1  0.499999  0.499999  0.799745  1
