# generated using pymatgen
data_Sm3ErPa2(Co3P2)6
_symmetry_space_group_name_H-M   'P 1'
_cell_length_a   3.73219900
_cell_length_b   10.54511003
_cell_length_c   12.19093004
_cell_angle_alpha   90.00915876
_cell_angle_beta   90.00000000
_cell_angle_gamma   90.00000000
_symmetry_Int_Tables_number   1
_chemical_formula_structural   Sm3ErPa2(Co3P2)6
_chemical_formula_sum   'Sm3 Er1 Pa2 Co18 P12'
_cell_volume   479.79171170
_cell_formula_units_Z   1
loop_
 _symmetry_equiv_pos_site_id
 _symmetry_equiv_pos_as_xyz
  1  'x, y, z'
loop_
 _atom_site_type_symbol
 _atom_site_label
 _atom_site_symmetry_multiplicity
 _atom_site_fract_x
 _atom_site_fract_y
 _atom_site_fract_z
 _atom_site_occupancy
  Sm  Sm0  1  0.250000  0.935484  0.795087  1
  Sm  Sm1  1  0.250000  0.564209  0.794037  1
  Sm  Sm2  1  0.750000  0.065279  0.205568  1
  Er  Er3  1  0.750000  0.435517  0.205534  1
  Pa  Pa4  1  0.750000  0.251114  0.471320  1
  Pa  Pa5  1  0.250000  0.749998  0.527761  1
  Co  Co6  1  0.250000  0.250622  0.841686  1
  Co  Co7  1  0.750000  0.749158  0.158493  1
  Co  Co8  1  0.250000  0.251574  0.304230  1
  Co  Co9  1  0.750000  0.749711  0.694602  1
  Co  Co10  1  0.750000  0.251350  0.016882  1
  Co  Co11  1  0.250000  0.748773  0.985909  1
  Co  Co12  1  0.250000  0.415908  0.007301  1
  Co  Co13  1  0.250000  0.085367  0.006294  1
  Co  Co14  1  0.750000  0.582956  0.995704  1
  Co  Co15  1  0.750000  0.915742  0.994881  1
  Co  Co16  1  0.250000  0.447882  0.566851  1
  Co  Co17  1  0.250000  0.052225  0.568395  1
  Co  Co18  1  0.750000  0.551445  0.429509  1
  Co  Co19  1  0.750000  0.948272  0.431484  1
  Co  Co20  1  0.250000  0.867844  0.290394  1
  Co  Co21  1  0.250000  0.629428  0.288289  1
  Co  Co22  1  0.750000  0.131675  0.710197  1
  Co  Co23  1  0.750000  0.368405  0.709429  1
  P  P24  1  0.250000  0.252324  0.121282  1
  P  P25  1  0.750000  0.749361  0.881157  1
  P  P26  1  0.250000  0.250054  0.656735  1
  P  P27  1  0.750000  0.749891  0.342848  1
  P  P28  1  0.250000  0.443578  0.381862  1
  P  P29  1  0.250000  0.056985  0.384911  1
  P  P30  1  0.750000  0.555831  0.613785  1
  P  P31  1  0.750000  0.943900  0.615080  1
  P  P32  1  0.250000  0.901358  0.104530  1
  P  P33  1  0.250000  0.596254  0.105992  1
  P  P34  1  0.750000  0.099641  0.896453  1
  P  P35  1  0.750000  0.400886  0.895526  1
