# generated using pymatgen
data_TbZrMn6Co6P7
_symmetry_space_group_name_H-M   'P 1'
_cell_length_a   9.04432900
_cell_length_b   9.04433040
_cell_length_c   3.60869100
_cell_angle_alpha   90.00000000
_cell_angle_beta   90.00000000
_cell_angle_gamma   119.99999854
_symmetry_Int_Tables_number   1
_chemical_formula_structural   TbZrMn6Co6P7
_chemical_formula_sum   'Tb1 Zr1 Mn6 Co6 P7'
_cell_volume   255.64252929
_cell_formula_units_Z   1
loop_
 _symmetry_equiv_pos_site_id
 _symmetry_equiv_pos_as_xyz
  1  'x, y, z'
loop_
 _atom_site_type_symbol
 _atom_site_label
 _atom_site_symmetry_multiplicity
 _atom_site_fract_x
 _atom_site_fract_y
 _atom_site_fract_z
 _atom_site_occupancy
  Tb  Tb0  1  0.333333  0.666667  0.500000  1
  Zr  Zr1  1  0.666667  0.333333  0.000000  1
  Mn  Mn2  1  0.279537  0.121975  0.000000  1
  Mn  Mn3  1  0.842438  0.720463  0.000000  1
  Mn  Mn4  1  0.878025  0.157562  0.000000  1
  Mn  Mn5  1  0.106106  0.878372  0.500000  1
  Mn  Mn6  1  0.772264  0.893894  0.500000  1
  Mn  Mn7  1  0.121628  0.227736  0.500000  1
  Co  Co8  1  0.059283  0.628958  0.000000  1
  Co  Co9  1  0.569676  0.940717  0.000000  1
  Co  Co10  1  0.371042  0.430324  0.000000  1
  Co  Co11  1  0.442270  0.055075  0.500000  1
  Co  Co12  1  0.612806  0.557730  0.500000  1
  Co  Co13  1  0.944925  0.387194  0.500000  1
  P  P14  1  0.300529  0.888779  0.000000  1
  P  P15  1  0.588250  0.699471  0.000000  1
  P  P16  1  0.111221  0.411750  0.000000  1
  P  P17  1  0.409563  0.287910  0.500000  1
  P  P18  1  0.878346  0.590437  0.500000  1
  P  P19  1  0.712090  0.121654  0.500000  1
  P  P20  1  0.000000  0.000000  0.000000  1
