# generated using pymatgen
data_Cd4RuRh3O14
_symmetry_space_group_name_H-M   'P 1'
_cell_length_a   7.25634192
_cell_length_b   7.22256234
_cell_length_c   7.22256200
_cell_angle_alpha   59.99999239
_cell_angle_beta   60.15386545
_cell_angle_gamma   60.15386463
_symmetry_Int_Tables_number   1
_chemical_formula_structural   Cd4RuRh3O14
_chemical_formula_sum   'Cd4 Ru1 Rh3 O14'
_cell_volume   268.28192451
_cell_formula_units_Z   1
loop_
 _symmetry_equiv_pos_site_id
 _symmetry_equiv_pos_as_xyz
  1  'x, y, z'
loop_
 _atom_site_type_symbol
 _atom_site_label
 _atom_site_symmetry_multiplicity
 _atom_site_fract_x
 _atom_site_fract_y
 _atom_site_fract_z
 _atom_site_occupancy
  Cd  Cd0  1  0.125000  0.625000  0.125000  1
  Cd  Cd1  1  0.125000  0.125000  0.625000  1
  Cd  Cd2  1  0.625000  0.125000  0.125000  1
  Cd  Cd3  1  0.125000  0.125000  0.125000  1
  Ru  Ru4  1  0.125000  0.625000  0.625000  1
  Rh  Rh5  1  0.625000  0.125000  0.625000  1
  Rh  Rh6  1  0.625000  0.625000  0.125000  1
  Rh  Rh7  1  0.625000  0.625000  0.625000  1
  O  O8  1  0.708542  0.698220  0.296619  1
  O  O9  1  0.947211  0.556574  0.556574  1
  O  O10  1  0.541458  0.953381  0.953381  1
  O  O11  1  0.947211  0.939641  0.556574  1
  O  O12  1  0.947211  0.556574  0.939641  1
  O  O13  1  0.541458  0.953381  0.551780  1
  O  O14  1  0.302789  0.693426  0.310359  1
  O  O15  1  0.302789  0.693426  0.693426  1
  O  O16  1  0.708542  0.296619  0.296619  1
  O  O17  1  0.708542  0.296619  0.698220  1
  O  O18  1  0.541458  0.551780  0.953381  1
  O  O19  1  0.302789  0.310359  0.693426  1
  O  O20  1  0.244763  0.251746  0.251746  1
  O  O21  1  0.005237  0.998254  0.998254  1
