# generated using pymatgen
data_Dy10Y6CdHg3Pt4
_symmetry_space_group_name_H-M   'P 1'
_cell_length_a   9.65948686
_cell_length_b   9.67819061
_cell_length_c   9.67819100
_cell_angle_alpha   60.00000208
_cell_angle_beta   59.93592882
_cell_angle_gamma   59.93592829
_symmetry_Int_Tables_number   1
_chemical_formula_structural   Dy10Y6CdHg3Pt4
_chemical_formula_sum   'Dy10 Y6 Cd1 Hg3 Pt4'
_cell_volume   639.15495105
_cell_formula_units_Z   1
loop_
 _symmetry_equiv_pos_site_id
 _symmetry_equiv_pos_as_xyz
  1  'x, y, z'
loop_
 _atom_site_type_symbol
 _atom_site_label
 _atom_site_symmetry_multiplicity
 _atom_site_fract_x
 _atom_site_fract_y
 _atom_site_fract_z
 _atom_site_occupancy
  Dy  Dy0  1  0.354242  0.353411  0.353411  1
  Dy  Dy1  1  0.354242  0.353411  0.938935  1
  Dy  Dy2  1  0.354242  0.938935  0.353411  1
  Dy  Dy3  1  0.936347  0.354551  0.354551  1
  Dy  Dy4  1  0.809904  0.190054  0.190054  1
  Dy  Dy5  1  0.188834  0.810674  0.810674  1
  Dy  Dy6  1  0.188834  0.810674  0.189818  1
  Dy  Dy7  1  0.809904  0.190054  0.809988  1
  Dy  Dy8  1  0.188834  0.189818  0.810674  1
  Dy  Dy9  1  0.809904  0.809988  0.190054  1
  Y  Y10  1  0.935262  0.563929  0.563929  1
  Y  Y11  1  0.563001  0.936639  0.936639  1
  Y  Y12  1  0.563001  0.936639  0.563721  1
  Y  Y13  1  0.935262  0.563929  0.936878  1
  Y  Y14  1  0.563001  0.563721  0.936639  1
  Y  Y15  1  0.935262  0.936878  0.563929  1
  Cd  Cd16  1  0.255976  0.581341  0.581341  1
  Hg  Hg17  1  0.584903  0.586995  0.586995  1
  Hg  Hg18  1  0.584903  0.586995  0.241106  1
  Hg  Hg19  1  0.584903  0.241106  0.586995  1
  Pt  Pt20  1  0.143644  0.144212  0.144212  1
  Pt  Pt21  1  0.143644  0.144212  0.567933  1
  Pt  Pt22  1  0.143644  0.567933  0.144212  1
  Pt  Pt23  1  0.568308  0.143897  0.143897  1
