# generated using pymatgen
data_Pr2Dy2TmSi4
_symmetry_space_group_name_H-M   'P 1'
_cell_length_a   7.49619000
_cell_length_b   7.78842200
_cell_length_c   14.83614200
_cell_angle_alpha   90.00000000
_cell_angle_beta   90.00000000
_cell_angle_gamma   90.00000000
_symmetry_Int_Tables_number   1
_chemical_formula_structural   Pr2Dy2TmSi4
_chemical_formula_sum   'Pr8 Dy8 Tm4 Si16'
_cell_volume   866.18576460
_cell_formula_units_Z   4
loop_
 _symmetry_equiv_pos_site_id
 _symmetry_equiv_pos_as_xyz
  1  'x, y, z'
loop_
 _atom_site_type_symbol
 _atom_site_label
 _atom_site_symmetry_multiplicity
 _atom_site_fract_x
 _atom_site_fract_y
 _atom_site_fract_z
 _atom_site_occupancy
  Pr  Pr0  1  0.021883  0.178719  0.402436  1
  Pr  Pr1  1  0.521883  0.321281  0.402436  1
  Pr  Pr2  1  0.478117  0.678719  0.902436  1
  Pr  Pr3  1  0.478117  0.678719  0.597564  1
  Pr  Pr4  1  0.978117  0.821281  0.597564  1
  Pr  Pr5  1  0.978117  0.821281  0.902436  1
  Pr  Pr6  1  0.521883  0.321281  0.097564  1
  Pr  Pr7  1  0.021883  0.178719  0.097564  1
  Dy  Dy8  1  0.320860  0.178296  0.623196  1
  Dy  Dy9  1  0.679140  0.821704  0.376804  1
  Dy  Dy10  1  0.179140  0.678296  0.376804  1
  Dy  Dy11  1  0.820860  0.321704  0.876804  1
  Dy  Dy12  1  0.820860  0.321704  0.623196  1
  Dy  Dy13  1  0.320860  0.178296  0.876804  1
  Dy  Dy14  1  0.179140  0.678296  0.123196  1
  Dy  Dy15  1  0.679140  0.821704  0.123196  1
  Tm  Tm16  1  0.652999  0.989229  0.750000  1
  Tm  Tm17  1  0.847001  0.489229  0.250000  1
  Tm  Tm18  1  0.347001  0.010771  0.250000  1
  Tm  Tm19  1  0.152999  0.510771  0.750000  1
  Si  Si20  1  0.272033  0.878098  0.750000  1
  Si  Si21  1  0.473653  0.611950  0.250000  1
  Si  Si22  1  0.026347  0.111950  0.750000  1
  Si  Si23  1  0.526347  0.388050  0.750000  1
  Si  Si24  1  0.145013  0.468831  0.539809  1
  Si  Si25  1  0.973653  0.888050  0.250000  1
  Si  Si26  1  0.727967  0.121902  0.250000  1
  Si  Si27  1  0.854987  0.531169  0.039809  1
  Si  Si28  1  0.354987  0.968831  0.039809  1
  Si  Si29  1  0.145013  0.468831  0.960191  1
  Si  Si30  1  0.645013  0.031169  0.539809  1
  Si  Si31  1  0.354987  0.968831  0.460191  1
  Si  Si32  1  0.854987  0.531169  0.460191  1
  Si  Si33  1  0.772033  0.621902  0.750000  1
  Si  Si34  1  0.227967  0.378098  0.250000  1
  Si  Si35  1  0.645013  0.031169  0.960191  1
