# generated using pymatgen
data_Na3Li(WF6)2
_symmetry_space_group_name_H-M   'P 1'
_cell_length_a   5.27825700
_cell_length_b   5.27825700
_cell_length_c   19.11744000
_cell_angle_alpha   90.00000000
_cell_angle_beta   90.00000000
_cell_angle_gamma   90.00000000
_symmetry_Int_Tables_number   1
_chemical_formula_structural   Na3Li(WF6)2
_chemical_formula_sum   'Na6 Li2 W4 F24'
_cell_volume   532.61182025
_cell_formula_units_Z   2
loop_
 _symmetry_equiv_pos_site_id
 _symmetry_equiv_pos_as_xyz
  1  'x, y, z'
loop_
 _atom_site_type_symbol
 _atom_site_label
 _atom_site_symmetry_multiplicity
 _atom_site_fract_x
 _atom_site_fract_y
 _atom_site_fract_z
 _atom_site_occupancy
  Na  Na0  1  0.000000  0.500000  0.308385  1
  Na  Na1  1  0.500000  0.000000  0.691615  1
  Na  Na2  1  0.500000  0.000000  0.191615  1
  Na  Na3  1  0.000000  0.500000  0.808385  1
  Na  Na4  1  0.000000  0.000000  0.500000  1
  Na  Na5  1  0.500000  0.500000  0.000000  1
  Li  Li6  1  0.000000  0.000000  0.000000  1
  Li  Li7  1  0.500000  0.500000  0.500000  1
  W  W8  1  0.000000  0.500000  0.124639  1
  W  W9  1  0.500000  0.000000  0.875361  1
  W  W10  1  0.500000  0.000000  0.375361  1
  W  W11  1  0.000000  0.500000  0.624639  1
  F  F12  1  0.194225  0.219428  0.384249  1
  F  F13  1  0.805775  0.780572  0.384249  1
  F  F14  1  0.219428  0.805775  0.615751  1
  F  F15  1  0.305775  0.719428  0.115751  1
  F  F16  1  0.780572  0.194225  0.615751  1
  F  F17  1  0.694225  0.280572  0.115751  1
  F  F18  1  0.280572  0.305775  0.884249  1
  F  F19  1  0.719428  0.694225  0.884249  1
  F  F20  1  0.153678  0.293111  0.202525  1
  F  F21  1  0.846322  0.706889  0.202525  1
  F  F22  1  0.293111  0.846322  0.797475  1
  F  F23  1  0.346322  0.793111  0.297475  1
  F  F24  1  0.706889  0.153678  0.797475  1
  F  F25  1  0.653678  0.206889  0.297475  1
  F  F26  1  0.206889  0.346322  0.702525  1
  F  F27  1  0.793111  0.653678  0.702525  1
  F  F28  1  0.153331  0.281464  0.046464  1
  F  F29  1  0.846669  0.718536  0.046464  1
  F  F30  1  0.281464  0.846669  0.953536  1
  F  F31  1  0.346669  0.781464  0.453536  1
  F  F32  1  0.718536  0.153331  0.953536  1
  F  F33  1  0.653331  0.218536  0.453536  1
  F  F34  1  0.218536  0.346669  0.546464  1
  F  F35  1  0.781464  0.653331  0.546464  1
