# generated using pymatgen
data_Tb2Fe3Re14C3
_symmetry_space_group_name_H-M   'P 1'
_cell_length_a   6.93221893
_cell_length_b   6.93221878
_cell_length_c   6.93221781
_cell_angle_alpha   82.74138610
_cell_angle_beta   82.74138087
_cell_angle_gamma   82.74137940
_symmetry_Int_Tables_number   1
_chemical_formula_structural   Tb2Fe3Re14C3
_chemical_formula_sum   'Tb2 Fe3 Re14 C3'
_cell_volume   325.74519952
_cell_formula_units_Z   1
loop_
 _symmetry_equiv_pos_site_id
 _symmetry_equiv_pos_as_xyz
  1  'x, y, z'
loop_
 _atom_site_type_symbol
 _atom_site_label
 _atom_site_symmetry_multiplicity
 _atom_site_fract_x
 _atom_site_fract_y
 _atom_site_fract_z
 _atom_site_occupancy
  Tb  Tb0  1  0.648780  0.648780  0.648780  1
  Tb  Tb1  1  0.351220  0.351220  0.351220  1
  Fe  Fe2  1  0.000000  0.000000  0.500000  1
  Fe  Fe3  1  0.500000  0.000000  0.000000  1
  Fe  Fe4  1  0.000000  0.500000  0.000000  1
  Re  Re5  1  0.722547  0.277453  0.000000  1
  Re  Re6  1  0.000000  0.722547  0.277453  1
  Re  Re7  1  0.277453  0.000000  0.722547  1
  Re  Re8  1  0.000000  0.277453  0.722547  1
  Re  Re9  1  0.722547  0.000000  0.277453  1
  Re  Re10  1  0.277453  0.722547  0.000000  1
  Re  Re11  1  0.346037  0.346037  0.860953  1
  Re  Re12  1  0.860953  0.346037  0.346037  1
  Re  Re13  1  0.346037  0.860953  0.346037  1
  Re  Re14  1  0.653963  0.653963  0.139047  1
  Re  Re15  1  0.139047  0.653963  0.653963  1
  Re  Re16  1  0.653963  0.139047  0.653963  1
  Re  Re17  1  0.898025  0.898025  0.898025  1
  Re  Re18  1  0.101975  0.101975  0.101975  1
  C  C19  1  0.500000  0.500000  0.000000  1
  C  C20  1  0.000000  0.500000  0.500000  1
  C  C21  1  0.500000  0.000000  0.500000  1
