# generated using pymatgen
data_Ce3Pr(SnRh2)2
_symmetry_space_group_name_H-M   'P 1'
_cell_length_a   7.65862447
_cell_length_b   7.65862516
_cell_length_c   3.80336200
_cell_angle_alpha   90.00000000
_cell_angle_beta   90.00000000
_cell_angle_gamma   91.54704030
_symmetry_Int_Tables_number   1
_chemical_formula_structural   Ce3Pr(SnRh2)2
_chemical_formula_sum   'Ce3 Pr1 Sn2 Rh4'
_cell_volume   223.00311115
_cell_formula_units_Z   1
loop_
 _symmetry_equiv_pos_site_id
 _symmetry_equiv_pos_as_xyz
  1  'x, y, z'
loop_
 _atom_site_type_symbol
 _atom_site_label
 _atom_site_symmetry_multiplicity
 _atom_site_fract_x
 _atom_site_fract_y
 _atom_site_fract_z
 _atom_site_occupancy
  Ce  Ce0  1  0.673775  0.169340  0.500000  1
  Ce  Ce1  1  0.330660  0.826225  0.500000  1
  Ce  Ce2  1  0.172273  0.327727  0.500000  1
  Pr  Pr3  1  0.827917  0.672083  0.500000  1
  Sn  Sn4  1  0.003466  0.996390  0.000000  1
  Sn  Sn5  1  0.503610  0.496534  0.000000  1
  Rh  Rh6  1  0.149753  0.631084  0.000000  1
  Rh  Rh7  1  0.868916  0.350247  0.000000  1
  Rh  Rh8  1  0.615228  0.884772  0.000000  1
  Rh  Rh9  1  0.354403  0.145597  0.000000  1
