# generated using pymatgen
data_ThSc2UAs6Ru7
_symmetry_space_group_name_H-M   'P 1'
_cell_length_a   7.23955467
_cell_length_b   7.18263732
_cell_length_c   7.18263834
_cell_angle_alpha   109.58171298
_cell_angle_beta   109.60954190
_cell_angle_gamma   109.60952878
_symmetry_Int_Tables_number   1
_chemical_formula_structural   ThSc2UAs6Ru7
_chemical_formula_sum   'Th1 Sc2 U1 As6 Ru7'
_cell_volume   286.13138986
_cell_formula_units_Z   1
loop_
 _symmetry_equiv_pos_site_id
 _symmetry_equiv_pos_as_xyz
  1  'x, y, z'
loop_
 _atom_site_type_symbol
 _atom_site_label
 _atom_site_symmetry_multiplicity
 _atom_site_fract_x
 _atom_site_fract_y
 _atom_site_fract_z
 _atom_site_occupancy
  Th  Th0  1  0.500000  0.500000  0.500000  1
  Sc  Sc1  1  0.000000  0.000000  0.500000  1
  Sc  Sc2  1  0.000000  0.500000  0.000000  1
  U  U3  1  0.500000  0.000000  0.000000  1
  As  As4  1  0.303203  0.987001  0.310375  1
  As  As5  1  0.994267  0.309354  0.309354  1
  As  As6  1  0.005733  0.690646  0.690646  1
  As  As7  1  0.303203  0.310375  0.987001  1
  As  As8  1  0.696797  0.689625  0.012999  1
  As  As9  1  0.696797  0.012999  0.689625  1
  Ru  Ru10  1  0.753773  0.497034  0.246110  1
  Ru  Ru11  1  0.500000  0.754020  0.245980  1
  Ru  Ru12  1  0.500000  0.245980  0.754020  1
  Ru  Ru13  1  0.753773  0.246110  0.497034  1
  Ru  Ru14  1  0.246227  0.753890  0.502966  1
  Ru  Ru15  1  0.246227  0.502966  0.753890  1
  Ru  Ru16  1  0.000000  0.000000  0.000000  1
