# generated using pymatgen
data_Ho(S8I)3
_symmetry_space_group_name_H-M   'P 1'
_cell_length_a   15.52468511
_cell_length_b   15.52468484
_cell_length_c   15.52468456
_cell_angle_alpha   119.18220742
_cell_angle_beta   119.18220444
_cell_angle_gamma   119.18220077
_symmetry_Int_Tables_number   1
_chemical_formula_structural   Ho(S8I)3
_chemical_formula_sum   'Ho1 S24 I3'
_cell_volume   876.95669265
_cell_formula_units_Z   1
loop_
 _symmetry_equiv_pos_site_id
 _symmetry_equiv_pos_as_xyz
  1  'x, y, z'
loop_
 _atom_site_type_symbol
 _atom_site_label
 _atom_site_symmetry_multiplicity
 _atom_site_fract_x
 _atom_site_fract_y
 _atom_site_fract_z
 _atom_site_occupancy
  Ho  Ho0  1  0.456412  0.456412  0.456412  1
  S  S1  1  0.994105  0.584249  0.584249  1
  S  S2  1  0.584249  0.584249  0.994105  1
  S  S3  1  0.584249  0.994105  0.584249  1
  S  S4  1  0.249449  0.855652  0.729841  1
  S  S5  1  0.855652  0.729841  0.249449  1
  S  S6  1  0.729841  0.249449  0.855652  1
  S  S7  1  0.855652  0.249449  0.729841  1
  S  S8  1  0.249449  0.729841  0.855652  1
  S  S9  1  0.729841  0.855652  0.249449  1
  S  S10  1  0.085260  0.610427  0.431526  1
  S  S11  1  0.610427  0.431526  0.085260  1
  S  S12  1  0.431526  0.085260  0.610427  1
  S  S13  1  0.610427  0.085260  0.431526  1
  S  S14  1  0.085260  0.431526  0.610427  1
  S  S15  1  0.431526  0.610427  0.085260  1
  S  S16  1  0.376183  0.764446  0.637735  1
  S  S17  1  0.764446  0.637735  0.376183  1
  S  S18  1  0.637735  0.376183  0.764446  1
  S  S19  1  0.764446  0.376183  0.637735  1
  S  S20  1  0.376183  0.637735  0.764446  1
  S  S21  1  0.637735  0.764446  0.376183  1
  S  S22  1  0.173867  0.455532  0.455532  1
  S  S23  1  0.455532  0.455532  0.173867  1
  S  S24  1  0.455532  0.173867  0.455532  1
  I  I25  1  0.052337  0.904891  0.904891  1
  I  I26  1  0.904891  0.904891  0.052337  1
  I  I27  1  0.904891  0.052337  0.904891  1
