# generated using pymatgen
data_AcSmPdS3
_symmetry_space_group_name_H-M   'P 1'
_cell_length_a   6.95686903
_cell_length_b   6.95686903
_cell_length_c   10.10919600
_cell_angle_alpha   90.00000000
_cell_angle_beta   90.00000000
_cell_angle_gamma   146.02163640
_symmetry_Int_Tables_number   1
_chemical_formula_structural   AcSmPdS3
_chemical_formula_sum   'Ac2 Sm2 Pd2 S6'
_cell_volume   273.44040109
_cell_formula_units_Z   2
loop_
 _symmetry_equiv_pos_site_id
 _symmetry_equiv_pos_as_xyz
  1  'x, y, z'
loop_
 _atom_site_type_symbol
 _atom_site_label
 _atom_site_symmetry_multiplicity
 _atom_site_fract_x
 _atom_site_fract_y
 _atom_site_fract_z
 _atom_site_occupancy
  Ac  Ac0  1  0.751370  0.248629  0.250000  1
  Ac  Ac1  1  0.248629  0.751370  0.750000  1
  Sm  Sm2  1  0.500000  0.500000  0.000000  1
  Sm  Sm3  1  0.500000  0.500000  0.500000  1
  Pd  Pd4  1  0.024029  0.975971  0.250000  1
  Pd  Pd5  1  0.975971  0.024029  0.750000  1
  S  S6  1  0.145968  0.854031  0.062264  1
  S  S7  1  0.411378  0.588622  0.250000  1
  S  S8  1  0.145968  0.854031  0.437736  1
  S  S9  1  0.854031  0.145968  0.562264  1
  S  S10  1  0.588622  0.411378  0.750000  1
  S  S11  1  0.854031  0.145968  0.937736  1
