# generated using pymatgen
data_Ti2B(IrRh2)2
_symmetry_space_group_name_H-M   'P 1'
_cell_length_a   5.60407811
_cell_length_b   5.61135147
_cell_length_c   5.60407753
_cell_angle_alpha   59.95705568
_cell_angle_beta   60.06160908
_cell_angle_gamma   59.95705051
_symmetry_Int_Tables_number   1
_chemical_formula_structural   Ti2B(IrRh2)2
_chemical_formula_sum   'Ti2 B1 Ir2 Rh4'
_cell_volume   124.58911633
_cell_formula_units_Z   1
loop_
 _symmetry_equiv_pos_site_id
 _symmetry_equiv_pos_as_xyz
  1  'x, y, z'
loop_
 _atom_site_type_symbol
 _atom_site_label
 _atom_site_symmetry_multiplicity
 _atom_site_fract_x
 _atom_site_fract_y
 _atom_site_fract_z
 _atom_site_occupancy
  Ti  Ti0  1  0.749660  0.749952  0.750436  1
  Ti  Ti1  1  0.249564  0.250048  0.250340  1
  B  B2  1  0.498223  0.500000  0.501777  1
  Ir  Ir3  1  0.758984  0.758911  0.241016  1
  Ir  Ir4  1  0.758984  0.241089  0.241016  1
  Rh  Rh5  1  0.241530  0.758885  0.240700  1
  Rh  Rh6  1  0.241878  0.241706  0.758122  1
  Rh  Rh7  1  0.759300  0.241115  0.758470  1
  Rh  Rh8  1  0.241878  0.758294  0.758122  1
