# generated using pymatgen
data_Ho6Er4InBi5
_symmetry_space_group_name_H-M   'P 1'
_cell_length_a   9.08909579
_cell_length_b   9.08631158
_cell_length_c   6.42413100
_cell_angle_alpha   90.00000000
_cell_angle_beta   90.00000000
_cell_angle_gamma   119.98986685
_symmetry_Int_Tables_number   1
_chemical_formula_structural   Ho6Er4InBi5
_chemical_formula_sum   'Ho6 Er4 In1 Bi5'
_cell_volume   459.51285164
_cell_formula_units_Z   1
loop_
 _symmetry_equiv_pos_site_id
 _symmetry_equiv_pos_as_xyz
  1  'x, y, z'
loop_
 _atom_site_type_symbol
 _atom_site_label
 _atom_site_symmetry_multiplicity
 _atom_site_fract_x
 _atom_site_fract_y
 _atom_site_fract_z
 _atom_site_occupancy
  Ho  Ho0  1  0.759391  0.757858  0.750000  1
  Ho  Ho1  1  0.240609  0.998467  0.750000  1
  Ho  Ho2  1  0.000000  0.240526  0.750000  1
  Ho  Ho3  1  0.235161  0.243289  0.250000  1
  Ho  Ho4  1  0.764839  0.008128  0.250000  1
  Ho  Ho5  1  0.000000  0.755717  0.250000  1
  Er  Er6  1  0.672533  0.334540  0.000510  1
  Er  Er7  1  0.327467  0.662008  0.000510  1
  Er  Er8  1  0.327467  0.662008  0.499490  1
  Er  Er9  1  0.672533  0.334540  0.499490  1
  In  In10  1  0.000000  0.394583  0.250000  1
  Bi  Bi11  1  0.392183  0.389621  0.750000  1
  Bi  Bi12  1  0.607817  0.997438  0.750000  1
  Bi  Bi13  1  0.000000  0.608513  0.750000  1
  Bi  Bi14  1  0.609919  0.611340  0.250000  1
  Bi  Bi15  1  0.390081  0.001422  0.250000  1
