# generated using pymatgen
data_Tb20Fe3CoBi8
_symmetry_space_group_name_H-M   'P 1'
_cell_length_a   8.01913579
_cell_length_b   8.93108000
_cell_length_c   12.44531488
_cell_angle_alpha   90.00000000
_cell_angle_beta   90.13732350
_cell_angle_gamma   90.00000000
_symmetry_Int_Tables_number   1
_chemical_formula_structural   Tb20Fe3CoBi8
_chemical_formula_sum   'Tb20 Fe3 Co1 Bi8'
_cell_volume   891.32520801
_cell_formula_units_Z   1
loop_
 _symmetry_equiv_pos_site_id
 _symmetry_equiv_pos_as_xyz
  1  'x, y, z'
loop_
 _atom_site_type_symbol
 _atom_site_label
 _atom_site_symmetry_multiplicity
 _atom_site_fract_x
 _atom_site_fract_y
 _atom_site_fract_z
 _atom_site_occupancy
  Tb  Tb0  1  0.848312  0.750000  0.800810  1
  Tb  Tb1  1  0.150814  0.250000  0.198072  1
  Tb  Tb2  1  0.349221  0.250000  0.700103  1
  Tb  Tb3  1  0.649955  0.750000  0.301235  1
  Tb  Tb4  1  0.381759  0.750000  0.689899  1
  Tb  Tb5  1  0.617006  0.250000  0.310591  1
  Tb  Tb6  1  0.882868  0.250000  0.811782  1
  Tb  Tb7  1  0.119212  0.750000  0.188674  1
  Tb  Tb8  1  0.947695  0.750000  0.504105  1
  Tb  Tb9  1  0.053591  0.250000  0.494815  1
  Tb  Tb10  1  0.449981  0.250000  0.995911  1
  Tb  Tb11  1  0.548100  0.750000  0.003948  1
  Tb  Tb12  1  0.674871  0.033945  0.562443  1
  Tb  Tb13  1  0.324724  0.964686  0.437982  1
  Tb  Tb14  1  0.175423  0.967557  0.936905  1
  Tb  Tb15  1  0.324724  0.535314  0.437982  1
  Tb  Tb16  1  0.822490  0.037976  0.063431  1
  Tb  Tb17  1  0.674871  0.466055  0.562443  1
  Tb  Tb18  1  0.822490  0.462024  0.063431  1
  Tb  Tb19  1  0.175423  0.532443  0.936905  1
  Fe  Fe20  1  0.572398  0.750000  0.511331  1
  Fe  Fe21  1  0.429366  0.250000  0.490256  1
  Fe  Fe22  1  0.068279  0.250000  0.990564  1
  Co  Co23  1  0.936464  0.750000  0.008082  1
  Bi  Bi24  1  0.572781  0.493076  0.826299  1
  Bi  Bi25  1  0.427929  0.507050  0.173784  1
  Bi  Bi26  1  0.071138  0.506749  0.673077  1
  Bi  Bi27  1  0.427929  0.992950  0.173784  1
  Bi  Bi28  1  0.928132  0.493229  0.325988  1
  Bi  Bi29  1  0.572781  0.006924  0.826299  1
  Bi  Bi30  1  0.928132  0.006771  0.325988  1
  Bi  Bi31  1  0.071138  0.993251  0.673077  1
