# generated using pymatgen
data_Rb4U3WF28
_symmetry_space_group_name_H-M   'P 1'
_cell_length_a   9.69799724
_cell_length_b   5.83011581
_cell_length_c   10.04797800
_cell_angle_alpha   87.43189803
_cell_angle_beta   89.87190261
_cell_angle_gamma   89.42658320
_symmetry_Int_Tables_number   1
_chemical_formula_structural   Rb4U3WF28
_chemical_formula_sum   'Rb4 U3 W1 F28'
_cell_volume   567.51725912
_cell_formula_units_Z   1
loop_
 _symmetry_equiv_pos_site_id
 _symmetry_equiv_pos_as_xyz
  1  'x, y, z'
loop_
 _atom_site_type_symbol
 _atom_site_label
 _atom_site_symmetry_multiplicity
 _atom_site_fract_x
 _atom_site_fract_y
 _atom_site_fract_z
 _atom_site_occupancy
  Rb  Rb0  1  0.310131  0.259588  0.503989  1
  Rb  Rb1  1  0.804261  0.738552  0.993093  1
  Rb  Rb2  1  0.689758  0.741312  0.487419  1
  Rb  Rb3  1  0.195299  0.261267  0.007631  1
  U  U4  1  0.386568  0.764782  0.786157  1
  U  U5  1  0.885924  0.234545  0.714206  1
  U  U6  1  0.112625  0.766940  0.286142  1
  W  W7  1  0.615462  0.234046  0.215048  1
  F  F8  1  0.428374  0.063904  0.880598  1
  F  F9  1  0.044814  0.364143  0.602281  1
  F  F10  1  0.723528  0.511731  0.227757  1
  F  F11  1  0.262509  0.479025  0.760269  1
  F  F12  1  0.488696  0.973694  0.641321  1
  F  F13  1  0.769158  0.272600  0.540485  1
  F  F14  1  0.771588  0.088132  0.297605  1
  F  F15  1  0.987651  0.019486  0.856783  1
  F  F16  1  0.466580  0.357963  0.113795  1
  F  F17  1  0.239262  0.478512  0.260097  1
  F  F18  1  0.072167  0.067888  0.381025  1
  F  F19  1  0.583643  0.955480  0.123118  1
  F  F20  1  0.278986  0.932398  0.202723  1
  F  F21  1  0.017253  0.553925  0.149830  1
  F  F22  1  0.513823  0.028985  0.338337  1
  F  F23  1  0.010051  0.979523  0.143509  1
  F  F24  1  0.220758  0.936862  0.702125  1
  F  F25  1  0.923231  0.932015  0.619463  1
  F  F26  1  0.532912  0.419477  0.352792  1
  F  F27  1  0.952767  0.635885  0.396299  1
  F  F28  1  0.981680  0.442934  0.853280  1
  F  F29  1  0.718325  0.076143  0.800547  1
  F  F30  1  0.484484  0.549428  0.650226  1
  F  F31  1  0.268150  0.732211  0.960281  1
  F  F32  1  0.229758  0.728704  0.460823  1
  F  F33  1  0.724353  0.262667  0.052533  1
  F  F34  1  0.540977  0.625268  0.901338  1
  F  F35  1  0.764495  0.529988  0.737077  1
