# generated using pymatgen
data_Ce2PrEr(SnRu)4
_symmetry_space_group_name_H-M   'P 1'
_cell_length_a   6.28408944
_cell_length_b   6.28408980
_cell_length_c   10.19337649
_cell_angle_alpha   78.07537483
_cell_angle_beta   78.07537388
_cell_angle_gamma   44.97292591
_symmetry_Int_Tables_number   1
_chemical_formula_structural   Ce2PrEr(SnRu)4
_chemical_formula_sum   'Ce2 Pr1 Er1 Sn4 Ru4'
_cell_volume   277.29511445
_cell_formula_units_Z   1
loop_
 _symmetry_equiv_pos_site_id
 _symmetry_equiv_pos_as_xyz
  1  'x, y, z'
loop_
 _atom_site_type_symbol
 _atom_site_label
 _atom_site_symmetry_multiplicity
 _atom_site_fract_x
 _atom_site_fract_y
 _atom_site_fract_z
 _atom_site_occupancy
  Ce  Ce0  1  0.861539  0.861539  0.912235  1
  Ce  Ce1  1  0.140833  0.140833  0.085586  1
  Pr  Pr2  1  0.878087  0.878087  0.407467  1
  Er  Er3  1  0.121892  0.121892  0.595381  1
  Sn  Sn4  1  0.424420  0.424420  0.156327  1
  Sn  Sn5  1  0.405545  0.405545  0.648039  1
  Sn  Sn6  1  0.575554  0.575554  0.840049  1
  Sn  Sn7  1  0.595441  0.595441  0.356962  1
  Ru  Ru8  1  0.814792  0.814792  0.146811  1
  Ru  Ru9  1  0.195358  0.195358  0.305880  1
  Ru  Ru10  1  0.182589  0.182589  0.849197  1
  Ru  Ru11  1  0.803950  0.803950  0.696064  1
