# generated using pymatgen
data_Dy5NiBi2
_symmetry_space_group_name_H-M   'P 1'
_cell_length_a   8.03577000
_cell_length_b   8.92494200
_cell_length_c   12.37209100
_cell_angle_alpha   90.00000000
_cell_angle_beta   90.00000000
_cell_angle_gamma   90.00000000
_symmetry_Int_Tables_number   1
_chemical_formula_structural   Dy5NiBi2
_chemical_formula_sum   'Dy20 Ni4 Bi8'
_cell_volume   887.31128711
_cell_formula_units_Z   4
loop_
 _symmetry_equiv_pos_site_id
 _symmetry_equiv_pos_as_xyz
  1  'x, y, z'
loop_
 _atom_site_type_symbol
 _atom_site_label
 _atom_site_symmetry_multiplicity
 _atom_site_fract_x
 _atom_site_fract_y
 _atom_site_fract_z
 _atom_site_occupancy
  Dy  Dy0  1  0.155382  0.750000  0.202877  1
  Dy  Dy1  1  0.344618  0.750000  0.702877  1
  Dy  Dy2  1  0.844618  0.250000  0.797123  1
  Dy  Dy3  1  0.655382  0.250000  0.297123  1
  Dy  Dy4  1  0.453464  0.750000  0.999345  1
  Dy  Dy5  1  0.046536  0.750000  0.499345  1
  Dy  Dy6  1  0.546536  0.250000  0.000655  1
  Dy  Dy7  1  0.953464  0.250000  0.500655  1
  Dy  Dy8  1  0.620615  0.750000  0.307419  1
  Dy  Dy9  1  0.879385  0.750000  0.807419  1
  Dy  Dy10  1  0.379385  0.250000  0.692581  1
  Dy  Dy11  1  0.120615  0.250000  0.192581  1
  Dy  Dy12  1  0.821794  0.539543  0.064514  1
  Dy  Dy13  1  0.678206  0.960457  0.564514  1
  Dy  Dy14  1  0.178206  0.039543  0.935486  1
  Dy  Dy15  1  0.321794  0.460457  0.435486  1
  Dy  Dy16  1  0.178206  0.460457  0.935486  1
  Dy  Dy17  1  0.321794  0.039543  0.435486  1
  Dy  Dy18  1  0.821794  0.960457  0.064514  1
  Dy  Dy19  1  0.678206  0.539543  0.564514  1
  Ni  Ni20  1  0.431669  0.750000  0.490563  1
  Ni  Ni21  1  0.068331  0.750000  0.990563  1
  Ni  Ni22  1  0.568331  0.250000  0.509437  1
  Ni  Ni23  1  0.931669  0.250000  0.009437  1
  Bi  Bi24  1  0.928407  0.509213  0.326685  1
  Bi  Bi25  1  0.571593  0.990787  0.826685  1
  Bi  Bi26  1  0.071593  0.009213  0.673315  1
  Bi  Bi27  1  0.428407  0.490787  0.173315  1
  Bi  Bi28  1  0.071593  0.490787  0.673315  1
  Bi  Bi29  1  0.428407  0.009213  0.173315  1
  Bi  Bi30  1  0.928407  0.990787  0.326685  1
  Bi  Bi31  1  0.571593  0.509213  0.826685  1
