# generated using pymatgen
data_EuTi2O5
_symmetry_space_group_name_H-M   'P 1'
_cell_length_a   3.70629500
_cell_length_b   5.19649300
_cell_length_c   11.83379400
_cell_angle_alpha   90.00000000
_cell_angle_beta   90.00000000
_cell_angle_gamma   90.00000000
_symmetry_Int_Tables_number   1
_chemical_formula_structural   EuTi2O5
_chemical_formula_sum   'Eu2 Ti4 O10'
_cell_volume   227.91574860
_cell_formula_units_Z   2
loop_
 _symmetry_equiv_pos_site_id
 _symmetry_equiv_pos_as_xyz
  1  'x, y, z'
loop_
 _atom_site_type_symbol
 _atom_site_label
 _atom_site_symmetry_multiplicity
 _atom_site_fract_x
 _atom_site_fract_y
 _atom_site_fract_z
 _atom_site_occupancy
  Eu  Eu0  1  0.500000  0.125902  0.000000  1
  Eu  Eu1  1  0.000000  0.874098  0.500000  1
  Ti  Ti2  1  0.000000  0.596223  0.848205  1
  Ti  Ti3  1  0.500000  0.403777  0.651795  1
  Ti  Ti4  1  0.500000  0.403777  0.348205  1
  Ti  Ti5  1  0.000000  0.596223  0.151795  1
  O  O6  1  0.500000  0.548051  0.500000  1
  O  O7  1  0.000000  0.451949  0.000000  1
  O  O8  1  0.500000  0.467757  0.825277  1
  O  O9  1  0.000000  0.532243  0.674723  1
  O  O10  1  0.500000  0.467757  0.174723  1
  O  O11  1  0.000000  0.532243  0.325277  1
  O  O12  1  0.000000  0.924092  0.121818  1
  O  O13  1  0.500000  0.075908  0.378182  1
  O  O14  1  0.500000  0.075908  0.621818  1
  O  O15  1  0.000000  0.924092  0.878182  1
