# generated using pymatgen
data_TbPrCo6(SiB)2
_symmetry_space_group_name_H-M   'P 1'
_cell_length_a   5.20794000
_cell_length_b   5.20979151
_cell_length_c   6.47738600
_cell_angle_alpha   90.00000000
_cell_angle_beta   90.00000000
_cell_angle_gamma   119.98826987
_symmetry_Int_Tables_number   1
_chemical_formula_structural   TbPrCo6(SiB)2
_chemical_formula_sum   'Tb1 Pr1 Co6 Si2 B2'
_cell_volume   152.21871363
_cell_formula_units_Z   1
loop_
 _symmetry_equiv_pos_site_id
 _symmetry_equiv_pos_as_xyz
  1  'x, y, z'
loop_
 _atom_site_type_symbol
 _atom_site_label
 _atom_site_symmetry_multiplicity
 _atom_site_fract_x
 _atom_site_fract_y
 _atom_site_fract_z
 _atom_site_occupancy
  Tb  Tb0  1  0.999984  0.000000  0.500000  1
  Pr  Pr1  1  0.999984  0.000000  0.000000  1
  Co  Co2  1  0.499983  0.000000  0.285655  1
  Co  Co3  1  0.499984  0.500001  0.285841  1
  Co  Co4  1  0.999982  0.499999  0.285841  1
  Co  Co5  1  0.499983  0.000000  0.714345  1
  Co  Co6  1  0.499984  0.500001  0.714159  1
  Co  Co7  1  0.999982  0.499999  0.714159  1
  Si  Si8  1  0.333062  0.666160  0.000000  1
  Si  Si9  1  0.666904  0.333840  0.000000  1
  B  B10  1  0.333350  0.666735  0.500000  1
  B  B11  1  0.666615  0.333265  0.500000  1
