# generated using pymatgen
data_PrTlGeSe4
_symmetry_space_group_name_H-M   'P 1'
_cell_length_a   11.56034500
_cell_length_b   7.21590100
_cell_length_c   19.70205600
_cell_angle_alpha   90.00000000
_cell_angle_beta   90.00000000
_cell_angle_gamma   90.00000000
_symmetry_Int_Tables_number   1
_chemical_formula_structural   PrTlGeSe4
_chemical_formula_sum   'Pr8 Tl8 Ge8 Se32'
_cell_volume   1643.51211744
_cell_formula_units_Z   8
loop_
 _symmetry_equiv_pos_site_id
 _symmetry_equiv_pos_as_xyz
  1  'x, y, z'
loop_
 _atom_site_type_symbol
 _atom_site_label
 _atom_site_symmetry_multiplicity
 _atom_site_fract_x
 _atom_site_fract_y
 _atom_site_fract_z
 _atom_site_occupancy
  Pr  Pr0  1  0.607356  0.272462  0.065396  1
  Pr  Pr1  1  0.892644  0.772462  0.065396  1
  Pr  Pr2  1  0.107356  0.272462  0.434604  1
  Pr  Pr3  1  0.392645  0.772462  0.434604  1
  Pr  Pr4  1  0.607356  0.227538  0.565396  1
  Pr  Pr5  1  0.892644  0.727538  0.565396  1
  Pr  Pr6  1  0.107356  0.227538  0.934604  1
  Pr  Pr7  1  0.392645  0.727538  0.934604  1
  Tl  Tl8  1  0.253927  0.330882  0.197947  1
  Tl  Tl9  1  0.246072  0.830882  0.197947  1
  Tl  Tl10  1  0.753928  0.330882  0.302053  1
  Tl  Tl11  1  0.746072  0.830882  0.302053  1
  Tl  Tl12  1  0.253927  0.169118  0.697947  1
  Tl  Tl13  1  0.246072  0.669118  0.697947  1
  Tl  Tl14  1  0.753928  0.169118  0.802053  1
  Tl  Tl15  1  0.746072  0.669118  0.802053  1
  Ge  Ge16  1  0.944256  0.282657  0.111503  1
  Ge  Ge17  1  0.555744  0.782657  0.111503  1
  Ge  Ge18  1  0.444255  0.282657  0.388497  1
  Ge  Ge19  1  0.055744  0.782657  0.388497  1
  Ge  Ge20  1  0.944256  0.217343  0.611503  1
  Ge  Ge21  1  0.555744  0.717343  0.611503  1
  Ge  Ge22  1  0.444255  0.217343  0.888497  1
  Ge  Ge23  1  0.055744  0.717343  0.888497  1
  Se  Se24  1  0.858553  0.379489  0.005938  1
  Se  Se25  1  0.641447  0.879488  0.005938  1
  Se  Se26  1  0.093547  0.068670  0.081262  1
  Se  Se27  1  0.406452  0.568670  0.081262  1
  Se  Se28  1  0.795384  0.091543  0.157341  1
  Se  Se29  1  0.704616  0.591543  0.157341  1
  Se  Se30  1  0.497104  0.036221  0.179911  1
  Se  Se31  1  0.002896  0.536221  0.179911  1
  Se  Se32  1  0.997104  0.036221  0.320090  1
  Se  Se33  1  0.502895  0.536221  0.320090  1
  Se  Se34  1  0.295384  0.091543  0.342659  1
  Se  Se35  1  0.204616  0.591543  0.342659  1
  Se  Se36  1  0.593547  0.068670  0.418738  1
  Se  Se37  1  0.906452  0.568670  0.418738  1
  Se  Se38  1  0.358553  0.379489  0.494062  1
  Se  Se39  1  0.141447  0.879488  0.494062  1
  Se  Se40  1  0.858553  0.120511  0.505939  1
  Se  Se41  1  0.641447  0.620511  0.505939  1
  Se  Se42  1  0.093547  0.431330  0.581261  1
  Se  Se43  1  0.406452  0.931330  0.581261  1
  Se  Se44  1  0.795384  0.408458  0.657341  1
  Se  Se45  1  0.704616  0.908458  0.657341  1
  Se  Se46  1  0.497104  0.463779  0.679911  1
  Se  Se47  1  0.002896  0.963779  0.679911  1
  Se  Se48  1  0.997104  0.463779  0.820089  1
  Se  Se49  1  0.502895  0.963779  0.820089  1
  Se  Se50  1  0.295384  0.408458  0.842659  1
  Se  Se51  1  0.204616  0.908458  0.842659  1
  Se  Se52  1  0.593547  0.431330  0.918738  1
  Se  Se53  1  0.906452  0.931330  0.918738  1
  Se  Se54  1  0.358553  0.120511  0.994061  1
  Se  Se55  1  0.141447  0.620511  0.994061  1
