# generated using pymatgen
data_SrTb3PrHo2CoI12
_symmetry_space_group_name_H-M   'P 1'
_cell_length_a   9.77187704
_cell_length_b   9.81626675
_cell_length_c   9.84072351
_cell_angle_alpha   106.14761871
_cell_angle_beta   106.45035300
_cell_angle_gamma   105.99075073
_symmetry_Int_Tables_number   1
_chemical_formula_structural   SrTb3PrHo2CoI12
_chemical_formula_sum   'Sr1 Tb3 Pr1 Ho2 Co1 I12'
_cell_volume   802.73763500
_cell_formula_units_Z   1
loop_
 _symmetry_equiv_pos_site_id
 _symmetry_equiv_pos_as_xyz
  1  'x, y, z'
loop_
 _atom_site_type_symbol
 _atom_site_label
 _atom_site_symmetry_multiplicity
 _atom_site_fract_x
 _atom_site_fract_y
 _atom_site_fract_z
 _atom_site_occupancy
  Sr  Sr0  1  0.499312  0.500310  0.499570  1
  Tb  Tb1  1  0.979776  0.907365  0.706233  1
  Tb  Tb2  1  0.905459  0.706061  0.979558  1
  Tb  Tb3  1  0.721744  0.981385  0.911835  1
  Pr  Pr4  1  0.286675  0.018400  0.091346  1
  Ho  Ho5  1  0.019135  0.092848  0.289899  1
  Ho  Ho6  1  0.090478  0.290218  0.019365  1
  Co  Co7  1  0.000005  0.999187  0.999775  1
  I  I8  1  0.133259  0.445513  0.365065  1
  I  I9  1  0.446491  0.374266  0.135802  1
  I  I10  1  0.365546  0.139460  0.455323  1
  I  I11  1  0.864844  0.552230  0.632850  1
  I  I12  1  0.552607  0.634258  0.864290  1
  I  I13  1  0.632733  0.865321  0.554858  1
  I  I14  1  0.683644  0.074806  0.223855  1
  I  I15  1  0.073278  0.224066  0.678768  1
  I  I16  1  0.219596  0.668591  0.073058  1
  I  I17  1  0.320599  0.924143  0.769105  1
  I  I18  1  0.927462  0.780203  0.323264  1
  I  I19  1  0.777355  0.321370  0.926178  1
