# generated using pymatgen
data_Dy6Ho6GaCo4Sn
_symmetry_space_group_name_H-M   'P 1'
_cell_length_a   8.28213366
_cell_length_b   8.28213399
_cell_length_c   8.28444828
_cell_angle_alpha   112.26085046
_cell_angle_beta   109.22718794
_cell_angle_gamma   106.95757145
_symmetry_Int_Tables_number   1
_chemical_formula_structural   Dy6Ho6GaCo4Sn
_chemical_formula_sum   'Dy6 Ho6 Ga1 Co4 Sn1'
_cell_volume   436.56572888
_cell_formula_units_Z   1
loop_
 _symmetry_equiv_pos_site_id
 _symmetry_equiv_pos_as_xyz
  1  'x, y, z'
loop_
 _atom_site_type_symbol
 _atom_site_label
 _atom_site_symmetry_multiplicity
 _atom_site_fract_x
 _atom_site_fract_y
 _atom_site_fract_z
 _atom_site_occupancy
  Dy  Dy0  1  0.433143  0.230781  0.201655  1
  Dy  Dy1  1  0.566857  0.769219  0.798345  1
  Dy  Dy2  1  0.029124  0.231486  0.798345  1
  Dy  Dy3  1  0.970876  0.768514  0.201655  1
  Dy  Dy4  1  0.181375  0.282830  0.464202  1
  Dy  Dy5  1  0.818625  0.717170  0.535798  1
  Ho  Ho6  1  0.181280  0.717206  0.898486  1
  Ho  Ho7  1  0.818720  0.282794  0.101514  1
  Ho  Ho8  1  0.324278  0.637177  0.312380  1
  Ho  Ho9  1  0.675722  0.362823  0.687620  1
  Ho  Ho10  1  0.324798  0.011898  0.687620  1
  Ho  Ho11  1  0.675202  0.988102  0.312380  1
  Ga  Ga12  1  0.000000  0.000000  0.000000  1
  Co  Co13  1  0.344756  0.999589  0.344343  1
  Co  Co14  1  0.655244  0.000411  0.655657  1
  Co  Co15  1  0.114208  0.614208  0.500000  1
  Co  Co16  1  0.885792  0.385792  0.500000  1
  Sn  Sn17  1  0.500000  0.500000  0.000000  1
