# generated using pymatgen
data_Y9TmS10
_symmetry_space_group_name_H-M   'P 1'
_cell_length_a   6.75760671
_cell_length_b   7.81132022
_cell_length_c   8.77013600
_cell_angle_alpha   103.15471891
_cell_angle_beta   97.22383826
_cell_angle_gamma   106.76934225
_symmetry_Int_Tables_number   1
_chemical_formula_structural   Y9TmS10
_chemical_formula_sum   'Y9 Tm1 S10'
_cell_volume   422.42706441
_cell_formula_units_Z   1
loop_
 _symmetry_equiv_pos_site_id
 _symmetry_equiv_pos_as_xyz
  1  'x, y, z'
loop_
 _atom_site_type_symbol
 _atom_site_label
 _atom_site_symmetry_multiplicity
 _atom_site_fract_x
 _atom_site_fract_y
 _atom_site_fract_z
 _atom_site_occupancy
  Y  Y0  1  0.799320  0.599650  0.598784  1
  Y  Y1  1  0.597422  0.198733  0.199589  1
  Y  Y2  1  0.402578  0.801267  0.800411  1
  Y  Y3  1  0.600070  0.700844  0.200653  1
  Y  Y4  1  0.200680  0.400350  0.401216  1
  Y  Y5  1  0.399930  0.299156  0.799347  1
  Y  Y6  1  0.000000  0.000000  0.000000  1
  Y  Y7  1  0.201995  0.900891  0.400697  1
  Y  Y8  1  0.798005  0.099109  0.599303  1
  Tm  Tm9  1  0.000000  0.500000  0.000000  1
  S  S10  1  0.703394  0.648070  0.900986  1
  S  S11  1  0.500102  0.250510  0.499857  1
  S  S12  1  0.703808  0.154302  0.901442  1
  S  S13  1  0.296192  0.845698  0.098558  1
  S  S14  1  0.499898  0.749490  0.500143  1
  S  S15  1  0.098984  0.450903  0.703446  1
  S  S16  1  0.296606  0.351930  0.099014  1
  S  S17  1  0.900372  0.050480  0.299953  1
  S  S18  1  0.099628  0.949520  0.700047  1
  S  S19  1  0.901016  0.549097  0.296554  1
