# generated using pymatgen
data_HoEr3Mn4Al4O20
_symmetry_space_group_name_H-M   'P 1'
_cell_length_a   5.65345600
_cell_length_b   7.22370200
_cell_length_c   8.40761401
_cell_angle_alpha   89.99581392
_cell_angle_beta   90.00000000
_cell_angle_gamma   90.00000000
_symmetry_Int_Tables_number   1
_chemical_formula_structural   HoEr3Mn4Al4O20
_chemical_formula_sum   'Ho1 Er3 Mn4 Al4 O20'
_cell_volume   343.35755066
_cell_formula_units_Z   1
loop_
 _symmetry_equiv_pos_site_id
 _symmetry_equiv_pos_as_xyz
  1  'x, y, z'
loop_
 _atom_site_type_symbol
 _atom_site_label
 _atom_site_symmetry_multiplicity
 _atom_site_fract_x
 _atom_site_fract_y
 _atom_site_fract_z
 _atom_site_occupancy
  Ho  Ho0  1  0.000000  0.367935  0.668411  1
  Er  Er1  1  0.000000  0.632226  0.331567  1
  Er  Er2  1  0.000000  0.867828  0.831628  1
  Er  Er3  1  0.000000  0.132160  0.168385  1
  Mn  Mn4  1  0.253237  0.500024  0.000065  1
  Mn  Mn5  1  0.746753  0.999935  0.499976  1
  Mn  Mn6  1  0.746763  0.500024  0.000065  1
  Mn  Mn7  1  0.253247  0.999935  0.499976  1
  Al  Al8  1  0.500000  0.106694  0.857347  1
  Al  Al9  1  0.500000  0.893231  0.142674  1
  Al  Al10  1  0.500000  0.606881  0.642645  1
  Al  Al11  1  0.500000  0.393265  0.357282  1
  O  O12  1  0.248812  0.892855  0.289674  1
  O  O13  1  0.249086  0.106755  0.710367  1
  O  O14  1  0.751196  0.392863  0.210321  1
  O  O15  1  0.750957  0.607380  0.789787  1
  O  O16  1  0.750914  0.106755  0.710367  1
  O  O17  1  0.751188  0.892855  0.289674  1
  O  O18  1  0.249043  0.607380  0.789787  1
  O  O19  1  0.248804  0.392863  0.210321  1
  O  O20  1  0.500000  0.342922  0.927155  1
  O  O21  1  0.500000  0.657063  0.072832  1
  O  O22  1  0.500000  0.842938  0.572786  1
  O  O23  1  0.500000  0.157076  0.427191  1
  O  O24  1  0.278524  0.000008  0.000014  1
  O  O25  1  0.721108  0.500220  0.499749  1
  O  O26  1  0.721476  0.000008  0.000014  1
  O  O27  1  0.278892  0.500220  0.499749  1
  O  O28  1  0.000000  0.164208  0.442135  1
  O  O29  1  0.000000  0.835529  0.557620  1
  O  O30  1  0.000000  0.664460  0.057619  1
  O  O31  1  0.000000  0.335506  0.942822  1
