# generated using pymatgen
data_Tm2SbRh5
_symmetry_space_group_name_H-M   'P 1'
_cell_length_a   4.26484600
_cell_length_b   5.69344300
_cell_length_c   11.22520200
_cell_angle_alpha   90.00000000
_cell_angle_beta   90.00000000
_cell_angle_gamma   90.00000000
_symmetry_Int_Tables_number   1
_chemical_formula_structural   Tm2SbRh5
_chemical_formula_sum   'Tm4 Sb2 Rh10'
_cell_volume   272.56651151
_cell_formula_units_Z   2
loop_
 _symmetry_equiv_pos_site_id
 _symmetry_equiv_pos_as_xyz
  1  'x, y, z'
loop_
 _atom_site_type_symbol
 _atom_site_label
 _atom_site_symmetry_multiplicity
 _atom_site_fract_x
 _atom_site_fract_y
 _atom_site_fract_z
 _atom_site_occupancy
  Tm  Tm0  1  0.500000  0.176440  0.641359  1
  Tm  Tm1  1  0.500000  0.823560  0.358641  1
  Tm  Tm2  1  0.500000  0.676440  0.858641  1
  Tm  Tm3  1  0.500000  0.323560  0.141359  1
  Sb  Sb4  1  0.000000  0.500000  0.500000  1
  Sb  Sb5  1  0.000000  0.000000  0.000000  1
  Rh  Rh6  1  0.500000  0.189394  0.890353  1
  Rh  Rh7  1  0.500000  0.810606  0.109647  1
  Rh  Rh8  1  0.500000  0.689394  0.609647  1
  Rh  Rh9  1  0.500000  0.310606  0.390353  1
  Rh  Rh10  1  0.000000  0.432443  0.746200  1
  Rh  Rh11  1  0.000000  0.567557  0.253800  1
  Rh  Rh12  1  0.000000  0.000000  0.500000  1
  Rh  Rh13  1  0.000000  0.500000  0.000000  1
  Rh  Rh14  1  0.000000  0.067557  0.246200  1
  Rh  Rh15  1  0.000000  0.932443  0.753800  1
