# generated using pymatgen
data_DyNp3(In2Cl5)4
_symmetry_space_group_name_H-M   'P 1'
_cell_length_a   8.44715370
_cell_length_b   8.78830400
_cell_length_c   13.33071300
_cell_angle_alpha   90.00000000
_cell_angle_beta   90.24096147
_cell_angle_gamma   90.00000000
_symmetry_Int_Tables_number   1
_chemical_formula_structural   DyNp3(In2Cl5)4
_chemical_formula_sum   'Dy1 Np3 In8 Cl20'
_cell_volume   989.61212044
_cell_formula_units_Z   1
loop_
 _symmetry_equiv_pos_site_id
 _symmetry_equiv_pos_as_xyz
  1  'x, y, z'
loop_
 _atom_site_type_symbol
 _atom_site_label
 _atom_site_symmetry_multiplicity
 _atom_site_fract_x
 _atom_site_fract_y
 _atom_site_fract_z
 _atom_site_occupancy
  Dy  Dy0  1  0.427636  0.250000  0.995944  1
  Np  Np1  1  0.929114  0.750000  0.504045  1
  Np  Np2  1  0.571154  0.750000  0.005037  1
  Np  Np3  1  0.070939  0.250000  0.495428  1
  In  In4  1  0.943099  0.005441  0.828117  1
  In  In5  1  0.056353  0.996612  0.170906  1
  In  In6  1  0.556137  0.494951  0.328921  1
  In  In7  1  0.056353  0.503388  0.170906  1
  In  In8  1  0.943099  0.494559  0.828117  1
  In  In9  1  0.443241  0.504031  0.671772  1
  In  In10  1  0.556137  0.005049  0.328921  1
  In  In11  1  0.443241  0.995969  0.671772  1
  Cl  Cl12  1  0.590875  0.750000  0.506890  1
  Cl  Cl13  1  0.162911  0.954336  0.431432  1
  Cl  Cl14  1  0.835947  0.044892  0.569529  1
  Cl  Cl15  1  0.339307  0.538230  0.931763  1
  Cl  Cl16  1  0.162911  0.545664  0.431432  1
  Cl  Cl17  1  0.350106  0.250000  0.192350  1
  Cl  Cl18  1  0.339307  0.961770  0.931763  1
  Cl  Cl19  1  0.835947  0.455108  0.569529  1
  Cl  Cl20  1  0.403045  0.750000  0.183715  1
  Cl  Cl21  1  0.659071  0.049617  0.067457  1
  Cl  Cl22  1  0.154107  0.250000  0.697573  1
  Cl  Cl23  1  0.591874  0.250000  0.823812  1
  Cl  Cl24  1  0.409687  0.250000  0.492616  1
  Cl  Cl25  1  0.099851  0.750000  0.683804  1
  Cl  Cl26  1  0.659071  0.450383  0.067457  1
  Cl  Cl27  1  0.101619  0.250000  0.992236  1
  Cl  Cl28  1  0.907183  0.750000  0.007241  1
  Cl  Cl29  1  0.845480  0.750000  0.301149  1
  Cl  Cl30  1  0.652595  0.750000  0.802451  1
  Cl  Cl31  1  0.902601  0.250000  0.315919  1
