# generated using pymatgen
data_RbSeF5
_symmetry_space_group_name_H-M   'P 1'
_cell_length_a   6.25787000
_cell_length_b   7.94532700
_cell_length_c   10.32318000
_cell_angle_alpha   90.00000000
_cell_angle_beta   90.00000000
_cell_angle_gamma   90.00000000
_symmetry_Int_Tables_number   1
_chemical_formula_structural   RbSeF5
_chemical_formula_sum   'Rb4 Se4 F20'
_cell_volume   513.27701047
_cell_formula_units_Z   4
loop_
 _symmetry_equiv_pos_site_id
 _symmetry_equiv_pos_as_xyz
  1  'x, y, z'
loop_
 _atom_site_type_symbol
 _atom_site_label
 _atom_site_symmetry_multiplicity
 _atom_site_fract_x
 _atom_site_fract_y
 _atom_site_fract_z
 _atom_site_occupancy
  Rb  Rb0  1  0.250000  0.636097  0.162601  1
  Rb  Rb1  1  0.750000  0.363903  0.837399  1
  Rb  Rb2  1  0.750000  0.136097  0.337399  1
  Rb  Rb3  1  0.250000  0.863903  0.662601  1
  Se  Se4  1  0.250000  0.138769  0.085248  1
  Se  Se5  1  0.750000  0.861231  0.914752  1
  Se  Se6  1  0.750000  0.638769  0.414752  1
  Se  Se7  1  0.250000  0.361231  0.585248  1
  F  F8  1  0.037944  0.983922  0.141496  1
  F  F9  1  0.537944  0.016078  0.858504  1
  F  F10  1  0.962056  0.483922  0.358504  1
  F  F11  1  0.462056  0.516078  0.641496  1
  F  F12  1  0.962056  0.016078  0.858504  1
  F  F13  1  0.462056  0.983922  0.141496  1
  F  F14  1  0.037944  0.516078  0.641496  1
  F  F15  1  0.537944  0.483922  0.358504  1
  F  F16  1  0.037902  0.306435  0.065908  1
  F  F17  1  0.537902  0.693565  0.934092  1
  F  F18  1  0.962098  0.806435  0.434092  1
  F  F19  1  0.462098  0.193565  0.565908  1
  F  F20  1  0.962098  0.693565  0.934092  1
  F  F21  1  0.462098  0.306435  0.065908  1
  F  F22  1  0.037902  0.193565  0.565908  1
  F  F23  1  0.537902  0.806435  0.434092  1
  F  F24  1  0.250000  0.202956  0.250085  1
  F  F25  1  0.750000  0.797044  0.749915  1
  F  F26  1  0.750000  0.702956  0.249915  1
  F  F27  1  0.250000  0.297044  0.750085  1
