# generated using pymatgen
data_YEr(PaAl5)3
_symmetry_space_group_name_H-M   'P 1'
_cell_length_a   12.61432350
_cell_length_b   12.61432327
_cell_length_c   12.61432287
_cell_angle_alpha   28.09736951
_cell_angle_beta   28.09736995
_cell_angle_gamma   28.09737232
_symmetry_Int_Tables_number   1
_chemical_formula_structural   YEr(PaAl5)3
_chemical_formula_sum   'Y1 Er1 Pa3 Al15'
_cell_volume   393.29588089
_cell_formula_units_Z   1
loop_
 _symmetry_equiv_pos_site_id
 _symmetry_equiv_pos_as_xyz
  1  'x, y, z'
loop_
 _atom_site_type_symbol
 _atom_site_label
 _atom_site_symmetry_multiplicity
 _atom_site_fract_x
 _atom_site_fract_y
 _atom_site_fract_z
 _atom_site_occupancy
  Y  Y0  1  0.999748  0.999748  0.999748  1
  Er  Er1  1  0.599571  0.599571  0.599571  1
  Pa  Pa2  1  0.130861  0.130861  0.130861  1
  Pa  Pa3  1  0.869125  0.869125  0.869125  1
  Pa  Pa4  1  0.400958  0.400958  0.400958  1
  Al  Al5  1  0.132317  0.635309  0.635309  1
  Al  Al6  1  0.635309  0.635309  0.132317  1
  Al  Al7  1  0.635309  0.132317  0.635309  1
  Al  Al8  1  0.364612  0.871680  0.364612  1
  Al  Al9  1  0.364612  0.364612  0.871680  1
  Al  Al10  1  0.871680  0.364612  0.364612  1
  Al  Al11  1  0.429886  0.883283  0.883283  1
  Al  Al12  1  0.883283  0.883283  0.429886  1
  Al  Al13  1  0.883283  0.429886  0.883283  1
  Al  Al14  1  0.116445  0.568209  0.116445  1
  Al  Al15  1  0.116445  0.116445  0.568209  1
  Al  Al16  1  0.568209  0.116445  0.116445  1
  Al  Al17  1  0.498161  0.498161  0.002023  1
  Al  Al18  1  0.498161  0.002023  0.498161  1
  Al  Al19  1  0.002023  0.498161  0.498161  1
