# generated using pymatgen
data_Ho8MgSc11Si15As
_symmetry_space_group_name_H-M   'P 1'
_cell_length_a   7.08757565
_cell_length_b   7.33990875
_cell_length_c   13.95616623
_cell_angle_alpha   90.02040416
_cell_angle_beta   88.76769505
_cell_angle_gamma   90.16301012
_symmetry_Int_Tables_number   1
_chemical_formula_structural   Ho8MgSc11Si15As
_chemical_formula_sum   'Ho8 Mg1 Sc11 Si15 As1'
_cell_volume   725.85900348
_cell_formula_units_Z   1
loop_
 _symmetry_equiv_pos_site_id
 _symmetry_equiv_pos_as_xyz
  1  'x, y, z'
loop_
 _atom_site_type_symbol
 _atom_site_label
 _atom_site_symmetry_multiplicity
 _atom_site_fract_x
 _atom_site_fract_y
 _atom_site_fract_z
 _atom_site_occupancy
  Ho  Ho0  1  0.011186  0.175719  0.097404  1
  Ho  Ho1  1  0.989934  0.821738  0.902148  1
  Ho  Ho2  1  0.488162  0.674832  0.902319  1
  Ho  Ho3  1  0.996470  0.819774  0.596176  1
  Ho  Ho4  1  0.510525  0.325104  0.097400  1
  Ho  Ho5  1  0.003374  0.178151  0.403675  1
  Ho  Ho6  1  0.503393  0.321172  0.401895  1
  Ho  Ho7  1  0.498318  0.676535  0.598117  1
  Mg  Mg8  1  0.166596  0.503057  0.751670  1
  Sc  Sc9  1  0.832183  0.498643  0.252826  1
  Sc  Sc10  1  0.332771  0.001380  0.251768  1
  Sc  Sc11  1  0.665909  0.997903  0.748508  1
  Sc  Sc12  1  0.340495  0.173400  0.626185  1
  Sc  Sc13  1  0.658429  0.828269  0.373895  1
  Sc  Sc14  1  0.155458  0.672668  0.376978  1
  Sc  Sc15  1  0.668210  0.823941  0.125355  1
  Sc  Sc16  1  0.845718  0.329692  0.622502  1
  Sc  Sc17  1  0.330804  0.178782  0.874633  1
  Sc  Sc18  1  0.835611  0.323688  0.874582  1
  Sc  Sc19  1  0.166740  0.678353  0.125243  1
  Si  Si20  1  0.037112  0.105324  0.749267  1
  Si  Si21  1  0.962639  0.885175  0.249592  1
  Si  Si22  1  0.457793  0.616902  0.248869  1
  Si  Si23  1  0.546365  0.381700  0.750428  1
  Si  Si24  1  0.293753  0.878547  0.750140  1
  Si  Si25  1  0.709830  0.129084  0.249192  1
  Si  Si26  1  0.207493  0.373434  0.249508  1
  Si  Si27  1  0.783030  0.629269  0.750062  1
  Si  Si28  1  0.809693  0.541641  0.458592  1
  Si  Si29  1  0.329224  0.962738  0.461342  1
  Si  Si30  1  0.842388  0.535907  0.038563  1
  Si  Si31  1  0.671153  0.037192  0.540284  1
  Si  Si32  1  0.158457  0.463012  0.964632  1
  Si  Si33  1  0.656722  0.033567  0.959663  1
  Si  Si34  1  0.344523  0.966957  0.039620  1
  As  As35  1  0.189541  0.456746  0.536967  1
