# generated using pymatgen
data_HoThSc3Si7(Pd2Pt)3
_symmetry_space_group_name_H-M   'P 1'
_cell_length_a   10.07195300
_cell_length_b   10.07195311
_cell_length_c   4.01567500
_cell_angle_alpha   90.00000000
_cell_angle_beta   90.00000000
_cell_angle_gamma   120.00000293
_symmetry_Int_Tables_number   1
_chemical_formula_structural   HoThSc3Si7(Pd2Pt)3
_chemical_formula_sum   'Ho1 Th1 Sc3 Si7 Pd6 Pt3'
_cell_volume   352.79023969
_cell_formula_units_Z   1
loop_
 _symmetry_equiv_pos_site_id
 _symmetry_equiv_pos_as_xyz
  1  'x, y, z'
loop_
 _atom_site_type_symbol
 _atom_site_label
 _atom_site_symmetry_multiplicity
 _atom_site_fract_x
 _atom_site_fract_y
 _atom_site_fract_z
 _atom_site_occupancy
  Ho  Ho0  1  0.000000  0.000000  0.000000  1
  Th  Th1  1  0.333333  0.666667  0.500000  1
  Sc  Sc2  1  0.889348  0.451215  0.500000  1
  Sc  Sc3  1  0.561868  0.110652  0.500000  1
  Sc  Sc4  1  0.548785  0.438132  0.500000  1
  Si  Si5  1  0.245502  0.193886  0.500000  1
  Si  Si6  1  0.806114  0.051617  0.500000  1
  Si  Si7  1  0.948383  0.754498  0.500000  1
  Si  Si8  1  0.560226  0.644127  0.000000  1
  Si  Si9  1  0.355873  0.916097  0.000000  1
  Si  Si10  1  0.083903  0.439774  0.000000  1
  Si  Si11  1  0.666667  0.333333  0.000000  1
  Pd  Pd12  1  0.218504  0.935263  0.500000  1
  Pd  Pd13  1  0.064737  0.283243  0.500000  1
  Pd  Pd14  1  0.716757  0.781496  0.500000  1
  Pd  Pd15  1  0.308078  0.406023  0.000000  1
  Pd  Pd16  1  0.593977  0.902054  0.000000  1
  Pd  Pd17  1  0.097946  0.691922  0.000000  1
  Pt  Pt18  1  0.381694  0.171472  0.000000  1
  Pt  Pt19  1  0.828528  0.210222  0.000000  1
  Pt  Pt20  1  0.789778  0.618306  0.000000  1
