# generated using pymatgen
data_EuMnSb12OsRu2
_symmetry_space_group_name_H-M   'P 1'
_cell_length_a   8.17736533
_cell_length_b   8.16412518
_cell_length_c   8.17177095
_cell_angle_alpha   109.41129054
_cell_angle_beta   109.50292802
_cell_angle_gamma   109.45534860
_symmetry_Int_Tables_number   1
_chemical_formula_structural   EuMnSb12OsRu2
_chemical_formula_sum   'Eu1 Mn1 Sb12 Os1 Ru2'
_cell_volume   420.19729714
_cell_formula_units_Z   1
loop_
 _symmetry_equiv_pos_site_id
 _symmetry_equiv_pos_as_xyz
  1  'x, y, z'
loop_
 _atom_site_type_symbol
 _atom_site_label
 _atom_site_symmetry_multiplicity
 _atom_site_fract_x
 _atom_site_fract_y
 _atom_site_fract_z
 _atom_site_occupancy
  Eu  Eu0  1  0.000000  0.000000  0.000000  1
  Mn  Mn1  1  0.000000  0.500000  0.000000  1
  Sb  Sb2  1  0.660844  0.841558  0.503701  1
  Sb  Sb3  1  0.339156  0.158442  0.496299  1
  Sb  Sb4  1  0.841567  0.180773  0.338003  1
  Sb  Sb5  1  0.814845  0.660727  0.157744  1
  Sb  Sb6  1  0.841274  0.503113  0.656793  1
  Sb  Sb7  1  0.185155  0.339273  0.842256  1
  Sb  Sb8  1  0.158433  0.819227  0.661997  1
  Sb  Sb9  1  0.503561  0.661837  0.841845  1
  Sb  Sb10  1  0.496439  0.338163  0.158155  1
  Sb  Sb11  1  0.158726  0.496887  0.343207  1
  Sb  Sb12  1  0.343373  0.846329  0.184620  1
  Sb  Sb13  1  0.656627  0.153671  0.815380  1
  Os  Os14  1  0.000000  0.000000  0.500000  1
  Ru  Ru15  1  0.500000  0.500000  0.500000  1
  Ru  Ru16  1  0.500000  0.000000  0.000000  1
