# generated using pymatgen
data_Hf4Si6Ir6Os
_symmetry_space_group_name_H-M   'P 1'
_cell_length_a   6.99564538
_cell_length_b   6.99564509
_cell_length_c   6.99564500
_cell_angle_alpha   109.47121458
_cell_angle_beta   109.47121373
_cell_angle_gamma   109.47122019
_symmetry_Int_Tables_number   1
_chemical_formula_structural   Hf4Si6Ir6Os
_chemical_formula_sum   'Hf4 Si6 Ir6 Os1'
_cell_volume   263.54907648
_cell_formula_units_Z   1
loop_
 _symmetry_equiv_pos_site_id
 _symmetry_equiv_pos_as_xyz
  1  'x, y, z'
loop_
 _atom_site_type_symbol
 _atom_site_label
 _atom_site_symmetry_multiplicity
 _atom_site_fract_x
 _atom_site_fract_y
 _atom_site_fract_z
 _atom_site_occupancy
  Hf  Hf0  1  0.500000  0.500000  0.500000  1
  Hf  Hf1  1  0.000000  0.000000  0.500000  1
  Hf  Hf2  1  0.000000  0.500000  0.000000  1
  Hf  Hf3  1  0.500000  0.000000  0.000000  1
  Si  Si4  1  0.000000  0.316716  0.316716  1
  Si  Si5  1  0.316716  0.000000  0.316716  1
  Si  Si6  1  0.316716  0.316716  0.000000  1
  Si  Si7  1  0.000000  0.683284  0.683284  1
  Si  Si8  1  0.683284  0.000000  0.683284  1
  Si  Si9  1  0.683284  0.683284  0.000000  1
  Ir  Ir10  1  0.500000  0.750000  0.250000  1
  Ir  Ir11  1  0.250000  0.500000  0.750000  1
  Ir  Ir12  1  0.750000  0.250000  0.500000  1
  Ir  Ir13  1  0.750000  0.500000  0.250000  1
  Ir  Ir14  1  0.500000  0.250000  0.750000  1
  Ir  Ir15  1  0.250000  0.750000  0.500000  1
  Os  Os16  1  0.000000  0.000000  0.000000  1
