# generated using pymatgen
data_SrNdIn4(NiIr8)2
_symmetry_space_group_name_H-M   'P 1'
_cell_length_a   5.24590000
_cell_length_b   8.81209500
_cell_length_c   8.81209500
_cell_angle_alpha   90.00000000
_cell_angle_beta   90.00000000
_cell_angle_gamma   90.00000000
_symmetry_Int_Tables_number   1
_chemical_formula_structural   SrNdIn4(NiIr8)2
_chemical_formula_sum   'Sr1 Nd1 In4 Ni2 Ir16'
_cell_volume   407.35996864
_cell_formula_units_Z   1
loop_
 _symmetry_equiv_pos_site_id
 _symmetry_equiv_pos_as_xyz
  1  'x, y, z'
loop_
 _atom_site_type_symbol
 _atom_site_label
 _atom_site_symmetry_multiplicity
 _atom_site_fract_x
 _atom_site_fract_y
 _atom_site_fract_z
 _atom_site_occupancy
  Sr  Sr0  1  0.000000  0.500000  0.500000  1
  Nd  Nd1  1  0.000000  0.000000  0.000000  1
  In  In2  1  0.000000  0.622354  0.125748  1
  In  In3  1  0.000000  0.377646  0.874252  1
  In  In4  1  0.000000  0.874252  0.622354  1
  In  In5  1  0.000000  0.125748  0.377646  1
  Ni  Ni6  1  0.500000  0.000000  0.500000  1
  Ni  Ni7  1  0.500000  0.500000  0.000000  1
  Ir  Ir8  1  0.757699  0.172784  0.674879  1
  Ir  Ir9  1  0.757699  0.827216  0.325121  1
  Ir  Ir10  1  0.757699  0.325121  0.172784  1
  Ir  Ir11  1  0.757699  0.674879  0.827216  1
  Ir  Ir12  1  0.242301  0.827216  0.325121  1
  Ir  Ir13  1  0.242301  0.172784  0.674879  1
  Ir  Ir14  1  0.242301  0.674879  0.827216  1
  Ir  Ir15  1  0.242301  0.325121  0.172784  1
  Ir  Ir16  1  0.500000  0.708995  0.565283  1
  Ir  Ir17  1  0.500000  0.291005  0.434717  1
  Ir  Ir18  1  0.500000  0.793582  0.064530  1
  Ir  Ir19  1  0.500000  0.206418  0.935470  1
  Ir  Ir20  1  0.500000  0.565283  0.291005  1
  Ir  Ir21  1  0.500000  0.434717  0.708995  1
  Ir  Ir22  1  0.500000  0.064530  0.206418  1
  Ir  Ir23  1  0.500000  0.935470  0.793582  1
