# generated using pymatgen
data_Ho8MgCdIr2
_symmetry_space_group_name_H-M   'P 1'
_cell_length_a   9.62960373
_cell_length_b   9.62960445
_cell_length_c   9.67919100
_cell_angle_alpha   59.82951644
_cell_angle_beta   59.82951394
_cell_angle_gamma   59.69239947
_symmetry_Int_Tables_number   1
_chemical_formula_structural   Ho8MgCdIr2
_chemical_formula_sum   'Ho16 Mg2 Cd2 Ir4'
_cell_volume   631.54224918
_cell_formula_units_Z   2
loop_
 _symmetry_equiv_pos_site_id
 _symmetry_equiv_pos_as_xyz
  1  'x, y, z'
loop_
 _atom_site_type_symbol
 _atom_site_label
 _atom_site_symmetry_multiplicity
 _atom_site_fract_x
 _atom_site_fract_y
 _atom_site_fract_z
 _atom_site_occupancy
  Ho  Ho0  1  0.598274  0.598274  0.597990  1
  Ho  Ho1  1  0.598274  0.598274  0.205463  1
  Ho  Ho2  1  0.597467  0.208074  0.597230  1
  Ho  Ho3  1  0.208074  0.597467  0.597230  1
  Ho  Ho4  1  0.060864  0.437704  0.439732  1
  Ho  Ho5  1  0.437704  0.060864  0.061701  1
  Ho  Ho6  1  0.437704  0.060864  0.439732  1
  Ho  Ho7  1  0.060864  0.437704  0.061701  1
  Ho  Ho8  1  0.439939  0.439939  0.060061  1
  Ho  Ho9  1  0.062175  0.062175  0.437825  1
  Ho  Ho10  1  0.189794  0.812714  0.812607  1
  Ho  Ho11  1  0.812714  0.189794  0.184886  1
  Ho  Ho12  1  0.812714  0.189794  0.812607  1
  Ho  Ho13  1  0.189794  0.812714  0.184886  1
  Ho  Ho14  1  0.813454  0.813454  0.186546  1
  Ho  Ho15  1  0.187585  0.187585  0.812415  1
  Mg  Mg16  1  0.826256  0.826256  0.830514  1
  Mg  Mg17  1  0.826256  0.826256  0.516974  1
  Cd  Cd18  1  0.831537  0.505183  0.831640  1
  Cd  Cd19  1  0.505183  0.831537  0.831640  1
  Ir  Ir20  1  0.392408  0.392408  0.389916  1
  Ir  Ir21  1  0.392408  0.392408  0.825268  1
  Ir  Ir22  1  0.393128  0.825434  0.390719  1
  Ir  Ir23  1  0.825434  0.393128  0.390719  1
