# generated using pymatgen
data_Zr3NbIr2N
_symmetry_space_group_name_H-M   'P 1'
_cell_length_a   8.73373939
_cell_length_b   8.73373996
_cell_length_c   8.73373900
_cell_angle_alpha   59.99999984
_cell_angle_beta   59.99999767
_cell_angle_gamma   60.00000281
_symmetry_Int_Tables_number   1
_chemical_formula_structural   Zr3NbIr2N
_chemical_formula_sum   'Zr12 Nb4 Ir8 N4'
_cell_volume   471.07027196
_cell_formula_units_Z   4
loop_
 _symmetry_equiv_pos_site_id
 _symmetry_equiv_pos_as_xyz
  1  'x, y, z'
loop_
 _atom_site_type_symbol
 _atom_site_label
 _atom_site_symmetry_multiplicity
 _atom_site_fract_x
 _atom_site_fract_y
 _atom_site_fract_z
 _atom_site_occupancy
  Zr  Zr0  1  0.812545  0.812545  0.187455  1
  Zr  Zr1  1  0.187455  0.187455  0.812545  1
  Zr  Zr2  1  0.812545  0.187455  0.812545  1
  Zr  Zr3  1  0.187455  0.812545  0.187455  1
  Zr  Zr4  1  0.187455  0.812545  0.812545  1
  Zr  Zr5  1  0.812545  0.187455  0.187455  1
  Zr  Zr6  1  0.437455  0.437455  0.062545  1
  Zr  Zr7  1  0.062545  0.062545  0.437455  1
  Zr  Zr8  1  0.437455  0.062545  0.437455  1
  Zr  Zr9  1  0.062545  0.437455  0.062545  1
  Zr  Zr10  1  0.062545  0.437455  0.437455  1
  Zr  Zr11  1  0.437455  0.062545  0.062545  1
  Nb  Nb12  1  0.125000  0.625000  0.625000  1
  Nb  Nb13  1  0.625000  0.125000  0.625000  1
  Nb  Nb14  1  0.625000  0.625000  0.125000  1
  Nb  Nb15  1  0.625000  0.625000  0.625000  1
  Ir  Ir16  1  0.757403  0.414199  0.414199  1
  Ir  Ir17  1  0.414199  0.757403  0.414199  1
  Ir  Ir18  1  0.414199  0.414199  0.757403  1
  Ir  Ir19  1  0.414199  0.414199  0.414199  1
  Ir  Ir20  1  0.492597  0.835801  0.835801  1
  Ir  Ir21  1  0.835801  0.492597  0.835801  1
  Ir  Ir22  1  0.835801  0.835801  0.492597  1
  Ir  Ir23  1  0.835801  0.835801  0.835801  1
  N  N24  1  0.625000  0.125000  0.125000  1
  N  N25  1  0.125000  0.625000  0.125000  1
  N  N26  1  0.125000  0.125000  0.625000  1
  N  N27  1  0.125000  0.125000  0.125000  1
