# generated using pymatgen
data_Tb3Dy9InCo5
_symmetry_space_group_name_H-M   'P 1'
_cell_length_a   8.30331647
_cell_length_b   8.30133008
_cell_length_c   8.30133102
_cell_angle_alpha   107.07333409
_cell_angle_beta   110.66814977
_cell_angle_gamma   110.68811777
_symmetry_Int_Tables_number   1
_chemical_formula_structural   Tb3Dy9InCo5
_chemical_formula_sum   'Tb3 Dy9 In1 Co5'
_cell_volume   439.96072894
_cell_formula_units_Z   1
loop_
 _symmetry_equiv_pos_site_id
 _symmetry_equiv_pos_as_xyz
  1  'x, y, z'
loop_
 _atom_site_type_symbol
 _atom_site_label
 _atom_site_symmetry_multiplicity
 _atom_site_fract_x
 _atom_site_fract_y
 _atom_site_fract_z
 _atom_site_occupancy
  Tb  Tb0  1  0.481098  0.293994  0.187104  1
  Tb  Tb1  1  0.107164  0.294094  0.813069  1
  Tb  Tb2  1  0.892965  0.706528  0.186438  1
  Dy  Dy3  1  0.519362  0.706268  0.813094  1
  Dy  Dy4  1  0.305867  0.620209  0.314816  1
  Dy  Dy5  1  0.305867  0.991053  0.685658  1
  Dy  Dy6  1  0.694253  0.379860  0.685636  1
  Dy  Dy7  1  0.694253  0.008616  0.314392  1
  Dy  Dy8  1  0.191749  0.207709  0.399036  1
  Dy  Dy9  1  0.808635  0.792952  0.602008  1
  Dy  Dy10  1  0.191749  0.792713  0.984040  1
  Dy  Dy11  1  0.808635  0.206627  0.015684  1
  In  In12  1  0.000103  0.500063  0.500040  1
  Co  Co13  1  0.499673  0.612703  0.111825  1
  Co  Co14  1  0.499673  0.387849  0.886970  1
  Co  Co15  1  0.379284  0.000008  0.379275  1
  Co  Co16  1  0.619966  0.999439  0.620528  1
  Co  Co17  1  0.999701  0.999315  0.000387  1
