# generated using pymatgen
data_Y8Al(Pd7Pt)3
_symmetry_space_group_name_H-M   'P 1'
_cell_length_a   8.35930100
_cell_length_b   8.36994800
_cell_length_c   8.36994800
_cell_angle_alpha   90.00000000
_cell_angle_beta   90.00000000
_cell_angle_gamma   90.00000000
_symmetry_Int_Tables_number   1
_chemical_formula_structural   Y8Al(Pd7Pt)3
_chemical_formula_sum   'Y8 Al1 Pd21 Pt3'
_cell_volume   585.61943765
_cell_formula_units_Z   1
loop_
 _symmetry_equiv_pos_site_id
 _symmetry_equiv_pos_as_xyz
  1  'x, y, z'
loop_
 _atom_site_type_symbol
 _atom_site_label
 _atom_site_symmetry_multiplicity
 _atom_site_fract_x
 _atom_site_fract_y
 _atom_site_fract_z
 _atom_site_occupancy
  Y  Y0  1  0.251182  0.251099  0.251099  1
  Y  Y1  1  0.748853  0.749220  0.749220  1
  Y  Y2  1  0.748853  0.749220  0.250780  1
  Y  Y3  1  0.748853  0.250780  0.749220  1
  Y  Y4  1  0.251182  0.251099  0.748901  1
  Y  Y5  1  0.251182  0.748901  0.251099  1
  Y  Y6  1  0.251182  0.748901  0.748901  1
  Y  Y7  1  0.748853  0.250780  0.250780  1
  Al  Al8  1  0.000097  0.000000  0.000000  1
  Pd  Pd9  1  0.260348  0.500000  0.000000  1
  Pd  Pd10  1  0.739727  0.500000  0.000000  1
  Pd  Pd11  1  0.000058  0.260365  0.500000  1
  Pd  Pd12  1  0.500078  0.260457  0.000000  1
  Pd  Pd13  1  0.000058  0.739635  0.500000  1
  Pd  Pd14  1  0.500078  0.739543  0.000000  1
  Pd  Pd15  1  0.500078  0.000000  0.260457  1
  Pd  Pd16  1  0.260348  0.000000  0.500000  1
  Pd  Pd17  1  0.500078  0.000000  0.739543  1
  Pd  Pd18  1  0.739727  0.000000  0.500000  1
  Pd  Pd19  1  0.000058  0.500000  0.260365  1
  Pd  Pd20  1  0.000058  0.500000  0.739635  1
  Pd  Pd21  1  0.746921  0.500000  0.500000  1
  Pd  Pd22  1  0.499948  0.253089  0.500000  1
  Pd  Pd23  1  0.499948  0.746911  0.500000  1
  Pd  Pd24  1  0.499948  0.500000  0.253089  1
  Pd  Pd25  1  0.499948  0.500000  0.746911  1
  Pd  Pd26  1  0.999865  0.290852  0.000000  1
  Pd  Pd27  1  0.999865  0.709148  0.000000  1
  Pd  Pd28  1  0.999865  0.000000  0.290852  1
  Pd  Pd29  1  0.999865  0.000000  0.709148  1
  Pt  Pt30  1  0.252909  0.500000  0.500000  1
  Pt  Pt31  1  0.289552  0.000000  0.000000  1
  Pt  Pt32  1  0.710441  0.000000  0.000000  1
