# generated using pymatgen
data_YbV2O5
_symmetry_space_group_name_H-M   'P 1'
_cell_length_a   3.57201800
_cell_length_b   4.99083910
_cell_length_c   11.53262105
_cell_angle_alpha   89.99371529
_cell_angle_beta   90.00000000
_cell_angle_gamma   89.99997704
_symmetry_Int_Tables_number   1
_chemical_formula_structural   YbV2O5
_chemical_formula_sum   'Yb2 V4 O10'
_cell_volume   205.59626786
_cell_formula_units_Z   2
loop_
 _symmetry_equiv_pos_site_id
 _symmetry_equiv_pos_as_xyz
  1  'x, y, z'
loop_
 _atom_site_type_symbol
 _atom_site_label
 _atom_site_symmetry_multiplicity
 _atom_site_fract_x
 _atom_site_fract_y
 _atom_site_fract_z
 _atom_site_occupancy
  Yb  Yb0  1  0.749999  0.847844  0.250006  1
  Yb  Yb1  1  0.250000  0.152147  0.749994  1
  V  V2  1  0.749999  0.608332  0.597765  1
  V  V3  1  0.250000  0.391664  0.402236  1
  V  V4  1  0.250000  0.391907  0.097748  1
  V  V5  1  0.749999  0.608089  0.902250  1
  O  O6  1  0.749999  0.443572  0.749990  1
  O  O7  1  0.250000  0.556429  0.250013  1
  O  O8  1  0.750000  0.548880  0.075518  1
  O  O9  1  0.250000  0.451138  0.924478  1
  O  O10  1  0.749999  0.548717  0.424493  1
  O  O11  1  0.250000  0.451283  0.575514  1
  O  O12  1  0.249999  0.061126  0.371303  1
  O  O13  1  0.750000  0.938860  0.628697  1
  O  O14  1  0.750000  0.938724  0.871302  1
  O  O15  1  0.249999  0.061288  0.128692  1
