# generated using pymatgen
data_La2Zn3P(IrRh)2
_symmetry_space_group_name_H-M   'P 1'
_cell_length_a   4.16963600
_cell_length_b   4.16963600
_cell_length_c   10.65161000
_cell_angle_alpha   90.00000000
_cell_angle_beta   90.00000000
_cell_angle_gamma   90.00000000
_symmetry_Int_Tables_number   1
_chemical_formula_structural   La2Zn3P(IrRh)2
_chemical_formula_sum   'La2 Zn3 P1 Ir2 Rh2'
_cell_volume   185.18744681
_cell_formula_units_Z   1
loop_
 _symmetry_equiv_pos_site_id
 _symmetry_equiv_pos_as_xyz
  1  'x, y, z'
loop_
 _atom_site_type_symbol
 _atom_site_label
 _atom_site_symmetry_multiplicity
 _atom_site_fract_x
 _atom_site_fract_y
 _atom_site_fract_z
 _atom_site_occupancy
  La  La0  1  0.000000  0.500000  0.247748  1
  La  La1  1  0.500000  0.000000  0.746506  1
  Zn  Zn2  1  0.000000  0.000000  0.494571  1
  Zn  Zn3  1  0.500000  0.500000  0.494571  1
  Zn  Zn4  1  0.000000  0.500000  0.878519  1
  P  P5  1  0.500000  0.000000  0.118448  1
  Ir  Ir6  1  0.000000  0.500000  0.640989  1
  Ir  Ir7  1  0.500000  0.000000  0.340007  1
  Rh  Rh8  1  0.000000  0.000000  0.019321  1
  Rh  Rh9  1  0.500000  0.500000  0.019321  1
