# generated using pymatgen
data_Cs2Ni(PtSe2)2
_symmetry_space_group_name_H-M   'P 1'
_cell_length_a   9.16003576
_cell_length_b   8.14809505
_cell_length_c   6.41404789
_cell_angle_alpha   76.93680988
_cell_angle_beta   60.05521517
_cell_angle_gamma   43.00797414
_symmetry_Int_Tables_number   1
_chemical_formula_structural   Cs2Ni(PtSe2)2
_chemical_formula_sum   'Cs2 Ni1 Pt2 Se4'
_cell_volume   275.01214652
_cell_formula_units_Z   1
loop_
 _symmetry_equiv_pos_site_id
 _symmetry_equiv_pos_as_xyz
  1  'x, y, z'
loop_
 _atom_site_type_symbol
 _atom_site_label
 _atom_site_symmetry_multiplicity
 _atom_site_fract_x
 _atom_site_fract_y
 _atom_site_fract_z
 _atom_site_occupancy
  Cs  Cs0  1  0.351441  0.351441  0.648559  1
  Cs  Cs1  1  0.648559  0.648559  0.351441  1
  Ni  Ni2  1  0.000000  0.000000  0.000000  1
  Pt  Pt3  1  0.000000  0.000000  0.500000  1
  Pt  Pt4  1  0.500000  0.500000  0.000000  1
  Se  Se5  1  0.940953  0.268400  0.731600  1
  Se  Se6  1  0.059047  0.731600  0.268400  1
  Se  Se7  1  0.731600  0.059047  0.940953  1
  Se  Se8  1  0.268400  0.940953  0.059047  1
