# generated using pymatgen
data_Dy4BeSi7Tc6
_symmetry_space_group_name_H-M   'P 1'
_cell_length_a   6.79098879
_cell_length_b   6.61626180
_cell_length_c   6.80666915
_cell_angle_alpha   70.82638228
_cell_angle_beta   90.31803193
_cell_angle_gamma   89.93746680
_symmetry_Int_Tables_number   1
_chemical_formula_structural   Dy4BeSi7Tc6
_chemical_formula_sum   'Dy4 Be1 Si7 Tc6'
_cell_volume   288.85924862
_cell_formula_units_Z   1
loop_
 _symmetry_equiv_pos_site_id
 _symmetry_equiv_pos_as_xyz
  1  'x, y, z'
loop_
 _atom_site_type_symbol
 _atom_site_label
 _atom_site_symmetry_multiplicity
 _atom_site_fract_x
 _atom_site_fract_y
 _atom_site_fract_z
 _atom_site_occupancy
  Dy  Dy0  1  0.664109  0.436970  0.189427  1
  Dy  Dy1  1  0.170235  0.058810  0.811276  1
  Dy  Dy2  1  0.334510  0.555828  0.810622  1
  Dy  Dy3  1  0.827162  0.945608  0.190280  1
  Be  Be4  1  0.449718  0.113257  0.102550  1
  Si  Si5  1  0.951899  0.378564  0.899568  1
  Si  Si6  1  0.547636  0.886402  0.903192  1
  Si  Si7  1  0.047819  0.620470  0.103900  1
  Si  Si8  1  0.861898  0.132597  0.510169  1
  Si  Si9  1  0.359422  0.367552  0.486152  1
  Si  Si10  1  0.142623  0.867869  0.486140  1
  Si  Si11  1  0.638210  0.634445  0.508042  1
  Tc  Tc12  1  0.498598  0.996621  0.505040  1
  Tc  Tc13  1  0.000916  0.502920  0.499136  1
  Tc  Tc14  1  0.158962  0.240359  0.238640  1
  Tc  Tc15  1  0.660233  0.259810  0.753950  1
  Tc  Tc16  1  0.841649  0.756284  0.765360  1
  Tc  Tc17  1  0.344402  0.745632  0.236558  1
