# generated using pymatgen
data_Tm2Al9FeNi2
_symmetry_space_group_name_H-M   'P 1'
_cell_length_a   7.39147792
_cell_length_b   7.39147659
_cell_length_c   9.28258634
_cell_angle_alpha   89.87898759
_cell_angle_beta   89.87898418
_cell_angle_gamma   119.76806481
_symmetry_Int_Tables_number   1
_chemical_formula_structural   Tm2Al9FeNi2
_chemical_formula_sum   'Tm4 Al18 Fe2 Ni4'
_cell_volume   440.21875197
_cell_formula_units_Z   2
loop_
 _symmetry_equiv_pos_site_id
 _symmetry_equiv_pos_as_xyz
  1  'x, y, z'
loop_
 _atom_site_type_symbol
 _atom_site_label
 _atom_site_symmetry_multiplicity
 _atom_site_fract_x
 _atom_site_fract_y
 _atom_site_fract_z
 _atom_site_occupancy
  Tm  Tm0  1  0.995314  0.668310  0.252050  1
  Tm  Tm1  1  0.004686  0.331690  0.747950  1
  Tm  Tm2  1  0.668310  0.995314  0.252050  1
  Tm  Tm3  1  0.331690  0.004686  0.747950  1
  Al  Al4  1  0.122438  0.122438  0.251487  1
  Al  Al5  1  0.877562  0.877562  0.748513  1
  Al  Al6  1  0.998816  0.333264  0.072792  1
  Al  Al7  1  0.001184  0.666736  0.927208  1
  Al  Al8  1  0.002009  0.661949  0.569505  1
  Al  Al9  1  0.338051  0.997991  0.430495  1
  Al  Al10  1  0.997991  0.338051  0.430495  1
  Al  Al11  1  0.661949  0.002009  0.569505  1
  Al  Al12  1  0.666736  0.001184  0.927208  1
  Al  Al13  1  0.333264  0.998816  0.072792  1
  Al  Al14  1  0.334957  0.334957  0.545300  1
  Al  Al15  1  0.665043  0.665043  0.454700  1
  Al  Al16  1  0.666460  0.666460  0.053665  1
  Al  Al17  1  0.333540  0.333540  0.946335  1
  Al  Al18  1  0.337239  0.551607  0.254921  1
  Al  Al19  1  0.662761  0.448393  0.745079  1
  Al  Al20  1  0.551607  0.337239  0.254921  1
  Al  Al21  1  0.448393  0.662761  0.745079  1
  Fe  Fe22  1  0.328040  0.671960  0.500000  1
  Fe  Fe23  1  0.671960  0.328040  0.500000  1
  Ni  Ni24  1  0.671081  0.328919  0.000000  1
  Ni  Ni25  1  0.328919  0.671081  0.000000  1
  Ni  Ni26  1  0.000000  0.000000  0.000000  1
  Ni  Ni27  1  0.000000  0.000000  0.500000  1
