# generated using pymatgen
data_Ce2Lu3Ru2
_symmetry_space_group_name_H-M   'P 1'
_cell_length_a   6.29967348
_cell_length_b   6.99303425
_cell_length_c   8.67042577
_cell_angle_alpha   95.91807091
_cell_angle_beta   111.30208121
_cell_angle_gamma   89.99999582
_symmetry_Int_Tables_number   1
_chemical_formula_structural   Ce2Lu3Ru2
_chemical_formula_sum   'Ce4 Lu6 Ru4'
_cell_volume   353.68293118
_cell_formula_units_Z   2
loop_
 _symmetry_equiv_pos_site_id
 _symmetry_equiv_pos_as_xyz
  1  'x, y, z'
loop_
 _atom_site_type_symbol
 _atom_site_label
 _atom_site_symmetry_multiplicity
 _atom_site_fract_x
 _atom_site_fract_y
 _atom_site_fract_z
 _atom_site_occupancy
  Ce  Ce0  1  0.522240  0.093331  0.807826  1
  Ce  Ce1  1  0.477760  0.906669  0.192174  1
  Ce  Ce2  1  0.714414  0.406669  0.192174  1
  Ce  Ce3  1  0.285586  0.593331  0.807826  1
  Lu  Lu4  1  0.294455  0.313645  0.432992  1
  Lu  Lu5  1  0.705545  0.686355  0.567008  1
  Lu  Lu6  1  0.861464  0.186355  0.567008  1
  Lu  Lu7  1  0.138536  0.813645  0.432992  1
  Lu  Lu8  1  0.081683  0.250000  0.000000  1
  Lu  Lu9  1  0.918317  0.750000  0.000000  1
  Ru  Ru10  1  0.343157  0.592071  0.222082  1
  Ru  Ru11  1  0.656843  0.407929  0.777918  1
  Ru  Ru12  1  0.121077  0.907929  0.777918  1
  Ru  Ru13  1  0.878923  0.092071  0.222082  1
