# generated using pymatgen
data_Na4TmPuO6
_symmetry_space_group_name_H-M   'P 1'
_cell_length_a   5.81262480
_cell_length_b   5.81262733
_cell_length_c   5.91385000
_cell_angle_alpha   99.43350289
_cell_angle_beta   99.43402663
_cell_angle_gamma   119.98911704
_symmetry_Int_Tables_number   1
_chemical_formula_structural   Na4TmPuO6
_chemical_formula_sum   'Na4 Tm1 Pu1 O6'
_cell_volume   163.49902597
_cell_formula_units_Z   1
loop_
 _symmetry_equiv_pos_site_id
 _symmetry_equiv_pos_as_xyz
  1  'x, y, z'
loop_
 _atom_site_type_symbol
 _atom_site_label
 _atom_site_symmetry_multiplicity
 _atom_site_fract_x
 _atom_site_fract_y
 _atom_site_fract_z
 _atom_site_occupancy
  Na  Na0  1  0.498807  0.499983  0.999792  1
  Na  Na1  1  0.004049  0.000240  0.500882  1
  Na  Na2  1  0.338490  0.656651  0.499614  1
  Na  Na3  1  0.658620  0.341435  0.500102  1
  Tm  Tm4  1  0.839219  0.169320  0.000052  1
  Pu  Pu5  1  0.169299  0.833917  0.999826  1
  O  O6  1  0.944032  0.585891  0.209253  1
  O  O7  1  0.555669  0.930178  0.214027  1
  O  O8  1  0.213319  0.209507  0.220937  1
  O  O9  1  0.800475  0.787281  0.785613  1
  O  O10  1  0.064889  0.431330  0.780827  1
  O  O11  1  0.413138  0.054273  0.789077  1
