# generated using pymatgen
data_EuThB2(PdPt3)2
_symmetry_space_group_name_H-M   'P 1'
_cell_length_a   5.49537111
_cell_length_b   5.49537171
_cell_length_c   7.72821606
_cell_angle_alpha   89.92741183
_cell_angle_beta   90.07258701
_cell_angle_gamma   120.00583204
_symmetry_Int_Tables_number   1
_chemical_formula_structural   EuThB2(PdPt3)2
_chemical_formula_sum   'Eu1 Th1 B2 Pd2 Pt6'
_cell_volume   202.10543721
_cell_formula_units_Z   1
loop_
 _symmetry_equiv_pos_site_id
 _symmetry_equiv_pos_as_xyz
  1  'x, y, z'
loop_
 _atom_site_type_symbol
 _atom_site_label
 _atom_site_symmetry_multiplicity
 _atom_site_fract_x
 _atom_site_fract_y
 _atom_site_fract_z
 _atom_site_occupancy
  Eu  Eu0  1  0.000211  0.999789  0.502797  1
  Th  Th1  1  0.997849  0.002151  0.004694  1
  B  B2  1  0.670769  0.329231  0.499250  1
  B  B3  1  0.329893  0.670107  0.498827  1
  Pd  Pd4  1  0.500606  0.499394  0.697025  1
  Pd  Pd5  1  0.663815  0.336185  0.998620  1
  Pt  Pt6  1  0.500698  0.998803  0.698600  1
  Pt  Pt7  1  0.001197  0.499302  0.698600  1
  Pt  Pt8  1  0.499858  0.500142  0.305830  1
  Pt  Pt9  1  0.499891  0.999696  0.298686  1
  Pt  Pt10  1  0.000304  0.500109  0.298686  1
  Pt  Pt11  1  0.334909  0.665091  0.998385  1
