# generated using pymatgen
data_Nd5Ni16(MoAs4)3
_symmetry_space_group_name_H-M   'P 1'
_cell_length_a   12.75365500
_cell_length_b   12.75365556
_cell_length_c   3.93522700
_cell_angle_alpha   90.00000000
_cell_angle_beta   90.00000000
_cell_angle_gamma   120.00000633
_symmetry_Int_Tables_number   1
_chemical_formula_structural   Nd5Ni16(MoAs4)3
_chemical_formula_sum   'Nd5 Ni16 Mo3 As12'
_cell_volume   554.33173422
_cell_formula_units_Z   1
loop_
 _symmetry_equiv_pos_site_id
 _symmetry_equiv_pos_as_xyz
  1  'x, y, z'
loop_
 _atom_site_type_symbol
 _atom_site_label
 _atom_site_symmetry_multiplicity
 _atom_site_fract_x
 _atom_site_fract_y
 _atom_site_fract_z
 _atom_site_occupancy
  Nd  Nd0  1  0.187772  0.187772  0.500000  1
  Nd  Nd1  1  0.812228  0.000000  0.500000  1
  Nd  Nd2  1  0.000000  0.812228  0.500000  1
  Nd  Nd3  1  0.333333  0.666667  0.000000  1
  Nd  Nd4  1  0.666667  0.333333  0.000000  1
  Ni  Ni5  1  0.717939  0.717939  0.500000  1
  Ni  Ni6  1  0.282061  0.000000  0.500000  1
  Ni  Ni7  1  0.000000  0.282061  0.500000  1
  Ni  Ni8  1  0.183748  0.378607  0.000000  1
  Ni  Ni9  1  0.621393  0.805140  0.000000  1
  Ni  Ni10  1  0.194860  0.816252  0.000000  1
  Ni  Ni11  1  0.805140  0.621393  0.000000  1
  Ni  Ni12  1  0.816252  0.194860  0.000000  1
  Ni  Ni13  1  0.378607  0.183748  0.000000  1
  Ni  Ni14  1  0.361423  0.482979  0.500000  1
  Ni  Ni15  1  0.517021  0.878444  0.500000  1
  Ni  Ni16  1  0.121556  0.638577  0.500000  1
  Ni  Ni17  1  0.878444  0.517021  0.500000  1
  Ni  Ni18  1  0.638577  0.121556  0.500000  1
  Ni  Ni19  1  0.482979  0.361423  0.500000  1
  Ni  Ni20  1  0.000000  0.000000  0.000000  1
  Mo  Mo21  1  0.564478  0.564478  0.000000  1
  Mo  Mo22  1  0.435522  0.000000  0.000000  1
  Mo  Mo23  1  0.000000  0.435522  0.000000  1
  As  As24  1  0.819095  0.819095  0.000000  1
  As  As25  1  0.180905  0.000000  0.000000  1
  As  As26  1  0.000000  0.180905  0.000000  1
  As  As27  1  0.165894  0.478607  0.500000  1
  As  As28  1  0.521393  0.687286  0.500000  1
  As  As29  1  0.312714  0.834106  0.500000  1
  As  As30  1  0.687286  0.521393  0.500000  1
  As  As31  1  0.834106  0.312714  0.500000  1
  As  As32  1  0.478607  0.165894  0.500000  1
  As  As33  1  0.369033  0.369033  0.000000  1
  As  As34  1  0.630967  0.000000  0.000000  1
  As  As35  1  0.000000  0.630967  0.000000  1
