# generated using pymatgen
data_Mn2CrB4
_symmetry_space_group_name_H-M   'P 1'
_cell_length_a   2.95326187
_cell_length_b   2.97909301
_cell_length_c   6.68613231
_cell_angle_alpha   102.87245495
_cell_angle_beta   102.75896207
_cell_angle_gamma   89.99998301
_symmetry_Int_Tables_number   1
_chemical_formula_structural   Mn2CrB4
_chemical_formula_sum   'Mn2 Cr1 B4'
_cell_volume   55.85556214
_cell_formula_units_Z   1
loop_
 _symmetry_equiv_pos_site_id
 _symmetry_equiv_pos_as_xyz
  1  'x, y, z'
loop_
 _atom_site_type_symbol
 _atom_site_label
 _atom_site_symmetry_multiplicity
 _atom_site_fract_x
 _atom_site_fract_y
 _atom_site_fract_z
 _atom_site_occupancy
  Mn  Mn0  1  0.185307  0.185307  0.370612  1
  Mn  Mn1  1  0.814693  0.814693  0.629388  1
  Cr  Cr2  1  0.500000  0.000000  0.000000  1
  B  B3  1  0.067978  0.567978  0.135957  1
  B  B4  1  0.643770  0.643770  0.287541  1
  B  B5  1  0.356230  0.356230  0.712459  1
  B  B6  1  0.932022  0.432022  0.864043  1
