# generated using pymatgen
data_Pr5SbPdO12
_symmetry_space_group_name_H-M   'P 1'
_cell_length_a   7.15791363
_cell_length_b   7.15791292
_cell_length_c   7.62276200
_cell_angle_alpha   74.55819670
_cell_angle_beta   74.55819827
_cell_angle_gamma   50.94157635
_symmetry_Int_Tables_number   1
_chemical_formula_structural   Pr5SbPdO12
_chemical_formula_sum   'Pr5 Sb1 Pd1 O12'
_cell_volume   289.78028699
_cell_formula_units_Z   1
loop_
 _symmetry_equiv_pos_site_id
 _symmetry_equiv_pos_as_xyz
  1  'x, y, z'
loop_
 _atom_site_type_symbol
 _atom_site_label
 _atom_site_symmetry_multiplicity
 _atom_site_fract_x
 _atom_site_fract_y
 _atom_site_fract_z
 _atom_site_occupancy
  Pr  Pr0  1  0.311573  0.292486  0.359962  1
  Pr  Pr1  1  0.707514  0.688427  0.640038  1
  Pr  Pr2  1  0.701335  0.691082  0.165312  1
  Pr  Pr3  1  0.308918  0.298665  0.834688  1
  Pr  Pr4  1  0.999829  0.000171  0.500000  1
  Sb  Sb5  1  0.235864  0.764136  0.000000  1
  Pd  Pd6  1  0.745259  0.254741  0.000000  1
  O  O7  1  0.101866  0.595500  0.574149  1
  O  O8  1  0.994321  0.004654  0.177968  1
  O  O9  1  0.404500  0.898134  0.425851  1
  O  O10  1  0.492791  0.508001  0.176639  1
  O  O11  1  0.102952  0.578352  0.080144  1
  O  O12  1  0.909709  0.399878  0.422496  1
  O  O13  1  0.995346  0.005679  0.822032  1
  O  O14  1  0.600122  0.090290  0.577504  1
  O  O15  1  0.491999  0.507209  0.823361  1
  O  O16  1  0.572738  0.098281  0.081266  1
  O  O17  1  0.421648  0.897048  0.919856  1
  O  O18  1  0.901719  0.427262  0.918734  1
