# generated using pymatgen
data_LaPrNd2CdIr
_symmetry_space_group_name_H-M   'P 1'
_cell_length_a   10.02869420
_cell_length_b   10.02979300
_cell_length_c   10.02979306
_cell_angle_alpha   59.99274753
_cell_angle_beta   60.00362826
_cell_angle_gamma   60.00363100
_symmetry_Int_Tables_number   1
_chemical_formula_structural   LaPrNd2CdIr
_chemical_formula_sum   'La4 Pr4 Nd8 Cd4 Ir4'
_cell_volume   713.36754197
_cell_formula_units_Z   4
loop_
 _symmetry_equiv_pos_site_id
 _symmetry_equiv_pos_as_xyz
  1  'x, y, z'
loop_
 _atom_site_type_symbol
 _atom_site_label
 _atom_site_symmetry_multiplicity
 _atom_site_fract_x
 _atom_site_fract_y
 _atom_site_fract_z
 _atom_site_occupancy
  La  La0  1  0.347655  0.347736  0.347736  1
  La  La1  1  0.347736  0.347655  0.956872  1
  La  La2  1  0.347736  0.956872  0.347655  1
  La  La3  1  0.956872  0.347736  0.347736  1
  Pr  Pr4  1  0.561914  0.938086  0.561914  1
  Pr  Pr5  1  0.938086  0.561914  0.938086  1
  Pr  Pr6  1  0.561914  0.561914  0.938086  1
  Pr  Pr7  1  0.938086  0.938086  0.561914  1
  Nd  Nd8  1  0.810510  0.189490  0.189490  1
  Nd  Nd9  1  0.189490  0.810510  0.810510  1
  Nd  Nd10  1  0.189589  0.810411  0.189589  1
  Nd  Nd11  1  0.810411  0.189589  0.810411  1
  Nd  Nd12  1  0.189589  0.189589  0.810411  1
  Nd  Nd13  1  0.810411  0.810411  0.189589  1
  Nd  Nd14  1  0.938250  0.561750  0.561750  1
  Nd  Nd15  1  0.561750  0.938250  0.938250  1
  Cd  Cd16  1  0.580018  0.579815  0.579815  1
  Cd  Cd17  1  0.579815  0.580018  0.260350  1
  Cd  Cd18  1  0.579815  0.260350  0.580018  1
  Cd  Cd19  1  0.260350  0.579815  0.579815  1
  Ir  Ir20  1  0.141924  0.141723  0.141723  1
  Ir  Ir21  1  0.141723  0.141924  0.574629  1
  Ir  Ir22  1  0.141723  0.574629  0.141924  1
  Ir  Ir23  1  0.574629  0.141723  0.141723  1
