# generated using pymatgen
data_Ba3SrZrS6
_symmetry_space_group_name_H-M   'P 1'
_cell_length_a   8.55939083
_cell_length_b   8.55938943
_cell_length_c   8.55939000
_cell_angle_alpha   90.81165700
_cell_angle_beta   90.81165687
_cell_angle_gamma   90.81165763
_symmetry_Int_Tables_number   1
_chemical_formula_structural   Ba3SrZrS6
_chemical_formula_sum   'Ba6 Sr2 Zr2 S12'
_cell_volume   626.89739020
_cell_formula_units_Z   2
loop_
 _symmetry_equiv_pos_site_id
 _symmetry_equiv_pos_as_xyz
  1  'x, y, z'
loop_
 _atom_site_type_symbol
 _atom_site_label
 _atom_site_symmetry_multiplicity
 _atom_site_fract_x
 _atom_site_fract_y
 _atom_site_fract_z
 _atom_site_occupancy
  Ba  Ba0  1  0.877641  0.622359  0.250000  1
  Ba  Ba1  1  0.250000  0.877641  0.622359  1
  Ba  Ba2  1  0.622359  0.250000  0.877641  1
  Ba  Ba3  1  0.750000  0.122359  0.377641  1
  Ba  Ba4  1  0.377641  0.750000  0.122359  1
  Ba  Ba5  1  0.122359  0.377641  0.750000  1
  Sr  Sr6  1  0.250000  0.250000  0.250000  1
  Sr  Sr7  1  0.750000  0.750000  0.750000  1
  Zr  Zr8  1  0.500000  0.500000  0.500000  1
  Zr  Zr9  1  0.000000  0.000000  0.000000  1
  S  S10  1  0.210575  0.552984  0.420622  1
  S  S11  1  0.420622  0.210575  0.552984  1
  S  S12  1  0.552984  0.420622  0.210575  1
  S  S13  1  0.920622  0.052984  0.710575  1
  S  S14  1  0.710575  0.920622  0.052984  1
  S  S15  1  0.052984  0.710575  0.920622  1
  S  S16  1  0.789425  0.447016  0.579378  1
  S  S17  1  0.579378  0.789425  0.447016  1
  S  S18  1  0.447016  0.579378  0.789425  1
  S  S19  1  0.079378  0.947016  0.289425  1
  S  S20  1  0.289425  0.079378  0.947016  1
  S  S21  1  0.947016  0.289425  0.079378  1
