# generated using pymatgen
data_Dy5Th5(Al2Ru3)2
_symmetry_space_group_name_H-M   'P 1'
_cell_length_a   8.42101319
_cell_length_b   8.41835084
_cell_length_c   8.43448417
_cell_angle_alpha   109.20805977
_cell_angle_beta   109.32392096
_cell_angle_gamma   109.27627286
_symmetry_Int_Tables_number   1
_chemical_formula_structural   Dy5Th5(Al2Ru3)2
_chemical_formula_sum   'Dy5 Th5 Al4 Ru6'
_cell_volume   463.69305978
_cell_formula_units_Z   1
loop_
 _symmetry_equiv_pos_site_id
 _symmetry_equiv_pos_as_xyz
  1  'x, y, z'
loop_
 _atom_site_type_symbol
 _atom_site_label
 _atom_site_symmetry_multiplicity
 _atom_site_fract_x
 _atom_site_fract_y
 _atom_site_fract_z
 _atom_site_occupancy
  Dy  Dy0  1  0.470104  0.154822  0.217183  1
  Dy  Dy1  1  0.155679  0.218015  0.472065  1
  Dy  Dy2  1  0.221587  0.472387  0.159662  1
  Dy  Dy3  1  0.406137  0.686814  0.912571  1
  Dy  Dy4  1  0.683922  0.910533  0.400295  1
  Th  Th5  1  0.914562  0.404443  0.697336  1
  Th  Th6  1  0.652903  0.093774  0.852558  1
  Th  Th7  1  0.096960  0.850001  0.654682  1
  Th  Th8  1  0.849930  0.660171  0.101362  1
  Th  Th9  1  0.612318  0.615731  0.611523  1
  Al  Al10  1  0.405535  0.314581  0.914231  1
  Al  Al11  1  0.312754  0.910122  0.402758  1
  Al  Al12  1  0.913562  0.404749  0.313251  1
  Al  Al13  1  0.012818  0.014388  0.011056  1
  Ru  Ru14  1  0.027639  0.150982  0.773968  1
  Ru  Ru15  1  0.140198  0.769986  0.020535  1
  Ru  Ru16  1  0.776436  0.028482  0.143424  1
  Ru  Ru17  1  0.666742  0.541029  0.285617  1
  Ru  Ru18  1  0.545493  0.284617  0.665016  1
  Ru  Ru19  1  0.284723  0.664375  0.540910  1
