# generated using pymatgen
data_Hf3Pa5(P3Ir4)4
_symmetry_space_group_name_H-M   'P 1'
_cell_length_a   12.87638200
_cell_length_b   12.87638207
_cell_length_c   4.01659700
_cell_angle_alpha   90.00000000
_cell_angle_beta   90.00000000
_cell_angle_gamma   119.99999982
_symmetry_Int_Tables_number   1
_chemical_formula_structural   Hf3Pa5(P3Ir4)4
_chemical_formula_sum   'Hf3 Pa5 P12 Ir16'
_cell_volume   576.73538634
_cell_formula_units_Z   1
loop_
 _symmetry_equiv_pos_site_id
 _symmetry_equiv_pos_as_xyz
  1  'x, y, z'
loop_
 _atom_site_type_symbol
 _atom_site_label
 _atom_site_symmetry_multiplicity
 _atom_site_fract_x
 _atom_site_fract_y
 _atom_site_fract_z
 _atom_site_occupancy
  Hf  Hf0  1  0.451413  0.000000  0.000000  1
  Hf  Hf1  1  0.000000  0.451413  0.000000  1
  Hf  Hf2  1  0.548587  0.548587  0.000000  1
  Pa  Pa3  1  0.333333  0.666667  0.000000  1
  Pa  Pa4  1  0.666667  0.333333  0.000000  1
  Pa  Pa5  1  0.817967  0.000000  0.500000  1
  Pa  Pa6  1  0.000000  0.817967  0.500000  1
  Pa  Pa7  1  0.182033  0.182033  0.500000  1
  P  P8  1  0.176736  0.000000  0.000000  1
  P  P9  1  0.000000  0.176736  0.000000  1
  P  P10  1  0.823264  0.823264  0.000000  1
  P  P11  1  0.165736  0.481958  0.500000  1
  P  P12  1  0.518042  0.683777  0.500000  1
  P  P13  1  0.316223  0.834264  0.500000  1
  P  P14  1  0.683777  0.518042  0.500000  1
  P  P15  1  0.834264  0.316223  0.500000  1
  P  P16  1  0.481958  0.165736  0.500000  1
  P  P17  1  0.642325  0.000000  0.000000  1
  P  P18  1  0.000000  0.642325  0.000000  1
  P  P19  1  0.357675  0.357675  0.000000  1
  Ir  Ir20  1  0.354473  0.491364  0.500000  1
  Ir  Ir21  1  0.508636  0.863110  0.500000  1
  Ir  Ir22  1  0.136890  0.645527  0.500000  1
  Ir  Ir23  1  0.863110  0.508636  0.500000  1
  Ir  Ir24  1  0.645527  0.136890  0.500000  1
  Ir  Ir25  1  0.491364  0.354473  0.500000  1
  Ir  Ir26  1  0.178188  0.368587  0.000000  1
  Ir  Ir27  1  0.631413  0.809601  0.000000  1
  Ir  Ir28  1  0.190399  0.821812  0.000000  1
  Ir  Ir29  1  0.809601  0.631413  0.000000  1
  Ir  Ir30  1  0.821812  0.190399  0.000000  1
  Ir  Ir31  1  0.368587  0.178188  0.000000  1
  Ir  Ir32  1  0.281356  0.000000  0.500000  1
  Ir  Ir33  1  0.000000  0.281356  0.500000  1
  Ir  Ir34  1  0.718644  0.718644  0.500000  1
  Ir  Ir35  1  0.000000  0.000000  0.000000  1
