# generated using pymatgen
data_Lu10Sc2InCo4Pd
_symmetry_space_group_name_H-M   'P 1'
_cell_length_a   8.09694607
_cell_length_b   8.07983779
_cell_length_c   8.07983700
_cell_angle_alpha   111.00009948
_cell_angle_beta   111.11851750
_cell_angle_gamma   106.25880810
_symmetry_Int_Tables_number   1
_chemical_formula_structural   Lu10Sc2InCo4Pd
_chemical_formula_sum   'Lu10 Sc2 In1 Co4 Pd1'
_cell_volume   406.39217895
_cell_formula_units_Z   1
loop_
 _symmetry_equiv_pos_site_id
 _symmetry_equiv_pos_as_xyz
  1  'x, y, z'
loop_
 _atom_site_type_symbol
 _atom_site_label
 _atom_site_symmetry_multiplicity
 _atom_site_fract_x
 _atom_site_fract_y
 _atom_site_fract_z
 _atom_site_occupancy
  Lu  Lu0  1  0.019581  0.220350  0.799231  1
  Lu  Lu1  1  0.980419  0.779650  0.200769  1
  Lu  Lu2  1  0.191152  0.290616  0.476885  1
  Lu  Lu3  1  0.808848  0.709384  0.523115  1
  Lu  Lu4  1  0.191152  0.714266  0.900537  1
  Lu  Lu5  1  0.808848  0.285734  0.099463  1
  Lu  Lu6  1  0.315913  0.614515  0.304603  1
  Lu  Lu7  1  0.684087  0.385485  0.695397  1
  Lu  Lu8  1  0.315913  0.011311  0.701397  1
  Lu  Lu9  1  0.684087  0.988689  0.298603  1
  Sc  Sc10  1  0.422879  0.218296  0.204584  1
  Sc  Sc11  1  0.577121  0.781704  0.795416  1
  In  In12  1  0.500000  0.500000  0.000000  1
  Co  Co13  1  0.379176  0.003324  0.375852  1
  Co  Co14  1  0.620824  0.996676  0.624148  1
  Co  Co15  1  0.114524  0.613213  0.501312  1
  Co  Co16  1  0.885476  0.386787  0.498688  1
  Pd  Pd17  1  0.000000  0.000000  0.000000  1
