# generated using pymatgen
data_Nd5Ta3(Ni4P3)4
_symmetry_space_group_name_H-M   'P 1'
_cell_length_a   12.40603900
_cell_length_b   12.40603894
_cell_length_c   3.84119800
_cell_angle_alpha   90.00000000
_cell_angle_beta   90.00000000
_cell_angle_gamma   120.00000816
_symmetry_Int_Tables_number   1
_chemical_formula_structural   Nd5Ta3(Ni4P3)4
_chemical_formula_sum   'Nd5 Ta3 Ni16 P12'
_cell_volume   511.99246815
_cell_formula_units_Z   1
loop_
 _symmetry_equiv_pos_site_id
 _symmetry_equiv_pos_as_xyz
  1  'x, y, z'
loop_
 _atom_site_type_symbol
 _atom_site_label
 _atom_site_symmetry_multiplicity
 _atom_site_fract_x
 _atom_site_fract_y
 _atom_site_fract_z
 _atom_site_occupancy
  Nd  Nd0  1  0.188478  0.188478  0.500000  1
  Nd  Nd1  1  0.811522  0.000000  0.500000  1
  Nd  Nd2  1  0.000000  0.811522  0.500000  1
  Nd  Nd3  1  0.333333  0.666667  0.000000  1
  Nd  Nd4  1  0.666667  0.333333  0.000000  1
  Ta  Ta5  1  0.564597  0.564597  0.000000  1
  Ta  Ta6  1  0.435403  0.000000  0.000000  1
  Ta  Ta7  1  0.000000  0.435403  0.000000  1
  Ni  Ni8  1  0.722532  0.722532  0.500000  1
  Ni  Ni9  1  0.277468  0.000000  0.500000  1
  Ni  Ni10  1  0.000000  0.277468  0.500000  1
  Ni  Ni11  1  0.184781  0.378477  0.000000  1
  Ni  Ni12  1  0.621523  0.806304  0.000000  1
  Ni  Ni13  1  0.193696  0.815219  0.000000  1
  Ni  Ni14  1  0.806304  0.621523  0.000000  1
  Ni  Ni15  1  0.815219  0.193696  0.000000  1
  Ni  Ni16  1  0.378477  0.184781  0.000000  1
  Ni  Ni17  1  0.364583  0.486314  0.500000  1
  Ni  Ni18  1  0.513686  0.878271  0.500000  1
  Ni  Ni19  1  0.121729  0.635417  0.500000  1
  Ni  Ni20  1  0.878271  0.513686  0.500000  1
  Ni  Ni21  1  0.635417  0.121729  0.500000  1
  Ni  Ni22  1  0.486314  0.364583  0.500000  1
  Ni  Ni23  1  0.000000  0.000000  0.000000  1
  P  P24  1  0.819205  0.819205  0.000000  1
  P  P25  1  0.180795  0.000000  0.000000  1
  P  P26  1  0.000000  0.180795  0.000000  1
  P  P27  1  0.165916  0.474136  0.500000  1
  P  P28  1  0.525864  0.691780  0.500000  1
  P  P29  1  0.308220  0.834084  0.500000  1
  P  P30  1  0.691780  0.525864  0.500000  1
  P  P31  1  0.834084  0.308220  0.500000  1
  P  P32  1  0.474136  0.165916  0.500000  1
  P  P33  1  0.367183  0.367183  0.000000  1
  P  P34  1  0.632817  0.000000  0.000000  1
  P  P35  1  0.000000  0.632817  0.000000  1
