# generated using pymatgen
data_Yb20Si11Sn
_symmetry_space_group_name_H-M   'P 1'
_cell_length_a   7.73675500
_cell_length_b   7.73675500
_cell_length_c   14.26403800
_cell_angle_alpha   90.00000000
_cell_angle_beta   90.00000000
_cell_angle_gamma   90.00000000
_symmetry_Int_Tables_number   1
_chemical_formula_structural   Yb20Si11Sn
_chemical_formula_sum   'Yb20 Si11 Sn1'
_cell_volume   853.80791337
_cell_formula_units_Z   1
loop_
 _symmetry_equiv_pos_site_id
 _symmetry_equiv_pos_as_xyz
  1  'x, y, z'
loop_
 _atom_site_type_symbol
 _atom_site_label
 _atom_site_symmetry_multiplicity
 _atom_site_fract_x
 _atom_site_fract_y
 _atom_site_fract_z
 _atom_site_occupancy
  Yb  Yb0  1  0.500000  0.000000  0.767519  1
  Yb  Yb1  1  0.321302  0.319461  0.106632  1
  Yb  Yb2  1  0.825434  0.816019  0.893505  1
  Yb  Yb3  1  0.000000  0.500000  0.244639  1
  Yb  Yb4  1  0.816527  0.175365  0.387864  1
  Yb  Yb5  1  0.174566  0.183981  0.893505  1
  Yb  Yb6  1  0.678698  0.680539  0.106632  1
  Yb  Yb7  1  0.000000  0.500000  0.747000  1
  Yb  Yb8  1  0.810648  0.829693  0.611600  1
  Yb  Yb9  1  0.324635  0.316527  0.387864  1
  Yb  Yb10  1  0.180539  0.821302  0.106632  1
  Yb  Yb11  1  0.189352  0.170307  0.611600  1
  Yb  Yb12  1  0.819461  0.178698  0.106632  1
  Yb  Yb13  1  0.329693  0.689352  0.611600  1
  Yb  Yb14  1  0.500000  0.000000  0.244354  1
  Yb  Yb15  1  0.683981  0.325434  0.893505  1
  Yb  Yb16  1  0.670307  0.310648  0.611600  1
  Yb  Yb17  1  0.316019  0.674566  0.893505  1
  Yb  Yb18  1  0.183473  0.824635  0.387864  1
  Yb  Yb19  1  0.675365  0.683473  0.387864  1
  Si  Si20  1  0.611787  0.388562  0.247089  1
  Si  Si21  1  0.888321  0.111600  0.752764  1
  Si  Si22  1  0.500000  0.000000  0.496197  1
  Si  Si23  1  0.888562  0.888213  0.247089  1
  Si  Si24  1  0.000000  0.500000  0.001506  1
  Si  Si25  1  0.111679  0.888400  0.752764  1
  Si  Si26  1  0.388400  0.388321  0.752764  1
  Si  Si27  1  0.111438  0.111787  0.247089  1
  Si  Si28  1  0.388213  0.611438  0.247089  1
  Si  Si29  1  0.611600  0.611679  0.752764  1
  Si  Si30  1  0.500000  0.000000  0.999036  1
  Sn  Sn31  1  0.000000  0.500000  0.501928  1
