# generated using pymatgen
data_Pm2Tc2BrO12
_symmetry_space_group_name_H-M   'P 1'
_cell_length_a   7.36066567
_cell_length_b   7.06152795
_cell_length_c   11.04012891
_cell_angle_alpha   75.33734670
_cell_angle_beta   85.07628829
_cell_angle_gamma   110.66702576
_symmetry_Int_Tables_number   1
_chemical_formula_structural   Pm2Tc2BrO12
_chemical_formula_sum   'Pm4 Tc4 Br2 O24'
_cell_volume   509.60638541
_cell_formula_units_Z   2
loop_
 _symmetry_equiv_pos_site_id
 _symmetry_equiv_pos_as_xyz
  1  'x, y, z'
loop_
 _atom_site_type_symbol
 _atom_site_label
 _atom_site_symmetry_multiplicity
 _atom_site_fract_x
 _atom_site_fract_y
 _atom_site_fract_z
 _atom_site_occupancy
  Pm  Pm0  1  0.220450  0.451461  0.575582  1
  Pm  Pm1  1  0.779550  0.548539  0.424418  1
  Pm  Pm2  1  0.531949  0.806357  0.905874  1
  Pm  Pm3  1  0.468051  0.193643  0.094126  1
  Tc  Tc4  1  0.712209  0.012526  0.531278  1
  Tc  Tc5  1  0.287791  0.987474  0.468722  1
  Tc  Tc6  1  0.633005  0.336974  0.772002  1
  Tc  Tc7  1  0.366995  0.663026  0.227998  1
  Br  Br8  1  0.071278  0.318341  0.925600  1
  Br  Br9  1  0.928722  0.681659  0.074400  1
  O  O10  1  0.564447  0.470612  0.621708  1
  O  O11  1  0.435553  0.529388  0.378292  1
  O  O12  1  0.541994  0.459114  0.876934  1
  O  O13  1  0.458006  0.540886  0.123066  1
  O  O14  1  0.488976  0.085816  0.749778  1
  O  O15  1  0.511024  0.914184  0.250222  1
  O  O16  1  0.889660  0.453245  0.714722  1
  O  O17  1  0.110340  0.546755  0.285278  1
  O  O18  1  0.665187  0.153147  0.927768  1
  O  O19  1  0.334813  0.846853  0.072232  1
  O  O20  1  0.902330  0.277013  0.519346  1
  O  O21  1  0.097670  0.722987  0.480654  1
  O  O22  1  0.421781  0.816648  0.559054  1
  O  O23  1  0.578219  0.183352  0.440946  1
  O  O24  1  0.196364  0.582668  0.900198  1
  O  O25  1  0.803636  0.417332  0.099802  1
  O  O26  1  0.166395  0.270374  0.796689  1
  O  O27  1  0.833605  0.729626  0.203311  1
  O  O28  1  0.711146  0.879908  0.690914  1
  O  O29  1  0.288854  0.120092  0.309086  1
  O  O30  1  0.850432  0.812037  0.954106  1
  O  O31  1  0.149568  0.187963  0.045894  1
  O  O32  1  0.186592  0.091490  0.570182  1
  O  O33  1  0.813408  0.908510  0.429818  1
