# generated using pymatgen
data_Yb17Cd3(IrPd2)4
_symmetry_space_group_name_H-M   'P 1'
_cell_length_a   6.03795800
_cell_length_b   11.04525000
_cell_length_c   11.04525000
_cell_angle_alpha   90.00000000
_cell_angle_beta   90.00000000
_cell_angle_gamma   90.00000000
_symmetry_Int_Tables_number   1
_chemical_formula_structural   Yb17Cd3(IrPd2)4
_chemical_formula_sum   'Yb17 Cd3 Ir4 Pd8'
_cell_volume   736.61606829
_cell_formula_units_Z   1
loop_
 _symmetry_equiv_pos_site_id
 _symmetry_equiv_pos_as_xyz
  1  'x, y, z'
loop_
 _atom_site_type_symbol
 _atom_site_label
 _atom_site_symmetry_multiplicity
 _atom_site_fract_x
 _atom_site_fract_y
 _atom_site_fract_z
 _atom_site_occupancy
  Yb  Yb0  1  0.344142  0.830390  0.539785  1
  Yb  Yb1  1  0.841504  0.670088  0.536935  1
  Yb  Yb2  1  0.841504  0.829912  0.963065  1
  Yb  Yb3  1  0.344142  0.669610  0.960215  1
  Yb  Yb4  1  0.842939  0.538182  0.831124  1
  Yb  Yb5  1  0.340233  0.954229  0.831033  1
  Yb  Yb6  1  0.340233  0.545771  0.668967  1
  Yb  Yb7  1  0.842939  0.961818  0.668876  1
  Yb  Yb8  1  0.659767  0.168967  0.454230  1
  Yb  Yb9  1  0.157061  0.331124  0.461819  1
  Yb  Yb10  1  0.157061  0.168876  0.038182  1
  Yb  Yb11  1  0.659767  0.331033  0.045771  1
  Yb  Yb12  1  0.158496  0.463066  0.170088  1
  Yb  Yb13  1  0.655858  0.039785  0.169610  1
  Yb  Yb14  1  0.655858  0.460216  0.330390  1
  Yb  Yb15  1  0.158496  0.036935  0.329912  1
  Yb  Yb16  1  0.500000  0.250000  0.750000  1
  Cd  Cd17  1  0.500000  0.750000  0.250000  1
  Cd  Cd18  1  0.000000  0.750000  0.250000  1
  Cd  Cd19  1  0.000000  0.250000  0.750000  1
  Ir  Ir20  1  0.087835  0.750000  0.750000  1
  Ir  Ir21  1  0.598790  0.750000  0.750000  1
  Ir  Ir22  1  0.912165  0.250000  0.250000  1
  Ir  Ir23  1  0.401210  0.250000  0.250000  1
  Pd  Pd24  1  0.250180  0.906092  0.092783  1
  Pd  Pd25  1  0.749820  0.592783  0.093908  1
  Pd  Pd26  1  0.749820  0.907217  0.406092  1
  Pd  Pd27  1  0.250180  0.593908  0.407217  1
  Pd  Pd28  1  0.743921  0.092680  0.907091  1
  Pd  Pd29  1  0.256079  0.407091  0.907320  1
  Pd  Pd30  1  0.256079  0.092909  0.592680  1
  Pd  Pd31  1  0.743921  0.407320  0.592909  1
