# generated using pymatgen
data_Ba4CrCoO8
_symmetry_space_group_name_H-M   'P 1'
_cell_length_a   7.72051400
_cell_length_b   6.11921128
_cell_length_c   11.89113029
_cell_angle_alpha   62.47603124
_cell_angle_beta   90.00000000
_cell_angle_gamma   90.00000000
_symmetry_Int_Tables_number   1
_chemical_formula_structural   Ba4CrCoO8
_chemical_formula_sum   'Ba8 Cr2 Co2 O16'
_cell_volume   498.19469679
_cell_formula_units_Z   2
loop_
 _symmetry_equiv_pos_site_id
 _symmetry_equiv_pos_as_xyz
  1  'x, y, z'
loop_
 _atom_site_type_symbol
 _atom_site_label
 _atom_site_symmetry_multiplicity
 _atom_site_fract_x
 _atom_site_fract_y
 _atom_site_fract_z
 _atom_site_occupancy
  Ba  Ba0  1  0.997368  0.964870  0.306445  1
  Ba  Ba1  1  0.497368  0.035130  0.193555  1
  Ba  Ba2  1  0.998471  0.030386  0.694834  1
  Ba  Ba3  1  0.498471  0.969614  0.805166  1
  Ba  Ba4  1  0.656968  0.311878  0.425891  1
  Ba  Ba5  1  0.156968  0.688122  0.074109  1
  Ba  Ba6  1  0.348098  0.685066  0.578329  1
  Ba  Ba7  1  0.848098  0.314934  0.921671  1
  Cr  Cr8  1  0.220528  0.340971  0.417098  1
  Cr  Cr9  1  0.720528  0.659029  0.082902  1
  Co  Co10  1  0.778102  0.660707  0.582355  1
  Co  Co11  1  0.278102  0.339293  0.917645  1
  O  O12  1  0.319189  0.246881  0.572500  1
  O  O13  1  0.819189  0.753119  0.927500  1
  O  O14  1  0.681604  0.753060  0.426757  1
  O  O15  1  0.181604  0.246940  0.073243  1
  O  O16  1  0.327310  0.141368  0.363920  1
  O  O17  1  0.827310  0.858632  0.136080  1
  O  O18  1  0.674044  0.858401  0.638305  1
  O  O19  1  0.174044  0.141599  0.861695  1
  O  O20  1  0.268092  0.660841  0.317567  1
  O  O21  1  0.768092  0.339159  0.182433  1
  O  O22  1  0.730385  0.339979  0.682718  1
  O  O23  1  0.230385  0.660021  0.817282  1
  O  O24  1  0.506062  0.287644  0.928671  1
  O  O25  1  0.006062  0.712356  0.571329  1
  O  O26  1  0.493778  0.715777  0.070390  1
  O  O27  1  0.993778  0.284223  0.429610  1
