# generated using pymatgen
data_Ba8TlSn18Bi5
_symmetry_space_group_name_H-M   'P 1'
_cell_length_a   7.41621500
_cell_length_b   7.36354082
_cell_length_c   22.50076600
_cell_angle_alpha   89.92008123
_cell_angle_beta   90.00000000
_cell_angle_gamma   120.23691075
_symmetry_Int_Tables_number   1
_chemical_formula_structural   Ba8TlSn18Bi5
_chemical_formula_sum   'Ba8 Tl1 Sn18 Bi5'
_cell_volume   1061.58468190
_cell_formula_units_Z   1
loop_
 _symmetry_equiv_pos_site_id
 _symmetry_equiv_pos_as_xyz
  1  'x, y, z'
loop_
 _atom_site_type_symbol
 _atom_site_label
 _atom_site_symmetry_multiplicity
 _atom_site_fract_x
 _atom_site_fract_y
 _atom_site_fract_z
 _atom_site_occupancy
  Ba  Ba0  1  0.332866  0.665731  0.134896  1
  Ba  Ba1  1  0.667134  0.334269  0.865104  1
  Ba  Ba2  1  0.667195  0.334389  0.634741  1
  Ba  Ba3  1  0.332805  0.665611  0.365259  1
  Ba  Ba4  1  0.000000  0.000000  0.000000  1
  Ba  Ba5  1  0.000000  0.000000  0.500000  1
  Ba  Ba6  1  0.000701  0.001402  0.249961  1
  Ba  Ba7  1  0.999299  0.998598  0.750039  1
  Tl  Tl8  1  0.500000  0.000000  0.000000  1
  Sn  Sn9  1  0.193988  0.387977  0.624081  1
  Sn  Sn10  1  0.806012  0.612023  0.375919  1
  Sn  Sn11  1  0.612514  0.806249  0.624855  1
  Sn  Sn12  1  0.805760  0.611519  0.124522  1
  Sn  Sn13  1  0.387486  0.193751  0.375145  1
  Sn  Sn14  1  0.194240  0.388481  0.875478  1
  Sn  Sn15  1  0.193733  0.806249  0.624855  1
  Sn  Sn16  1  0.386834  0.194364  0.125159  1
  Sn  Sn17  1  0.806267  0.193751  0.375145  1
  Sn  Sn18  1  0.613166  0.805636  0.874841  1
  Sn  Sn19  1  0.807530  0.194364  0.125159  1
  Sn  Sn20  1  0.192470  0.805636  0.874841  1
  Sn  Sn21  1  0.528623  0.057246  0.249814  1
  Sn  Sn22  1  0.471377  0.942754  0.750186  1
  Sn  Sn23  1  0.941135  0.469040  0.249412  1
  Sn  Sn24  1  0.058865  0.530960  0.750588  1
  Sn  Sn25  1  0.527904  0.469040  0.249412  1
  Sn  Sn26  1  0.472096  0.530960  0.750588  1
  Bi  Bi27  1  0.500000  0.000000  0.500000  1
  Bi  Bi28  1  0.000000  0.500000  0.000000  1
  Bi  Bi29  1  0.500000  0.500000  0.000000  1
  Bi  Bi30  1  0.000000  0.500000  0.500000  1
  Bi  Bi31  1  0.500000  0.500000  0.500000  1
