# generated using pymatgen
data_CaTb7(Si4W3)4
_symmetry_space_group_name_H-M   'P 1'
_cell_length_a   6.78756713
_cell_length_b   6.95549706
_cell_length_c   12.94599058
_cell_angle_alpha   89.95031840
_cell_angle_beta   89.95158097
_cell_angle_gamma   89.92395837
_symmetry_Int_Tables_number   1
_chemical_formula_structural   CaTb7(Si4W3)4
_chemical_formula_sum   'Ca1 Tb7 Si16 W12'
_cell_volume   611.19092290
_cell_formula_units_Z   1
loop_
 _symmetry_equiv_pos_site_id
 _symmetry_equiv_pos_as_xyz
  1  'x, y, z'
loop_
 _atom_site_type_symbol
 _atom_site_label
 _atom_site_symmetry_multiplicity
 _atom_site_fract_x
 _atom_site_fract_y
 _atom_site_fract_z
 _atom_site_occupancy
  Ca  Ca0  1  0.996056  0.833090  0.591110  1
  Tb  Tb1  1  0.496683  0.667669  0.593971  1
  Tb  Tb2  1  0.996956  0.832123  0.906312  1
  Tb  Tb3  1  0.504519  0.332090  0.093404  1
  Tb  Tb4  1  0.003364  0.166470  0.407820  1
  Tb  Tb5  1  0.503691  0.332598  0.407093  1
  Tb  Tb6  1  0.004331  0.167277  0.093613  1
  Tb  Tb7  1  0.496235  0.667836  0.905780  1
  Si  Si8  1  0.660075  0.956389  0.453493  1
  Si  Si9  1  0.161986  0.543943  0.046150  1
  Si  Si10  1  0.338253  0.043326  0.953316  1
  Si  Si11  1  0.839638  0.458738  0.547564  1
  Si  Si12  1  0.338335  0.042040  0.547451  1
  Si  Si13  1  0.838404  0.456451  0.953816  1
  Si  Si14  1  0.662288  0.956290  0.046332  1
  Si  Si15  1  0.160330  0.543756  0.452905  1
  Si  Si16  1  0.464234  0.369838  0.750413  1
  Si  Si17  1  0.964696  0.129037  0.749265  1
  Si  Si18  1  0.535227  0.630757  0.250120  1
  Si  Si19  1  0.035435  0.869128  0.250721  1
  Si  Si20  1  0.698647  0.868388  0.748528  1
  Si  Si21  1  0.193851  0.633815  0.748500  1
  Si  Si22  1  0.303493  0.132386  0.250235  1
  Si  Si23  1  0.804390  0.367113  0.250494  1
  W  W24  1  0.666970  0.165713  0.625675  1
  W  W25  1  0.168914  0.337735  0.874719  1
  W  W26  1  0.331887  0.836945  0.126176  1
  W  W27  1  0.829912  0.661765  0.373418  1
  W  W28  1  0.331963  0.837571  0.374096  1
  W  W29  1  0.831122  0.662338  0.125882  1
  W  W30  1  0.668700  0.163318  0.873786  1
  W  W31  1  0.169028  0.335812  0.626601  1
  W  W32  1  0.834464  0.495297  0.750959  1
  W  W33  1  0.334407  0.002641  0.750897  1
  W  W34  1  0.165518  0.502357  0.249863  1
  W  W35  1  0.666000  0.997959  0.249518  1
