# generated using pymatgen
data_Tb6FeCo15(P6W)2
_symmetry_space_group_name_H-M   'P 1'
_cell_length_a   3.72394300
_cell_length_b   10.57415500
_cell_length_c   12.25106900
_cell_angle_alpha   90.00000000
_cell_angle_beta   90.00000000
_cell_angle_gamma   90.00000000
_symmetry_Int_Tables_number   1
_chemical_formula_structural   Tb6FeCo15(P6W)2
_chemical_formula_sum   'Tb6 Fe1 Co15 P12 W2'
_cell_volume   482.41708814
_cell_formula_units_Z   1
loop_
 _symmetry_equiv_pos_site_id
 _symmetry_equiv_pos_as_xyz
  1  'x, y, z'
loop_
 _atom_site_type_symbol
 _atom_site_label
 _atom_site_symmetry_multiplicity
 _atom_site_fract_x
 _atom_site_fract_y
 _atom_site_fract_z
 _atom_site_occupancy
  Tb  Tb0  1  0.000000  0.500000  0.524220  1
  Tb  Tb1  1  0.500000  0.000000  0.475768  1
  Tb  Tb2  1  0.500000  0.818670  0.204604  1
  Tb  Tb3  1  0.500000  0.181330  0.204604  1
  Tb  Tb4  1  0.000000  0.679864  0.795675  1
  Tb  Tb5  1  0.000000  0.320136  0.795675  1
  Fe  Fe6  1  0.000000  0.500000  0.987616  1
  Co  Co7  1  0.500000  0.500000  0.700210  1
  Co  Co8  1  0.000000  0.000000  0.299134  1
  Co  Co9  1  0.500000  0.000000  0.013102  1
  Co  Co10  1  0.500000  0.330785  0.991267  1
  Co  Co11  1  0.500000  0.669215  0.991267  1
  Co  Co12  1  0.000000  0.166673  0.008954  1
  Co  Co13  1  0.000000  0.833327  0.008954  1
  Co  Co14  1  0.500000  0.295483  0.431394  1
  Co  Co15  1  0.500000  0.704517  0.431394  1
  Co  Co16  1  0.000000  0.204487  0.569008  1
  Co  Co17  1  0.000000  0.795513  0.569008  1
  Co  Co18  1  0.500000  0.878941  0.707732  1
  Co  Co19  1  0.500000  0.121059  0.707732  1
  Co  Co20  1  0.000000  0.621569  0.292149  1
  Co  Co21  1  0.000000  0.378431  0.292149  1
  P  P22  1  0.500000  0.500000  0.882885  1
  P  P23  1  0.000000  0.000000  0.118972  1
  P  P24  1  0.500000  0.500000  0.349236  1
  P  P25  1  0.000000  0.000000  0.650541  1
  P  P26  1  0.500000  0.310160  0.615805  1
  P  P27  1  0.500000  0.689840  0.615805  1
  P  P28  1  0.000000  0.189679  0.384381  1
  P  P29  1  0.000000  0.810321  0.384381  1
  P  P30  1  0.500000  0.844410  0.892836  1
  P  P31  1  0.500000  0.155590  0.892836  1
  P  P32  1  0.000000  0.654871  0.105632  1
  P  P33  1  0.000000  0.345129  0.105632  1
  W  W34  1  0.500000  0.500000  0.155552  1
  W  W35  1  0.000000  0.000000  0.843888  1
