# generated using pymatgen
data_CaCe2Y(Zn4Ru)2
_symmetry_space_group_name_H-M   'P 1'
_cell_length_a   7.19890000
_cell_length_b   7.19890000
_cell_length_c   5.14835600
_cell_angle_alpha   90.00000000
_cell_angle_beta   90.00000000
_cell_angle_gamma   90.00000000
_symmetry_Int_Tables_number   1
_chemical_formula_structural   CaCe2Y(Zn4Ru)2
_chemical_formula_sum   'Ca1 Ce2 Y1 Zn8 Ru2'
_cell_volume   266.80923131
_cell_formula_units_Z   1
loop_
 _symmetry_equiv_pos_site_id
 _symmetry_equiv_pos_as_xyz
  1  'x, y, z'
loop_
 _atom_site_type_symbol
 _atom_site_label
 _atom_site_symmetry_multiplicity
 _atom_site_fract_x
 _atom_site_fract_y
 _atom_site_fract_z
 _atom_site_occupancy
  Ca  Ca0  1  0.000000  0.500000  0.774917  1
  Ce  Ce1  1  0.000000  0.000000  0.997868  1
  Ce  Ce2  1  0.500000  0.500000  0.997868  1
  Y  Y3  1  0.500000  0.000000  0.222799  1
  Zn  Zn4  1  0.186274  0.686274  0.290708  1
  Zn  Zn5  1  0.813726  0.686274  0.290708  1
  Zn  Zn6  1  0.813726  0.313726  0.290708  1
  Zn  Zn7  1  0.315325  0.184675  0.711060  1
  Zn  Zn8  1  0.186274  0.313726  0.290708  1
  Zn  Zn9  1  0.684675  0.184675  0.711060  1
  Zn  Zn10  1  0.684675  0.815325  0.711060  1
  Zn  Zn11  1  0.315325  0.815325  0.711060  1
  Ru  Ru12  1  0.500000  0.500000  0.499738  1
  Ru  Ru13  1  0.000000  0.000000  0.499738  1
