# generated using pymatgen
data_Y8Hf2(IrRh)3
_symmetry_space_group_name_H-M   'P 1'
_cell_length_a   10.88296846
_cell_length_b   10.88384800
_cell_length_c   6.25442026
_cell_angle_alpha   90.00000000
_cell_angle_beta   90.03327240
_cell_angle_gamma   90.00000000
_symmetry_Int_Tables_number   1
_chemical_formula_structural   Y8Hf2(IrRh)3
_chemical_formula_sum   'Y16 Hf4 Ir6 Rh6'
_cell_volume   740.82703960
_cell_formula_units_Z   2
loop_
 _symmetry_equiv_pos_site_id
 _symmetry_equiv_pos_as_xyz
  1  'x, y, z'
loop_
 _atom_site_type_symbol
 _atom_site_label
 _atom_site_symmetry_multiplicity
 _atom_site_fract_x
 _atom_site_fract_y
 _atom_site_fract_z
 _atom_site_occupancy
  Y  Y0  1  0.287873  0.086222  0.375755  1
  Y  Y1  1  0.287873  0.913778  0.875755  1
  Y  Y2  1  0.711225  0.087359  0.875324  1
  Y  Y3  1  0.711225  0.912641  0.375324  1
  Y  Y4  1  0.584746  0.787500  0.876378  1
  Y  Y5  1  0.584746  0.212500  0.376378  1
  Y  Y6  1  0.413652  0.787877  0.376045  1
  Y  Y7  1  0.413652  0.212123  0.876045  1
  Y  Y8  1  0.212138  0.413788  0.623885  1
  Y  Y9  1  0.212138  0.586212  0.123885  1
  Y  Y10  1  0.787497  0.415176  0.123666  1
  Y  Y11  1  0.787497  0.584824  0.623666  1
  Y  Y12  1  0.914010  0.711715  0.124621  1
  Y  Y13  1  0.914010  0.288285  0.624621  1
  Y  Y14  1  0.087562  0.711643  0.624290  1
  Y  Y15  1  0.087562  0.288357  0.124290  1
  Hf  Hf16  1  0.000814  0.999987  0.500025  1
  Hf  Hf17  1  0.000814  0.000013  0.000025  1
  Hf  Hf18  1  0.499949  0.500038  0.999996  1
  Hf  Hf19  1  0.499949  0.499962  0.499996  1
  Ir  Ir20  1  0.141639  0.142497  0.750156  1
  Ir  Ir21  1  0.141639  0.857503  0.250156  1
  Ir  Ir22  1  0.643132  0.357051  0.750015  1
  Ir  Ir23  1  0.643132  0.642949  0.250015  1
  Ir  Ir24  1  0.357437  0.357262  0.250010  1
  Ir  Ir25  1  0.357437  0.642738  0.750010  1
  Rh  Rh26  1  0.857693  0.141466  0.249836  1
  Rh  Rh27  1  0.857693  0.858534  0.749836  1
  Rh  Rh28  1  0.500919  0.000038  0.122156  1
  Rh  Rh29  1  0.500919  0.999962  0.622156  1
  Rh  Rh30  1  0.999715  0.500261  0.877844  1
  Rh  Rh31  1  0.999715  0.499739  0.377844  1
