# generated using pymatgen
data_Gd10OsRuPt4
_symmetry_space_group_name_H-M   'P 1'
_cell_length_a   11.13306500
_cell_length_b   11.13306500
_cell_length_c   6.40726000
_cell_angle_alpha   90.00000000
_cell_angle_beta   90.00000000
_cell_angle_gamma   90.00000000
_symmetry_Int_Tables_number   1
_chemical_formula_structural   Gd10OsRuPt4
_chemical_formula_sum   'Gd20 Os2 Ru2 Pt8'
_cell_volume   794.14871397
_cell_formula_units_Z   2
loop_
 _symmetry_equiv_pos_site_id
 _symmetry_equiv_pos_as_xyz
  1  'x, y, z'
loop_
 _atom_site_type_symbol
 _atom_site_label
 _atom_site_symmetry_multiplicity
 _atom_site_fract_x
 _atom_site_fract_y
 _atom_site_fract_z
 _atom_site_occupancy
  Gd  Gd0  1  0.086009  0.296356  0.129468  1
  Gd  Gd1  1  0.796356  0.413991  0.129468  1
  Gd  Gd2  1  0.203644  0.586009  0.129468  1
  Gd  Gd3  1  0.913991  0.703644  0.129468  1
  Gd  Gd4  1  0.413991  0.796356  0.370532  1
  Gd  Gd5  1  0.586009  0.203644  0.370532  1
  Gd  Gd6  1  0.296356  0.086009  0.370532  1
  Gd  Gd7  1  0.703644  0.913991  0.370532  1
  Gd  Gd8  1  0.413558  0.203260  0.872183  1
  Gd  Gd9  1  0.703260  0.086442  0.872183  1
  Gd  Gd10  1  0.296740  0.913558  0.872183  1
  Gd  Gd11  1  0.586442  0.796740  0.872183  1
  Gd  Gd12  1  0.086442  0.703260  0.627817  1
  Gd  Gd13  1  0.913558  0.296740  0.627817  1
  Gd  Gd14  1  0.203260  0.413558  0.627817  1
  Gd  Gd15  1  0.796740  0.586442  0.627817  1
  Gd  Gd16  1  0.000000  0.000000  0.000029  1
  Gd  Gd17  1  0.500000  0.500000  0.000029  1
  Gd  Gd18  1  0.500000  0.500000  0.499971  1
  Gd  Gd19  1  0.000000  0.000000  0.499971  1
  Os  Os20  1  0.000000  0.500000  0.377690  1
  Os  Os21  1  0.500000  0.000000  0.122310  1
  Ru  Ru22  1  0.500000  0.000000  0.622686  1
  Ru  Ru23  1  0.000000  0.500000  0.877314  1
  Pt  Pt24  1  0.153374  0.846626  0.250000  1
  Pt  Pt25  1  0.346626  0.346626  0.250000  1
  Pt  Pt26  1  0.653374  0.653374  0.250000  1
  Pt  Pt27  1  0.846626  0.153374  0.250000  1
  Pt  Pt28  1  0.346871  0.653129  0.750000  1
  Pt  Pt29  1  0.153129  0.153129  0.750000  1
  Pt  Pt30  1  0.846871  0.846871  0.750000  1
  Pt  Pt31  1  0.653129  0.346871  0.750000  1
