# generated using pymatgen
data_Zr2Ta2GeAs
_symmetry_space_group_name_H-M   'P 1'
_cell_length_a   3.65594000
_cell_length_b   7.06905600
_cell_length_c   8.61998100
_cell_angle_alpha   90.00000000
_cell_angle_beta   90.00000000
_cell_angle_gamma   90.00000000
_symmetry_Int_Tables_number   1
_chemical_formula_structural   Zr2Ta2GeAs
_chemical_formula_sum   'Zr4 Ta4 Ge2 As2'
_cell_volume   222.77517335
_cell_formula_units_Z   2
loop_
 _symmetry_equiv_pos_site_id
 _symmetry_equiv_pos_as_xyz
  1  'x, y, z'
loop_
 _atom_site_type_symbol
 _atom_site_label
 _atom_site_symmetry_multiplicity
 _atom_site_fract_x
 _atom_site_fract_y
 _atom_site_fract_z
 _atom_site_occupancy
  Zr  Zr0  1  0.250000  0.543797  0.833352  1
  Zr  Zr1  1  0.750000  0.956203  0.333352  1
  Zr  Zr2  1  0.250000  0.040942  0.668210  1
  Zr  Zr3  1  0.750000  0.459058  0.168210  1
  Ta  Ta4  1  0.250000  0.135394  0.059431  1
  Ta  Ta5  1  0.750000  0.868909  0.939948  1
  Ta  Ta6  1  0.250000  0.631091  0.439948  1
  Ta  Ta7  1  0.750000  0.364606  0.559431  1
  Ge  Ge8  1  0.750000  0.744044  0.641542  1
  Ge  Ge9  1  0.250000  0.755956  0.141542  1
  As  As10  1  0.750000  0.246935  0.857519  1
  As  As11  1  0.250000  0.253065  0.357519  1
