# generated using pymatgen
data_PrCd3(W2O7)2
_symmetry_space_group_name_H-M   'P 1'
_cell_length_a   7.43547700
_cell_length_b   7.43547649
_cell_length_c   7.51289316
_cell_angle_alpha   60.34027743
_cell_angle_beta   60.34028686
_cell_angle_gamma   60.00000213
_symmetry_Int_Tables_number   1
_chemical_formula_structural   PrCd3(W2O7)2
_chemical_formula_sum   'Pr1 Cd3 W4 O14'
_cell_volume   295.20557244
_cell_formula_units_Z   1
loop_
 _symmetry_equiv_pos_site_id
 _symmetry_equiv_pos_as_xyz
  1  'x, y, z'
loop_
 _atom_site_type_symbol
 _atom_site_label
 _atom_site_symmetry_multiplicity
 _atom_site_fract_x
 _atom_site_fract_y
 _atom_site_fract_z
 _atom_site_occupancy
  Pr  Pr0  1  0.125000  0.125000  0.625000  1
  Cd  Cd1  1  0.125000  0.625000  0.125000  1
  Cd  Cd2  1  0.625000  0.125000  0.125000  1
  Cd  Cd3  1  0.125000  0.125000  0.125000  1
  W  W4  1  0.625000  0.125000  0.625000  1
  W  W5  1  0.625000  0.625000  0.125000  1
  W  W6  1  0.125000  0.625000  0.625000  1
  W  W7  1  0.625000  0.625000  0.625000  1
  O  O8  1  0.691698  0.691698  0.317486  1
  O  O9  1  0.952536  0.540400  0.554528  1
  O  O10  1  0.558302  0.950883  0.932514  1
  O  O11  1  0.952536  0.952536  0.554528  1
  O  O12  1  0.950883  0.558302  0.932514  1
  O  O13  1  0.540400  0.952536  0.554528  1
  O  O14  1  0.299117  0.691698  0.317486  1
  O  O15  1  0.297464  0.709600  0.695472  1
  O  O16  1  0.691698  0.299117  0.317486  1
  O  O17  1  0.709600  0.297464  0.695472  1
  O  O18  1  0.558302  0.558302  0.932514  1
  O  O19  1  0.297464  0.297464  0.695472  1
  O  O20  1  0.256462  0.256462  0.230616  1
  O  O21  1  0.993538  0.993538  0.019384  1
