# generated using pymatgen
data_Pr16MgCd3(IrOs)2
_symmetry_space_group_name_H-M   'P 1'
_cell_length_a   10.05432486
_cell_length_b   10.05432505
_cell_length_c   10.09830999
_cell_angle_alpha   59.66858734
_cell_angle_beta   59.66858323
_cell_angle_gamma   59.56303292
_symmetry_Int_Tables_number   1
_chemical_formula_structural   Pr16MgCd3(IrOs)2
_chemical_formula_sum   'Pr16 Mg1 Cd3 Ir2 Os2'
_cell_volume   715.82263581
_cell_formula_units_Z   1
loop_
 _symmetry_equiv_pos_site_id
 _symmetry_equiv_pos_as_xyz
  1  'x, y, z'
loop_
 _atom_site_type_symbol
 _atom_site_label
 _atom_site_symmetry_multiplicity
 _atom_site_fract_x
 _atom_site_fract_y
 _atom_site_fract_z
 _atom_site_occupancy
  Pr  Pr0  1  0.346572  0.346572  0.348155  1
  Pr  Pr1  1  0.346168  0.346168  0.959055  1
  Pr  Pr2  1  0.344834  0.961469  0.346109  1
  Pr  Pr3  1  0.961469  0.344834  0.346109  1
  Pr  Pr4  1  0.809198  0.191968  0.192280  1
  Pr  Pr5  1  0.189396  0.811598  0.808733  1
  Pr  Pr6  1  0.191968  0.809198  0.192280  1
  Pr  Pr7  1  0.811598  0.189396  0.808733  1
  Pr  Pr8  1  0.191936  0.191936  0.807743  1
  Pr  Pr9  1  0.809734  0.809734  0.190415  1
  Pr  Pr10  1  0.939289  0.559118  0.563042  1
  Pr  Pr11  1  0.557772  0.940135  0.941370  1
  Pr  Pr12  1  0.559118  0.939289  0.563042  1
  Pr  Pr13  1  0.940135  0.557772  0.941370  1
  Pr  Pr14  1  0.561666  0.561666  0.939015  1
  Pr  Pr15  1  0.941310  0.941310  0.559440  1
  Mg  Mg16  1  0.574833  0.574833  0.574932  1
  Cd  Cd17  1  0.580088  0.580088  0.259921  1
  Cd  Cd18  1  0.579925  0.259684  0.580216  1
  Cd  Cd19  1  0.259684  0.579925  0.580216  1
  Ir  Ir20  1  0.142380  0.579496  0.139722  1
  Ir  Ir21  1  0.579496  0.142380  0.139722  1
  Os  Os22  1  0.140495  0.140495  0.137137  1
  Os  Os23  1  0.140937  0.140937  0.581241  1
