# generated using pymatgen
data_La2YHo5(WO6)4
_symmetry_space_group_name_H-M   'P 1'
_cell_length_a   5.46419100
_cell_length_b   7.78239321
_cell_length_c   11.57508941
_cell_angle_alpha   75.64805559
_cell_angle_beta   90.00000000
_cell_angle_gamma   90.00000000
_symmetry_Int_Tables_number   1
_chemical_formula_structural   La2YHo5(WO6)4
_chemical_formula_sum   'La2 Y1 Ho5 W4 O24'
_cell_volume   476.86305033
_cell_formula_units_Z   1
loop_
 _symmetry_equiv_pos_site_id
 _symmetry_equiv_pos_as_xyz
  1  'x, y, z'
loop_
 _atom_site_type_symbol
 _atom_site_label
 _atom_site_symmetry_multiplicity
 _atom_site_fract_x
 _atom_site_fract_y
 _atom_site_fract_z
 _atom_site_occupancy
  La  La0  1  0.686718  0.500000  0.750000  1
  La  La1  1  0.313061  0.500000  0.250000  1
  Y  Y2  1  0.740952  0.000000  0.750000  1
  Ho  Ho3  1  0.259392  0.000000  0.250000  1
  Ho  Ho4  1  0.188665  0.799843  0.576332  1
  Ho  Ho5  1  0.811486  0.799965  0.076645  1
  Ho  Ho6  1  0.188665  0.200157  0.923668  1
  Ho  Ho7  1  0.811486  0.200035  0.423355  1
  W  W8  1  0.251504  0.728015  0.884776  1
  W  W9  1  0.748462  0.728550  0.384549  1
  W  W10  1  0.251504  0.271985  0.615224  1
  W  W11  1  0.748462  0.271450  0.115451  1
  O  O12  1  0.039513  0.941864  0.896405  1
  O  O13  1  0.529432  0.846940  0.931686  1
  O  O14  1  0.961874  0.942105  0.395684  1
  O  O15  1  0.454004  0.795018  0.727689  1
  O  O16  1  0.470227  0.847478  0.431163  1
  O  O17  1  0.988868  0.721077  0.768724  1
  O  O18  1  0.544719  0.796095  0.227705  1
  O  O19  1  0.860969  0.643713  0.544359  1
  O  O20  1  0.347128  0.493852  0.889054  1
  O  O21  1  0.011275  0.721612  0.268644  1
  O  O22  1  0.347128  0.506148  0.610946  1
  O  O23  1  0.860969  0.356287  0.955641  1
  O  O24  1  0.138823  0.643411  0.044499  1
  O  O25  1  0.652988  0.494135  0.388914  1
  O  O26  1  0.988868  0.278923  0.731276  1
  O  O27  1  0.652988  0.505865  0.111086  1
  O  O28  1  0.138823  0.356589  0.455501  1
  O  O29  1  0.454004  0.204982  0.772311  1
  O  O30  1  0.011275  0.278388  0.231356  1
  O  O31  1  0.529432  0.153060  0.568314  1
  O  O32  1  0.544719  0.203905  0.272295  1
  O  O33  1  0.039513  0.058136  0.603595  1
  O  O34  1  0.470227  0.152522  0.068837  1
  O  O35  1  0.961874  0.057895  0.104316  1
