# generated using pymatgen
data_YbY2(TiIr2)3
_symmetry_space_group_name_H-M   'P 1'
_cell_length_a   5.64038100
_cell_length_b   5.64038191
_cell_length_c   15.85965300
_cell_angle_alpha   90.00000000
_cell_angle_beta   90.00000000
_cell_angle_gamma   120.00000050
_symmetry_Int_Tables_number   1
_chemical_formula_structural   YbY2(TiIr2)3
_chemical_formula_sum   'Yb2 Y4 Ti6 Ir12'
_cell_volume   436.95957743
_cell_formula_units_Z   2
loop_
 _symmetry_equiv_pos_site_id
 _symmetry_equiv_pos_as_xyz
  1  'x, y, z'
loop_
 _atom_site_type_symbol
 _atom_site_label
 _atom_site_symmetry_multiplicity
 _atom_site_fract_x
 _atom_site_fract_y
 _atom_site_fract_z
 _atom_site_occupancy
  Yb  Yb0  1  0.333333  0.666667  0.750000  1
  Yb  Yb1  1  0.666667  0.333333  0.250000  1
  Y  Y2  1  0.333333  0.666667  0.543997  1
  Y  Y3  1  0.666667  0.333333  0.456003  1
  Y  Y4  1  0.666667  0.333333  0.043997  1
  Y  Y5  1  0.333333  0.666667  0.956003  1
  Ti  Ti6  1  0.000000  0.000000  0.250000  1
  Ti  Ti7  1  0.000000  0.000000  0.750000  1
  Ti  Ti8  1  0.333333  0.666667  0.250000  1
  Ti  Ti9  1  0.666667  0.333333  0.750000  1
  Ti  Ti10  1  0.000000  0.000000  0.000000  1
  Ti  Ti11  1  0.000000  0.000000  0.500000  1
  Ir  Ir12  1  0.169050  0.338100  0.124948  1
  Ir  Ir13  1  0.830950  0.661900  0.875052  1
  Ir  Ir14  1  0.661900  0.830950  0.124948  1
  Ir  Ir15  1  0.830950  0.661900  0.624948  1
  Ir  Ir16  1  0.338100  0.169050  0.875052  1
  Ir  Ir17  1  0.169050  0.338100  0.375052  1
  Ir  Ir18  1  0.169050  0.830950  0.124948  1
  Ir  Ir19  1  0.338100  0.169050  0.624948  1
  Ir  Ir20  1  0.830950  0.169050  0.875052  1
  Ir  Ir21  1  0.661900  0.830950  0.375052  1
  Ir  Ir22  1  0.830950  0.169050  0.624948  1
  Ir  Ir23  1  0.169050  0.830950  0.375052  1
