# generated using pymatgen
data_Li2Tb3AlHgGe2
_symmetry_space_group_name_H-M   'P 1'
_cell_length_a   7.08851303
_cell_length_b   7.08851251
_cell_length_c   4.38660100
_cell_angle_alpha   90.00000000
_cell_angle_beta   90.00000000
_cell_angle_gamma   119.98927212
_symmetry_Int_Tables_number   1
_chemical_formula_structural   Li2Tb3AlHgGe2
_chemical_formula_sum   'Li2 Tb3 Al1 Hg1 Ge2'
_cell_volume   190.90440740
_cell_formula_units_Z   1
loop_
 _symmetry_equiv_pos_site_id
 _symmetry_equiv_pos_as_xyz
  1  'x, y, z'
loop_
 _atom_site_type_symbol
 _atom_site_label
 _atom_site_symmetry_multiplicity
 _atom_site_fract_x
 _atom_site_fract_y
 _atom_site_fract_z
 _atom_site_occupancy
  Li  Li0  1  0.241981  0.998625  0.500000  1
  Li  Li1  1  0.998625  0.241981  0.500000  1
  Tb  Tb2  1  0.428608  0.428608  0.000000  1
  Tb  Tb3  1  0.568660  0.999915  0.000000  1
  Tb  Tb4  1  0.999915  0.568660  0.000000  1
  Al  Al5  1  0.754685  0.754685  0.500000  1
  Hg  Hg6  1  0.002411  0.002411  0.000000  1
  Ge  Ge7  1  0.667532  0.337582  0.500000  1
  Ge  Ge8  1  0.337582  0.667532  0.500000  1
