# generated using pymatgen
data_PrNdAl2IrPt
_symmetry_space_group_name_H-M   'P 1'
_cell_length_a   4.46378400
_cell_length_b   7.09114900
_cell_length_c   7.96947100
_cell_angle_alpha   90.00000000
_cell_angle_beta   90.00000000
_cell_angle_gamma   90.00000000
_symmetry_Int_Tables_number   1
_chemical_formula_structural   PrNdAl2IrPt
_chemical_formula_sum   'Pr2 Nd2 Al4 Ir2 Pt2'
_cell_volume   252.26051423
_cell_formula_units_Z   2
loop_
 _symmetry_equiv_pos_site_id
 _symmetry_equiv_pos_as_xyz
  1  'x, y, z'
loop_
 _atom_site_type_symbol
 _atom_site_label
 _atom_site_symmetry_multiplicity
 _atom_site_fract_x
 _atom_site_fract_y
 _atom_site_fract_z
 _atom_site_occupancy
  Pr  Pr0  1  0.750000  0.467762  0.178873  1
  Pr  Pr1  1  0.750000  0.967762  0.321127  1
  Nd  Nd2  1  0.250000  0.026754  0.685702  1
  Nd  Nd3  1  0.250000  0.526754  0.814298  1
  Al  Al4  1  0.750000  0.858926  0.931003  1
  Al  Al5  1  0.250000  0.645148  0.438767  1
  Al  Al6  1  0.750000  0.358926  0.568997  1
  Al  Al7  1  0.250000  0.145148  0.061233  1
  Ir  Ir8  1  0.750000  0.721433  0.614673  1
  Ir  Ir9  1  0.750000  0.221433  0.885327  1
  Pt  Pt10  1  0.250000  0.279976  0.386602  1
  Pt  Pt11  1  0.250000  0.779976  0.113398  1
