# generated using pymatgen
data_CrBi2Pd3O8
_symmetry_space_group_name_H-M   'P 1'
_cell_length_a   5.59868226
_cell_length_b   6.09668402
_cell_length_c   6.56067498
_cell_angle_alpha   114.81854347
_cell_angle_beta   96.66992575
_cell_angle_gamma   110.08372166
_symmetry_Int_Tables_number   1
_chemical_formula_structural   CrBi2Pd3O8
_chemical_formula_sum   'Cr1 Bi2 Pd3 O8'
_cell_volume   181.77942169
_cell_formula_units_Z   1
loop_
 _symmetry_equiv_pos_site_id
 _symmetry_equiv_pos_as_xyz
  1  'x, y, z'
loop_
 _atom_site_type_symbol
 _atom_site_label
 _atom_site_symmetry_multiplicity
 _atom_site_fract_x
 _atom_site_fract_y
 _atom_site_fract_z
 _atom_site_occupancy
  Cr  Cr0  1  0.500000  0.500000  0.000000  1
  Bi  Bi1  1  0.858590  0.247315  0.653730  1
  Bi  Bi2  1  0.141410  0.752685  0.346270  1
  Pd  Pd3  1  0.500000  0.500000  0.500000  1
  Pd  Pd4  1  0.500000  0.000000  0.000000  1
  Pd  Pd5  1  0.000000  0.000000  0.000000  1
  O  O6  1  0.646212  0.399205  0.226434  1
  O  O7  1  0.353788  0.600795  0.773566  1
  O  O8  1  0.874744  0.646857  0.991899  1
  O  O9  1  0.125256  0.353143  0.008101  1
  O  O10  1  0.522687  0.865150  0.239747  1
  O  O11  1  0.477313  0.134850  0.760253  1
  O  O12  1  0.841458  0.856782  0.647851  1
  O  O13  1  0.158542  0.143218  0.352149  1
