# generated using pymatgen
data_NdLu(Si7Ir3)2
_symmetry_space_group_name_H-M   'P 1'
_cell_length_a   8.07395470
_cell_length_b   8.07395395
_cell_length_c   8.07395554
_cell_angle_alpha   56.46833028
_cell_angle_beta   56.46833441
_cell_angle_gamma   56.46833439
_symmetry_Int_Tables_number   1
_chemical_formula_structural   NdLu(Si7Ir3)2
_chemical_formula_sum   'Nd1 Lu1 Si14 Ir6'
_cell_volume   341.78745528
_cell_formula_units_Z   1
loop_
 _symmetry_equiv_pos_site_id
 _symmetry_equiv_pos_as_xyz
  1  'x, y, z'
loop_
 _atom_site_type_symbol
 _atom_site_label
 _atom_site_symmetry_multiplicity
 _atom_site_fract_x
 _atom_site_fract_y
 _atom_site_fract_z
 _atom_site_occupancy
  Nd  Nd0  1  0.500000  0.500000  0.500000  1
  Lu  Lu1  1  0.000000  0.000000  0.000000  1
  Si  Si2  1  0.851546  0.062406  0.673816  1
  Si  Si3  1  0.673816  0.851546  0.062406  1
  Si  Si4  1  0.062406  0.673816  0.851546  1
  Si  Si5  1  0.650724  0.828158  0.434960  1
  Si  Si6  1  0.250153  0.250153  0.250153  1
  Si  Si7  1  0.749847  0.749847  0.749847  1
  Si  Si8  1  0.171842  0.565040  0.349276  1
  Si  Si9  1  0.565040  0.349276  0.171842  1
  Si  Si10  1  0.349276  0.171842  0.565040  1
  Si  Si11  1  0.937594  0.326184  0.148454  1
  Si  Si12  1  0.326184  0.148454  0.937594  1
  Si  Si13  1  0.148454  0.937594  0.326184  1
  Si  Si14  1  0.828158  0.434960  0.650724  1
  Si  Si15  1  0.434960  0.650724  0.828158  1
  Ir  Ir16  1  0.752747  0.067920  0.427737  1
  Ir  Ir17  1  0.427737  0.752747  0.067920  1
  Ir  Ir18  1  0.067920  0.427737  0.752747  1
  Ir  Ir19  1  0.247253  0.932080  0.572263  1
  Ir  Ir20  1  0.572263  0.247253  0.932080  1
  Ir  Ir21  1  0.932080  0.572263  0.247253  1
