# generated using pymatgen
data_Ca2TbDySb6Rh7
_symmetry_space_group_name_H-M   'P 1'
_cell_length_a   7.62094398
_cell_length_b   7.64629476
_cell_length_c   7.64312155
_cell_angle_alpha   109.58940153
_cell_angle_beta   109.46669859
_cell_angle_gamma   109.48359283
_symmetry_Int_Tables_number   1
_chemical_formula_structural   Ca2TbDySb6Rh7
_chemical_formula_sum   'Ca2 Tb1 Dy1 Sb6 Rh7'
_cell_volume   342.31891792
_cell_formula_units_Z   1
loop_
 _symmetry_equiv_pos_site_id
 _symmetry_equiv_pos_as_xyz
  1  'x, y, z'
loop_
 _atom_site_type_symbol
 _atom_site_label
 _atom_site_symmetry_multiplicity
 _atom_site_fract_x
 _atom_site_fract_y
 _atom_site_fract_z
 _atom_site_occupancy
  Ca  Ca0  1  0.500000  0.000000  0.000000  1
  Ca  Ca1  1  0.500000  0.500000  0.500000  1
  Tb  Tb2  1  0.000000  0.000000  0.500000  1
  Dy  Dy3  1  0.000000  0.500000  0.000000  1
  Sb  Sb4  1  0.000000  0.319139  0.318964  1
  Sb  Sb5  1  0.678571  0.997260  0.681477  1
  Sb  Sb6  1  0.678571  0.681311  0.997094  1
  Sb  Sb7  1  0.000000  0.680861  0.681036  1
  Sb  Sb8  1  0.321429  0.002740  0.318523  1
  Sb  Sb9  1  0.321429  0.318689  0.002906  1
  Rh  Rh10  1  0.000000  0.000000  0.000000  1
  Rh  Rh11  1  0.499820  0.749910  0.249910  1
  Rh  Rh12  1  0.754912  0.505101  0.249615  1
  Rh  Rh13  1  0.245088  0.750188  0.494703  1
  Rh  Rh14  1  0.245088  0.494899  0.750385  1
  Rh  Rh15  1  0.500180  0.250090  0.750090  1
  Rh  Rh16  1  0.754912  0.249812  0.505297  1
