# generated using pymatgen
data_YbU5(Ni3Sb4)2
_symmetry_space_group_name_H-M   'P 1'
_cell_length_a   8.13013648
_cell_length_b   8.13013571
_cell_length_c   8.13013661
_cell_angle_alpha   109.54965718
_cell_angle_beta   109.31447397
_cell_angle_gamma   109.54964556
_symmetry_Int_Tables_number   1
_chemical_formula_structural   YbU5(Ni3Sb4)2
_chemical_formula_sum   'Yb1 U5 Ni6 Sb8'
_cell_volume   413.68439602
_cell_formula_units_Z   1
loop_
 _symmetry_equiv_pos_site_id
 _symmetry_equiv_pos_as_xyz
  1  'x, y, z'
loop_
 _atom_site_type_symbol
 _atom_site_label
 _atom_site_symmetry_multiplicity
 _atom_site_fract_x
 _atom_site_fract_y
 _atom_site_fract_z
 _atom_site_occupancy
  Yb  Yb0  1  0.875000  0.250000  0.125000  1
  U  U1  1  0.625000  0.750000  0.375000  1
  U  U2  1  0.250358  0.123485  0.878523  1
  U  U3  1  0.755038  0.376515  0.626873  1
  U  U4  1  0.121477  0.871835  0.244962  1
  U  U5  1  0.373127  0.628165  0.749642  1
  Ni  Ni6  1  0.375000  0.250000  0.625000  1
  Ni  Ni7  1  0.125000  0.750000  0.875000  1
  Ni  Ni8  1  0.264453  0.633884  0.380632  1
  Ni  Ni9  1  0.746747  0.866116  0.130569  1
  Ni  Ni10  1  0.619368  0.383822  0.253253  1
  Ni  Ni11  1  0.869431  0.116178  0.735547  1
  Sb  Sb12  1  0.662562  0.497486  0.997253  1
  Sb  Sb13  1  0.499766  0.002514  0.665076  1
  Sb  Sb14  1  0.998751  0.661359  0.495956  1
  Sb  Sb15  1  0.834597  0.838641  0.837393  1
  Sb  Sb16  1  0.504044  0.002795  0.165403  1
  Sb  Sb17  1  0.162607  0.497205  0.001249  1
  Sb  Sb18  1  0.002747  0.165310  0.500234  1
  Sb  Sb19  1  0.334924  0.334690  0.337438  1
