# generated using pymatgen
data_Sr5Pt2Pb
_symmetry_space_group_name_H-M   'P 1'
_cell_length_a   8.31284457
_cell_length_b   8.31277029
_cell_length_c   9.69933800
_cell_angle_alpha   115.38650139
_cell_angle_beta   115.37408299
_cell_angle_gamma   90.00000762
_symmetry_Int_Tables_number   1
_chemical_formula_structural   Sr5Pt2Pb
_chemical_formula_sum   'Sr10 Pt4 Pb2'
_cell_volume   533.07602609
_cell_formula_units_Z   2
loop_
 _symmetry_equiv_pos_site_id
 _symmetry_equiv_pos_as_xyz
  1  'x, y, z'
loop_
 _atom_site_type_symbol
 _atom_site_label
 _atom_site_symmetry_multiplicity
 _atom_site_fract_x
 _atom_site_fract_y
 _atom_site_fract_z
 _atom_site_occupancy
  Sr  Sr0  1  0.000000  0.000000  0.000000  1
  Sr  Sr1  1  0.500000  0.500000  0.000000  1
  Sr  Sr2  1  0.464274  0.302893  0.267144  1
  Sr  Sr3  1  0.964690  0.464699  0.267204  1
  Sr  Sr4  1  0.302872  0.802893  0.267144  1
  Sr  Sr5  1  0.802513  0.964698  0.267204  1
  Sr  Sr6  1  0.197487  0.035302  0.732796  1
  Sr  Sr7  1  0.697129  0.197107  0.732856  1
  Sr  Sr8  1  0.035310  0.535303  0.732796  1
  Sr  Sr9  1  0.535728  0.697108  0.732856  1
  Pt  Pt10  1  0.623354  0.123367  0.000292  1
  Pt  Pt11  1  0.123064  0.376633  0.999708  1
  Pt  Pt12  1  0.876937  0.623366  0.000292  1
  Pt  Pt13  1  0.376645  0.876634  0.999708  1
  Pb  Pb14  1  0.249181  0.250000  0.500000  1
  Pb  Pb15  1  0.750819  0.750000  0.500000  1
