# generated using pymatgen
data_Ho2Al8GaIr3
_symmetry_space_group_name_H-M   'P 1'
_cell_length_a   7.53285741
_cell_length_b   7.53285837
_cell_length_c   9.48755400
_cell_angle_alpha   90.00000000
_cell_angle_beta   90.00000000
_cell_angle_gamma   119.45967903
_symmetry_Int_Tables_number   1
_chemical_formula_structural   Ho2Al8GaIr3
_chemical_formula_sum   'Ho4 Al16 Ga2 Ir6'
_cell_volume   468.75224377
_cell_formula_units_Z   2
loop_
 _symmetry_equiv_pos_site_id
 _symmetry_equiv_pos_as_xyz
  1  'x, y, z'
loop_
 _atom_site_type_symbol
 _atom_site_label
 _atom_site_symmetry_multiplicity
 _atom_site_fract_x
 _atom_site_fract_y
 _atom_site_fract_z
 _atom_site_occupancy
  Ho  Ho0  1  0.994569  0.672024  0.250000  1
  Ho  Ho1  1  0.005431  0.327976  0.750000  1
  Ho  Ho2  1  0.672024  0.994569  0.250000  1
  Ho  Ho3  1  0.327976  0.005431  0.750000  1
  Al  Al4  1  0.001334  0.335032  0.073033  1
  Al  Al5  1  0.998666  0.664968  0.926967  1
  Al  Al6  1  0.998666  0.664968  0.573033  1
  Al  Al7  1  0.335032  0.001334  0.426967  1
  Al  Al8  1  0.001334  0.335032  0.426967  1
  Al  Al9  1  0.664968  0.998666  0.573033  1
  Al  Al10  1  0.664968  0.998666  0.926967  1
  Al  Al11  1  0.335032  0.001334  0.073033  1
  Al  Al12  1  0.334089  0.334089  0.554713  1
  Al  Al13  1  0.665911  0.665911  0.445287  1
  Al  Al14  1  0.665911  0.665911  0.054713  1
  Al  Al15  1  0.334089  0.334089  0.945287  1
  Al  Al16  1  0.337405  0.547674  0.250000  1
  Al  Al17  1  0.662595  0.452326  0.750000  1
  Al  Al18  1  0.547674  0.337405  0.250000  1
  Al  Al19  1  0.452326  0.662595  0.750000  1
  Ga  Ga20  1  0.131728  0.131728  0.250000  1
  Ga  Ga21  1  0.868272  0.868272  0.750000  1
  Ir  Ir22  1  0.671569  0.328431  0.000000  1
  Ir  Ir23  1  0.328431  0.671569  0.000000  1
  Ir  Ir24  1  0.328431  0.671569  0.500000  1
  Ir  Ir25  1  0.671569  0.328431  0.500000  1
  Ir  Ir26  1  0.000000  0.000000  0.000000  1
  Ir  Ir27  1  0.000000  0.000000  0.500000  1
