# generated using pymatgen
data_Rb4Mg4MnZnTe8
_symmetry_space_group_name_H-M   'P 1'
_cell_length_a   10.55772751
_cell_length_b   10.53203121
_cell_length_c   10.55772689
_cell_angle_alpha   143.42178874
_cell_angle_beta   105.47882910
_cell_angle_gamma   86.09296783
_symmetry_Int_Tables_number   1
_chemical_formula_structural   Rb4Mg4MnZnTe8
_chemical_formula_sum   'Rb4 Mg4 Mn1 Zn1 Te8'
_cell_volume   652.00462869
_cell_formula_units_Z   1
loop_
 _symmetry_equiv_pos_site_id
 _symmetry_equiv_pos_as_xyz
  1  'x, y, z'
loop_
 _atom_site_type_symbol
 _atom_site_label
 _atom_site_symmetry_multiplicity
 _atom_site_fract_x
 _atom_site_fract_y
 _atom_site_fract_z
 _atom_site_occupancy
  Rb  Rb0  1  0.124044  0.264094  0.387666  1
  Rb  Rb1  1  0.878861  0.738614  0.613237  1
  Rb  Rb2  1  0.623573  0.235906  0.859949  1
  Rb  Rb3  1  0.374622  0.761386  0.140247  1
  Mg  Mg4  1  0.751061  0.750000  0.001061  1
  Mg  Mg5  1  0.516461  0.250000  0.266461  1
  Mg  Mg6  1  0.479867  0.750000  0.729867  1
  Mg  Mg7  1  0.985358  0.250000  0.735358  1
  Mn  Mn8  1  0.014285  0.750000  0.264285  1
  Zn  Zn9  1  0.248754  0.250000  0.998754  1
  Te  Te10  1  0.481355  0.578508  0.348191  1
  Te  Te11  1  0.509646  0.413821  0.642029  1
  Te  Te12  1  0.225583  0.119718  0.641003  1
  Te  Te13  1  0.269682  0.921492  0.902847  1
  Te  Te14  1  0.774912  0.862670  0.355112  1
  Te  Te15  1  0.728209  0.086179  0.095826  1
  Te  Te16  1  0.021285  0.380282  0.105864  1
  Te  Te17  1  0.992443  0.637330  0.912243  1
