# generated using pymatgen
data_Ce2ErIn2Sn3
_symmetry_space_group_name_H-M   'P 1'
_cell_length_a   6.55472298
_cell_length_b   6.55472307
_cell_length_c   10.33295900
_cell_angle_alpha   90.00000000
_cell_angle_beta   90.00000000
_cell_angle_gamma   101.93943023
_symmetry_Int_Tables_number   1
_chemical_formula_structural   Ce2ErIn2Sn3
_chemical_formula_sum   'Ce4 Er2 In4 Sn6'
_cell_volume   434.34529729
_cell_formula_units_Z   2
loop_
 _symmetry_equiv_pos_site_id
 _symmetry_equiv_pos_as_xyz
  1  'x, y, z'
loop_
 _atom_site_type_symbol
 _atom_site_label
 _atom_site_symmetry_multiplicity
 _atom_site_fract_x
 _atom_site_fract_y
 _atom_site_fract_z
 _atom_site_occupancy
  Ce  Ce0  1  0.204672  0.795328  0.500000  1
  Ce  Ce1  1  0.204672  0.795328  0.000000  1
  Ce  Ce2  1  0.795328  0.204672  0.500000  1
  Ce  Ce3  1  0.795328  0.204672  0.000000  1
  Er  Er4  1  0.628065  0.628065  0.250000  1
  Er  Er5  1  0.371935  0.371935  0.750000  1
  In  In6  1  0.311633  0.311633  0.040782  1
  In  In7  1  0.688367  0.688367  0.959218  1
  In  In8  1  0.311633  0.311633  0.459218  1
  In  In9  1  0.688367  0.688367  0.540782  1
  Sn  Sn10  1  0.011383  0.011383  0.250000  1
  Sn  Sn11  1  0.988617  0.988617  0.750000  1
  Sn  Sn12  1  0.493248  0.067258  0.250000  1
  Sn  Sn13  1  0.932742  0.506752  0.750000  1
  Sn  Sn14  1  0.506752  0.932742  0.750000  1
  Sn  Sn15  1  0.067258  0.493248  0.250000  1
