# generated using pymatgen
data_LiSc(IO3)4
_symmetry_space_group_name_H-M   'P 1'
_cell_length_a   4.98746836
_cell_length_b   6.54073187
_cell_length_c   8.65115389
_cell_angle_alpha   84.99924649
_cell_angle_beta   89.72765741
_cell_angle_gamma   88.20775153
_symmetry_Int_Tables_number   1
_chemical_formula_structural   LiSc(IO3)4
_chemical_formula_sum   'Li1 Sc1 I4 O12'
_cell_volume   281.00293409
_cell_formula_units_Z   1
loop_
 _symmetry_equiv_pos_site_id
 _symmetry_equiv_pos_as_xyz
  1  'x, y, z'
loop_
 _atom_site_type_symbol
 _atom_site_label
 _atom_site_symmetry_multiplicity
 _atom_site_fract_x
 _atom_site_fract_y
 _atom_site_fract_z
 _atom_site_occupancy
  Li  Li0  1  0.500000  0.000000  0.500000  1
  Sc  Sc1  1  0.500000  0.500000  0.500000  1
  I  I2  1  0.519654  0.805641  0.158189  1
  I  I3  1  0.012749  0.285663  0.242552  1
  I  I4  1  0.987251  0.714337  0.757448  1
  I  I5  1  0.480346  0.194359  0.841811  1
  O  O6  1  0.749365  0.623591  0.073695  1
  O  O7  1  0.703209  0.043245  0.105826  1
  O  O8  1  0.227601  0.483997  0.314790  1
  O  O9  1  0.213289  0.061406  0.314714  1
  O  O10  1  0.633468  0.761668  0.365276  1
  O  O11  1  0.755696  0.283850  0.396423  1
  O  O12  1  0.244304  0.716150  0.603577  1
  O  O13  1  0.366532  0.238332  0.634724  1
  O  O14  1  0.786711  0.938594  0.685286  1
  O  O15  1  0.772399  0.516003  0.685210  1
  O  O16  1  0.296791  0.956755  0.894174  1
  O  O17  1  0.250635  0.376409  0.926305  1
