# generated using pymatgen
data_Ta9Al3CoGe
_symmetry_space_group_name_H-M   'P 1'
_cell_length_a   9.88223627
_cell_length_b   9.91275669
_cell_length_c   9.88223621
_cell_angle_alpha   93.79475506
_cell_angle_beta   93.64635741
_cell_angle_gamma   150.15057169
_symmetry_Int_Tables_number   1
_chemical_formula_structural   Ta9Al3CoGe
_chemical_formula_sum   'Ta18 Al6 Co2 Ge2'
_cell_volume   466.28364180
_cell_formula_units_Z   2
loop_
 _symmetry_equiv_pos_site_id
 _symmetry_equiv_pos_as_xyz
  1  'x, y, z'
loop_
 _atom_site_type_symbol
 _atom_site_label
 _atom_site_symmetry_multiplicity
 _atom_site_fract_x
 _atom_site_fract_y
 _atom_site_fract_z
 _atom_site_occupancy
  Ta  Ta0  1  0.566248  0.791977  0.357634  1
  Ta  Ta1  1  0.083608  0.157565  0.244679  1
  Ta  Ta2  1  0.587115  0.342435  0.926043  1
  Ta  Ta3  1  0.654120  0.580467  0.244802  1
  Ta  Ta4  1  0.345880  0.419533  0.755198  1
  Ta  Ta5  1  0.788498  0.431195  0.226662  1
  Ta  Ta6  1  0.412885  0.657565  0.073957  1
  Ta  Ta7  1  0.164334  0.919533  0.073654  1
  Ta  Ta8  1  0.704533  0.931195  0.642697  1
  Ta  Ta9  1  0.433752  0.208023  0.642366  1
  Ta  Ta10  1  0.916392  0.842435  0.755321  1
  Ta  Ta11  1  0.065657  0.708023  0.774271  1
  Ta  Ta12  1  0.211502  0.568805  0.773338  1
  Ta  Ta13  1  0.250849  0.750000  0.500849  1
  Ta  Ta14  1  0.295467  0.068805  0.357303  1
  Ta  Ta15  1  0.749151  0.250000  0.499151  1
  Ta  Ta16  1  0.835666  0.080467  0.926346  1
  Ta  Ta17  1  0.934343  0.291977  0.225729  1
  Al  Al18  1  0.375922  0.875705  0.237776  1
  Al  Al19  1  0.862071  0.624295  0.500216  1
  Al  Al20  1  0.137929  0.375705  0.499784  1
  Al  Al21  1  0.624078  0.124295  0.762224  1
  Al  Al22  1  0.000000  0.500000  0.000000  1
  Al  Al23  1  0.000000  0.000000  0.500000  1
  Co  Co24  1  0.500000  0.000000  0.000000  1
  Co  Co25  1  0.500000  0.500000  0.500000  1
  Ge  Ge26  1  0.750658  0.750000  0.000658  1
  Ge  Ge27  1  0.249342  0.250000  0.999342  1
