# generated using pymatgen
data_NdY2(Ni3P2)3
_symmetry_space_group_name_H-M   'P 1'
_cell_length_a   3.80953200
_cell_length_b   10.49813700
_cell_length_c   12.36306100
_cell_angle_alpha   90.00000000
_cell_angle_beta   90.00000000
_cell_angle_gamma   90.00000000
_symmetry_Int_Tables_number   1
_chemical_formula_structural   NdY2(Ni3P2)3
_chemical_formula_sum   'Nd2 Y4 Ni18 P12'
_cell_volume   494.43576062
_cell_formula_units_Z   2
loop_
 _symmetry_equiv_pos_site_id
 _symmetry_equiv_pos_as_xyz
  1  'x, y, z'
loop_
 _atom_site_type_symbol
 _atom_site_label
 _atom_site_symmetry_multiplicity
 _atom_site_fract_x
 _atom_site_fract_y
 _atom_site_fract_z
 _atom_site_occupancy
  Nd  Nd0  1  0.000000  0.500000  0.520251  1
  Nd  Nd1  1  0.500000  0.000000  0.479749  1
  Y  Y2  1  0.500000  0.815781  0.204535  1
  Y  Y3  1  0.500000  0.184219  0.204535  1
  Y  Y4  1  0.000000  0.684219  0.795465  1
  Y  Y5  1  0.000000  0.315781  0.795465  1
  Ni  Ni6  1  0.500000  0.500000  0.155888  1
  Ni  Ni7  1  0.000000  0.000000  0.844112  1
  Ni  Ni8  1  0.500000  0.500000  0.701282  1
  Ni  Ni9  1  0.000000  0.000000  0.298718  1
  Ni  Ni10  1  0.000000  0.500000  0.983388  1
  Ni  Ni11  1  0.500000  0.000000  0.016612  1
  Ni  Ni12  1  0.500000  0.333128  0.995668  1
  Ni  Ni13  1  0.500000  0.666872  0.995668  1
  Ni  Ni14  1  0.000000  0.166872  0.004332  1
  Ni  Ni15  1  0.000000  0.833128  0.004332  1
  Ni  Ni16  1  0.500000  0.299996  0.426212  1
  Ni  Ni17  1  0.500000  0.700004  0.426212  1
  Ni  Ni18  1  0.000000  0.200004  0.573788  1
  Ni  Ni19  1  0.000000  0.799996  0.573788  1
  Ni  Ni20  1  0.500000  0.879976  0.714131  1
  Ni  Ni21  1  0.500000  0.120024  0.714131  1
  Ni  Ni22  1  0.000000  0.620024  0.285869  1
  Ni  Ni23  1  0.000000  0.379976  0.285869  1
  P  P24  1  0.500000  0.500000  0.877154  1
  P  P25  1  0.000000  0.000000  0.122846  1
  P  P26  1  0.500000  0.500000  0.338826  1
  P  P27  1  0.000000  0.000000  0.661174  1
  P  P28  1  0.500000  0.309720  0.615393  1
  P  P29  1  0.500000  0.690280  0.615393  1
  P  P30  1  0.000000  0.190280  0.384607  1
  P  P31  1  0.000000  0.809720  0.384607  1
  P  P32  1  0.500000  0.847758  0.894600  1
  P  P33  1  0.500000  0.152242  0.894600  1
  P  P34  1  0.000000  0.652242  0.105400  1
  P  P35  1  0.000000  0.347758  0.105400  1
