# generated using pymatgen
data_Nb2Sn2RuPt
_symmetry_space_group_name_H-M   'P 1'
_cell_length_a   6.24584566
_cell_length_b   6.24584628
_cell_length_c   7.62694800
_cell_angle_alpha   114.17085485
_cell_angle_beta   114.17085738
_cell_angle_gamma   89.99999951
_symmetry_Int_Tables_number   1
_chemical_formula_structural   Nb2Sn2RuPt
_chemical_formula_sum   'Nb4 Sn4 Ru2 Pt2'
_cell_volume   242.57262746
_cell_formula_units_Z   2
loop_
 _symmetry_equiv_pos_site_id
 _symmetry_equiv_pos_as_xyz
  1  'x, y, z'
loop_
 _atom_site_type_symbol
 _atom_site_label
 _atom_site_symmetry_multiplicity
 _atom_site_fract_x
 _atom_site_fract_y
 _atom_site_fract_z
 _atom_site_occupancy
  Nb  Nb0  1  0.634048  0.375000  0.250000  1
  Nb  Nb1  1  0.115954  0.875000  0.250000  1
  Nb  Nb2  1  0.375000  0.634048  0.750000  1
  Nb  Nb3  1  0.875000  0.115954  0.750000  1
  Sn  Sn4  1  0.627648  0.875001  0.250000  1
  Sn  Sn5  1  0.122353  0.375000  0.250000  1
  Sn  Sn6  1  0.875001  0.627648  0.750000  1
  Sn  Sn7  1  0.375000  0.122353  0.750000  1
  Ru  Ru8  1  0.750000  0.000000  0.000000  1
  Ru  Ru9  1  0.000000  0.750000  0.500000  1
  Pt  Pt10  1  0.250000  0.500000  0.000000  1
  Pt  Pt11  1  0.500000  0.250000  0.500000  1
