# generated using pymatgen
data_TmLu5Al19Si5Os8
_symmetry_space_group_name_H-M   'P 1'
_cell_length_a   8.66059100
_cell_length_b   8.64606997
_cell_length_c   9.53682600
_cell_angle_alpha   90.00000000
_cell_angle_beta   90.00000000
_cell_angle_gamma   120.05702405
_symmetry_Int_Tables_number   1
_chemical_formula_structural   TmLu5Al19Si5Os8
_chemical_formula_sum   'Tm1 Lu5 Al19 Si5 Os8'
_cell_volume   618.08887701
_cell_formula_units_Z   1
loop_
 _symmetry_equiv_pos_site_id
 _symmetry_equiv_pos_as_xyz
  1  'x, y, z'
loop_
 _atom_site_type_symbol
 _atom_site_label
 _atom_site_symmetry_multiplicity
 _atom_site_fract_x
 _atom_site_fract_y
 _atom_site_fract_z
 _atom_site_occupancy
  Tm  Tm0  1  0.199080  0.805686  0.250000  1
  Lu  Lu1  1  0.195993  0.391831  0.250000  1
  Lu  Lu2  1  0.804405  0.608826  0.750000  1
  Lu  Lu3  1  0.605800  0.805251  0.250000  1
  Lu  Lu4  1  0.392155  0.196658  0.750000  1
  Lu  Lu5  1  0.804506  0.196625  0.750000  1
  Al  Al6  1  0.164529  0.329059  0.579070  1
  Al  Al7  1  0.834732  0.669615  0.421174  1
  Al  Al8  1  0.670112  0.835496  0.577681  1
  Al  Al9  1  0.834732  0.669615  0.078826  1
  Al  Al10  1  0.328847  0.165411  0.421340  1
  Al  Al11  1  0.164529  0.329059  0.920930  1
  Al  Al12  1  0.165375  0.835505  0.577792  1
  Al  Al13  1  0.328847  0.165411  0.078660  1
  Al  Al14  1  0.836496  0.165295  0.421291  1
  Al  Al15  1  0.670112  0.835496  0.922319  1
  Al  Al16  1  0.836496  0.165295  0.078709  1
  Al  Al17  1  0.165375  0.835505  0.922208  1
  Al  Al18  1  0.437634  0.875258  0.750000  1
  Al  Al19  1  0.873556  0.433881  0.250000  1
  Al  Al20  1  0.126935  0.564140  0.750000  1
  Al  Al21  1  0.560333  0.434147  0.250000  1
  Al  Al22  1  0.437224  0.564143  0.750000  1
  Al  Al23  1  0.999643  0.999752  0.250000  1
  Al  Al24  1  0.000370  0.000721  0.750000  1
  Si  Si25  1  0.332713  0.664976  0.039396  1
  Si  Si26  1  0.667243  0.334446  0.959126  1
  Si  Si27  1  0.667243  0.334446  0.540874  1
  Si  Si28  1  0.332713  0.664976  0.460604  1
  Si  Si29  1  0.563684  0.127031  0.250000  1
  Os  Os30  1  0.500849  0.001399  0.006306  1
  Os  Os31  1  0.998955  0.498795  0.000306  1
  Os  Os32  1  0.500849  0.001399  0.493694  1
  Os  Os33  1  0.499955  0.498931  0.000420  1
  Os  Os34  1  0.998955  0.498795  0.499694  1
  Os  Os35  1  0.499955  0.498931  0.499580  1
  Os  Os36  1  0.999534  0.999096  0.999957  1
  Os  Os37  1  0.999534  0.999096  0.500043  1
