# generated using pymatgen
data_ScNbP2IrRh
_symmetry_space_group_name_H-M   'P 1'
_cell_length_a   3.79486200
_cell_length_b   6.40821300
_cell_length_c   7.31387400
_cell_angle_alpha   90.00000000
_cell_angle_beta   90.00000000
_cell_angle_gamma   90.00000000
_symmetry_Int_Tables_number   1
_chemical_formula_structural   ScNbP2IrRh
_chemical_formula_sum   'Sc2 Nb2 P4 Ir2 Rh2'
_cell_volume   177.86086508
_cell_formula_units_Z   2
loop_
 _symmetry_equiv_pos_site_id
 _symmetry_equiv_pos_as_xyz
  1  'x, y, z'
loop_
 _atom_site_type_symbol
 _atom_site_label
 _atom_site_symmetry_multiplicity
 _atom_site_fract_x
 _atom_site_fract_y
 _atom_site_fract_z
 _atom_site_occupancy
  Sc  Sc0  1  0.250000  0.029009  0.824021  1
  Sc  Sc1  1  0.250000  0.529009  0.675979  1
  Nb  Nb2  1  0.750000  0.970953  0.178443  1
  Nb  Nb3  1  0.750000  0.470953  0.321557  1
  P  P4  1  0.250000  0.762090  0.371507  1
  P  P5  1  0.250000  0.262090  0.128493  1
  P  P6  1  0.750000  0.241333  0.618758  1
  P  P7  1  0.750000  0.741333  0.881242  1
  Ir  Ir8  1  0.750000  0.852692  0.563211  1
  Ir  Ir9  1  0.750000  0.352692  0.936789  1
  Rh  Rh10  1  0.250000  0.143924  0.438631  1
  Rh  Rh11  1  0.250000  0.643924  0.061369  1
