# generated using pymatgen
data_Sc4Al4PtRh3
_symmetry_space_group_name_H-M   'P 1'
_cell_length_a   4.24912500
_cell_length_b   6.40814451
_cell_length_c   7.63507175
_cell_angle_alpha   90.18681067
_cell_angle_beta   90.00000000
_cell_angle_gamma   90.00000000
_symmetry_Int_Tables_number   1
_chemical_formula_structural   Sc4Al4PtRh3
_chemical_formula_sum   'Sc4 Al4 Pt1 Rh3'
_cell_volume   207.89431723
_cell_formula_units_Z   1
loop_
 _symmetry_equiv_pos_site_id
 _symmetry_equiv_pos_as_xyz
  1  'x, y, z'
loop_
 _atom_site_type_symbol
 _atom_site_label
 _atom_site_symmetry_multiplicity
 _atom_site_fract_x
 _atom_site_fract_y
 _atom_site_fract_z
 _atom_site_occupancy
  Sc  Sc0  1  0.250000  0.031090  0.676415  1
  Sc  Sc1  1  0.250000  0.534279  0.820778  1
  Sc  Sc2  1  0.750000  0.968484  0.322818  1
  Sc  Sc3  1  0.750000  0.468682  0.181172  1
  Al  Al4  1  0.250000  0.142401  0.060037  1
  Al  Al5  1  0.250000  0.643399  0.441282  1
  Al  Al6  1  0.750000  0.853671  0.942432  1
  Al  Al7  1  0.750000  0.358703  0.558506  1
  Pt  Pt8  1  0.750000  0.241604  0.877718  1
  Rh  Rh9  1  0.250000  0.255709  0.380175  1
  Rh  Rh10  1  0.250000  0.753836  0.119337  1
  Rh  Rh11  1  0.750000  0.748142  0.619331  1
