# generated using pymatgen
data_PrGa3CoSn
_symmetry_space_group_name_H-M   'P 1'
_cell_length_a   8.37104790
_cell_length_b   8.37104813
_cell_length_c   6.70006400
_cell_angle_alpha   90.00000000
_cell_angle_beta   90.00000000
_cell_angle_gamma   150.40368554
_symmetry_Int_Tables_number   1
_chemical_formula_structural   PrGa3CoSn
_chemical_formula_sum   'Pr2 Ga6 Co2 Sn2'
_cell_volume   231.88105955
_cell_formula_units_Z   2
loop_
 _symmetry_equiv_pos_site_id
 _symmetry_equiv_pos_as_xyz
  1  'x, y, z'
loop_
 _atom_site_type_symbol
 _atom_site_label
 _atom_site_symmetry_multiplicity
 _atom_site_fract_x
 _atom_site_fract_y
 _atom_site_fract_z
 _atom_site_occupancy
  Pr  Pr0  1  0.883854  0.116146  0.750000  1
  Pr  Pr1  1  0.116146  0.883854  0.250000  1
  Ga  Ga2  1  0.081148  0.918852  0.750000  1
  Ga  Ga3  1  0.918852  0.081148  0.250000  1
  Ga  Ga4  1  0.696352  0.303648  0.943461  1
  Ga  Ga5  1  0.303648  0.696352  0.056539  1
  Ga  Ga6  1  0.696352  0.303648  0.556539  1
  Ga  Ga7  1  0.303648  0.696352  0.443461  1
  Co  Co8  1  0.225519  0.774481  0.750000  1
  Co  Co9  1  0.774481  0.225519  0.250000  1
  Sn  Sn10  1  0.500000  0.500000  0.000000  1
  Sn  Sn11  1  0.500000  0.500000  0.500000  1
