# generated using pymatgen
data_Pr2SiPdI
_symmetry_space_group_name_H-M   'P 1'
_cell_length_a   4.34181500
_cell_length_b   4.34181381
_cell_length_c   16.86383800
_cell_angle_alpha   90.00000000
_cell_angle_beta   90.00000000
_cell_angle_gamma   120.00000147
_symmetry_Int_Tables_number   1
_chemical_formula_structural   Pr2SiPdI
_chemical_formula_sum   'Pr4 Si2 Pd2 I2'
_cell_volume   275.31479917
_cell_formula_units_Z   2
loop_
 _symmetry_equiv_pos_site_id
 _symmetry_equiv_pos_as_xyz
  1  'x, y, z'
loop_
 _atom_site_type_symbol
 _atom_site_label
 _atom_site_symmetry_multiplicity
 _atom_site_fract_x
 _atom_site_fract_y
 _atom_site_fract_z
 _atom_site_occupancy
  Pr  Pr0  1  0.000000  0.000000  0.610593  1
  Pr  Pr1  1  0.000000  0.000000  0.391977  1
  Pr  Pr2  1  0.000000  0.000000  0.110593  1
  Pr  Pr3  1  0.000000  0.000000  0.891977  1
  Si  Si4  1  0.666667  0.333333  0.509082  1
  Si  Si5  1  0.333333  0.666667  0.009082  1
  Pd  Pd6  1  0.666667  0.333333  0.989909  1
  Pd  Pd7  1  0.333333  0.666667  0.489909  1
  I  I8  1  0.666667  0.333333  0.248440  1
  I  I9  1  0.333333  0.666667  0.748440  1
