# generated using pymatgen
data_YLu2GaSn3Rh2
_symmetry_space_group_name_H-M   'P 1'
_cell_length_a   7.39097644
_cell_length_b   7.42451056
_cell_length_c   4.05543600
_cell_angle_alpha   90.00000000
_cell_angle_beta   90.00000000
_cell_angle_gamma   120.28144677
_symmetry_Int_Tables_number   1
_chemical_formula_structural   YLu2GaSn3Rh2
_chemical_formula_sum   'Y1 Lu2 Ga1 Sn3 Rh2'
_cell_volume   192.17600167
_cell_formula_units_Z   1
loop_
 _symmetry_equiv_pos_site_id
 _symmetry_equiv_pos_as_xyz
  1  'x, y, z'
loop_
 _atom_site_type_symbol
 _atom_site_label
 _atom_site_symmetry_multiplicity
 _atom_site_fract_x
 _atom_site_fract_y
 _atom_site_fract_z
 _atom_site_occupancy
  Y  Y0  1  0.401598  0.410764  0.500000  1
  Lu  Lu1  1  0.588230  0.984854  0.500000  1
  Lu  Lu2  1  0.016429  0.605096  0.500000  1
  Ga  Ga3  1  0.669914  0.332648  0.000000  1
  Sn  Sn4  1  0.740653  0.746886  0.000000  1
  Sn  Sn5  1  0.253109  0.995836  0.000000  1
  Sn  Sn6  1  0.003765  0.257499  0.000000  1
  Rh  Rh7  1  0.331085  0.670636  0.000000  1
  Rh  Rh8  1  0.995218  0.995781  0.500000  1
