# generated using pymatgen
data_Gd4Tc3B16Ru
_symmetry_space_group_name_H-M   'P 1'
_cell_length_a   3.60960700
_cell_length_b   5.99341045
_cell_length_c   11.59841950
_cell_angle_alpha   89.93947065
_cell_angle_beta   90.00000000
_cell_angle_gamma   90.00000000
_symmetry_Int_Tables_number   1
_chemical_formula_structural   Gd4Tc3B16Ru
_chemical_formula_sum   'Gd4 Tc3 B16 Ru1'
_cell_volume   250.91840104
_cell_formula_units_Z   1
loop_
 _symmetry_equiv_pos_site_id
 _symmetry_equiv_pos_as_xyz
  1  'x, y, z'
loop_
 _atom_site_type_symbol
 _atom_site_label
 _atom_site_symmetry_multiplicity
 _atom_site_fract_x
 _atom_site_fract_y
 _atom_site_fract_z
 _atom_site_occupancy
  Gd  Gd0  1  0.000000  0.128202  0.649933  1
  Gd  Gd1  1  0.000000  0.872471  0.351067  1
  Gd  Gd2  1  0.000000  0.627473  0.848277  1
  Gd  Gd3  1  0.000000  0.372629  0.151010  1
  Tc  Tc4  1  0.000000  0.132394  0.913421  1
  Tc  Tc5  1  0.000000  0.866854  0.087489  1
  Tc  Tc6  1  0.000000  0.637789  0.589121  1
  B  B7  1  0.500000  0.476306  0.691172  1
  B  B8  1  0.500000  0.523555  0.308660  1
  B  B9  1  0.500000  0.978364  0.808254  1
  B  B10  1  0.500000  0.022666  0.191949  1
  B  B11  1  0.500000  0.286169  0.815317  1
  B  B12  1  0.500000  0.712898  0.184910  1
  B  B13  1  0.500000  0.786914  0.684868  1
  B  B14  1  0.500000  0.212780  0.315448  1
  B  B15  1  0.500000  0.363303  0.968391  1
  B  B16  1  0.500000  0.636193  0.031691  1
  B  B17  1  0.500000  0.863322  0.530885  1
  B  B18  1  0.500000  0.137656  0.468690  1
  B  B19  1  0.500000  0.387556  0.546328  1
  B  B20  1  0.500000  0.612000  0.453030  1
  B  B21  1  0.500000  0.887390  0.953390  1
  B  B22  1  0.500000  0.112364  0.047086  1
  Ru  Ru23  1  0.000000  0.362751  0.409608  1
