# generated using pymatgen
data_TbDy6Pu3(SiB4)4
_symmetry_space_group_name_H-M   'P 1'
_cell_length_a   7.23413509
_cell_length_b   7.23413463
_cell_length_c   8.11690015
_cell_angle_alpha   89.97240707
_cell_angle_beta   89.97240476
_cell_angle_gamma   89.77638009
_symmetry_Int_Tables_number   1
_chemical_formula_structural   TbDy6Pu3(SiB4)4
_chemical_formula_sum   'Tb1 Dy6 Pu3 Si4 B16'
_cell_volume   424.77602558
_cell_formula_units_Z   1
loop_
 _symmetry_equiv_pos_site_id
 _symmetry_equiv_pos_as_xyz
  1  'x, y, z'
loop_
 _atom_site_type_symbol
 _atom_site_label
 _atom_site_symmetry_multiplicity
 _atom_site_fract_x
 _atom_site_fract_y
 _atom_site_fract_z
 _atom_site_occupancy
  Tb  Tb0  1  0.681689  0.181689  0.774802  1
  Dy  Dy1  1  0.817893  0.681599  0.222272  1
  Dy  Dy2  1  0.818153  0.681677  0.777680  1
  Dy  Dy3  1  0.181677  0.318153  0.777680  1
  Dy  Dy4  1  0.181599  0.317893  0.222272  1
  Dy  Dy5  1  0.005639  0.997413  0.498272  1
  Dy  Dy6  1  0.497413  0.505639  0.498272  1
  Pu  Pu7  1  0.683693  0.183693  0.229871  1
  Pu  Pu8  1  0.315961  0.815961  0.771022  1
  Pu  Pu9  1  0.316753  0.816753  0.229107  1
  Si  Si10  1  0.112585  0.612585  0.501245  1
  Si  Si11  1  0.882214  0.382214  0.497359  1
  Si  Si12  1  0.387363  0.116760  0.498126  1
  Si  Si13  1  0.616760  0.887363  0.498126  1
  B  B14  1  0.174051  0.038042  0.999709  1
  B  B15  1  0.826974  0.961083  0.000630  1
  B  B16  1  0.959612  0.172345  0.000138  1
  B  B17  1  0.326781  0.541454  0.999661  1
  B  B18  1  0.041454  0.826781  0.999661  1
  B  B19  1  0.672345  0.459612  0.000138  1
  B  B20  1  0.538042  0.674051  0.999709  1
  B  B21  1  0.461083  0.326974  0.000630  1
  B  B22  1  0.090194  0.590194  0.000041  1
  B  B23  1  0.909249  0.409249  0.001445  1
  B  B24  1  0.410406  0.089688  0.000938  1
  B  B25  1  0.589688  0.910406  0.000938  1
  B  B26  1  0.000067  0.999582  0.161094  1
  B  B27  1  0.002029  0.999048  0.839035  1
  B  B28  1  0.499048  0.502029  0.839035  1
  B  B29  1  0.499582  0.500067  0.161094  1
