# generated using pymatgen
data_Pm4CuRh3
_symmetry_space_group_name_H-M   'P 1'
_cell_length_a   7.24478200
_cell_length_b   5.67578620
_cell_length_c   4.23556500
_cell_angle_alpha   90.00000000
_cell_angle_beta   90.00000000
_cell_angle_gamma   90.84360028
_symmetry_Int_Tables_number   1
_chemical_formula_structural   Pm4CuRh3
_chemical_formula_sum   'Pm4 Cu1 Rh3'
_cell_volume   174.14685055
_cell_formula_units_Z   1
loop_
 _symmetry_equiv_pos_site_id
 _symmetry_equiv_pos_as_xyz
  1  'x, y, z'
loop_
 _atom_site_type_symbol
 _atom_site_label
 _atom_site_symmetry_multiplicity
 _atom_site_fract_x
 _atom_site_fract_y
 _atom_site_fract_z
 _atom_site_occupancy
  Pm  Pm0  1  0.102097  0.505470  0.000000  1
  Pm  Pm1  1  0.587398  0.736449  0.000000  1
  Pm  Pm2  1  0.239776  0.016785  0.499999  1
  Pm  Pm3  1  0.736067  0.239782  0.499999  1
  Cu  Cu4  1  0.878793  0.742276  0.499999  1
  Rh  Rh5  1  0.470859  0.216968  0.000000  1
  Rh  Rh6  1  0.950766  0.008933  0.000000  1
  Rh  Rh7  1  0.367578  0.533338  0.499999  1
