# generated using pymatgen
data_Tb15CeCd3Co4Hg
_symmetry_space_group_name_H-M   'P 1'
_cell_length_a   9.53924782
_cell_length_b   9.53924769
_cell_length_c   9.38411624
_cell_angle_alpha   60.64492723
_cell_angle_beta   60.64492759
_cell_angle_gamma   59.80540234
_symmetry_Int_Tables_number   1
_chemical_formula_structural   Tb15CeCd3Co4Hg
_chemical_formula_sum   'Tb15 Ce1 Cd3 Co4 Hg1'
_cell_volume   608.71952093
_cell_formula_units_Z   1
loop_
 _symmetry_equiv_pos_site_id
 _symmetry_equiv_pos_as_xyz
  1  'x, y, z'
loop_
 _atom_site_type_symbol
 _atom_site_label
 _atom_site_symmetry_multiplicity
 _atom_site_fract_x
 _atom_site_fract_y
 _atom_site_fract_z
 _atom_site_occupancy
  Tb  Tb0  1  0.600793  0.600793  0.590540  1
  Tb  Tb1  1  0.190716  0.808905  0.811857  1
  Tb  Tb2  1  0.059952  0.059952  0.438277  1
  Tb  Tb3  1  0.435170  0.055911  0.063905  1
  Tb  Tb4  1  0.808905  0.190716  0.811857  1
  Tb  Tb5  1  0.437574  0.055883  0.442714  1
  Tb  Tb6  1  0.594237  0.214664  0.597329  1
  Tb  Tb7  1  0.815674  0.815674  0.185350  1
  Tb  Tb8  1  0.214664  0.594237  0.597329  1
  Tb  Tb9  1  0.806353  0.188748  0.192038  1
  Tb  Tb10  1  0.055883  0.437574  0.442714  1
  Tb  Tb11  1  0.188748  0.806353  0.192038  1
  Tb  Tb12  1  0.600901  0.600901  0.207572  1
  Tb  Tb13  1  0.180809  0.180809  0.818602  1
  Tb  Tb14  1  0.055911  0.435170  0.063905  1
  Ce  Ce15  1  0.432023  0.432023  0.066243  1
  Cd  Cd16  1  0.830028  0.830028  0.829640  1
  Cd  Cd17  1  0.507696  0.833740  0.829121  1
  Cd  Cd18  1  0.833740  0.507696  0.829121  1
  Co  Co19  1  0.401225  0.401225  0.353689  1
  Co  Co20  1  0.825809  0.387593  0.394990  1
  Co  Co21  1  0.387593  0.825809  0.394990  1
  Co  Co22  1  0.401293  0.401293  0.848419  1
  Hg  Hg23  1  0.834304  0.834304  0.497758  1
