# generated using pymatgen
data_Pr17Ho3Si15Ag
_symmetry_space_group_name_H-M   'P 1'
_cell_length_a   7.88661607
_cell_length_b   7.84662540
_cell_length_c   15.24779700
_cell_angle_alpha   89.96251171
_cell_angle_beta   89.58380255
_cell_angle_gamma   90.26596584
_symmetry_Int_Tables_number   1
_chemical_formula_structural   Pr17Ho3Si15Ag
_chemical_formula_sum   'Pr17 Ho3 Si15 Ag1'
_cell_volume   943.54904725
_cell_formula_units_Z   1
loop_
 _symmetry_equiv_pos_site_id
 _symmetry_equiv_pos_as_xyz
  1  'x, y, z'
loop_
 _atom_site_type_symbol
 _atom_site_label
 _atom_site_symmetry_multiplicity
 _atom_site_fract_x
 _atom_site_fract_y
 _atom_site_fract_z
 _atom_site_occupancy
  Pr  Pr0  1  0.694412  0.690267  0.498021  1
  Pr  Pr1  1  0.374491  0.011449  0.447248  1
  Pr  Pr2  1  0.491955  0.869756  0.699439  1
  Pr  Pr3  1  0.511153  0.123335  0.196218  1
  Pr  Pr4  1  0.878066  0.485599  0.301273  1
  Pr  Pr5  1  0.119615  0.519305  0.803527  1
  Pr  Pr6  1  0.627291  0.987403  0.949678  1
  Pr  Pr7  1  0.000408  0.381056  0.549026  1
  Pr  Pr8  1  0.989210  0.625232  0.053266  1
  Pr  Pr9  1  0.132378  0.981441  0.879622  1
  Pr  Pr10  1  0.520632  0.630532  0.126443  1
  Pr  Pr11  1  0.479595  0.373938  0.628185  1
  Pr  Pr12  1  0.628877  0.522210  0.874650  1
  Pr  Pr13  1  0.371853  0.478626  0.371322  1
  Pr  Pr14  1  0.873247  0.023234  0.377032  1
  Pr  Pr15  1  0.979545  0.126087  0.122256  1
  Pr  Pr16  1  0.016051  0.867931  0.620305  1
  Ho  Ho17  1  0.309661  0.310206  0.999210  1
  Ho  Ho18  1  0.188621  0.809924  0.250120  1
  Ho  Ho19  1  0.800852  0.187397  0.752739  1
  Si  Si20  1  0.330285  0.689890  0.954726  1
  Si  Si21  1  0.661892  0.303654  0.454266  1
  Si  Si22  1  0.693722  0.332075  0.045855  1
  Si  Si23  1  0.306835  0.669017  0.544838  1
  Si  Si24  1  0.811061  0.828819  0.206046  1
  Si  Si25  1  0.171000  0.189927  0.293491  1
  Si  Si26  1  0.834261  0.810901  0.795557  1
  Si  Si27  1  0.286701  0.922869  0.063174  1
  Si  Si28  1  0.574839  0.787538  0.309349  1
  Si  Si29  1  0.437136  0.208638  0.817904  1
  Si  Si30  1  0.787390  0.575769  0.691042  1
  Si  Si31  1  0.213392  0.423517  0.186409  1
  Si  Si32  1  0.709419  0.080136  0.563843  1
  Si  Si33  1  0.924376  0.287663  0.937690  1
  Si  Si34  1  0.082479  0.714437  0.435590  1
  Ag  Ag35  1  0.187299  0.170221  0.700639  1
