# generated using pymatgen
data_Lu3Sc7Si20Ir5Pt3
_symmetry_space_group_name_H-M   'P 1'
_cell_length_a   12.43427446
_cell_length_b   12.44604721
_cell_length_c   4.14666000
_cell_angle_alpha   90.00000000
_cell_angle_beta   90.00000000
_cell_angle_gamma   90.01340228
_symmetry_Int_Tables_number   1
_chemical_formula_structural   Lu3Sc7Si20Ir5Pt3
_chemical_formula_sum   'Lu3 Sc7 Si20 Ir5 Pt3'
_cell_volume   641.72699456
_cell_formula_units_Z   1
loop_
 _symmetry_equiv_pos_site_id
 _symmetry_equiv_pos_as_xyz
  1  'x, y, z'
loop_
 _atom_site_type_symbol
 _atom_site_label
 _atom_site_symmetry_multiplicity
 _atom_site_fract_x
 _atom_site_fract_y
 _atom_site_fract_z
 _atom_site_occupancy
  Lu  Lu0  1  0.115969  0.613359  0.500000  1
  Lu  Lu1  1  0.884230  0.385842  0.500000  1
  Lu  Lu2  1  0.614331  0.885788  0.500000  1
  Sc  Sc3  1  0.386688  0.116753  0.500000  1
  Sc  Sc4  1  0.672941  0.174473  0.500000  1
  Sc  Sc5  1  0.326448  0.825819  0.500000  1
  Sc  Sc6  1  0.176356  0.325511  0.500000  1
  Sc  Sc7  1  0.824644  0.673935  0.500000  1
  Sc  Sc8  1  0.996339  0.000333  0.000000  1
  Sc  Sc9  1  0.500455  0.499552  0.000000  1
  Si  Si10  1  0.566407  0.067127  0.000000  1
  Si  Si11  1  0.435282  0.934105  0.000000  1
  Si  Si12  1  0.067709  0.435035  0.000000  1
  Si  Si13  1  0.932365  0.564374  0.000000  1
  Si  Si14  1  0.205525  0.167879  0.000000  1
  Si  Si15  1  0.795864  0.833855  0.000000  1
  Si  Si16  1  0.169066  0.795962  0.000000  1
  Si  Si17  1  0.699032  0.335619  0.000000  1
  Si  Si18  1  0.831352  0.201023  0.000000  1
  Si  Si19  1  0.302106  0.663262  0.000000  1
  Si  Si20  1  0.664159  0.698866  0.000000  1
  Si  Si21  1  0.337383  0.300964  0.000000  1
  Si  Si22  1  0.007377  0.147978  0.500000  1
  Si  Si23  1  0.993157  0.852240  0.500000  1
  Si  Si24  1  0.148005  0.994857  0.500000  1
  Si  Si25  1  0.505395  0.347457  0.500000  1
  Si  Si26  1  0.848243  0.008323  0.500000  1
  Si  Si27  1  0.491392  0.651433  0.500000  1
  Si  Si28  1  0.651137  0.507755  0.500000  1
  Si  Si29  1  0.349264  0.491626  0.500000  1
  Ir  Ir30  1  0.520794  0.254215  0.000000  1
  Ir  Ir31  1  0.755403  0.020184  0.000000  1
  Ir  Ir32  1  0.478993  0.745622  0.000000  1
  Ir  Ir33  1  0.744472  0.520636  0.000000  1
  Ir  Ir34  1  0.255716  0.478574  0.000000  1
  Pt  Pt35  1  0.020801  0.244008  0.000000  1
  Pt  Pt36  1  0.980570  0.755526  0.000000  1
  Pt  Pt37  1  0.244624  0.980129  0.000000  1
