# generated using pymatgen
data_Dy5Er5(GaSb)4
_symmetry_space_group_name_H-M   'P 1'
_cell_length_a   8.67339229
_cell_length_b   8.53680231
_cell_length_c   7.88001200
_cell_angle_alpha   90.05148485
_cell_angle_beta   90.03128566
_cell_angle_gamma   125.48538247
_symmetry_Int_Tables_number   1
_chemical_formula_structural   Dy5Er5(GaSb)4
_chemical_formula_sum   'Dy5 Er5 Ga4 Sb4'
_cell_volume   475.08967058
_cell_formula_units_Z   1
loop_
 _symmetry_equiv_pos_site_id
 _symmetry_equiv_pos_as_xyz
  1  'x, y, z'
loop_
 _atom_site_type_symbol
 _atom_site_label
 _atom_site_symmetry_multiplicity
 _atom_site_fract_x
 _atom_site_fract_y
 _atom_site_fract_z
 _atom_site_occupancy
  Dy  Dy0  1  0.043180  0.308766  0.329765  1
  Dy  Dy1  1  0.955988  0.690489  0.670706  1
  Dy  Dy2  1  0.456514  0.190805  0.828944  1
  Dy  Dy3  1  0.794739  0.536040  0.167596  1
  Dy  Dy4  1  0.544044  0.810333  0.171168  1
  Er  Er5  1  0.207181  0.464156  0.833275  1
  Er  Er6  1  0.706902  0.963060  0.666768  1
  Er  Er7  1  0.292175  0.036321  0.333372  1
  Er  Er8  1  0.000690  0.000641  0.999369  1
  Er  Er9  1  0.499080  0.499531  0.500161  1
  Ga  Ga10  1  0.374532  0.375727  0.123981  1
  Ga  Ga11  1  0.624387  0.624573  0.875398  1
  Ga  Ga12  1  0.124642  0.124229  0.624120  1
  Ga  Ga13  1  0.875063  0.876000  0.376434  1
  Sb  Sb14  1  0.801564  0.211604  0.990604  1
  Sb  Sb15  1  0.201051  0.789551  0.007402  1
  Sb  Sb16  1  0.697976  0.285876  0.492628  1
  Sb  Sb17  1  0.300292  0.712300  0.508309  1
