# generated using pymatgen
data_Lu10BiIrPd4
_symmetry_space_group_name_H-M   'P 1'
_cell_length_a   8.71638531
_cell_length_b   8.71638435
_cell_length_c   8.71638476
_cell_angle_alpha   129.72409731
_cell_angle_beta   129.72409429
_cell_angle_gamma   73.84822947
_symmetry_Int_Tables_number   1
_chemical_formula_structural   Lu10BiIrPd4
_chemical_formula_sum   'Lu10 Bi1 Ir1 Pd4'
_cell_volume   382.13600304
_cell_formula_units_Z   1
loop_
 _symmetry_equiv_pos_site_id
 _symmetry_equiv_pos_as_xyz
  1  'x, y, z'
loop_
 _atom_site_type_symbol
 _atom_site_label
 _atom_site_symmetry_multiplicity
 _atom_site_fract_x
 _atom_site_fract_y
 _atom_site_fract_z
 _atom_site_occupancy
  Lu  Lu0  1  0.984963  0.984963  0.000000  1
  Lu  Lu1  1  0.515037  0.515037  0.000000  1
  Lu  Lu2  1  0.828798  0.286317  0.824969  1
  Lu  Lu3  1  0.213683  0.671202  0.175031  1
  Lu  Lu4  1  0.461349  0.003830  0.175031  1
  Lu  Lu5  1  0.286317  0.461349  0.457519  1
  Lu  Lu6  1  0.038651  0.213683  0.542481  1
  Lu  Lu7  1  0.496170  0.038651  0.824969  1
  Lu  Lu8  1  0.671202  0.496170  0.457519  1
  Lu  Lu9  1  0.003830  0.828798  0.542481  1
  Bi  Bi10  1  0.750000  0.750000  0.000000  1
  Ir  Ir11  1  0.250000  0.250000  0.000000  1
  Pd  Pd12  1  0.137040  0.637040  0.774080  1
  Pd  Pd13  1  0.862960  0.362960  0.225920  1
  Pd  Pd14  1  0.637040  0.862960  0.500000  1
  Pd  Pd15  1  0.362960  0.137040  0.500000  1
