# generated using pymatgen
data_Er4ReB12Ir
_symmetry_space_group_name_H-M   'P 1'
_cell_length_a   3.64672700
_cell_length_b   9.11353393
_cell_length_c   11.49871010
_cell_angle_alpha   90.31730848
_cell_angle_beta   90.00000000
_cell_angle_gamma   90.00000000
_symmetry_Int_Tables_number   1
_chemical_formula_structural   Er4ReB12Ir
_chemical_formula_sum   'Er8 Re2 B24 Ir2'
_cell_volume   382.14882804
_cell_formula_units_Z   2
loop_
 _symmetry_equiv_pos_site_id
 _symmetry_equiv_pos_as_xyz
  1  'x, y, z'
loop_
 _atom_site_type_symbol
 _atom_site_label
 _atom_site_symmetry_multiplicity
 _atom_site_fract_x
 _atom_site_fract_y
 _atom_site_fract_z
 _atom_site_occupancy
  Er  Er0  1  0.000000  0.316653  0.409724  1
  Er  Er1  1  0.000000  0.683347  0.590276  1
  Er  Er2  1  0.000000  0.826499  0.082239  1
  Er  Er3  1  0.000000  0.173501  0.917761  1
  Er  Er4  1  0.000000  0.946009  0.372421  1
  Er  Er5  1  0.000000  0.053991  0.627579  1
  Er  Er6  1  0.000000  0.441678  0.125776  1
  Er  Er7  1  0.000000  0.558322  0.874224  1
  Re  Re8  1  0.000000  0.138076  0.179954  1
  Re  Re9  1  0.000000  0.861924  0.820046  1
  B  B10  1  0.500000  0.553902  0.434299  1
  B  B11  1  0.500000  0.446098  0.565701  1
  B  B12  1  0.500000  0.052997  0.067003  1
  B  B13  1  0.500000  0.947003  0.932997  1
  B  B14  1  0.500000  0.749457  0.421552  1
  B  B15  1  0.500000  0.250543  0.578448  1
  B  B16  1  0.500000  0.248026  0.080422  1
  B  B17  1  0.500000  0.751974  0.919578  1
  B  B18  1  0.500000  0.791114  0.265970  1
  B  B19  1  0.500000  0.208886  0.734030  1
  B  B20  1  0.500000  0.292504  0.234531  1
  B  B21  1  0.500000  0.707496  0.765469  1
  B  B22  1  0.500000  0.631603  0.183822  1
  B  B23  1  0.500000  0.368397  0.816178  1
  B  B24  1  0.500000  0.131468  0.315041  1
  B  B25  1  0.500000  0.868532  0.684959  1
  B  B26  1  0.500000  0.982152  0.213175  1
  B  B27  1  0.500000  0.017848  0.786825  1
  B  B28  1  0.500000  0.481891  0.287338  1
  B  B29  1  0.500000  0.518109  0.712662  1
  B  B30  1  0.500000  0.606504  0.029885  1
  B  B31  1  0.500000  0.393496  0.970115  1
  B  B32  1  0.500000  0.107254  0.470872  1
  B  B33  1  0.500000  0.892746  0.529128  1
  Ir  Ir34  1  0.000000  0.636390  0.322325  1
  Ir  Ir35  1  0.000000  0.363610  0.677675  1
