# generated using pymatgen
data_Er5ZnIn4Ru
_symmetry_space_group_name_H-M   'P 1'
_cell_length_a   3.53930000
_cell_length_b   8.18953248
_cell_length_c   18.29522082
_cell_angle_alpha   90.58182487
_cell_angle_beta   90.00000000
_cell_angle_gamma   90.00000000
_symmetry_Int_Tables_number   1
_chemical_formula_structural   Er5ZnIn4Ru
_chemical_formula_sum   'Er10 Zn2 In8 Ru2'
_cell_volume   530.26351804
_cell_formula_units_Z   2
loop_
 _symmetry_equiv_pos_site_id
 _symmetry_equiv_pos_as_xyz
  1  'x, y, z'
loop_
 _atom_site_type_symbol
 _atom_site_label
 _atom_site_symmetry_multiplicity
 _atom_site_fract_x
 _atom_site_fract_y
 _atom_site_fract_z
 _atom_site_occupancy
  Er  Er0  1  0.000000  0.500000  0.500000  1
  Er  Er1  1  0.000000  0.000000  0.000000  1
  Er  Er2  1  0.000000  0.766477  0.280187  1
  Er  Er3  1  0.000000  0.233523  0.719813  1
  Er  Er4  1  0.000000  0.775345  0.776610  1
  Er  Er5  1  0.000000  0.224655  0.223390  1
  Er  Er6  1  0.000000  0.625465  0.080971  1
  Er  Er7  1  0.000000  0.374535  0.919029  1
  Er  Er8  1  0.000000  0.880079  0.585498  1
  Er  Er9  1  0.000000  0.119921  0.414502  1
  Zn  Zn10  1  0.500000  0.522896  0.198959  1
  Zn  Zn11  1  0.500000  0.477104  0.801041  1
  In  In12  1  0.500000  0.705419  0.930933  1
  In  In13  1  0.500000  0.294581  0.069067  1
  In  In14  1  0.500000  0.795242  0.431269  1
  In  In15  1  0.500000  0.204758  0.568731  1
  In  In16  1  0.500000  0.572422  0.649142  1
  In  In17  1  0.500000  0.427578  0.350858  1
  In  In18  1  0.500000  0.930015  0.147890  1
  In  In19  1  0.500000  0.069985  0.852110  1
  Ru  Ru20  1  0.500000  0.974577  0.695267  1
  Ru  Ru21  1  0.500000  0.025423  0.304733  1
