# generated using pymatgen
data_YHo9In8(PdRu)2
_symmetry_space_group_name_H-M   'P 1'
_cell_length_a   3.60499700
_cell_length_b   8.08543540
_cell_length_c   18.30387823
_cell_angle_alpha   90.06207078
_cell_angle_beta   90.00000000
_cell_angle_gamma   90.00000000
_symmetry_Int_Tables_number   1
_chemical_formula_structural   YHo9In8(PdRu)2
_chemical_formula_sum   'Y1 Ho9 In8 Pd2 Ru2'
_cell_volume   533.52058743
_cell_formula_units_Z   1
loop_
 _symmetry_equiv_pos_site_id
 _symmetry_equiv_pos_as_xyz
  1  'x, y, z'
loop_
 _atom_site_type_symbol
 _atom_site_label
 _atom_site_symmetry_multiplicity
 _atom_site_fract_x
 _atom_site_fract_y
 _atom_site_fract_z
 _atom_site_occupancy
  Y  Y0  1  0.500000  0.500000  0.500000  1
  Ho  Ho1  1  0.500000  0.228938  0.777879  1
  Ho  Ho2  1  0.500000  0.771062  0.222121  1
  Ho  Ho3  1  0.500000  0.245112  0.280107  1
  Ho  Ho4  1  0.500000  0.754888  0.719893  1
  Ho  Ho5  1  0.500000  0.116942  0.587314  1
  Ho  Ho6  1  0.500000  0.883058  0.412686  1
  Ho  Ho7  1  0.500000  0.379973  0.085051  1
  Ho  Ho8  1  0.500000  0.620027  0.914949  1
  Ho  Ho9  1  0.500000  0.000000  0.000000  1
  In  In10  1  0.000000  0.071700  0.149981  1
  In  In11  1  0.000000  0.928300  0.850019  1
  In  In12  1  0.000000  0.425570  0.650117  1
  In  In13  1  0.000000  0.574430  0.349883  1
  In  In14  1  0.000000  0.206565  0.430879  1
  In  In15  1  0.000000  0.793435  0.569121  1
  In  In16  1  0.000000  0.293101  0.932928  1
  In  In17  1  0.000000  0.706899  0.067072  1
  Pd  Pd18  1  0.000000  0.479085  0.196259  1
  Pd  Pd19  1  0.000000  0.520915  0.803741  1
  Ru  Ru20  1  0.000000  0.020134  0.695671  1
  Ru  Ru21  1  0.000000  0.979866  0.304329  1
