# generated using pymatgen
data_Tm8Lu2Si5As
_symmetry_space_group_name_H-M   'P 1'
_cell_length_a   8.29716500
_cell_length_b   8.30933153
_cell_length_c   6.18162406
_cell_angle_alpha   90.01423022
_cell_angle_beta   90.00000000
_cell_angle_gamma   119.95158838
_symmetry_Int_Tables_number   1
_chemical_formula_structural   Tm8Lu2Si5As
_chemical_formula_sum   'Tm8 Lu2 Si5 As1'
_cell_volume   369.26714736
_cell_formula_units_Z   1
loop_
 _symmetry_equiv_pos_site_id
 _symmetry_equiv_pos_as_xyz
  1  'x, y, z'
loop_
 _atom_site_type_symbol
 _atom_site_label
 _atom_site_symmetry_multiplicity
 _atom_site_fract_x
 _atom_site_fract_y
 _atom_site_fract_z
 _atom_site_occupancy
  Tm  Tm0  1  0.668861  0.335860  0.001054  1
  Tm  Tm1  1  0.333001  0.664140  0.498946  1
  Tm  Tm2  1  0.759303  0.000000  0.750000  1
  Tm  Tm3  1  0.757290  0.756926  0.249969  1
  Tm  Tm4  1  0.000364  0.243074  0.250031  1
  Tm  Tm5  1  0.996483  0.754647  0.750041  1
  Tm  Tm6  1  0.241836  0.245353  0.749959  1
  Tm  Tm7  1  0.242129  0.000000  0.250000  1
  Lu  Lu8  1  0.332947  0.663929  0.001198  1
  Lu  Lu9  1  0.669019  0.336071  0.498802  1
  Si  Si10  1  0.394780  0.393578  0.250019  1
  Si  Si11  1  0.001201  0.606422  0.249981  1
  Si  Si12  1  0.999701  0.394666  0.750008  1
  Si  Si13  1  0.605036  0.605334  0.749992  1
  Si  Si14  1  0.606328  0.000000  0.250000  1
  As  As15  1  0.391719  0.000000  0.750000  1
