# generated using pymatgen
data_LaTb2Yb(US5)2
_symmetry_space_group_name_H-M   'P 1'
_cell_length_a   7.44832800
_cell_length_b   7.95968377
_cell_length_c   11.76279300
_cell_angle_alpha   90.00000000
_cell_angle_beta   90.00000000
_cell_angle_gamma   89.85421372
_symmetry_Int_Tables_number   1
_chemical_formula_structural   LaTb2Yb(US5)2
_chemical_formula_sum   'La2 Tb4 Yb2 U4 S20'
_cell_volume   697.37063437
_cell_formula_units_Z   2
loop_
 _symmetry_equiv_pos_site_id
 _symmetry_equiv_pos_as_xyz
  1  'x, y, z'
loop_
 _atom_site_type_symbol
 _atom_site_label
 _atom_site_symmetry_multiplicity
 _atom_site_fract_x
 _atom_site_fract_y
 _atom_site_fract_z
 _atom_site_occupancy
  La  La0  1  0.527991  0.997316  0.325943  1
  La  La1  1  0.972009  0.502684  0.825943  1
  Tb  Tb2  1  0.476040  0.999221  0.679224  1
  Tb  Tb3  1  0.023960  0.500779  0.179224  1
  Tb  Tb4  1  0.472686  0.500894  0.676586  1
  Tb  Tb5  1  0.027314  0.999106  0.176586  1
  Yb  Yb6  1  0.522291  0.499731  0.322840  1
  Yb  Yb7  1  0.977709  0.000269  0.822840  1
  U  U8  1  0.069919  0.750768  0.490551  1
  U  U9  1  0.430081  0.749232  0.990551  1
  U  U10  1  0.927869  0.251473  0.509087  1
  U  U11  1  0.572131  0.248527  0.009087  1
  S  S12  1  0.834939  0.956480  0.592183  1
  S  S13  1  0.665061  0.543520  0.092183  1
  S  S14  1  0.160500  0.459125  0.404265  1
  S  S15  1  0.339500  0.040875  0.904265  1
  S  S16  1  0.159562  0.042647  0.403428  1
  S  S17  1  0.340438  0.457353  0.903428  1
  S  S18  1  0.832932  0.546477  0.592625  1
  S  S19  1  0.667068  0.953523  0.092625  1
  S  S20  1  0.839679  0.749558  0.310620  1
  S  S21  1  0.660321  0.750442  0.810620  1
  S  S22  1  0.172514  0.251207  0.682935  1
  S  S23  1  0.327486  0.248793  0.182935  1
  S  S24  1  0.452388  0.749580  0.504460  1
  S  S25  1  0.047612  0.750420  0.004460  1
  S  S26  1  0.545698  0.251510  0.506635  1
  S  S27  1  0.954302  0.248490  0.006635  1
  S  S28  1  0.197603  0.751662  0.713415  1
  S  S29  1  0.302397  0.748338  0.213415  1
  S  S30  1  0.812415  0.250016  0.285204  1
  S  S31  1  0.687585  0.249984  0.785204  1
