# generated using pymatgen
data_TmCd(CuPt)2
_symmetry_space_group_name_H-M   'P 1'
_cell_length_a   5.19863067
_cell_length_b   5.19863128
_cell_length_c   5.50848200
_cell_angle_alpha   58.00799047
_cell_angle_beta   58.00798628
_cell_angle_gamma   57.93254543
_symmetry_Int_Tables_number   1
_chemical_formula_structural   TmCd(CuPt)2
_chemical_formula_sum   'Tm1 Cd1 Cu2 Pt2'
_cell_volume   100.39620008
_cell_formula_units_Z   1
loop_
 _symmetry_equiv_pos_site_id
 _symmetry_equiv_pos_as_xyz
  1  'x, y, z'
loop_
 _atom_site_type_symbol
 _atom_site_label
 _atom_site_symmetry_multiplicity
 _atom_site_fract_x
 _atom_site_fract_y
 _atom_site_fract_z
 _atom_site_occupancy
  Tm  Tm0  1  0.996156  0.996156  0.003844  1
  Cd  Cd1  1  0.245138  0.245138  0.254862  1
  Cu  Cu2  1  0.628329  0.127269  0.622201  1
  Cu  Cu3  1  0.127269  0.628329  0.622201  1
  Pt  Pt4  1  0.626554  0.626554  0.623354  1
  Pt  Pt5  1  0.626554  0.626554  0.123539  1
