# generated using pymatgen
data_Nb12ZnGa8Ni3N4
_symmetry_space_group_name_H-M   'P 1'
_cell_length_a   8.22334029
_cell_length_b   8.22334106
_cell_length_c   8.22334000
_cell_angle_alpha   60.20261198
_cell_angle_beta   60.20260533
_cell_angle_gamma   60.20261865
_symmetry_Int_Tables_number   1
_chemical_formula_structural   Nb12ZnGa8Ni3N4
_chemical_formula_sum   'Nb12 Zn1 Ga8 Ni3 N4'
_cell_volume   395.01875993
_cell_formula_units_Z   1
loop_
 _symmetry_equiv_pos_site_id
 _symmetry_equiv_pos_as_xyz
  1  'x, y, z'
loop_
 _atom_site_type_symbol
 _atom_site_label
 _atom_site_symmetry_multiplicity
 _atom_site_fract_x
 _atom_site_fract_y
 _atom_site_fract_z
 _atom_site_occupancy
  Nb  Nb0  1  0.439315  0.439315  0.056455  1
  Nb  Nb1  1  0.064535  0.436338  0.064535  1
  Nb  Nb2  1  0.436338  0.064535  0.064535  1
  Nb  Nb3  1  0.064535  0.064535  0.436338  1
  Nb  Nb4  1  0.439315  0.056455  0.439315  1
  Nb  Nb5  1  0.056455  0.439315  0.439315  1
  Nb  Nb6  1  0.810685  0.810685  0.193545  1
  Nb  Nb7  1  0.185465  0.813662  0.185465  1
  Nb  Nb8  1  0.813662  0.185465  0.185465  1
  Nb  Nb9  1  0.185465  0.185465  0.813662  1
  Nb  Nb10  1  0.810685  0.193545  0.810685  1
  Nb  Nb11  1  0.193545  0.810685  0.810685  1
  Zn  Zn12  1  0.625000  0.625000  0.625000  1
  Ga  Ga13  1  0.839837  0.839837  0.497075  1
  Ga  Ga14  1  0.839837  0.497075  0.839837  1
  Ga  Ga15  1  0.497075  0.839837  0.839837  1
  Ga  Ga16  1  0.835495  0.835495  0.835495  1
  Ga  Ga17  1  0.410163  0.410163  0.752925  1
  Ga  Ga18  1  0.410163  0.752925  0.410163  1
  Ga  Ga19  1  0.752925  0.410163  0.410163  1
  Ga  Ga20  1  0.414505  0.414505  0.414505  1
  Ni  Ni21  1  0.625000  0.625000  0.125000  1
  Ni  Ni22  1  0.625000  0.125000  0.625000  1
  Ni  Ni23  1  0.125000  0.625000  0.625000  1
  N  N24  1  0.125000  0.125000  0.625000  1
  N  N25  1  0.125000  0.625000  0.125000  1
  N  N26  1  0.625000  0.125000  0.125000  1
  N  N27  1  0.125000  0.125000  0.125000  1
