# generated using pymatgen
data_Tb7Dy3Si5P
_symmetry_space_group_name_H-M   'P 1'
_cell_length_a   8.44962300
_cell_length_b   8.45577553
_cell_length_c   6.33634200
_cell_angle_alpha   90.00153183
_cell_angle_beta   90.00063518
_cell_angle_gamma   119.97610502
_symmetry_Int_Tables_number   1
_chemical_formula_structural   Tb7Dy3Si5P
_chemical_formula_sum   'Tb7 Dy3 Si5 P1'
_cell_volume   392.16112416
_cell_formula_units_Z   1
loop_
 _symmetry_equiv_pos_site_id
 _symmetry_equiv_pos_as_xyz
  1  'x, y, z'
loop_
 _atom_site_type_symbol
 _atom_site_label
 _atom_site_symmetry_multiplicity
 _atom_site_fract_x
 _atom_site_fract_y
 _atom_site_fract_z
 _atom_site_occupancy
  Tb  Tb0  1  0.001095  0.756792  0.749978  1
  Tb  Tb1  1  0.000926  0.244408  0.250026  1
  Tb  Tb2  1  0.756483  0.755622  0.250024  1
  Tb  Tb3  1  0.754847  0.999975  0.749977  1
  Tb  Tb4  1  0.244284  0.243232  0.749972  1
  Tb  Tb5  1  0.243876  0.999974  0.250019  1
  Tb  Tb6  1  0.666263  0.332499  0.999531  1
  Dy  Dy7  1  0.333762  0.667487  0.500417  1
  Dy  Dy8  1  0.333760  0.667476  0.999590  1
  Dy  Dy9  1  0.666275  0.332513  0.500449  1
  Si  Si10  1  0.394208  0.393827  0.250085  1
  Si  Si11  1  0.000568  0.606271  0.250078  1
  Si  Si12  1  0.000219  0.393592  0.749922  1
  Si  Si13  1  0.606538  0.606515  0.749920  1
  Si  Si14  1  0.607036  0.999902  0.250080  1
  P  P15  1  0.389863  0.999913  0.749930  1
