# generated using pymatgen
data_Nd16Dy4(Ir3Rh)3
_symmetry_space_group_name_H-M   'P 1'
_cell_length_a   11.18864200
_cell_length_b   11.18864200
_cell_length_c   6.55900000
_cell_angle_alpha   90.00000000
_cell_angle_beta   90.00000000
_cell_angle_gamma   90.00000000
_symmetry_Int_Tables_number   1
_chemical_formula_structural   Nd16Dy4(Ir3Rh)3
_chemical_formula_sum   'Nd16 Dy4 Ir9 Rh3'
_cell_volume   821.09307061
_cell_formula_units_Z   1
loop_
 _symmetry_equiv_pos_site_id
 _symmetry_equiv_pos_as_xyz
  1  'x, y, z'
loop_
 _atom_site_type_symbol
 _atom_site_label
 _atom_site_symmetry_multiplicity
 _atom_site_fract_x
 _atom_site_fract_y
 _atom_site_fract_z
 _atom_site_occupancy
  Nd  Nd0  1  0.288951  0.088285  0.382254  1
  Nd  Nd1  1  0.288791  0.911204  0.882147  1
  Nd  Nd2  1  0.711209  0.088796  0.882147  1
  Nd  Nd3  1  0.711049  0.911715  0.382254  1
  Nd  Nd4  1  0.588796  0.788791  0.882147  1
  Nd  Nd5  1  0.588285  0.211049  0.382254  1
  Nd  Nd6  1  0.411715  0.788951  0.382254  1
  Nd  Nd7  1  0.411204  0.211209  0.882147  1
  Nd  Nd8  1  0.210502  0.411597  0.616827  1
  Nd  Nd9  1  0.211026  0.588741  0.118994  1
  Nd  Nd10  1  0.788974  0.411259  0.118994  1
  Nd  Nd11  1  0.789498  0.588403  0.616827  1
  Nd  Nd12  1  0.911259  0.711026  0.118994  1
  Nd  Nd13  1  0.911597  0.289498  0.616827  1
  Nd  Nd14  1  0.088403  0.710502  0.616827  1
  Nd  Nd15  1  0.088741  0.288974  0.118994  1
  Dy  Dy16  1  0.000000  0.000000  0.500095  1
  Dy  Dy17  1  0.000000  0.000000  0.999951  1
  Dy  Dy18  1  0.500000  0.500000  0.999951  1
  Dy  Dy19  1  0.500000  0.500000  0.500095  1
  Ir  Ir20  1  0.849784  0.148907  0.249945  1
  Ir  Ir21  1  0.850204  0.850490  0.749484  1
  Ir  Ir22  1  0.149796  0.149510  0.749484  1
  Ir  Ir23  1  0.150216  0.851093  0.249945  1
  Ir  Ir24  1  0.649510  0.350204  0.749484  1
  Ir  Ir25  1  0.648907  0.650216  0.249945  1
  Ir  Ir26  1  0.351093  0.349784  0.249945  1
  Ir  Ir27  1  0.350490  0.649796  0.749484  1
  Ir  Ir28  1  0.000000  0.500000  0.377630  1
  Rh  Rh29  1  0.500000  0.000000  0.122144  1
  Rh  Rh30  1  0.500000  0.000000  0.622493  1
  Rh  Rh31  1  0.000000  0.500000  0.879037  1
