# generated using pymatgen
data_Ho2Fe5Co3(P3W)2
_symmetry_space_group_name_H-M   'P 1'
_cell_length_a   3.69643300
_cell_length_b   10.38805400
_cell_length_c   11.94780500
_cell_angle_alpha   90.00000000
_cell_angle_beta   90.00000000
_cell_angle_gamma   90.00000000
_symmetry_Int_Tables_number   1
_chemical_formula_structural   Ho2Fe5Co3(P3W)2
_chemical_formula_sum   'Ho4 Fe10 Co6 P12 W4'
_cell_volume   458.78072481
_cell_formula_units_Z   2
loop_
 _symmetry_equiv_pos_site_id
 _symmetry_equiv_pos_as_xyz
  1  'x, y, z'
loop_
 _atom_site_type_symbol
 _atom_site_label
 _atom_site_symmetry_multiplicity
 _atom_site_fract_x
 _atom_site_fract_y
 _atom_site_fract_z
 _atom_site_occupancy
  Ho  Ho0  1  0.250000  0.579090  0.706240  1
  Ho  Ho1  1  0.250000  0.920910  0.206240  1
  Ho  Ho2  1  0.750000  0.417443  0.294271  1
  Ho  Ho3  1  0.750000  0.082557  0.794271  1
  Fe  Fe4  1  0.750000  0.782411  0.824777  1
  Fe  Fe5  1  0.750000  0.717589  0.324777  1
  Fe  Fe6  1  0.250000  0.879268  0.700892  1
  Fe  Fe7  1  0.250000  0.620732  0.200892  1
  Fe  Fe8  1  0.750000  0.118515  0.299590  1
  Fe  Fe9  1  0.750000  0.381485  0.799590  1
  Fe  Fe10  1  0.250000  0.463816  0.935323  1
  Fe  Fe11  1  0.250000  0.036184  0.435323  1
  Fe  Fe12  1  0.750000  0.537739  0.066351  1
  Fe  Fe13  1  0.750000  0.962261  0.566351  1
  Co  Co14  1  0.250000  0.404488  0.487152  1
  Co  Co15  1  0.250000  0.095512  0.987152  1
  Co  Co16  1  0.750000  0.592794  0.512956  1
  Co  Co17  1  0.750000  0.907206  0.012956  1
  Co  Co18  1  0.250000  0.222774  0.174206  1
  Co  Co19  1  0.250000  0.277226  0.674206  1
  P  P20  1  0.250000  0.424715  0.115781  1
  P  P21  1  0.250000  0.075285  0.615781  1
  P  P22  1  0.750000  0.576219  0.884227  1
  P  P23  1  0.750000  0.923781  0.384227  1
  P  P24  1  0.250000  0.270708  0.860736  1
  P  P25  1  0.250000  0.229292  0.360736  1
  P  P26  1  0.750000  0.733792  0.137683  1
  P  P27  1  0.750000  0.766208  0.637683  1
  P  P28  1  0.250000  0.593023  0.390264  1
  P  P29  1  0.250000  0.906977  0.890264  1
  P  P30  1  0.750000  0.404197  0.610504  1
  P  P31  1  0.750000  0.095803  0.110504  1
  W  W32  1  0.250000  0.703660  0.989593  1
  W  W33  1  0.250000  0.796340  0.489593  1
  W  W34  1  0.750000  0.297790  0.009453  1
  W  W35  1  0.750000  0.202210  0.509453  1
