# generated using pymatgen
data_La2NdDy2P12Ru19
_symmetry_space_group_name_H-M   'P 1'
_cell_length_a   12.62783061
_cell_length_b   12.63887317
_cell_length_c   4.01799900
_cell_angle_alpha   90.00000000
_cell_angle_beta   90.00000000
_cell_angle_gamma   120.02893176
_symmetry_Int_Tables_number   1
_chemical_formula_structural   La2NdDy2P12Ru19
_chemical_formula_sum   'La2 Nd1 Dy2 P12 Ru19'
_cell_volume   555.20180993
_cell_formula_units_Z   1
loop_
 _symmetry_equiv_pos_site_id
 _symmetry_equiv_pos_as_xyz
  1  'x, y, z'
loop_
 _atom_site_type_symbol
 _atom_site_label
 _atom_site_symmetry_multiplicity
 _atom_site_fract_x
 _atom_site_fract_y
 _atom_site_fract_z
 _atom_site_occupancy
  La  La0  1  0.816696  0.999556  0.500000  1
  La  La1  1  0.183304  0.182860  0.500000  1
  Nd  Nd2  1  0.000000  0.815738  0.500000  1
  Dy  Dy3  1  0.666724  0.333715  0.000000  1
  Dy  Dy4  1  0.333276  0.666992  0.000000  1
  P  P5  1  0.624538  0.999965  0.000000  1
  P  P6  1  0.375462  0.375427  0.000000  1
  P  P7  1  0.000000  0.625627  0.000000  1
  P  P8  1  0.695525  0.521326  0.500000  1
  P  P9  1  0.825858  0.304860  0.500000  1
  P  P10  1  0.304475  0.825802  0.500000  1
  P  P11  1  0.521732  0.695522  0.500000  1
  P  P12  1  0.188399  0.998409  0.000000  1
  P  P13  1  0.811601  0.810010  0.000000  1
  P  P14  1  0.000000  0.190035  0.000000  1
  P  P15  1  0.478268  0.173789  0.500000  1
  P  P16  1  0.174142  0.479004  0.500000  1
  Ru  Ru17  1  0.618555  0.803945  0.000000  1
  Ru  Ru18  1  0.185743  0.382022  0.000000  1
  Ru  Ru19  1  0.381445  0.185389  0.000000  1
  Ru  Ru20  1  0.195195  0.814123  0.000000  1
  Ru  Ru21  1  0.804805  0.618927  0.000000  1
  Ru  Ru22  1  0.874319  0.506452  0.500000  1
  Ru  Ru23  1  0.494045  0.368152  0.500000  1
  Ru  Ru24  1  0.631754  0.125847  0.500000  1
  Ru  Ru25  1  0.125681  0.632132  0.500000  1
  Ru  Ru26  1  0.368246  0.494092  0.500000  1
  Ru  Ru27  1  0.505955  0.874107  0.500000  1
  Ru  Ru28  1  0.000000  0.999643  0.000000  1
  Ru  Ru29  1  0.713050  0.712275  0.500000  1
  Ru  Ru30  1  0.000000  0.288136  0.500000  1
  Ru  Ru31  1  0.445288  0.999790  0.000000  1
  Ru  Ru32  1  0.554712  0.554502  0.000000  1
  Ru  Ru33  1  0.000000  0.446329  0.000000  1
  Ru  Ru34  1  0.814257  0.196278  0.000000  1
  Ru  Ru35  1  0.286950  0.999225  0.500000  1
