# generated using pymatgen
data_Sc11TcRuPt2
_symmetry_space_group_name_H-M   'P 1'
_cell_length_a   9.51469283
_cell_length_b   9.51469165
_cell_length_c   9.54849200
_cell_angle_alpha   59.88240960
_cell_angle_beta   59.88241372
_cell_angle_gamma   60.31707974
_symmetry_Int_Tables_number   1
_chemical_formula_structural   Sc11TcRuPt2
_chemical_formula_sum   'Sc22 Tc2 Ru2 Pt4'
_cell_volume   611.59126432
_cell_formula_units_Z   2
loop_
 _symmetry_equiv_pos_site_id
 _symmetry_equiv_pos_as_xyz
  1  'x, y, z'
loop_
 _atom_site_type_symbol
 _atom_site_label
 _atom_site_symmetry_multiplicity
 _atom_site_fract_x
 _atom_site_fract_y
 _atom_site_fract_z
 _atom_site_occupancy
  Sc  Sc0  1  0.803978  0.803978  0.196022  1
  Sc  Sc1  1  0.196492  0.803508  0.194230  1
  Sc  Sc2  1  0.803508  0.196492  0.194230  1
  Sc  Sc3  1  0.196022  0.196022  0.803978  1
  Sc  Sc4  1  0.803508  0.196492  0.805770  1
  Sc  Sc5  1  0.196492  0.803508  0.805770  1
  Sc  Sc6  1  0.615230  0.615230  0.150819  1
  Sc  Sc7  1  0.617100  0.151057  0.615922  1
  Sc  Sc8  1  0.151057  0.617100  0.615922  1
  Sc  Sc9  1  0.615230  0.615230  0.618723  1
  Sc  Sc10  1  0.384770  0.384770  0.849181  1
  Sc  Sc11  1  0.382900  0.848943  0.384078  1
  Sc  Sc12  1  0.848943  0.382900  0.384078  1
  Sc  Sc13  1  0.384770  0.384770  0.381277  1
  Sc  Sc14  1  0.844621  0.844621  0.473100  1
  Sc  Sc15  1  0.839151  0.472277  0.844286  1
  Sc  Sc16  1  0.472277  0.839151  0.844286  1
  Sc  Sc17  1  0.844621  0.844621  0.837658  1
  Sc  Sc18  1  0.155379  0.155379  0.526900  1
  Sc  Sc19  1  0.160849  0.527723  0.155714  1
  Sc  Sc20  1  0.527723  0.160849  0.155714  1
  Sc  Sc21  1  0.155379  0.155379  0.162342  1
  Tc  Tc22  1  0.500000  0.500000  0.500000  1
  Tc  Tc23  1  0.500000  0.500000  0.000000  1
  Ru  Ru24  1  0.000000  0.000000  0.000000  1
  Ru  Ru25  1  0.000000  0.000000  0.500000  1
  Pt  Pt26  1  0.500000  0.000000  0.500000  1
  Pt  Pt27  1  0.000000  0.500000  0.500000  1
  Pt  Pt28  1  0.000000  0.500000  0.000000  1
  Pt  Pt29  1  0.500000  0.000000  0.000000  1
