# generated using pymatgen
data_YbScReB6
_symmetry_space_group_name_H-M   'P 1'
_cell_length_a   3.53835400
_cell_length_b   9.07029600
_cell_length_c   11.41469800
_cell_angle_alpha   90.00000000
_cell_angle_beta   90.00000000
_cell_angle_gamma   90.00000000
_symmetry_Int_Tables_number   1
_chemical_formula_structural   YbScReB6
_chemical_formula_sum   'Yb4 Sc4 Re4 B24'
_cell_volume   366.34238312
_cell_formula_units_Z   4
loop_
 _symmetry_equiv_pos_site_id
 _symmetry_equiv_pos_as_xyz
  1  'x, y, z'
loop_
 _atom_site_type_symbol
 _atom_site_label
 _atom_site_symmetry_multiplicity
 _atom_site_fract_x
 _atom_site_fract_y
 _atom_site_fract_z
 _atom_site_occupancy
  Yb  Yb0  1  0.000000  0.323357  0.414473  1
  Yb  Yb1  1  0.000000  0.676643  0.585527  1
  Yb  Yb2  1  0.000000  0.823357  0.085527  1
  Yb  Yb3  1  0.000000  0.176643  0.914473  1
  Sc  Sc4  1  0.000000  0.943698  0.367674  1
  Sc  Sc5  1  0.000000  0.056302  0.632326  1
  Sc  Sc6  1  0.000000  0.443698  0.132326  1
  Sc  Sc7  1  0.000000  0.556302  0.867674  1
  Re  Re8  1  0.000000  0.642855  0.318288  1
  Re  Re9  1  0.000000  0.357145  0.681712  1
  Re  Re10  1  0.000000  0.142855  0.181712  1
  Re  Re11  1  0.000000  0.857145  0.818288  1
  B  B12  1  0.500000  0.554169  0.432940  1
  B  B13  1  0.500000  0.445831  0.567060  1
  B  B14  1  0.500000  0.054169  0.067060  1
  B  B15  1  0.500000  0.945831  0.932940  1
  B  B16  1  0.500000  0.755260  0.418523  1
  B  B17  1  0.500000  0.244740  0.581477  1
  B  B18  1  0.500000  0.255260  0.081477  1
  B  B19  1  0.500000  0.744740  0.918523  1
  B  B20  1  0.500000  0.796621  0.263321  1
  B  B21  1  0.500000  0.203379  0.736679  1
  B  B22  1  0.500000  0.296621  0.236679  1
  B  B23  1  0.500000  0.703379  0.763321  1
  B  B24  1  0.500000  0.629867  0.182054  1
  B  B25  1  0.500000  0.370133  0.817946  1
  B  B26  1  0.500000  0.129867  0.317946  1
  B  B27  1  0.500000  0.870133  0.682054  1
  B  B28  1  0.500000  0.981427  0.213130  1
  B  B29  1  0.500000  0.018573  0.786870  1
  B  B30  1  0.500000  0.481427  0.286870  1
  B  B31  1  0.500000  0.518573  0.713130  1
  B  B32  1  0.500000  0.591969  0.025049  1
  B  B33  1  0.500000  0.408031  0.974951  1
  B  B34  1  0.500000  0.091969  0.474951  1
  B  B35  1  0.500000  0.908031  0.525049  1
