# generated using pymatgen
data_Hf6Re2TcIr3
_symmetry_space_group_name_H-M   'P 1'
_cell_length_a   4.61397900
_cell_length_b   6.53288900
_cell_length_c   13.91896900
_cell_angle_alpha   90.00000000
_cell_angle_beta   90.00131265
_cell_angle_gamma   90.00000000
_symmetry_Int_Tables_number   1
_chemical_formula_structural   Hf6Re2TcIr3
_chemical_formula_sum   'Hf12 Re4 Tc2 Ir6'
_cell_volume   419.55409107
_cell_formula_units_Z   2
loop_
 _symmetry_equiv_pos_site_id
 _symmetry_equiv_pos_as_xyz
  1  'x, y, z'
loop_
 _atom_site_type_symbol
 _atom_site_label
 _atom_site_symmetry_multiplicity
 _atom_site_fract_x
 _atom_site_fract_y
 _atom_site_fract_z
 _atom_site_occupancy
  Hf  Hf0  1  0.499996  0.250253  0.000070  1
  Hf  Hf1  1  0.499996  0.749747  0.000070  1
  Hf  Hf2  1  0.000005  0.250099  0.166586  1
  Hf  Hf3  1  0.000005  0.749902  0.166586  1
  Hf  Hf4  1  0.499987  0.249892  0.333401  1
  Hf  Hf5  1  0.499987  0.750108  0.333401  1
  Hf  Hf6  1  0.999976  0.249751  0.499931  1
  Hf  Hf7  1  0.999976  0.750249  0.499931  1
  Hf  Hf8  1  0.500005  0.250216  0.666502  1
  Hf  Hf9  1  0.500005  0.749784  0.666502  1
  Hf  Hf10  1  0.000010  0.249781  0.833520  1
  Hf  Hf11  1  0.000010  0.750220  0.833520  1
  Re  Re12  1  0.999984  0.000000  0.999609  1
  Re  Re13  1  0.500004  0.499999  0.166426  1
  Re  Re14  1  0.999996  0.000000  0.333563  1
  Re  Re15  1  0.500007  0.499999  0.500379  1
  Tc  Tc16  1  0.999992  0.000000  0.666900  1
  Tc  Tc17  1  0.500041  0.499999  0.833118  1
  Ir  Ir18  1  0.000001  0.499999  0.999539  1
  Ir  Ir19  1  0.499993  0.000000  0.166876  1
  Ir  Ir20  1  0.999983  0.499999  0.333109  1
  Ir  Ir21  1  0.500014  0.000000  0.500452  1
  Ir  Ir22  1  0.000019  0.499999  0.667263  1
  Ir  Ir23  1  0.500009  0.000000  0.832745  1
