# generated using pymatgen
data_HoEr2Mg3Sn2Pd
_symmetry_space_group_name_H-M   'P 1'
_cell_length_a   7.41985636
_cell_length_b   7.41985686
_cell_length_c   4.49196400
_cell_angle_alpha   90.00000000
_cell_angle_beta   90.00000000
_cell_angle_gamma   120.03592589
_symmetry_Int_Tables_number   1
_chemical_formula_structural   HoEr2Mg3Sn2Pd
_chemical_formula_sum   'Ho1 Er2 Mg3 Sn2 Pd1'
_cell_volume   214.09207430
_cell_formula_units_Z   1
loop_
 _symmetry_equiv_pos_site_id
 _symmetry_equiv_pos_as_xyz
  1  'x, y, z'
loop_
 _atom_site_type_symbol
 _atom_site_label
 _atom_site_symmetry_multiplicity
 _atom_site_fract_x
 _atom_site_fract_y
 _atom_site_fract_z
 _atom_site_occupancy
  Ho  Ho0  1  0.404140  0.404140  0.500000  1
  Er  Er1  1  0.595947  0.000012  0.500000  1
  Er  Er2  1  0.000012  0.595947  0.500000  1
  Mg  Mg3  1  0.767151  0.767151  0.000000  1
  Mg  Mg4  1  0.232891  0.999866  0.000000  1
  Mg  Mg5  1  0.999866  0.232891  0.000000  1
  Sn  Sn6  1  0.666805  0.333306  0.000000  1
  Sn  Sn7  1  0.333306  0.666805  0.000000  1
  Pd  Pd8  1  0.999882  0.999882  0.500000  1
