# generated using pymatgen
data_Eu10Si4SnSb
_symmetry_space_group_name_H-M   'P 1'
_cell_length_a   9.54515067
_cell_length_b   9.54514942
_cell_length_c   9.54515000
_cell_angle_alpha   130.65517212
_cell_angle_beta   130.65517363
_cell_angle_gamma   72.36152324
_symmetry_Int_Tables_number   1
_chemical_formula_structural   Eu10Si4SnSb
_chemical_formula_sum   'Eu10 Si4 Sn1 Sb1'
_cell_volume   489.25314013
_cell_formula_units_Z   1
loop_
 _symmetry_equiv_pos_site_id
 _symmetry_equiv_pos_as_xyz
  1  'x, y, z'
loop_
 _atom_site_type_symbol
 _atom_site_label
 _atom_site_symmetry_multiplicity
 _atom_site_fract_x
 _atom_site_fract_y
 _atom_site_fract_z
 _atom_site_occupancy
  Eu  Eu0  1  0.813349  0.314082  0.851150  1
  Eu  Eu1  1  0.185918  0.686651  0.148850  1
  Eu  Eu2  1  0.462912  0.962188  0.148784  1
  Eu  Eu3  1  0.314134  0.462940  0.500775  1
  Eu  Eu4  1  0.037060  0.185866  0.499225  1
  Eu  Eu5  1  0.537812  0.037088  0.851216  1
  Eu  Eu6  1  0.686627  0.537820  0.500744  1
  Eu  Eu7  1  0.962180  0.813373  0.499256  1
  Eu  Eu8  1  0.998656  0.998670  0.000008  1
  Eu  Eu9  1  0.501330  0.501344  0.999992  1
  Si  Si10  1  0.110864  0.610868  0.721735  1
  Si  Si11  1  0.889132  0.389136  0.278265  1
  Si  Si12  1  0.610889  0.889111  0.500000  1
  Si  Si13  1  0.389117  0.110883  0.500000  1
  Sn  Sn14  1  0.750029  0.749971  0.000000  1
  Sb  Sb15  1  0.249990  0.250010  0.000000  1
