# generated using pymatgen
data_La2Ho(ErPt2)2
_symmetry_space_group_name_H-M   'P 1'
_cell_length_a   7.65685600
_cell_length_b   7.80112500
_cell_length_c   14.73300100
_cell_angle_alpha   90.00000000
_cell_angle_beta   90.00000000
_cell_angle_gamma   90.00000000
_symmetry_Int_Tables_number   1
_chemical_formula_structural   La2Ho(ErPt2)2
_chemical_formula_sum   'La8 Ho4 Er8 Pt16'
_cell_volume   880.03295294
_cell_formula_units_Z   4
loop_
 _symmetry_equiv_pos_site_id
 _symmetry_equiv_pos_as_xyz
  1  'x, y, z'
loop_
 _atom_site_type_symbol
 _atom_site_label
 _atom_site_symmetry_multiplicity
 _atom_site_fract_x
 _atom_site_fract_y
 _atom_site_fract_z
 _atom_site_occupancy
  La  La0  1  0.513803  0.325840  0.901794  1
  La  La1  1  0.013803  0.174160  0.598206  1
  La  La2  1  0.486197  0.674160  0.401794  1
  La  La3  1  0.986197  0.825840  0.098206  1
  La  La4  1  0.486580  0.674389  0.098384  1
  La  La5  1  0.986580  0.825611  0.401616  1
  La  La6  1  0.513420  0.325611  0.598384  1
  La  La7  1  0.013420  0.174389  0.901616  1
  Ho  Ho8  1  0.355163  0.834352  0.876996  1
  Ho  Ho9  1  0.855163  0.665648  0.623004  1
  Ho  Ho10  1  0.644837  0.165648  0.376996  1
  Ho  Ho11  1  0.144837  0.334352  0.123004  1
  Er  Er12  1  0.644804  0.165727  0.123378  1
  Er  Er13  1  0.144804  0.334273  0.376622  1
  Er  Er14  1  0.355196  0.834273  0.623378  1
  Er  Er15  1  0.855196  0.665727  0.876622  1
  Er  Er16  1  0.193287  0.496856  0.749948  1
  Er  Er17  1  0.693287  0.003144  0.750052  1
  Er  Er18  1  0.806713  0.503144  0.249948  1
  Er  Er19  1  0.306713  0.996856  0.250052  1
  Pt  Pt20  1  0.313132  0.035511  0.045332  1
  Pt  Pt21  1  0.813132  0.464489  0.454668  1
  Pt  Pt22  1  0.686868  0.964489  0.545332  1
  Pt  Pt23  1  0.186868  0.535511  0.954668  1
  Pt  Pt24  1  0.688516  0.964400  0.955346  1
  Pt  Pt25  1  0.188516  0.535600  0.544654  1
  Pt  Pt26  1  0.311484  0.035600  0.455346  1
  Pt  Pt27  1  0.811484  0.464400  0.044654  1
  Pt  Pt28  1  0.561503  0.629596  0.750006  1
  Pt  Pt29  1  0.061503  0.870404  0.749994  1
  Pt  Pt30  1  0.438497  0.370404  0.250006  1
  Pt  Pt31  1  0.938497  0.129596  0.249994  1
  Pt  Pt32  1  0.327907  0.135736  0.749908  1
  Pt  Pt33  1  0.827907  0.364264  0.750092  1
  Pt  Pt34  1  0.672093  0.864264  0.249908  1
  Pt  Pt35  1  0.172093  0.635736  0.250092  1
