# generated using pymatgen
data_TmLu(MgIr4)2
_symmetry_space_group_name_H-M   'P 1'
_cell_length_a   5.26787500
_cell_length_b   5.26787425
_cell_length_c   8.57129100
_cell_angle_alpha   90.00000000
_cell_angle_beta   90.00000000
_cell_angle_gamma   119.99999841
_symmetry_Int_Tables_number   1
_chemical_formula_structural   TmLu(MgIr4)2
_chemical_formula_sum   'Tm1 Lu1 Mg2 Ir8'
_cell_volume   205.99075968
_cell_formula_units_Z   1
loop_
 _symmetry_equiv_pos_site_id
 _symmetry_equiv_pos_as_xyz
  1  'x, y, z'
loop_
 _atom_site_type_symbol
 _atom_site_label
 _atom_site_symmetry_multiplicity
 _atom_site_fract_x
 _atom_site_fract_y
 _atom_site_fract_z
 _atom_site_occupancy
  Tm  Tm0  1  0.333333  0.666667  0.069202  1
  Lu  Lu1  1  0.666667  0.333333  0.569209  1
  Mg  Mg2  1  0.666667  0.333333  0.935115  1
  Mg  Mg3  1  0.333333  0.666667  0.435334  1
  Ir  Ir4  1  0.000000  0.000000  0.996480  1
  Ir  Ir5  1  0.000000  0.000000  0.496576  1
  Ir  Ir6  1  0.828916  0.657833  0.249897  1
  Ir  Ir7  1  0.171014  0.828986  0.749464  1
  Ir  Ir8  1  0.657973  0.828986  0.749464  1
  Ir  Ir9  1  0.342167  0.171084  0.249897  1
  Ir  Ir10  1  0.828916  0.171084  0.249897  1
  Ir  Ir11  1  0.171014  0.342027  0.749464  1
