# generated using pymatgen
data_Cs4Ho7(LuSe4)5
_symmetry_space_group_name_H-M   'P 1'
_cell_length_a   4.10914400
_cell_length_b   12.38046073
_cell_length_c   22.01659804
_cell_angle_alpha   90.11967055
_cell_angle_beta   90.00000000
_cell_angle_gamma   90.00000000
_symmetry_Int_Tables_number   1
_chemical_formula_structural   Cs4Ho7(LuSe4)5
_chemical_formula_sum   'Cs4 Ho7 Lu5 Se20'
_cell_volume   1120.05006114
_cell_formula_units_Z   1
loop_
 _symmetry_equiv_pos_site_id
 _symmetry_equiv_pos_as_xyz
  1  'x, y, z'
loop_
 _atom_site_type_symbol
 _atom_site_label
 _atom_site_symmetry_multiplicity
 _atom_site_fract_x
 _atom_site_fract_y
 _atom_site_fract_z
 _atom_site_occupancy
  Cs  Cs0  1  0.250000  0.854047  0.091671  1
  Cs  Cs1  1  0.750000  0.145862  0.908382  1
  Cs  Cs2  1  0.750000  0.354172  0.408321  1
  Cs  Cs3  1  0.250000  0.645845  0.591635  1
  Ho  Ho4  1  0.750000  0.796930  0.825481  1
  Ho  Ho5  1  0.250000  0.203427  0.174574  1
  Ho  Ho6  1  0.250000  0.296933  0.674516  1
  Ho  Ho7  1  0.750000  0.702908  0.325372  1
  Ho  Ho8  1  0.250000  0.957242  0.697818  1
  Ho  Ho9  1  0.750000  0.042760  0.302174  1
  Ho  Ho10  1  0.750000  0.457248  0.802190  1
  Lu  Lu11  1  0.250000  0.543575  0.197765  1
  Lu  Lu12  1  0.750000  0.392175  0.054198  1
  Lu  Lu13  1  0.250000  0.607884  0.946134  1
  Lu  Lu14  1  0.250000  0.892047  0.445946  1
  Lu  Lu15  1  0.750000  0.107963  0.554047  1
  Se  Se16  1  0.250000  0.949108  0.568167  1
  Se  Se17  1  0.750000  0.050879  0.431838  1
  Se  Se18  1  0.750000  0.449164  0.931857  1
  Se  Se19  1  0.250000  0.550792  0.068932  1
  Se  Se20  1  0.750000  0.762982  0.952945  1
  Se  Se21  1  0.250000  0.236992  0.047098  1
  Se  Se22  1  0.250000  0.262956  0.547070  1
  Se  Se23  1  0.750000  0.736968  0.452898  1
  Se  Se24  1  0.250000  0.950524  0.825977  1
  Se  Se25  1  0.750000  0.049582  0.174018  1
  Se  Se26  1  0.750000  0.450501  0.674040  1
  Se  Se27  1  0.250000  0.549132  0.324853  1
  Se  Se28  1  0.750000  0.125996  0.684226  1
  Se  Se29  1  0.250000  0.873958  0.315732  1
  Se  Se30  1  0.250000  0.625971  0.815811  1
  Se  Se31  1  0.750000  0.375808  0.184463  1
  Se  Se32  1  0.750000  0.692685  0.197195  1
  Se  Se33  1  0.250000  0.305026  0.802658  1
  Se  Se34  1  0.250000  0.194954  0.302684  1
  Se  Se35  1  0.750000  0.805006  0.697313  1
