# generated using pymatgen
data_Pr10ZnSn6P
_symmetry_space_group_name_H-M   'P 1'
_cell_length_a   9.59331400
_cell_length_b   9.59331309
_cell_length_c   6.84669500
_cell_angle_alpha   90.00000000
_cell_angle_beta   90.00000000
_cell_angle_gamma   120.00001004
_symmetry_Int_Tables_number   1
_chemical_formula_structural   Pr10ZnSn6P
_chemical_formula_sum   'Pr10 Zn1 Sn6 P1'
_cell_volume   545.69358393
_cell_formula_units_Z   1
loop_
 _symmetry_equiv_pos_site_id
 _symmetry_equiv_pos_as_xyz
  1  'x, y, z'
loop_
 _atom_site_type_symbol
 _atom_site_label
 _atom_site_symmetry_multiplicity
 _atom_site_fract_x
 _atom_site_fract_y
 _atom_site_fract_z
 _atom_site_occupancy
  Pr  Pr0  1  0.254035  0.000000  0.733560  1
  Pr  Pr1  1  0.745965  0.000000  0.266440  1
  Pr  Pr2  1  0.000000  0.254035  0.733560  1
  Pr  Pr3  1  0.000000  0.745965  0.266440  1
  Pr  Pr4  1  0.745965  0.745965  0.733560  1
  Pr  Pr5  1  0.254035  0.254035  0.266440  1
  Pr  Pr6  1  0.333333  0.666667  0.500000  1
  Pr  Pr7  1  0.666667  0.333333  0.500000  1
  Pr  Pr8  1  0.666667  0.333333  0.000000  1
  Pr  Pr9  1  0.333333  0.666667  0.000000  1
  Zn  Zn10  1  0.000000  0.000000  0.000000  1
  Sn  Sn11  1  0.609487  0.000000  0.750103  1
  Sn  Sn12  1  0.390513  0.000000  0.249897  1
  Sn  Sn13  1  0.000000  0.609487  0.750103  1
  Sn  Sn14  1  0.000000  0.390513  0.249897  1
  Sn  Sn15  1  0.390513  0.390513  0.750103  1
  Sn  Sn16  1  0.609487  0.609487  0.249897  1
  P  P17  1  0.000000  0.000000  0.500000  1
