# generated using pymatgen
data_NdScPa2(Al3Ir)6
_symmetry_space_group_name_H-M   'P 1'
_cell_length_a   7.59432409
_cell_length_b   7.60181395
_cell_length_c   9.36508700
_cell_angle_alpha   90.00000000
_cell_angle_beta   90.00000000
_cell_angle_gamma   119.68638615
_symmetry_Int_Tables_number   1
_chemical_formula_structural   NdScPa2(Al3Ir)6
_chemical_formula_sum   'Nd1 Sc1 Pa2 Al18 Ir6'
_cell_volume   469.69139555
_cell_formula_units_Z   1
loop_
 _symmetry_equiv_pos_site_id
 _symmetry_equiv_pos_as_xyz
  1  'x, y, z'
loop_
 _atom_site_type_symbol
 _atom_site_label
 _atom_site_symmetry_multiplicity
 _atom_site_fract_x
 _atom_site_fract_y
 _atom_site_fract_z
 _atom_site_occupancy
  Nd  Nd0  1  0.331341  0.006691  0.750000  1
  Sc  Sc1  1  0.670781  0.993248  0.250000  1
  Pa  Pa2  1  0.998060  0.671683  0.250000  1
  Pa  Pa3  1  0.002246  0.328930  0.750000  1
  Al  Al4  1  0.127502  0.126378  0.250000  1
  Al  Al5  1  0.866301  0.872284  0.750000  1
  Al  Al6  1  0.996575  0.328020  0.080659  1
  Al  Al7  1  0.997605  0.666859  0.924028  1
  Al  Al8  1  0.997605  0.666859  0.575972  1
  Al  Al9  1  0.342290  0.003263  0.420393  1
  Al  Al10  1  0.996575  0.328020  0.419341  1
  Al  Al11  1  0.663577  0.996929  0.568793  1
  Al  Al12  1  0.663577  0.996929  0.931207  1
  Al  Al13  1  0.342290  0.003263  0.079607  1
  Al  Al14  1  0.335039  0.334489  0.549629  1
  Al  Al15  1  0.664807  0.669377  0.443203  1
  Al  Al16  1  0.664807  0.669377  0.056797  1
  Al  Al17  1  0.335039  0.334489  0.950371  1
  Al  Al18  1  0.343562  0.552320  0.250000  1
  Al  Al19  1  0.660726  0.454623  0.750000  1
  Al  Al20  1  0.550244  0.340588  0.250000  1
  Al  Al21  1  0.451939  0.657788  0.750000  1
  Ir  Ir22  1  0.676587  0.330678  0.001019  1
  Ir  Ir23  1  0.323312  0.669210  0.001613  1
  Ir  Ir24  1  0.323312  0.669210  0.498387  1
  Ir  Ir25  1  0.676587  0.330678  0.498981  1
  Ir  Ir26  1  0.998858  0.998908  0.001845  1
  Ir  Ir27  1  0.998858  0.998908  0.498155  1
