# generated using pymatgen
data_ZrMnNb2B7
_symmetry_space_group_name_H-M   'P 1'
_cell_length_a   3.25074500
_cell_length_b   7.38504978
_cell_length_c   8.92180200
_cell_angle_alpha   90.00000000
_cell_angle_beta   90.00000000
_cell_angle_gamma   77.28570950
_symmetry_Int_Tables_number   1
_chemical_formula_structural   ZrMnNb2B7
_chemical_formula_sum   'Zr2 Mn2 Nb4 B14'
_cell_volume   208.93304727
_cell_formula_units_Z   2
loop_
 _symmetry_equiv_pos_site_id
 _symmetry_equiv_pos_as_xyz
  1  'x, y, z'
loop_
 _atom_site_type_symbol
 _atom_site_label
 _atom_site_symmetry_multiplicity
 _atom_site_fract_x
 _atom_site_fract_y
 _atom_site_fract_z
 _atom_site_occupancy
  Zr  Zr0  1  0.751417  0.497170  0.250000  1
  Zr  Zr1  1  0.248585  0.502830  0.750000  1
  Mn  Mn2  1  0.951832  0.096337  0.250000  1
  Mn  Mn3  1  0.048169  0.903663  0.750000  1
  Nb  Nb4  1  0.104736  0.790528  0.051433  1
  Nb  Nb5  1  0.104736  0.790528  0.448566  1
  Nb  Nb6  1  0.895266  0.209471  0.551434  1
  Nb  Nb7  1  0.895266  0.209471  0.948567  1
  B  B8  1  0.273447  0.453107  0.032528  1
  B  B9  1  0.484934  0.030134  0.094992  1
  B  B10  1  0.369442  0.261119  0.151611  1
  B  B11  1  0.563794  0.872416  0.250000  1
  B  B12  1  0.369442  0.261119  0.348390  1
  B  B13  1  0.484934  0.030134  0.405008  1
  B  B14  1  0.273447  0.453107  0.467472  1
  B  B15  1  0.726555  0.546893  0.532528  1
  B  B16  1  0.515069  0.969865  0.594992  1
  B  B17  1  0.630560  0.738880  0.651610  1
  B  B18  1  0.436208  0.127584  0.750000  1
  B  B19  1  0.630560  0.738880  0.848389  1
  B  B20  1  0.515069  0.969865  0.905008  1
  B  B21  1  0.726555  0.546893  0.967472  1
