# generated using pymatgen
data_Er6Zn10Au13Se
_symmetry_space_group_name_H-M   'P 1'
_cell_length_a   9.25423346
_cell_length_b   9.28764576
_cell_length_c   9.28764600
_cell_angle_alpha   60.00117449
_cell_angle_beta   59.88195328
_cell_angle_gamma   59.88194811
_symmetry_Int_Tables_number   1
_chemical_formula_structural   Er6Zn10Au13Se
_chemical_formula_sum   'Er6 Zn10 Au13 Se1'
_cell_volume   563.46035434
_cell_formula_units_Z   1
loop_
 _symmetry_equiv_pos_site_id
 _symmetry_equiv_pos_as_xyz
  1  'x, y, z'
loop_
 _atom_site_type_symbol
 _atom_site_label
 _atom_site_symmetry_multiplicity
 _atom_site_fract_x
 _atom_site_fract_y
 _atom_site_fract_z
 _atom_site_occupancy
  Er  Er0  1  0.716193  0.283724  0.283724  1
  Er  Er1  1  0.716212  0.283733  0.716354  1
  Er  Er2  1  0.716212  0.716354  0.283733  1
  Er  Er3  1  0.281209  0.716145  0.716145  1
  Er  Er4  1  0.281207  0.716145  0.286506  1
  Er  Er5  1  0.281207  0.286506  0.716145  1
  Zn  Zn6  1  0.500375  0.998904  0.998904  1
  Zn  Zn7  1  0.500368  0.998916  0.501818  1
  Zn  Zn8  1  0.500368  0.501818  0.998916  1
  Zn  Zn9  1  0.997015  0.500489  0.500489  1
  Zn  Zn10  1  0.997030  0.500480  0.001984  1
  Zn  Zn11  1  0.997030  0.001984  0.500480  1
  Zn  Zn12  1  0.003714  0.998756  0.998756  1
  Zn  Zn13  1  0.669900  0.991017  0.669550  1
  Zn  Zn14  1  0.669900  0.669550  0.991017  1
  Zn  Zn15  1  0.669897  0.669537  0.669537  1
  Au  Au16  1  0.649261  0.116918  0.116918  1
  Au  Au17  1  0.117878  0.649585  0.116260  1
  Au  Au18  1  0.117878  0.116260  0.649585  1
  Au  Au19  1  0.117858  0.116280  0.116280  1
  Au  Au20  1  0.370526  0.876490  0.876490  1
  Au  Au21  1  0.873534  0.361412  0.882536  1
  Au  Au22  1  0.873534  0.882536  0.361412  1
  Au  Au23  1  0.873526  0.882520  0.882520  1
  Au  Au24  1  0.983340  0.338885  0.338885  1
  Au  Au25  1  0.339155  0.983857  0.338490  1
  Au  Au26  1  0.339155  0.338490  0.983857  1
  Au  Au27  1  0.339140  0.338499  0.338499  1
  Au  Au28  1  0.005928  0.664690  0.664690  1
  Se  Se29  1  0.501453  0.499519  0.499519  1
