# generated using pymatgen
data_K4USe5
_symmetry_space_group_name_H-M   'P 1'
_cell_length_a   7.98214031
_cell_length_b   7.99779532
_cell_length_c   11.92408143
_cell_angle_alpha   101.69460872
_cell_angle_beta   109.33126132
_cell_angle_gamma   102.00452339
_symmetry_Int_Tables_number   1
_chemical_formula_structural   K4USe5
_chemical_formula_sum   'K8 U2 Se10'
_cell_volume   671.50620777
_cell_formula_units_Z   2
loop_
 _symmetry_equiv_pos_site_id
 _symmetry_equiv_pos_as_xyz
  1  'x, y, z'
loop_
 _atom_site_type_symbol
 _atom_site_label
 _atom_site_symmetry_multiplicity
 _atom_site_fract_x
 _atom_site_fract_y
 _atom_site_fract_z
 _atom_site_occupancy
  K  K0  1  0.580526  0.792897  0.095830  1
  K  K1  1  0.203996  0.588930  0.701568  1
  K  K2  1  0.599641  0.298078  0.598732  1
  K  K3  1  0.400359  0.701922  0.401268  1
  K  K4  1  0.419474  0.207103  0.904170  1
  K  K5  1  0.000000  0.000000  0.500000  1
  K  K6  1  0.000000  0.500000  0.000000  1
  K  K7  1  0.796004  0.411070  0.298432  1
  U  U8  1  0.191141  0.099785  0.196587  1
  U  U9  1  0.808859  0.900215  0.803413  1
  Se  Se10  1  0.365700  0.393376  0.155185  1
  Se  Se11  1  0.634300  0.606624  0.844815  1
  Se  Se12  1  0.180789  0.307355  0.400456  1
  Se  Se13  1  0.819211  0.692645  0.599544  1
  Se  Se14  1  0.981070  0.193213  0.760996  1
  Se  Se15  1  0.018930  0.806787  0.239004  1
  Se  Se16  1  0.844940  0.111920  0.036779  1
  Se  Se17  1  0.155060  0.888080  0.963221  1
  Se  Se18  1  0.479574  0.942382  0.685311  1
  Se  Se19  1  0.520426  0.057618  0.314689  1
