# generated using pymatgen
data_Zr4In2Pd3Rh7
_symmetry_space_group_name_H-M   'P 1'
_cell_length_a   5.64224280
_cell_length_b   5.65468878
_cell_length_c   8.45188600
_cell_angle_alpha   90.00000000
_cell_angle_beta   90.00000000
_cell_angle_gamma   97.68427536
_symmetry_Int_Tables_number   1
_chemical_formula_structural   Zr4In2Pd3Rh7
_chemical_formula_sum   'Zr4 In2 Pd3 Rh7'
_cell_volume   267.23694568
_cell_formula_units_Z   1
loop_
 _symmetry_equiv_pos_site_id
 _symmetry_equiv_pos_as_xyz
  1  'x, y, z'
loop_
 _atom_site_type_symbol
 _atom_site_label
 _atom_site_symmetry_multiplicity
 _atom_site_fract_x
 _atom_site_fract_y
 _atom_site_fract_z
 _atom_site_occupancy
  Zr  Zr0  1  0.779863  0.227268  0.496535  1
  Zr  Zr1  1  0.220193  0.772744  0.003495  1
  Zr  Zr2  1  0.220193  0.772744  0.496505  1
  Zr  Zr3  1  0.779863  0.227268  0.003465  1
  In  In4  1  0.501015  0.501070  0.750000  1
  In  In5  1  0.499036  0.498874  0.250000  1
  Pd  Pd6  1  0.499777  0.000712  0.750000  1
  Pd  Pd7  1  0.000380  0.000418  0.250000  1
  Pd  Pd8  1  0.999564  0.999593  0.750000  1
  Rh  Rh9  1  0.734210  0.735261  0.000257  1
  Rh  Rh10  1  0.734210  0.735261  0.499743  1
  Rh  Rh11  1  0.265788  0.264713  0.999299  1
  Rh  Rh12  1  0.265788  0.264713  0.500701  1
  Rh  Rh13  1  0.500161  0.999364  0.250000  1
  Rh  Rh14  1  0.000612  0.499861  0.750000  1
  Rh  Rh15  1  0.999348  0.500136  0.250000  1
