# generated using pymatgen
data_Dy8Cd2IrRu
_symmetry_space_group_name_H-M   'P 1'
_cell_length_a   9.63044804
_cell_length_b   9.63044836
_cell_length_c   9.66499300
_cell_angle_alpha   59.88127457
_cell_angle_beta   59.88127347
_cell_angle_gamma   59.78493141
_symmetry_Int_Tables_number   1
_chemical_formula_structural   Dy8Cd2IrRu
_chemical_formula_sum   'Dy16 Cd4 Ir2 Ru2'
_cell_volume   631.66893013
_cell_formula_units_Z   2
loop_
 _symmetry_equiv_pos_site_id
 _symmetry_equiv_pos_as_xyz
  1  'x, y, z'
loop_
 _atom_site_type_symbol
 _atom_site_label
 _atom_site_symmetry_multiplicity
 _atom_site_fract_x
 _atom_site_fract_y
 _atom_site_fract_z
 _atom_site_occupancy
  Dy  Dy0  1  0.597864  0.597864  0.597848  1
  Dy  Dy1  1  0.597864  0.597864  0.206424  1
  Dy  Dy2  1  0.597294  0.207685  0.597511  1
  Dy  Dy3  1  0.207685  0.597294  0.597511  1
  Dy  Dy4  1  0.062047  0.438359  0.439638  1
  Dy  Dy5  1  0.438359  0.062047  0.059956  1
  Dy  Dy6  1  0.438359  0.062047  0.439638  1
  Dy  Dy7  1  0.062047  0.438359  0.059956  1
  Dy  Dy8  1  0.438178  0.438178  0.061822  1
  Dy  Dy9  1  0.059845  0.059845  0.440155  1
  Dy  Dy10  1  0.188291  0.810377  0.812709  1
  Dy  Dy11  1  0.810377  0.188291  0.188623  1
  Dy  Dy12  1  0.810377  0.188291  0.812709  1
  Dy  Dy13  1  0.188291  0.810377  0.188623  1
  Dy  Dy14  1  0.812020  0.812020  0.187980  1
  Dy  Dy15  1  0.189168  0.189168  0.810832  1
  Cd  Cd16  1  0.830544  0.830544  0.830979  1
  Cd  Cd17  1  0.830544  0.830544  0.507933  1
  Cd  Cd18  1  0.830503  0.507276  0.831111  1
  Cd  Cd19  1  0.507276  0.830503  0.831111  1
  Ir  Ir20  1  0.393154  0.827396  0.389725  1
  Ir  Ir21  1  0.827396  0.393154  0.389725  1
  Ru  Ru22  1  0.391259  0.391259  0.388100  1
  Ru  Ru23  1  0.391259  0.391259  0.829382  1
