# generated using pymatgen
data_Yb2Co5B3C
_symmetry_space_group_name_H-M   'P 1'
_cell_length_a   6.96360544
_cell_length_b   5.77218605
_cell_length_c   5.26005377
_cell_angle_alpha   77.73734292
_cell_angle_beta   54.21053041
_cell_angle_gamma   47.66339382
_symmetry_Int_Tables_number   1
_chemical_formula_structural   Yb2Co5B3C
_chemical_formula_sum   'Yb2 Co5 B3 C1'
_cell_volume   120.83174665
_cell_formula_units_Z   1
loop_
 _symmetry_equiv_pos_site_id
 _symmetry_equiv_pos_as_xyz
  1  'x, y, z'
loop_
 _atom_site_type_symbol
 _atom_site_label
 _atom_site_symmetry_multiplicity
 _atom_site_fract_x
 _atom_site_fract_y
 _atom_site_fract_z
 _atom_site_occupancy
  Yb  Yb0  1  0.853517  0.853264  0.146735  1
  Yb  Yb1  1  0.141451  0.142330  0.857670  1
  Co  Co2  1  0.499177  0.504090  0.003457  1
  Co  Co3  1  0.254868  0.240640  0.249503  1
  Co  Co4  1  0.006724  0.996543  0.495912  1
  Co  Co5  1  0.502238  0.510894  0.489105  1
  Co  Co6  1  0.745010  0.750498  0.759361  1
  B  B7  1  0.210033  0.525226  0.474773  1
  B  B8  1  0.789885  0.468642  0.531357  1
  B  B9  1  0.530245  0.215954  0.784046  1
  C  C10  1  0.466853  0.791917  0.208082  1
