# generated using pymatgen
data_Hf3Zr3Ga6(FePd2)2
_symmetry_space_group_name_H-M   'P 1'
_cell_length_a   7.23029400
_cell_length_b   7.23029289
_cell_length_c   6.73029300
_cell_angle_alpha   90.00000000
_cell_angle_beta   90.00000000
_cell_angle_gamma   120.00000507
_symmetry_Int_Tables_number   1
_chemical_formula_structural   Hf3Zr3Ga6(FePd2)2
_chemical_formula_sum   'Hf3 Zr3 Ga6 Fe2 Pd4'
_cell_volume   304.70278827
_cell_formula_units_Z   1
loop_
 _symmetry_equiv_pos_site_id
 _symmetry_equiv_pos_as_xyz
  1  'x, y, z'
loop_
 _atom_site_type_symbol
 _atom_site_label
 _atom_site_symmetry_multiplicity
 _atom_site_fract_x
 _atom_site_fract_y
 _atom_site_fract_z
 _atom_site_occupancy
  Hf  Hf0  1  0.306732  0.253363  0.500000  1
  Hf  Hf1  1  0.746637  0.053370  0.500000  1
  Hf  Hf2  1  0.946630  0.693268  0.500000  1
  Zr  Zr3  1  0.747293  0.058530  0.000000  1
  Zr  Zr4  1  0.311236  0.252707  0.000000  1
  Zr  Zr5  1  0.941470  0.688764  0.000000  1
  Ga  Ga6  1  0.607891  0.666082  0.748588  1
  Ga  Ga7  1  0.058191  0.392109  0.748588  1
  Ga  Ga8  1  0.333918  0.941809  0.748588  1
  Ga  Ga9  1  0.607891  0.666082  0.251412  1
  Ga  Ga10  1  0.058191  0.392109  0.251412  1
  Ga  Ga11  1  0.333918  0.941809  0.251412  1
  Fe  Fe12  1  0.000000  0.000000  0.252984  1
  Fe  Fe13  1  0.000000  0.000000  0.747016  1
  Pd  Pd14  1  0.333333  0.666667  0.000000  1
  Pd  Pd15  1  0.333333  0.666667  0.500000  1
  Pd  Pd16  1  0.666667  0.333333  0.737944  1
  Pd  Pd17  1  0.666667  0.333333  0.262056  1
