# generated using pymatgen
data_CaNbRuF12
_symmetry_space_group_name_H-M   'P 1'
_cell_length_a   11.76334503
_cell_length_b   5.84940795
_cell_length_c   5.87258625
_cell_angle_alpha   57.57429248
_cell_angle_beta   57.47322782
_cell_angle_gamma   57.52609982
_symmetry_Int_Tables_number   1
_chemical_formula_structural   CaNbRuF12
_chemical_formula_sum   'Ca1 Nb1 Ru1 F12'
_cell_volume   269.46459800
_cell_formula_units_Z   1
loop_
 _symmetry_equiv_pos_site_id
 _symmetry_equiv_pos_as_xyz
  1  'x, y, z'
loop_
 _atom_site_type_symbol
 _atom_site_label
 _atom_site_symmetry_multiplicity
 _atom_site_fract_x
 _atom_site_fract_y
 _atom_site_fract_z
 _atom_site_occupancy
  Ca  Ca0  1  0.751634  0.495251  0.502355  1
  Nb  Nb1  1  0.483943  0.016120  0.006456  1
  Ru  Ru2  1  0.007686  0.989954  0.998878  1
  F  F3  1  0.159941  0.125275  0.776806  1
  F  F4  1  0.659311  0.135845  0.777196  1
  F  F5  1  0.062003  0.779213  0.320771  1
  F  F6  1  0.571803  0.770262  0.312935  1
  F  F7  1  0.111284  0.675868  0.876055  1
  F  F8  1  0.615512  0.681148  0.863329  1
  F  F9  1  0.441151  0.221678  0.665613  1
  F  F10  1  0.934258  0.223358  0.683026  1
  F  F11  1  0.334356  0.867065  0.235365  1
  F  F12  1  0.841260  0.865203  0.223566  1
  F  F13  1  0.388012  0.335119  0.125931  1
  F  F14  1  0.887846  0.318641  0.131717  1
