# generated using pymatgen
data_Ho3CI5
_symmetry_space_group_name_H-M   'P 1'
_cell_length_a   7.62921324
_cell_length_b   9.44961767
_cell_length_c   9.52370470
_cell_angle_alpha   107.06542636
_cell_angle_beta   96.44681368
_cell_angle_gamma   104.35979687
_symmetry_Int_Tables_number   1
_chemical_formula_structural   Ho3CI5
_chemical_formula_sum   'Ho6 C2 I10'
_cell_volume   623.03202948
_cell_formula_units_Z   2
loop_
 _symmetry_equiv_pos_site_id
 _symmetry_equiv_pos_as_xyz
  1  'x, y, z'
loop_
 _atom_site_type_symbol
 _atom_site_label
 _atom_site_symmetry_multiplicity
 _atom_site_fract_x
 _atom_site_fract_y
 _atom_site_fract_z
 _atom_site_occupancy
  Ho  Ho0  1  0.102490  0.037746  0.782031  1
  Ho  Ho1  1  0.374235  0.131964  0.177202  1
  Ho  Ho2  1  0.897510  0.962254  0.217969  1
  Ho  Ho3  1  0.027588  0.743226  0.925216  1
  Ho  Ho4  1  0.972412  0.256774  0.074784  1
  Ho  Ho5  1  0.625765  0.868036  0.822798  1
  C  C6  1  0.907553  0.969750  0.958375  1
  C  C7  1  0.092447  0.030250  0.041625  1
  I  I8  1  0.191254  0.735442  0.647803  1
  I  I9  1  0.087407  0.364711  0.821911  1
  I  I10  1  0.456074  0.809366  0.093749  1
  I  I11  1  0.255260  0.084986  0.458925  1
  I  I12  1  0.543926  0.190634  0.906251  1
  I  I13  1  0.808746  0.264558  0.352197  1
  I  I14  1  0.346286  0.454067  0.273298  1
  I  I15  1  0.912593  0.635289  0.178089  1
  I  I16  1  0.653714  0.545933  0.726702  1
  I  I17  1  0.744740  0.915014  0.541075  1
