# generated using pymatgen
data_La5P12Ru9Rh10
_symmetry_space_group_name_H-M   'P 1'
_cell_length_a   12.80329400
_cell_length_b   12.80329412
_cell_length_c   4.00514500
_cell_angle_alpha   90.00000000
_cell_angle_beta   90.00000000
_cell_angle_gamma   119.99999968
_symmetry_Int_Tables_number   1
_chemical_formula_structural   La5P12Ru9Rh10
_chemical_formula_sum   'La5 P12 Ru9 Rh10'
_cell_volume   568.58096659
_cell_formula_units_Z   1
loop_
 _symmetry_equiv_pos_site_id
 _symmetry_equiv_pos_as_xyz
  1  'x, y, z'
loop_
 _atom_site_type_symbol
 _atom_site_label
 _atom_site_symmetry_multiplicity
 _atom_site_fract_x
 _atom_site_fract_y
 _atom_site_fract_z
 _atom_site_occupancy
  La  La0  1  0.185952  0.185952  0.500000  1
  La  La1  1  0.814048  0.000000  0.500000  1
  La  La2  1  0.000000  0.814048  0.500000  1
  La  La3  1  0.333333  0.666667  0.000000  1
  La  La4  1  0.666667  0.333333  0.000000  1
  P  P5  1  0.813714  0.813714  0.000000  1
  P  P6  1  0.186286  0.000000  0.000000  1
  P  P7  1  0.000000  0.186286  0.000000  1
  P  P8  1  0.171220  0.479805  0.500000  1
  P  P9  1  0.520195  0.691414  0.500000  1
  P  P10  1  0.308586  0.828780  0.500000  1
  P  P11  1  0.691414  0.520195  0.500000  1
  P  P12  1  0.828780  0.308586  0.500000  1
  P  P13  1  0.479805  0.171220  0.500000  1
  P  P14  1  0.374995  0.374995  0.000000  1
  P  P15  1  0.625005  0.000000  0.000000  1
  P  P16  1  0.000000  0.625005  0.000000  1
  Ru  Ru17  1  0.712283  0.712283  0.500000  1
  Ru  Ru18  1  0.287717  0.000000  0.500000  1
  Ru  Ru19  1  0.000000  0.287717  0.500000  1
  Ru  Ru20  1  0.363892  0.488087  0.500000  1
  Ru  Ru21  1  0.511913  0.875807  0.500000  1
  Ru  Ru22  1  0.124193  0.636108  0.500000  1
  Ru  Ru23  1  0.875807  0.511913  0.500000  1
  Ru  Ru24  1  0.636108  0.124193  0.500000  1
  Ru  Ru25  1  0.488087  0.363892  0.500000  1
  Rh  Rh26  1  0.552333  0.552333  0.000000  1
  Rh  Rh27  1  0.447667  0.000000  0.000000  1
  Rh  Rh28  1  0.000000  0.447667  0.000000  1
  Rh  Rh29  1  0.182480  0.377215  0.000000  1
  Rh  Rh30  1  0.622785  0.805265  0.000000  1
  Rh  Rh31  1  0.194735  0.817520  0.000000  1
  Rh  Rh32  1  0.805265  0.622785  0.000000  1
  Rh  Rh33  1  0.817520  0.194735  0.000000  1
  Rh  Rh34  1  0.377215  0.182480  0.000000  1
  Rh  Rh35  1  0.000000  0.000000  0.000000  1
