# generated using pymatgen
data_CsP4IrO12
_symmetry_space_group_name_H-M   'P 1'
_cell_length_a   13.60816100
_cell_length_b   5.23661530
_cell_length_c   7.69376820
_cell_angle_alpha   79.23834472
_cell_angle_beta   90.00000000
_cell_angle_gamma   90.00000000
_symmetry_Int_Tables_number   1
_chemical_formula_structural   CsP4IrO12
_chemical_formula_sum   'Cs2 P8 Ir2 O24'
_cell_volume   538.62072211
_cell_formula_units_Z   2
loop_
 _symmetry_equiv_pos_site_id
 _symmetry_equiv_pos_as_xyz
  1  'x, y, z'
loop_
 _atom_site_type_symbol
 _atom_site_label
 _atom_site_symmetry_multiplicity
 _atom_site_fract_x
 _atom_site_fract_y
 _atom_site_fract_z
 _atom_site_occupancy
  Cs  Cs0  1  0.001381  0.396335  0.836515  1
  Cs  Cs1  1  0.501381  0.603665  0.163485  1
  P  P2  1  0.871292  0.022889  0.442385  1
  P  P3  1  0.817838  0.787348  0.140163  1
  P  P4  1  0.371292  0.977111  0.557615  1
  P  P5  1  0.181224  0.864177  0.099356  1
  P  P6  1  0.098558  0.024490  0.426437  1
  P  P7  1  0.598558  0.975510  0.573563  1
  P  P8  1  0.681224  0.135823  0.900644  1
  P  P9  1  0.317838  0.212652  0.859837  1
  Ir  Ir10  1  0.235363  0.501242  0.488146  1
  Ir  Ir11  1  0.735363  0.498758  0.511854  1
  O  O12  1  0.155234  0.809205  0.542514  1
  O  O13  1  0.106812  0.293301  0.472125  1
  O  O14  1  0.618860  0.964756  0.778209  1
  O  O15  1  0.985415  0.943289  0.453889  1
  O  O16  1  0.864007  0.288557  0.493229  1
  O  O17  1  0.842693  0.034329  0.241313  1
  O  O18  1  0.118860  0.035244  0.221791  1
  O  O19  1  0.620323  0.162992  0.054510  1
  O  O20  1  0.120323  0.837008  0.945490  1
  O  O21  1  0.232652  0.361345  0.757549  1
  O  O22  1  0.364007  0.711443  0.506771  1
  O  O23  1  0.606812  0.706699  0.527875  1
  O  O24  1  0.655234  0.190795  0.457486  1
  O  O25  1  0.485415  0.056711  0.546111  1
  O  O26  1  0.274112  0.058162  0.043437  1
  O  O27  1  0.909769  0.656988  0.105034  1
  O  O28  1  0.725141  0.373537  0.782653  1
  O  O29  1  0.774112  0.941838  0.956563  1
  O  O30  1  0.409769  0.343012  0.894966  1
  O  O31  1  0.819090  0.804537  0.565863  1
  O  O32  1  0.319090  0.195463  0.434137  1
  O  O33  1  0.342693  0.965671  0.758687  1
  O  O34  1  0.732652  0.638655  0.242451  1
  O  O35  1  0.225141  0.626463  0.217347  1
