# generated using pymatgen
data_Ce(Al4Rh)2
_symmetry_space_group_name_H-M   'P 1'
_cell_length_a   4.10710500
_cell_length_b   12.79954400
_cell_length_c   14.65069200
_cell_angle_alpha   90.00000000
_cell_angle_beta   90.00000000
_cell_angle_gamma   90.00000000
_symmetry_Int_Tables_number   1
_chemical_formula_structural   Ce(Al4Rh)2
_chemical_formula_sum   'Ce4 Al32 Rh8'
_cell_volume   770.17327029
_cell_formula_units_Z   4
loop_
 _symmetry_equiv_pos_site_id
 _symmetry_equiv_pos_as_xyz
  1  'x, y, z'
loop_
 _atom_site_type_symbol
 _atom_site_label
 _atom_site_symmetry_multiplicity
 _atom_site_fract_x
 _atom_site_fract_y
 _atom_site_fract_z
 _atom_site_occupancy
  Ce  Ce0  1  0.000000  0.841132  0.180293  1
  Ce  Ce1  1  0.000000  0.158868  0.819707  1
  Ce  Ce2  1  0.000000  0.341132  0.319707  1
  Ce  Ce3  1  0.000000  0.658868  0.680293  1
  Al  Al4  1  0.500000  0.500000  0.000000  1
  Al  Al5  1  0.500000  0.000000  0.500000  1
  Al  Al6  1  0.000000  0.500000  0.500000  1
  Al  Al7  1  0.000000  0.000000  0.000000  1
  Al  Al8  1  0.500000  0.663452  0.124331  1
  Al  Al9  1  0.500000  0.336548  0.875669  1
  Al  Al10  1  0.500000  0.163452  0.375669  1
  Al  Al11  1  0.500000  0.836548  0.624331  1
  Al  Al12  1  0.500000  0.951982  0.317399  1
  Al  Al13  1  0.500000  0.048018  0.682601  1
  Al  Al14  1  0.500000  0.451982  0.182601  1
  Al  Al15  1  0.500000  0.548018  0.817399  1
  Al  Al16  1  0.500000  0.738533  0.325054  1
  Al  Al17  1  0.500000  0.261467  0.674946  1
  Al  Al18  1  0.500000  0.238533  0.174946  1
  Al  Al19  1  0.500000  0.761467  0.825054  1
  Al  Al20  1  0.500000  0.833422  0.013896  1
  Al  Al21  1  0.500000  0.166578  0.986104  1
  Al  Al22  1  0.500000  0.333422  0.486104  1
  Al  Al23  1  0.500000  0.666578  0.513896  1
  Al  Al24  1  0.500000  0.522258  0.368449  1
  Al  Al25  1  0.500000  0.477742  0.631551  1
  Al  Al26  1  0.500000  0.022258  0.131551  1
  Al  Al27  1  0.500000  0.977742  0.868449  1
  Al  Al28  1  0.000000  0.842740  0.454975  1
  Al  Al29  1  0.000000  0.157260  0.545025  1
  Al  Al30  1  0.000000  0.342740  0.045025  1
  Al  Al31  1  0.000000  0.657260  0.954975  1
  Al  Al32  1  0.000000  0.598336  0.249996  1
  Al  Al33  1  0.000000  0.401664  0.750004  1
  Al  Al34  1  0.000000  0.098336  0.250004  1
  Al  Al35  1  0.000000  0.901664  0.749996  1
  Rh  Rh36  1  0.000000  0.655697  0.406745  1
  Rh  Rh37  1  0.000000  0.344303  0.593255  1
  Rh  Rh38  1  0.000000  0.155697  0.093255  1
  Rh  Rh39  1  0.000000  0.844303  0.906745  1
  Rh  Rh40  1  0.000000  0.537152  0.097043  1
  Rh  Rh41  1  0.000000  0.462848  0.902957  1
  Rh  Rh42  1  0.000000  0.037152  0.402957  1
  Rh  Rh43  1  0.000000  0.962848  0.597043  1
