# generated using pymatgen
data_Dy12Re5Si16Ru3
_symmetry_space_group_name_H-M   'P 1'
_cell_length_a   10.49376172
_cell_length_b   10.49256847
_cell_length_c   14.17230200
_cell_angle_alpha   55.42590382
_cell_angle_beta   55.40615505
_cell_angle_gamma   31.00003711
_symmetry_Int_Tables_number   1
_chemical_formula_structural   Dy12Re5Si16Ru3
_chemical_formula_sum   'Dy12 Re5 Si16 Ru3'
_cell_volume   649.47388578
_cell_formula_units_Z   1
loop_
 _symmetry_equiv_pos_site_id
 _symmetry_equiv_pos_as_xyz
  1  'x, y, z'
loop_
 _atom_site_type_symbol
 _atom_site_label
 _atom_site_symmetry_multiplicity
 _atom_site_fract_x
 _atom_site_fract_y
 _atom_site_fract_z
 _atom_site_occupancy
  Dy  Dy0  1  0.747803  0.486952  0.051461  1
  Dy  Dy1  1  0.532586  0.312162  0.154678  1
  Dy  Dy2  1  0.513627  0.249537  0.448913  1
  Dy  Dy3  1  0.466914  0.689525  0.844855  1
  Dy  Dy4  1  0.291620  0.041739  0.136779  1
  Dy  Dy5  1  0.957116  0.708437  0.362648  1
  Dy  Dy6  1  0.709533  0.956700  0.862725  1
  Dy  Dy7  1  0.043031  0.290661  0.637497  1
  Dy  Dy8  1  0.248970  0.513634  0.949940  1
  Dy  Dy9  1  0.485637  0.751024  0.551037  1
  Dy  Dy10  1  0.311725  0.532026  0.654699  1
  Dy  Dy11  1  0.691048  0.466511  0.344780  1
  Re  Re12  1  0.168771  0.361082  0.217110  1
  Re  Re13  1  0.135105  0.915669  0.075024  1
  Re  Re14  1  0.085705  0.864899  0.424564  1
  Re  Re15  1  0.866774  0.084104  0.924684  1
  Re  Re16  1  0.914187  0.134056  0.576391  1
  Si  Si17  1  0.908221  0.091791  0.250207  1
  Si  Si18  1  0.092636  0.907723  0.750115  1
  Si  Si19  1  0.338325  0.661282  0.250421  1
  Si  Si20  1  0.660942  0.338758  0.750399  1
  Si  Si21  1  0.004269  0.229425  0.875453  1
  Si  Si22  1  0.771225  0.995023  0.624676  1
  Si  Si23  1  0.998885  0.770197  0.123152  1
  Si  Si24  1  0.226559  0.006882  0.374872  1
  Si  Si25  1  0.603549  0.048078  0.079054  1
  Si  Si26  1  0.954079  0.392947  0.424123  1
  Si  Si27  1  0.395274  0.954016  0.921588  1
  Si  Si28  1  0.045734  0.606041  0.577236  1
  Si  Si29  1  0.383768  0.159452  0.378088  1
  Si  Si30  1  0.841026  0.617087  0.119428  1
  Si  Si31  1  0.615980  0.841562  0.621425  1
  Si  Si32  1  0.156376  0.385949  0.878779  1
  Ru  Ru33  1  0.636326  0.831681  0.283730  1
  Ru  Ru34  1  0.833333  0.636591  0.782035  1
  Ru  Ru35  1  0.363343  0.166799  0.717437  1
