# generated using pymatgen
data_Lu12ReNi4Sn
_symmetry_space_group_name_H-M   'P 1'
_cell_length_a   8.14262375
_cell_length_b   8.14262476
_cell_length_c   8.14262408
_cell_angle_alpha   111.95047440
_cell_angle_beta   110.09921548
_cell_angle_gamma   106.41234430
_symmetry_Int_Tables_number   1
_chemical_formula_structural   Lu12ReNi4Sn
_chemical_formula_sum   'Lu12 Re1 Ni4 Sn1'
_cell_volume   414.59889771
_cell_formula_units_Z   1
loop_
 _symmetry_equiv_pos_site_id
 _symmetry_equiv_pos_as_xyz
  1  'x, y, z'
loop_
 _atom_site_type_symbol
 _atom_site_label
 _atom_site_symmetry_multiplicity
 _atom_site_fract_x
 _atom_site_fract_y
 _atom_site_fract_z
 _atom_site_occupancy
  Lu  Lu0  1  0.678771  0.873388  0.194617  1
  Lu  Lu1  1  0.321229  0.515846  0.194617  1
  Lu  Lu2  1  0.820355  0.776667  0.597022  1
  Lu  Lu3  1  0.179645  0.776667  0.956311  1
  Lu  Lu4  1  0.820355  0.223333  0.043689  1
  Lu  Lu5  1  0.179645  0.223333  0.402978  1
  Lu  Lu6  1  0.678771  0.484154  0.805383  1
  Lu  Lu7  1  0.321229  0.126612  0.805383  1
  Lu  Lu8  1  0.581055  0.274312  0.306742  1
  Lu  Lu9  1  0.418945  0.725688  0.693258  1
  Lu  Lu10  1  0.032430  0.725688  0.306742  1
  Lu  Lu11  1  0.967570  0.274312  0.693258  1
  Re  Re12  1  0.000000  0.500000  0.500000  1
  Ni  Ni13  1  0.356411  0.500000  0.856411  1
  Ni  Ni14  1  0.643589  0.500000  0.143589  1
  Ni  Ni15  1  0.879761  0.879761  0.000000  1
  Ni  Ni16  1  0.120239  0.120239  0.000000  1
  Sn  Sn17  1  0.500000  0.000000  0.500000  1
