# generated using pymatgen
data_Hf9Ta3PIr
_symmetry_space_group_name_H-M   'P 1'
_cell_length_a   8.69218300
_cell_length_b   8.69218250
_cell_length_c   8.74818900
_cell_angle_alpha   90.00000000
_cell_angle_beta   90.00000000
_cell_angle_gamma   119.99999811
_symmetry_Int_Tables_number   1
_chemical_formula_structural   Hf9Ta3PIr
_chemical_formula_sum   'Hf18 Ta6 P2 Ir2'
_cell_volume   572.40905361
_cell_formula_units_Z   2
loop_
 _symmetry_equiv_pos_site_id
 _symmetry_equiv_pos_as_xyz
  1  'x, y, z'
loop_
 _atom_site_type_symbol
 _atom_site_label
 _atom_site_symmetry_multiplicity
 _atom_site_fract_x
 _atom_site_fract_y
 _atom_site_fract_z
 _atom_site_occupancy
  Hf  Hf0  1  0.197759  0.802241  0.449936  1
  Hf  Hf1  1  0.197759  0.395518  0.449936  1
  Hf  Hf2  1  0.604482  0.802241  0.449936  1
  Hf  Hf3  1  0.802241  0.197759  0.550064  1
  Hf  Hf4  1  0.802241  0.604482  0.550064  1
  Hf  Hf5  1  0.395518  0.197759  0.550064  1
  Hf  Hf6  1  0.802241  0.197759  0.949936  1
  Hf  Hf7  1  0.802241  0.604482  0.949936  1
  Hf  Hf8  1  0.395518  0.197759  0.949936  1
  Hf  Hf9  1  0.197759  0.802241  0.050064  1
  Hf  Hf10  1  0.197759  0.395518  0.050064  1
  Hf  Hf11  1  0.604482  0.802241  0.050064  1
  Hf  Hf12  1  0.537196  0.462804  0.250000  1
  Hf  Hf13  1  0.537196  0.074391  0.250000  1
  Hf  Hf14  1  0.925609  0.462804  0.250000  1
  Hf  Hf15  1  0.462804  0.537196  0.750000  1
  Hf  Hf16  1  0.462804  0.925609  0.750000  1
  Hf  Hf17  1  0.074391  0.537196  0.750000  1
  Ta  Ta18  1  0.889450  0.110550  0.250000  1
  Ta  Ta19  1  0.889450  0.778899  0.250000  1
  Ta  Ta20  1  0.221101  0.110550  0.250000  1
  Ta  Ta21  1  0.110550  0.889450  0.750000  1
  Ta  Ta22  1  0.110550  0.221101  0.750000  1
  Ta  Ta23  1  0.778899  0.889450  0.750000  1
  P  P24  1  0.333333  0.666667  0.250000  1
  P  P25  1  0.666667  0.333333  0.750000  1
  Ir  Ir26  1  0.000000  0.000000  0.500000  1
  Ir  Ir27  1  0.000000  0.000000  0.000000  1
