# generated using pymatgen
data_Dy8Ho12Si15Ag
_symmetry_space_group_name_H-M   'P 1'
_cell_length_a   7.40806214
_cell_length_b   7.66818976
_cell_length_c   14.63608663
_cell_angle_alpha   89.72677482
_cell_angle_beta   89.27595911
_cell_angle_gamma   90.06243027
_symmetry_Int_Tables_number   1
_chemical_formula_structural   Dy8Ho12Si15Ag
_chemical_formula_sum   'Dy8 Ho12 Si15 Ag1'
_cell_volume   831.34738862
_cell_formula_units_Z   1
loop_
 _symmetry_equiv_pos_site_id
 _symmetry_equiv_pos_as_xyz
  1  'x, y, z'
loop_
 _atom_site_type_symbol
 _atom_site_label
 _atom_site_symmetry_multiplicity
 _atom_site_fract_x
 _atom_site_fract_y
 _atom_site_fract_z
 _atom_site_occupancy
  Dy  Dy0  1  0.019983  0.180475  0.099265  1
  Dy  Dy1  1  0.980443  0.820965  0.903008  1
  Dy  Dy2  1  0.480658  0.681141  0.903180  1
  Dy  Dy3  1  0.984239  0.829433  0.598968  1
  Dy  Dy4  1  0.518042  0.318095  0.097426  1
  Dy  Dy5  1  0.012382  0.172967  0.397899  1
  Dy  Dy6  1  0.516845  0.316249  0.399270  1
  Dy  Dy7  1  0.489404  0.685219  0.601128  1
  Ho  Ho8  1  0.163322  0.511232  0.751338  1
  Ho  Ho9  1  0.838598  0.490065  0.251754  1
  Ho  Ho10  1  0.337634  0.007080  0.249907  1
  Ho  Ho11  1  0.665142  0.988735  0.750377  1
  Ho  Ho12  1  0.338767  0.174597  0.623653  1
  Ho  Ho13  1  0.664127  0.821581  0.376645  1
  Ho  Ho14  1  0.168763  0.674267  0.374456  1
  Ho  Ho15  1  0.672197  0.821907  0.122939  1
  Ho  Ho16  1  0.828364  0.325547  0.622726  1
  Ho  Ho17  1  0.327793  0.179579  0.877777  1
  Ho  Ho18  1  0.827043  0.320049  0.878330  1
  Ho  Ho19  1  0.171257  0.679001  0.123060  1
  Si  Si20  1  0.037387  0.111470  0.751286  1
  Si  Si21  1  0.963945  0.892290  0.249124  1
  Si  Si22  1  0.466016  0.604092  0.247839  1
  Si  Si23  1  0.535535  0.395850  0.751708  1
  Si  Si24  1  0.279203  0.875590  0.751469  1
  Si  Si25  1  0.719790  0.126889  0.248062  1
  Si  Si26  1  0.222006  0.369634  0.247830  1
  Si  Si27  1  0.780761  0.627577  0.753365  1
  Si  Si28  1  0.834603  0.531382  0.458776  1
  Si  Si29  1  0.332700  0.966730  0.460207  1
  Si  Si30  1  0.845601  0.531654  0.038658  1
  Si  Si31  1  0.663888  0.032919  0.538336  1
  Si  Si32  1  0.152137  0.468565  0.962447  1
  Si  Si33  1  0.653509  0.029605  0.960468  1
  Si  Si34  1  0.345593  0.969291  0.039733  1
  Ag  Ag35  1  0.162325  0.468280  0.537587  1
