# generated using pymatgen
data_Cs3K13(TiS4)4
_symmetry_space_group_name_H-M   'P 1'
_cell_length_a   8.00651214
_cell_length_b   9.62370513
_cell_length_c   14.81859000
_cell_angle_alpha   90.62864826
_cell_angle_beta   90.74131166
_cell_angle_gamma   90.56813122
_symmetry_Int_Tables_number   1
_chemical_formula_structural   Cs3K13(TiS4)4
_chemical_formula_sum   'Cs3 K13 Ti4 S16'
_cell_volume   1141.58457028
_cell_formula_units_Z   1
loop_
 _symmetry_equiv_pos_site_id
 _symmetry_equiv_pos_as_xyz
  1  'x, y, z'
loop_
 _atom_site_type_symbol
 _atom_site_label
 _atom_site_symmetry_multiplicity
 _atom_site_fract_x
 _atom_site_fract_y
 _atom_site_fract_z
 _atom_site_occupancy
  Cs  Cs0  1  0.000000  0.000000  0.000000  1
  Cs  Cs1  1  0.500000  0.000000  0.500000  1
  Cs  Cs2  1  0.000000  0.500000  0.000000  1
  K  K3  1  0.500000  0.500000  0.500000  1
  K  K4  1  0.976458  0.751351  0.431098  1
  K  K5  1  0.472587  0.250966  0.069325  1
  K  K6  1  0.023542  0.248649  0.568902  1
  K  K7  1  0.527413  0.749034  0.930675  1
  K  K8  1  0.825817  0.061397  0.272906  1
  K  K9  1  0.325855  0.946527  0.230905  1
  K  K10  1  0.169504  0.552588  0.721873  1
  K  K11  1  0.674482  0.438916  0.770135  1
  K  K12  1  0.174183  0.938603  0.727094  1
  K  K13  1  0.674145  0.053473  0.769095  1
  K  K14  1  0.830496  0.447412  0.278127  1
  K  K15  1  0.325518  0.561084  0.229865  1
  Ti  Ti16  1  0.769920  0.743005  0.668985  1
  Ti  Ti17  1  0.230080  0.256995  0.331015  1
  Ti  Ti18  1  0.721274  0.750230  0.175660  1
  Ti  Ti19  1  0.278726  0.249770  0.824340  1
  S  S20  1  0.993509  0.247466  0.815191  1
  S  S21  1  0.514495  0.254777  0.324412  1
  S  S22  1  0.485505  0.745223  0.675588  1
  S  S23  1  0.006491  0.752534  0.184809  1
  S  S24  1  0.630171  0.557008  0.101796  1
  S  S25  1  0.149357  0.449779  0.407209  1
  S  S26  1  0.371909  0.059917  0.898245  1
  S  S27  1  0.868753  0.934195  0.599081  1
  S  S28  1  0.369829  0.442992  0.898204  1
  S  S29  1  0.850643  0.550221  0.592791  1
  S  S30  1  0.628091  0.940083  0.101755  1
  S  S31  1  0.131247  0.065805  0.400919  1
  S  S32  1  0.618469  0.750491  0.319641  1
  S  S33  1  0.122040  0.256614  0.186136  1
  S  S34  1  0.381531  0.249509  0.680359  1
  S  S35  1  0.877960  0.743386  0.813864  1
