# generated using pymatgen
data_Th3Mg3Pt2Rh
_symmetry_space_group_name_H-M   'P 1'
_cell_length_a   7.61672700
_cell_length_b   7.61672618
_cell_length_c   4.06127900
_cell_angle_alpha   90.00000000
_cell_angle_beta   90.00000000
_cell_angle_gamma   119.99999051
_symmetry_Int_Tables_number   1
_chemical_formula_structural   Th3Mg3Pt2Rh
_chemical_formula_sum   'Th3 Mg3 Pt2 Rh1'
_cell_volume   204.04700841
_cell_formula_units_Z   1
loop_
 _symmetry_equiv_pos_site_id
 _symmetry_equiv_pos_as_xyz
  1  'x, y, z'
loop_
 _atom_site_type_symbol
 _atom_site_label
 _atom_site_symmetry_multiplicity
 _atom_site_fract_x
 _atom_site_fract_y
 _atom_site_fract_z
 _atom_site_occupancy
  Th  Th0  1  0.994343  0.414190  0.500000  1
  Th  Th1  1  0.585810  0.580154  0.500000  1
  Th  Th2  1  0.419846  0.005657  0.500000  1
  Mg  Mg3  1  0.001863  0.762651  0.000000  1
  Mg  Mg4  1  0.237349  0.239211  0.000000  1
  Mg  Mg5  1  0.760789  0.998137  0.000000  1
  Pt  Pt6  1  0.333333  0.666667  0.000000  1
  Pt  Pt7  1  0.000000  0.000000  0.500000  1
  Rh  Rh8  1  0.666667  0.333333  0.000000  1
