# generated using pymatgen
data_ThS27
_symmetry_space_group_name_H-M   'P 1'
_cell_length_a   14.72902023
_cell_length_b   14.72902035
_cell_length_c   14.72902082
_cell_angle_alpha   119.04832603
_cell_angle_beta   119.04831915
_cell_angle_gamma   119.04832576
_symmetry_Int_Tables_number   1
_chemical_formula_structural   ThS27
_chemical_formula_sum   'Th1 S27'
_cell_volume   807.04992883
_cell_formula_units_Z   1
loop_
 _symmetry_equiv_pos_site_id
 _symmetry_equiv_pos_as_xyz
  1  'x, y, z'
loop_
 _atom_site_type_symbol
 _atom_site_label
 _atom_site_symmetry_multiplicity
 _atom_site_fract_x
 _atom_site_fract_y
 _atom_site_fract_z
 _atom_site_occupancy
  Th  Th0  1  0.525741  0.525741  0.525741  1
  S  S1  1  0.803265  0.544057  0.544057  1
  S  S2  1  0.544057  0.544057  0.803265  1
  S  S3  1  0.544057  0.803265  0.544057  1
  S  S4  1  0.237428  0.371089  0.611157  1
  S  S5  1  0.371158  0.963456  0.371158  1
  S  S6  1  0.371158  0.371158  0.963456  1
  S  S7  1  0.963456  0.371158  0.371158  1
  S  S8  1  0.118924  0.721010  0.250099  1
  S  S9  1  0.250099  0.118924  0.721010  1
  S  S10  1  0.721010  0.250099  0.118924  1
  S  S11  1  0.721010  0.118924  0.250099  1
  S  S12  1  0.250099  0.721010  0.118924  1
  S  S13  1  0.118924  0.250099  0.721010  1
  S  S14  1  0.384197  0.901062  0.566426  1
  S  S15  1  0.566426  0.384197  0.901062  1
  S  S16  1  0.901062  0.566426  0.384197  1
  S  S17  1  0.901062  0.384197  0.566426  1
  S  S18  1  0.566426  0.901062  0.384197  1
  S  S19  1  0.384197  0.566426  0.901062  1
  S  S20  1  0.237428  0.611157  0.371089  1
  S  S21  1  0.371089  0.237428  0.611157  1
  S  S22  1  0.611157  0.371089  0.237428  1
  S  S23  1  0.611157  0.237428  0.371089  1
  S  S24  1  0.371089  0.611157  0.237428  1
  S  S25  1  0.943925  0.067846  0.067846  1
  S  S26  1  0.067846  0.067846  0.943925  1
  S  S27  1  0.067846  0.943925  0.067846  1
