# generated using pymatgen
data_TbDy(SiAu2)4
_symmetry_space_group_name_H-M   'P 1'
_cell_length_a   4.41872800
_cell_length_b   4.41872800
_cell_length_c   27.03576100
_cell_angle_alpha   90.00000000
_cell_angle_beta   90.00000000
_cell_angle_gamma   90.00000000
_symmetry_Int_Tables_number   1
_chemical_formula_structural   TbDy(SiAu2)4
_chemical_formula_sum   'Tb2 Dy2 Si8 Au16'
_cell_volume   527.87748187
_cell_formula_units_Z   2
loop_
 _symmetry_equiv_pos_site_id
 _symmetry_equiv_pos_as_xyz
  1  'x, y, z'
loop_
 _atom_site_type_symbol
 _atom_site_label
 _atom_site_symmetry_multiplicity
 _atom_site_fract_x
 _atom_site_fract_y
 _atom_site_fract_z
 _atom_site_occupancy
  Tb  Tb0  1  0.000000  0.500000  0.749321  1
  Tb  Tb1  1  0.500000  0.000000  0.250679  1
  Dy  Dy2  1  0.500000  0.500000  0.000000  1
  Dy  Dy3  1  0.500000  0.500000  0.500000  1
  Si  Si4  1  0.000000  0.000000  0.956804  1
  Si  Si5  1  0.000000  0.000000  0.456951  1
  Si  Si6  1  0.500000  0.000000  0.792642  1
  Si  Si7  1  0.500000  0.000000  0.706074  1
  Si  Si8  1  0.000000  0.500000  0.207358  1
  Si  Si9  1  0.000000  0.500000  0.293926  1
  Si  Si10  1  0.000000  0.000000  0.043196  1
  Si  Si11  1  0.000000  0.000000  0.543049  1
  Au  Au12  1  0.500000  0.000000  0.085962  1
  Au  Au13  1  0.500000  0.500000  0.663164  1
  Au  Au14  1  0.500000  0.500000  0.835694  1
  Au  Au15  1  0.000000  0.500000  0.085377  1
  Au  Au16  1  0.500000  0.000000  0.914623  1
  Au  Au17  1  0.000000  0.000000  0.664274  1
  Au  Au18  1  0.000000  0.500000  0.415204  1
  Au  Au19  1  0.500000  0.500000  0.336836  1
  Au  Au20  1  0.500000  0.000000  0.414603  1
  Au  Au21  1  0.000000  0.000000  0.335726  1
  Au  Au22  1  0.000000  0.000000  0.165361  1
  Au  Au23  1  0.500000  0.000000  0.584796  1
  Au  Au24  1  0.000000  0.000000  0.834639  1
  Au  Au25  1  0.500000  0.500000  0.164306  1
  Au  Au26  1  0.000000  0.500000  0.585397  1
  Au  Au27  1  0.000000  0.500000  0.914038  1
