# generated using pymatgen
data_Tm3Ga2SiPt2
_symmetry_space_group_name_H-M   'P 1'
_cell_length_a   5.57405527
_cell_length_b   5.57405691
_cell_length_c   14.33613700
_cell_angle_alpha   90.00000000
_cell_angle_beta   90.00000000
_cell_angle_gamma   134.43739948
_symmetry_Int_Tables_number   1
_chemical_formula_structural   Tm3Ga2SiPt2
_chemical_formula_sum   'Tm6 Ga4 Si2 Pt4'
_cell_volume   318.04066298
_cell_formula_units_Z   2
loop_
 _symmetry_equiv_pos_site_id
 _symmetry_equiv_pos_as_xyz
  1  'x, y, z'
loop_
 _atom_site_type_symbol
 _atom_site_label
 _atom_site_symmetry_multiplicity
 _atom_site_fract_x
 _atom_site_fract_y
 _atom_site_fract_z
 _atom_site_occupancy
  Tm  Tm0  1  0.915069  0.084931  0.387866  1
  Tm  Tm1  1  0.084931  0.915069  0.612134  1
  Tm  Tm2  1  0.915069  0.084931  0.112134  1
  Tm  Tm3  1  0.084931  0.915069  0.887866  1
  Tm  Tm4  1  0.639302  0.360698  0.250000  1
  Tm  Tm5  1  0.360698  0.639302  0.750000  1
  Ga  Ga6  1  0.619979  0.380021  0.465449  1
  Ga  Ga7  1  0.380021  0.619979  0.534551  1
  Ga  Ga8  1  0.619979  0.380021  0.034551  1
  Ga  Ga9  1  0.380021  0.619979  0.965449  1
  Si  Si10  1  0.346571  0.653429  0.250000  1
  Si  Si11  1  0.653429  0.346571  0.750000  1
  Pt  Pt12  1  0.795811  0.204189  0.890388  1
  Pt  Pt13  1  0.204189  0.795811  0.109612  1
  Pt  Pt14  1  0.795811  0.204189  0.609612  1
  Pt  Pt15  1  0.204189  0.795811  0.390388  1
