# generated using pymatgen
data_Ho4ErMoRhO12
_symmetry_space_group_name_H-M   'P 1'
_cell_length_a   6.81527353
_cell_length_b   6.81527287
_cell_length_c   7.43082510
_cell_angle_alpha   73.92237178
_cell_angle_beta   73.92237348
_cell_angle_gamma   49.91984528
_symmetry_Int_Tables_number   1
_chemical_formula_structural   Ho4ErMoRhO12
_chemical_formula_sum   'Ho4 Er1 Mo1 Rh1 O12'
_cell_volume   251.46414253
_cell_formula_units_Z   1
loop_
 _symmetry_equiv_pos_site_id
 _symmetry_equiv_pos_as_xyz
  1  'x, y, z'
loop_
 _atom_site_type_symbol
 _atom_site_label
 _atom_site_symmetry_multiplicity
 _atom_site_fract_x
 _atom_site_fract_y
 _atom_site_fract_z
 _atom_site_occupancy
  Ho  Ho0  1  0.317304  0.286891  0.359169  1
  Ho  Ho1  1  0.713109  0.682696  0.640831  1
  Ho  Ho2  1  0.318726  0.305672  0.826899  1
  Ho  Ho3  1  0.694328  0.681274  0.173101  1
  Er  Er4  1  0.007899  0.992101  0.500000  1
  Mo  Mo5  1  0.203673  0.796327  0.000000  1
  Rh  Rh6  1  0.754524  0.245476  0.000000  1
  O  O7  1  0.911805  0.437336  0.913091  1
  O  O8  1  0.414949  0.903982  0.915364  1
  O  O9  1  0.096018  0.585051  0.084636  1
  O  O10  1  0.562664  0.088195  0.086909  1
  O  O11  1  0.108467  0.593120  0.568369  1
  O  O12  1  0.601766  0.087887  0.576229  1
  O  O13  1  0.912113  0.398234  0.423771  1
  O  O14  1  0.406880  0.891533  0.431631  1
  O  O15  1  0.997945  0.998694  0.799372  1
  O  O16  1  0.001306  0.002055  0.200628  1
  O  O17  1  0.488696  0.512174  0.819517  1
  O  O18  1  0.487826  0.511304  0.180483  1
