# generated using pymatgen
data_YTmPb4
_symmetry_space_group_name_H-M   'P 1'
_cell_length_a   8.52941239
_cell_length_b   8.52941278
_cell_length_c   4.52819500
_cell_angle_alpha   90.00000000
_cell_angle_beta   90.00000000
_cell_angle_gamma   148.54027750
_symmetry_Int_Tables_number   1
_chemical_formula_structural   YTmPb4
_chemical_formula_sum   'Y1 Tm1 Pb4'
_cell_volume   171.92929129
_cell_formula_units_Z   1
loop_
 _symmetry_equiv_pos_site_id
 _symmetry_equiv_pos_as_xyz
  1  'x, y, z'
loop_
 _atom_site_type_symbol
 _atom_site_label
 _atom_site_symmetry_multiplicity
 _atom_site_fract_x
 _atom_site_fract_y
 _atom_site_fract_z
 _atom_site_occupancy
  Y  Y0  1  0.405154  0.594846  0.749999  1
  Tm  Tm1  1  0.595371  0.404629  0.250000  1
  Pb  Pb2  1  0.931573  0.068427  0.250000  1
  Pb  Pb3  1  0.248020  0.751980  0.250000  1
  Pb  Pb4  1  0.750798  0.249202  0.749999  1
  Pb  Pb5  1  0.069083  0.930917  0.749999  1
