# generated using pymatgen
data_HoThCo2(Ni3B)2
_symmetry_space_group_name_H-M   'P 1'
_cell_length_a   4.98066740
_cell_length_b   4.97722536
_cell_length_c   6.97247500
_cell_angle_alpha   90.00000000
_cell_angle_beta   90.00000000
_cell_angle_gamma   119.97714471
_symmetry_Int_Tables_number   1
_chemical_formula_structural   HoThCo2(Ni3B)2
_chemical_formula_sum   'Ho1 Th1 Co2 Ni6 B2'
_cell_volume   149.72434375
_cell_formula_units_Z   1
loop_
 _symmetry_equiv_pos_site_id
 _symmetry_equiv_pos_as_xyz
  1  'x, y, z'
loop_
 _atom_site_type_symbol
 _atom_site_label
 _atom_site_symmetry_multiplicity
 _atom_site_fract_x
 _atom_site_fract_y
 _atom_site_fract_z
 _atom_site_occupancy
  Ho  Ho0  1  0.000000  0.000000  0.999507  1
  Th  Th1  1  0.000000  0.000000  0.509034  1
  Co  Co2  1  0.500000  0.000000  0.796134  1
  Co  Co3  1  0.500000  0.500000  0.796134  1
  Ni  Ni4  1  0.000000  0.500000  0.206949  1
  Ni  Ni5  1  0.000000  0.500000  0.791055  1
  Ni  Ni6  1  0.340680  0.670340  0.499465  1
  Ni  Ni7  1  0.659320  0.329660  0.499465  1
  Ni  Ni8  1  0.500000  0.000000  0.204719  1
  Ni  Ni9  1  0.500000  0.500000  0.204719  1
  B  B10  1  0.336253  0.668127  0.996410  1
  B  B11  1  0.663747  0.331873  0.996410  1
