# generated using pymatgen
data_Er7LuSe12
_symmetry_space_group_name_H-M   'P 1'
_cell_length_a   7.04311378
_cell_length_b   7.02964075
_cell_length_c   12.81052922
_cell_angle_alpha   100.67612843
_cell_angle_beta   100.71795158
_cell_angle_gamma   108.91027272
_symmetry_Int_Tables_number   1
_chemical_formula_structural   Er7LuSe12
_chemical_formula_sum   'Er7 Lu1 Se12'
_cell_volume   568.61693664
_cell_formula_units_Z   1
loop_
 _symmetry_equiv_pos_site_id
 _symmetry_equiv_pos_as_xyz
  1  'x, y, z'
loop_
 _atom_site_type_symbol
 _atom_site_label
 _atom_site_symmetry_multiplicity
 _atom_site_fract_x
 _atom_site_fract_y
 _atom_site_fract_z
 _atom_site_occupancy
  Er  Er0  1  0.622296  0.872322  0.244599  1
  Er  Er1  1  0.127499  0.377505  0.255013  1
  Er  Er2  1  0.208750  0.958732  0.417467  1
  Er  Er3  1  0.791260  0.041276  0.582518  1
  Er  Er4  1  0.872609  0.622550  0.745173  1
  Er  Er5  1  0.377978  0.127913  0.755879  1
  Er  Er6  1  0.958873  0.208897  0.917726  1
  Lu  Lu7  1  0.041406  0.791454  0.082890  1
  Se  Se8  1  0.806252  0.045690  0.087359  1
  Se  Se9  1  0.281177  0.541842  0.087356  1
  Se  Se10  1  0.365081  0.115389  0.248274  1
  Se  Se11  1  0.882890  0.632911  0.248205  1
  Se  Se12  1  0.951319  0.196236  0.412328  1
  Se  Se13  1  0.461040  0.715891  0.412248  1
  Se  Se14  1  0.538814  0.283879  0.587822  1
  Se  Se15  1  0.049015  0.804124  0.587728  1
  Se  Se16  1  0.118213  0.367753  0.750104  1
  Se  Se17  1  0.632095  0.882110  0.750067  1
  Se  Se18  1  0.718039  0.463133  0.913604  1
  Se  Se19  1  0.195392  0.950394  0.913640  1
