# generated using pymatgen
data_Dy8VSi16W11
_symmetry_space_group_name_H-M   'P 1'
_cell_length_a   6.86976592
_cell_length_b   6.86976515
_cell_length_c   12.79071516
_cell_angle_alpha   90.09280079
_cell_angle_beta   89.90720014
_cell_angle_gamma   90.15857022
_symmetry_Int_Tables_number   1
_chemical_formula_structural   Dy8VSi16W11
_chemical_formula_sum   'Dy8 V1 Si16 W11'
_cell_volume   603.63700842
_cell_formula_units_Z   1
loop_
 _symmetry_equiv_pos_site_id
 _symmetry_equiv_pos_as_xyz
  1  'x, y, z'
loop_
 _atom_site_type_symbol
 _atom_site_label
 _atom_site_symmetry_multiplicity
 _atom_site_fract_x
 _atom_site_fract_y
 _atom_site_fract_z
 _atom_site_occupancy
  Dy  Dy0  1  0.001080  0.663030  0.031389  1
  Dy  Dy1  1  0.998069  0.337163  0.531007  1
  Dy  Dy2  1  0.663030  0.001080  0.968611  1
  Dy  Dy3  1  0.162808  0.498852  0.781101  1
  Dy  Dy4  1  0.837399  0.502502  0.280340  1
  Dy  Dy5  1  0.498852  0.162808  0.218899  1
  Dy  Dy6  1  0.502502  0.837399  0.719660  1
  Dy  Dy7  1  0.337163  0.998069  0.468993  1
  V  V8  1  0.333061  0.333061  0.000000  1
  Si  Si9  1  0.034636  0.712572  0.436778  1
  Si  Si10  1  0.963781  0.290699  0.935546  1
  Si  Si11  1  0.712572  0.034636  0.563222  1
  Si  Si12  1  0.212377  0.462783  0.184798  1
  Si  Si13  1  0.788663  0.536107  0.687074  1
  Si  Si14  1  0.462783  0.212377  0.815202  1
  Si  Si15  1  0.536107  0.788663  0.312926  1
  Si  Si16  1  0.290699  0.963781  0.064454  1
  Si  Si17  1  0.798823  0.875261  0.182946  1
  Si  Si18  1  0.298550  0.624730  0.566306  1
  Si  Si19  1  0.700162  0.372303  0.065049  1
  Si  Si20  1  0.624730  0.298550  0.433694  1
  Si  Si21  1  0.372303  0.700162  0.934951  1
  Si  Si22  1  0.125420  0.202403  0.315488  1
  Si  Si23  1  0.202403  0.125420  0.684512  1
  Si  Si24  1  0.875261  0.798823  0.817054  1
  W  W25  1  0.334109  0.501366  0.375482  1
  W  W26  1  0.834072  0.001391  0.372229  1
  W  W27  1  0.002445  0.165830  0.123831  1
  W  W28  1  0.001391  0.834072  0.627771  1
  W  W29  1  0.501366  0.334109  0.624518  1
  W  W30  1  0.165830  0.002445  0.876169  1
  W  W31  1  0.666693  0.666693  0.500000  1
  W  W32  1  0.832993  0.165883  0.748508  1
  W  W33  1  0.165883  0.832993  0.251492  1
  W  W34  1  0.500520  0.661463  0.122556  1
  W  W35  1  0.661463  0.500520  0.877444  1
