# generated using pymatgen
data_Nd4Al6TcRu
_symmetry_space_group_name_H-M   'P 1'
_cell_length_a   5.67647200
_cell_length_b   5.67647290
_cell_length_c   8.95916300
_cell_angle_alpha   90.00000000
_cell_angle_beta   90.00000000
_cell_angle_gamma   119.99999473
_symmetry_Int_Tables_number   1
_chemical_formula_structural   Nd4Al6TcRu
_chemical_formula_sum   'Nd4 Al6 Tc1 Ru1'
_cell_volume   250.00872309
_cell_formula_units_Z   1
loop_
 _symmetry_equiv_pos_site_id
 _symmetry_equiv_pos_as_xyz
  1  'x, y, z'
loop_
 _atom_site_type_symbol
 _atom_site_label
 _atom_site_symmetry_multiplicity
 _atom_site_fract_x
 _atom_site_fract_y
 _atom_site_fract_z
 _atom_site_occupancy
  Nd  Nd0  1  0.333333  0.666667  0.949148  1
  Nd  Nd1  1  0.666667  0.333333  0.050852  1
  Nd  Nd2  1  0.666667  0.333333  0.449768  1
  Nd  Nd3  1  0.333333  0.666667  0.550232  1
  Al  Al4  1  0.840843  0.159157  0.748259  1
  Al  Al5  1  0.840843  0.681687  0.748259  1
  Al  Al6  1  0.318313  0.159157  0.748259  1
  Al  Al7  1  0.159157  0.840843  0.251741  1
  Al  Al8  1  0.159157  0.318313  0.251741  1
  Al  Al9  1  0.681687  0.840843  0.251741  1
  Tc  Tc10  1  0.000000  0.000000  0.000000  1
  Ru  Ru11  1  0.000000  0.000000  0.500000  1
