# generated using pymatgen
data_Er2V2Ni10P7
_symmetry_space_group_name_H-M   'P 1'
_cell_length_a   9.08197741
_cell_length_b   9.10970248
_cell_length_c   3.64249600
_cell_angle_alpha   90.00000000
_cell_angle_beta   90.00000000
_cell_angle_gamma   120.06983517
_symmetry_Int_Tables_number   1
_chemical_formula_structural   Er2V2Ni10P7
_chemical_formula_sum   'Er2 V2 Ni10 P7'
_cell_volume   260.80041617
_cell_formula_units_Z   1
loop_
 _symmetry_equiv_pos_site_id
 _symmetry_equiv_pos_as_xyz
  1  'x, y, z'
loop_
 _atom_site_type_symbol
 _atom_site_label
 _atom_site_symmetry_multiplicity
 _atom_site_fract_x
 _atom_site_fract_y
 _atom_site_fract_z
 _atom_site_occupancy
  Er  Er0  1  0.998797  0.996247  0.000000  1
  Er  Er1  1  0.334356  0.667714  0.500000  1
  V  V2  1  0.548327  0.430702  0.500000  1
  V  V3  1  0.569628  0.118702  0.500000  1
  Ni  Ni4  1  0.103035  0.704954  0.000000  1
  Ni  Ni5  1  0.292995  0.394348  0.000000  1
  Ni  Ni6  1  0.606165  0.900863  0.000000  1
  Ni  Ni7  1  0.826138  0.212101  0.000000  1
  Ni  Ni8  1  0.791235  0.611983  0.000000  1
  Ni  Ni9  1  0.382475  0.175573  0.000000  1
  Ni  Ni10  1  0.051291  0.283824  0.500000  1
  Ni  Ni11  1  0.719468  0.770900  0.500000  1
  Ni  Ni12  1  0.228600  0.947489  0.500000  1
  Ni  Ni13  1  0.884755  0.455367  0.500000  1
  P  P14  1  0.075377  0.449033  0.000000  1
  P  P15  1  0.552160  0.627834  0.000000  1
  P  P16  1  0.371965  0.924707  0.000000  1
  P  P17  1  0.781050  0.041533  0.500000  1
  P  P18  1  0.955527  0.736000  0.500000  1
  P  P19  1  0.259847  0.217221  0.500000  1
  P  P20  1  0.666811  0.332900  0.000000  1
