# generated using pymatgen
data_Ba21Fe14O43
_symmetry_space_group_name_H-M   'P 1'
_cell_length_a   12.47865845
_cell_length_b   12.47865884
_cell_length_c   9.11619700
_cell_angle_alpha   85.49082672
_cell_angle_beta   85.49082658
_cell_angle_gamma   117.07228342
_symmetry_Int_Tables_number   1
_chemical_formula_structural   Ba21Fe14O43
_chemical_formula_sum   'Ba21 Fe14 O43'
_cell_volume   1249.59027911
_cell_formula_units_Z   1
loop_
 _symmetry_equiv_pos_site_id
 _symmetry_equiv_pos_as_xyz
  1  'x, y, z'
loop_
 _atom_site_type_symbol
 _atom_site_label
 _atom_site_symmetry_multiplicity
 _atom_site_fract_x
 _atom_site_fract_y
 _atom_site_fract_z
 _atom_site_occupancy
  Ba  Ba0  1  0.709043  0.709043  0.860304  1
  Ba  Ba1  1  0.532013  0.892178  0.858093  1
  Ba  Ba2  1  0.892178  0.532013  0.858093  1
  Ba  Ba3  1  0.000000  0.000000  0.000000  1
  Ba  Ba4  1  0.182408  0.817592  0.000000  1
  Ba  Ba5  1  0.817592  0.182408  0.000000  1
  Ba  Ba6  1  0.751382  0.390109  0.282030  1
  Ba  Ba7  1  0.107822  0.467987  0.141907  1
  Ba  Ba8  1  0.390109  0.751382  0.282030  1
  Ba  Ba9  1  0.569230  0.569230  0.278939  1
  Ba  Ba10  1  0.290957  0.290957  0.139696  1
  Ba  Ba11  1  0.467987  0.107822  0.141907  1
  Ba  Ba12  1  0.324101  0.961500  0.570799  1
  Ba  Ba13  1  0.961500  0.324101  0.570799  1
  Ba  Ba14  1  0.038500  0.675899  0.429201  1
  Ba  Ba15  1  0.855604  0.855604  0.429570  1
  Ba  Ba16  1  0.675899  0.038500  0.429201  1
  Ba  Ba17  1  0.144396  0.144396  0.570430  1
  Ba  Ba18  1  0.248618  0.609891  0.717970  1
  Ba  Ba19  1  0.609891  0.248618  0.717970  1
  Ba  Ba20  1  0.430770  0.430770  0.721061  1
  Fe  Fe21  1  0.317209  0.108288  0.857007  1
  Fe  Fe22  1  0.108288  0.317209  0.857007  1
  Fe  Fe23  1  0.593666  0.406334  0.000000  1
  Fe  Fe24  1  0.891712  0.682791  0.142993  1
  Fe  Fe25  1  0.682791  0.891712  0.142993  1
  Fe  Fe26  1  0.406334  0.593666  0.000000  1
  Fe  Fe27  1  0.462131  0.252848  0.431341  1
  Fe  Fe28  1  0.175239  0.968254  0.285816  1
  Fe  Fe29  1  0.252848  0.462131  0.431341  1
  Fe  Fe30  1  0.968254  0.175239  0.285816  1
  Fe  Fe31  1  0.747152  0.537869  0.568659  1
  Fe  Fe32  1  0.537869  0.747152  0.568659  1
  Fe  Fe33  1  0.824761  0.031746  0.714184  1
  Fe  Fe34  1  0.031746  0.824761  0.714184  1
  O  O35  1  0.772148  0.946793  0.926307  1
  O  O36  1  0.946793  0.772148  0.926307  1
  O  O37  1  0.403724  0.016763  0.856937  1
  O  O38  1  0.016763  0.403724  0.856937  1
  O  O39  1  0.741182  0.560515  0.074418  1
  O  O40  1  0.258818  0.439485  0.925582  1
  O  O41  1  0.439485  0.258818  0.925582  1
  O  O42  1  0.314426  0.685574  0.000000  1
  O  O43  1  0.685574  0.314426  0.000000  1
  O  O44  1  0.560515  0.741182  0.074418  1
  O  O45  1  0.500000  0.500000  0.000000  1
  O  O46  1  0.015149  0.840434  0.214549  1
  O  O47  1  0.515995  0.335277  0.223453  1
  O  O48  1  0.335277  0.515995  0.223453  1
  O  O49  1  0.227852  0.053207  0.073693  1
  O  O50  1  0.983237  0.596276  0.143063  1
  O  O51  1  0.053207  0.227852  0.073693  1
  O  O52  1  0.840434  0.015149  0.214549  1
  O  O53  1  0.596276  0.983237  0.143063  1
  O  O54  1  0.124657  0.301464  0.357140  1
  O  O55  1  0.301464  0.124657  0.357140  1
  O  O56  1  0.626660  0.801507  0.358416  1
  O  O57  1  0.162577  0.549572  0.432944  1
  O  O58  1  0.261769  0.877080  0.285543  1
  O  O59  1  0.801507  0.626660  0.358416  1
  O  O60  1  0.549572  0.162577  0.432944  1
  O  O61  1  0.877080  0.261769  0.285543  1
  O  O62  1  0.411537  0.588463  0.500000  1
  O  O63  1  0.450428  0.837423  0.567056  1
  O  O64  1  0.588463  0.411537  0.500000  1
  O  O65  1  0.913788  0.086212  0.500000  1
  O  O66  1  0.198493  0.373340  0.641584  1
  O  O67  1  0.373340  0.198493  0.641584  1
  O  O68  1  0.086212  0.913788  0.500000  1
  O  O69  1  0.837423  0.450428  0.567056  1
  O  O70  1  0.875343  0.698536  0.642860  1
  O  O71  1  0.698536  0.875343  0.642860  1
  O  O72  1  0.738231  0.122920  0.714457  1
  O  O73  1  0.159566  0.984851  0.785451  1
  O  O74  1  0.122920  0.738231  0.714457  1
  O  O75  1  0.984851  0.159566  0.785451  1
  O  O76  1  0.664723  0.484005  0.776547  1
  O  O77  1  0.484005  0.664723  0.776547  1
