# generated using pymatgen
data_Dy4ThFeSb2
_symmetry_space_group_name_H-M   'P 1'
_cell_length_a   8.03183400
_cell_length_b   8.64539800
_cell_length_c   12.26689200
_cell_angle_alpha   90.00000000
_cell_angle_beta   90.00000000
_cell_angle_gamma   90.00000000
_symmetry_Int_Tables_number   1
_chemical_formula_structural   Dy4ThFeSb2
_chemical_formula_sum   'Dy16 Th4 Fe4 Sb8'
_cell_volume   851.79337308
_cell_formula_units_Z   4
loop_
 _symmetry_equiv_pos_site_id
 _symmetry_equiv_pos_as_xyz
  1  'x, y, z'
loop_
 _atom_site_type_symbol
 _atom_site_label
 _atom_site_symmetry_multiplicity
 _atom_site_fract_x
 _atom_site_fract_y
 _atom_site_fract_z
 _atom_site_occupancy
  Dy  Dy0  1  0.158911  0.752017  0.203491  1
  Dy  Dy1  1  0.341089  0.747983  0.703491  1
  Dy  Dy2  1  0.841089  0.252017  0.796509  1
  Dy  Dy3  1  0.658911  0.247983  0.296509  1
  Dy  Dy4  1  0.457598  0.748125  0.999284  1
  Dy  Dy5  1  0.042402  0.751875  0.499284  1
  Dy  Dy6  1  0.542402  0.248125  0.000716  1
  Dy  Dy7  1  0.957598  0.251875  0.500716  1
  Dy  Dy8  1  0.623080  0.745540  0.301018  1
  Dy  Dy9  1  0.876920  0.754460  0.801018  1
  Dy  Dy10  1  0.376920  0.245540  0.698982  1
  Dy  Dy11  1  0.123080  0.254460  0.198982  1
  Dy  Dy12  1  0.182481  0.462039  0.933584  1
  Dy  Dy13  1  0.317519  0.037961  0.433584  1
  Dy  Dy14  1  0.817519  0.962039  0.066416  1
  Dy  Dy15  1  0.682481  0.537961  0.566416  1
  Th  Th16  1  0.825682  0.531565  0.059912  1
  Th  Th17  1  0.674318  0.968435  0.559912  1
  Th  Th18  1  0.174318  0.031565  0.940088  1
  Th  Th19  1  0.325682  0.468435  0.440088  1
  Fe  Fe20  1  0.423409  0.733016  0.483703  1
  Fe  Fe21  1  0.076591  0.766984  0.983703  1
  Fe  Fe22  1  0.576591  0.233016  0.516297  1
  Fe  Fe23  1  0.923409  0.266984  0.016297  1
  Sb  Sb24  1  0.926360  0.511359  0.327290  1
  Sb  Sb25  1  0.573640  0.988641  0.827290  1
  Sb  Sb26  1  0.073640  0.011359  0.672710  1
  Sb  Sb27  1  0.426360  0.488641  0.172710  1
  Sb  Sb28  1  0.071397  0.491284  0.674953  1
  Sb  Sb29  1  0.428603  0.008716  0.174953  1
  Sb  Sb30  1  0.928603  0.991284  0.325047  1
  Sb  Sb31  1  0.571397  0.508716  0.825047  1
