# generated using pymatgen
data_La3CdAg2Pd3
_symmetry_space_group_name_H-M   'P 1'
_cell_length_a   7.74663975
_cell_length_b   7.64017520
_cell_length_c   4.14304700
_cell_angle_alpha   90.00000000
_cell_angle_beta   90.00000000
_cell_angle_gamma   119.54641999
_symmetry_Int_Tables_number   1
_chemical_formula_structural   La3CdAg2Pd3
_chemical_formula_sum   'La3 Cd1 Ag2 Pd3'
_cell_volume   213.32121769
_cell_formula_units_Z   1
loop_
 _symmetry_equiv_pos_site_id
 _symmetry_equiv_pos_as_xyz
  1  'x, y, z'
loop_
 _atom_site_type_symbol
 _atom_site_label
 _atom_site_symmetry_multiplicity
 _atom_site_fract_x
 _atom_site_fract_y
 _atom_site_fract_z
 _atom_site_occupancy
  La  La0  1  0.408201  0.404741  0.500000  1
  La  La1  1  0.591799  0.996540  0.500000  1
  La  La2  1  0.000000  0.604370  0.500000  1
  Cd  Cd3  1  0.000000  0.245644  0.000000  1
  Ag  Ag4  1  0.750910  0.750669  0.000000  1
  Ag  Ag5  1  0.249090  0.999759  0.000000  1
  Pd  Pd6  1  0.667241  0.331134  0.000000  1
  Pd  Pd7  1  0.332759  0.663894  0.000000  1
  Pd  Pd8  1  0.000000  0.003249  0.500000  1
