# generated using pymatgen
data_YbSmGa9OsPd2
_symmetry_space_group_name_H-M   'P 1'
_cell_length_a   7.65952068
_cell_length_b   7.65951969
_cell_length_c   9.61307200
_cell_angle_alpha   90.00000000
_cell_angle_beta   90.00000000
_cell_angle_gamma   120.06432707
_symmetry_Int_Tables_number   1
_chemical_formula_structural   YbSmGa9OsPd2
_chemical_formula_sum   'Yb2 Sm2 Ga18 Os2 Pd4'
_cell_volume   488.10592691
_cell_formula_units_Z   2
loop_
 _symmetry_equiv_pos_site_id
 _symmetry_equiv_pos_as_xyz
  1  'x, y, z'
loop_
 _atom_site_type_symbol
 _atom_site_label
 _atom_site_symmetry_multiplicity
 _atom_site_fract_x
 _atom_site_fract_y
 _atom_site_fract_z
 _atom_site_occupancy
  Yb  Yb0  1  0.667413  0.994591  0.750000  1
  Yb  Yb1  1  0.005409  0.332587  0.250000  1
  Sm  Sm2  1  0.331328  0.001442  0.250000  1
  Sm  Sm3  1  0.998558  0.668672  0.750000  1
  Ga  Ga4  1  0.340065  0.005600  0.917882  1
  Ga  Ga5  1  0.994400  0.659935  0.082118  1
  Ga  Ga6  1  0.340065  0.005600  0.582118  1
  Ga  Ga7  1  0.994400  0.659935  0.417882  1
  Ga  Ga8  1  0.669689  0.006598  0.077784  1
  Ga  Ga9  1  0.993402  0.330311  0.922216  1
  Ga  Ga10  1  0.669689  0.006598  0.422216  1
  Ga  Ga11  1  0.993402  0.330311  0.577784  1
  Ga  Ga12  1  0.663505  0.662550  0.935872  1
  Ga  Ga13  1  0.337450  0.336495  0.064128  1
  Ga  Ga14  1  0.663505  0.662550  0.564128  1
  Ga  Ga15  1  0.337450  0.336495  0.435872  1
  Ga  Ga16  1  0.127574  0.131829  0.750000  1
  Ga  Ga17  1  0.868171  0.872426  0.250000  1
  Ga  Ga18  1  0.458667  0.664927  0.250000  1
  Ga  Ga19  1  0.335073  0.541333  0.750000  1
  Ga  Ga20  1  0.552894  0.338634  0.750000  1
  Ga  Ga21  1  0.661366  0.447106  0.250000  1
  Os  Os22  1  0.671261  0.328739  0.000000  1
  Os  Os23  1  0.671261  0.328739  0.500000  1
  Pd  Pd24  1  0.999677  0.000323  0.000000  1
  Pd  Pd25  1  0.999677  0.000323  0.500000  1
  Pd  Pd26  1  0.327327  0.672673  0.000000  1
  Pd  Pd27  1  0.327327  0.672673  0.500000  1
