# generated using pymatgen
data_Tb4Pr6Tl5InCl2
_symmetry_space_group_name_H-M   'P 1'
_cell_length_a   9.48623423
_cell_length_b   9.48623395
_cell_length_c   6.70652800
_cell_angle_alpha   90.00000000
_cell_angle_beta   90.00000000
_cell_angle_gamma   119.96993122
_symmetry_Int_Tables_number   1
_chemical_formula_structural   Tb4Pr6Tl5InCl2
_chemical_formula_sum   'Tb4 Pr6 Tl5 In1 Cl2'
_cell_volume   522.81441927
_cell_formula_units_Z   1
loop_
 _symmetry_equiv_pos_site_id
 _symmetry_equiv_pos_as_xyz
  1  'x, y, z'
loop_
 _atom_site_type_symbol
 _atom_site_label
 _atom_site_symmetry_multiplicity
 _atom_site_fract_x
 _atom_site_fract_y
 _atom_site_fract_z
 _atom_site_occupancy
  Tb  Tb0  1  0.333891  0.666604  0.500398  1
  Tb  Tb1  1  0.666604  0.333891  0.500398  1
  Tb  Tb2  1  0.333891  0.666604  0.999602  1
  Tb  Tb3  1  0.666604  0.333891  0.999602  1
  Pr  Pr4  1  0.738516  0.738516  0.250000  1
  Pr  Pr5  1  0.999322  0.738799  0.750000  1
  Pr  Pr6  1  0.738799  0.999322  0.750000  1
  Pr  Pr7  1  0.261213  0.261213  0.750000  1
  Pr  Pr8  1  0.999924  0.261109  0.250000  1
  Pr  Pr9  1  0.261109  0.999924  0.250000  1
  Tl  Tl10  1  0.395458  0.000166  0.750000  1
  Tl  Tl11  1  0.000207  0.604406  0.250000  1
  Tl  Tl12  1  0.604406  0.000207  0.250000  1
  Tl  Tl13  1  0.000166  0.395458  0.750000  1
  Tl  Tl14  1  0.395525  0.395525  0.250000  1
  In  In15  1  0.604213  0.604213  0.750000  1
  Cl  Cl16  1  0.000075  0.000075  0.499902  1
  Cl  Cl17  1  0.000075  0.000075  0.000098  1
