# generated using pymatgen
data_Er4ZnSb5Rh7
_symmetry_space_group_name_H-M   'P 1'
_cell_length_a   7.53250640
_cell_length_b   7.53349935
_cell_length_c   7.53349803
_cell_angle_alpha   108.88573203
_cell_angle_beta   109.75839590
_cell_angle_gamma   109.75839858
_symmetry_Int_Tables_number   1
_chemical_formula_structural   Er4ZnSb5Rh7
_chemical_formula_sum   'Er4 Zn1 Sb5 Rh7'
_cell_volume   329.11342121
_cell_formula_units_Z   1
loop_
 _symmetry_equiv_pos_site_id
 _symmetry_equiv_pos_as_xyz
  1  'x, y, z'
loop_
 _atom_site_type_symbol
 _atom_site_label
 _atom_site_symmetry_multiplicity
 _atom_site_fract_x
 _atom_site_fract_y
 _atom_site_fract_z
 _atom_site_occupancy
  Er  Er0  1  0.514423  0.011047  0.011047  1
  Er  Er1  1  0.000048  0.496688  0.011171  1
  Er  Er2  1  0.000048  0.011171  0.496688  1
  Er  Er3  1  0.485487  0.496678  0.496678  1
  Zn  Zn4  1  0.999995  0.317206  0.317206  1
  Sb  Sb5  1  0.685764  0.002218  0.687995  1
  Sb  Sb6  1  0.685764  0.687995  0.002218  1
  Sb  Sb7  1  0.999979  0.675372  0.675372  1
  Sb  Sb8  1  0.314221  0.002219  0.316447  1
  Sb  Sb9  1  0.314221  0.316447  0.002219  1
  Rh  Rh10  1  0.000010  0.994703  0.994703  1
  Rh  Rh11  1  0.500034  0.751424  0.251455  1
  Rh  Rh12  1  0.751119  0.496357  0.247497  1
  Rh  Rh13  1  0.248867  0.745197  0.496325  1
  Rh  Rh14  1  0.248867  0.496325  0.745197  1
  Rh  Rh15  1  0.500034  0.251455  0.751424  1
  Rh  Rh16  1  0.751119  0.247497  0.496357  1
