# generated using pymatgen
data_Hf8Al15Ni
_symmetry_space_group_name_H-M   'P 1'
_cell_length_a   5.25985200
_cell_length_b   5.25985297
_cell_length_c   17.16347200
_cell_angle_alpha   90.00000000
_cell_angle_beta   90.00000000
_cell_angle_gamma   120.00000645
_symmetry_Int_Tables_number   1
_chemical_formula_structural   Hf8Al15Ni
_chemical_formula_sum   'Hf8 Al15 Ni1'
_cell_volume   411.22819014
_cell_formula_units_Z   1
loop_
 _symmetry_equiv_pos_site_id
 _symmetry_equiv_pos_as_xyz
  1  'x, y, z'
loop_
 _atom_site_type_symbol
 _atom_site_label
 _atom_site_symmetry_multiplicity
 _atom_site_fract_x
 _atom_site_fract_y
 _atom_site_fract_z
 _atom_site_occupancy
  Hf  Hf0  1  0.000000  0.000000  0.405805  1
  Hf  Hf1  1  0.000000  0.000000  0.591496  1
  Hf  Hf2  1  0.000000  0.000000  0.909959  1
  Hf  Hf3  1  0.000000  0.000000  0.090991  1
  Hf  Hf4  1  0.333333  0.666667  0.656528  1
  Hf  Hf5  1  0.666667  0.333333  0.341403  1
  Hf  Hf6  1  0.666667  0.333333  0.157229  1
  Hf  Hf7  1  0.333333  0.666667  0.845131  1
  Al  Al8  1  0.333333  0.666667  0.368906  1
  Al  Al9  1  0.666667  0.333333  0.625899  1
  Al  Al10  1  0.666667  0.333333  0.879355  1
  Al  Al11  1  0.500064  0.499936  0.497843  1
  Al  Al12  1  0.500064  0.000127  0.497843  1
  Al  Al13  1  0.999873  0.499936  0.497843  1
  Al  Al14  1  0.498062  0.501938  0.009153  1
  Al  Al15  1  0.498062  0.996123  0.009153  1
  Al  Al16  1  0.003877  0.501938  0.009153  1
  Al  Al17  1  0.163798  0.836202  0.241019  1
  Al  Al18  1  0.163798  0.327595  0.241019  1
  Al  Al19  1  0.672405  0.836202  0.241019  1
  Al  Al20  1  0.837314  0.162686  0.752007  1
  Al  Al21  1  0.837314  0.674626  0.752007  1
  Al  Al22  1  0.325374  0.162686  0.752007  1
  Ni  Ni23  1  0.333333  0.666667  0.127237  1
