# generated using pymatgen
data_CaNdFe4(CoB2)4
_symmetry_space_group_name_H-M   'P 1'
_cell_length_a   7.00096504
_cell_length_b   7.00623704
_cell_length_c   3.81003900
_cell_angle_alpha   90.00000000
_cell_angle_beta   90.00000000
_cell_angle_gamma   89.98833402
_symmetry_Int_Tables_number   1
_chemical_formula_structural   CaNdFe4(CoB2)4
_chemical_formula_sum   'Ca1 Nd1 Fe4 Co4 B8'
_cell_volume   186.88401130
_cell_formula_units_Z   1
loop_
 _symmetry_equiv_pos_site_id
 _symmetry_equiv_pos_as_xyz
  1  'x, y, z'
loop_
 _atom_site_type_symbol
 _atom_site_label
 _atom_site_symmetry_multiplicity
 _atom_site_fract_x
 _atom_site_fract_y
 _atom_site_fract_z
 _atom_site_occupancy
  Ca  Ca0  1  0.000000  0.000000  0.998087  1
  Nd  Nd1  1  0.500000  0.500000  0.497617  1
  Fe  Fe2  1  0.368032  0.115419  0.606551  1
  Fe  Fe3  1  0.631968  0.884581  0.606551  1
  Fe  Fe4  1  0.616211  0.131739  0.107713  1
  Fe  Fe5  1  0.383789  0.868261  0.107713  1
  Co  Co6  1  0.134531  0.383404  0.890742  1
  Co  Co7  1  0.865469  0.616596  0.890742  1
  Co  Co8  1  0.884767  0.364881  0.391646  1
  Co  Co9  1  0.115233  0.635119  0.391646  1
  B  B10  1  0.667008  0.805970  0.105296  1
  B  B11  1  0.332992  0.194030  0.105296  1
  B  B12  1  0.301002  0.836318  0.608188  1
  B  B13  1  0.698998  0.163682  0.608188  1
  B  B14  1  0.836117  0.704906  0.394545  1
  B  B15  1  0.163883  0.295094  0.394545  1
  B  B16  1  0.199250  0.667513  0.897468  1
  B  B17  1  0.800750  0.332487  0.897468  1
