# generated using pymatgen
data_Pr2Be(SiRh2)3
_symmetry_space_group_name_H-M   'P 1'
_cell_length_a   5.60014480
_cell_length_b   6.65368010
_cell_length_c   6.65368037
_cell_angle_alpha   64.78856093
_cell_angle_beta   65.26052665
_cell_angle_gamma   65.26052783
_symmetry_Int_Tables_number   1
_chemical_formula_structural   Pr2Be(SiRh2)3
_chemical_formula_sum   'Pr2 Be1 Si3 Rh6'
_cell_volume   194.82166216
_cell_formula_units_Z   1
loop_
 _symmetry_equiv_pos_site_id
 _symmetry_equiv_pos_as_xyz
  1  'x, y, z'
loop_
 _atom_site_type_symbol
 _atom_site_label
 _atom_site_symmetry_multiplicity
 _atom_site_fract_x
 _atom_site_fract_y
 _atom_site_fract_z
 _atom_site_occupancy
  Pr  Pr0  1  0.530678  0.744976  0.744976  1
  Pr  Pr1  1  0.459680  0.255554  0.255554  1
  Be  Be2  1  0.225844  0.573451  0.573451  1
  Si  Si3  1  0.783731  0.419366  0.419366  1
  Si  Si4  1  0.125996  0.080261  0.080261  1
  Si  Si5  1  0.872480  0.923656  0.923656  1
  Rh  Rh6  1  0.499706  0.224023  0.777352  1
  Rh  Rh7  1  0.001434  0.721750  0.281318  1
  Rh  Rh8  1  0.499706  0.777352  0.224023  1
  Rh  Rh9  1  0.001434  0.281318  0.721750  1
  Rh  Rh10  1  0.999656  0.506882  0.991411  1
  Rh  Rh11  1  0.999656  0.991411  0.506882  1
