# generated using pymatgen
data_Er3Tm5Sc12GaSi15
_symmetry_space_group_name_H-M   'P 1'
_cell_length_a   7.07029226
_cell_length_b   7.36694108
_cell_length_c   13.96394544
_cell_angle_alpha   89.96951459
_cell_angle_beta   89.99245868
_cell_angle_gamma   90.00639488
_symmetry_Int_Tables_number   1
_chemical_formula_structural   Er3Tm5Sc12GaSi15
_chemical_formula_sum   'Er3 Tm5 Sc12 Ga1 Si15'
_cell_volume   727.33190446
_cell_formula_units_Z   1
loop_
 _symmetry_equiv_pos_site_id
 _symmetry_equiv_pos_as_xyz
  1  'x, y, z'
loop_
 _atom_site_type_symbol
 _atom_site_label
 _atom_site_symmetry_multiplicity
 _atom_site_fract_x
 _atom_site_fract_y
 _atom_site_fract_z
 _atom_site_occupancy
  Er  Er0  1  0.012018  0.176267  0.096719  1
  Er  Er1  1  0.987994  0.824020  0.903739  1
  Er  Er2  1  0.487820  0.677029  0.903670  1
  Tm  Tm3  1  0.987452  0.825772  0.597283  1
  Tm  Tm4  1  0.512110  0.323089  0.096663  1
  Tm  Tm5  1  0.011033  0.174786  0.401927  1
  Tm  Tm6  1  0.512800  0.322727  0.401927  1
  Tm  Tm7  1  0.489870  0.678951  0.597304  1
  Sc  Sc8  1  0.161158  0.503544  0.751474  1
  Sc  Sc9  1  0.838694  0.496555  0.249975  1
  Sc  Sc10  1  0.338865  0.003732  0.249708  1
  Sc  Sc11  1  0.661593  0.995558  0.750083  1
  Sc  Sc12  1  0.332527  0.173980  0.626059  1
  Sc  Sc13  1  0.668432  0.824058  0.374365  1
  Sc  Sc14  1  0.169837  0.677719  0.373541  1
  Sc  Sc15  1  0.669420  0.823534  0.125344  1
  Sc  Sc16  1  0.828578  0.323055  0.625507  1
  Sc  Sc17  1  0.330379  0.176045  0.874929  1
  Sc  Sc18  1  0.830672  0.322879  0.874909  1
  Sc  Sc19  1  0.169054  0.676906  0.125409  1
  Ga  Ga20  1  0.161179  0.463124  0.539304  1
  Si  Si21  1  0.033231  0.115758  0.750522  1
  Si  Si22  1  0.966963  0.885313  0.249793  1
  Si  Si23  1  0.467965  0.613982  0.249988  1
  Si  Si24  1  0.531720  0.386457  0.749719  1
  Si  Si25  1  0.284430  0.870977  0.750164  1
  Si  Si26  1  0.714711  0.129289  0.249657  1
  Si  Si27  1  0.214771  0.370654  0.249491  1
  Si  Si28  1  0.785472  0.628929  0.750554  1
  Si  Si29  1  0.840217  0.535217  0.460298  1
  Si  Si30  1  0.340470  0.965014  0.460265  1
  Si  Si31  1  0.840706  0.534929  0.038700  1
  Si  Si32  1  0.658853  0.035008  0.539082  1
  Si  Si33  1  0.159069  0.464692  0.961649  1
  Si  Si34  1  0.658488  0.035054  0.960730  1
  Si  Si35  1  0.341448  0.965399  0.039550  1
