# generated using pymatgen
data_DyY(FeOs)2
_symmetry_space_group_name_H-M   'P 1'
_cell_length_a   5.24143624
_cell_length_b   5.28920422
_cell_length_c   5.28920418
_cell_angle_alpha   59.60384997
_cell_angle_beta   60.29830954
_cell_angle_gamma   60.29829906
_symmetry_Int_Tables_number   1
_chemical_formula_structural   DyY(FeOs)2
_chemical_formula_sum   'Dy1 Y1 Fe2 Os2'
_cell_volume   103.83192101
_cell_formula_units_Z   1
loop_
 _symmetry_equiv_pos_site_id
 _symmetry_equiv_pos_as_xyz
  1  'x, y, z'
loop_
 _atom_site_type_symbol
 _atom_site_label
 _atom_site_symmetry_multiplicity
 _atom_site_fract_x
 _atom_site_fract_y
 _atom_site_fract_z
 _atom_site_occupancy
  Dy  Dy0  1  0.252375  0.247625  0.247625  1
  Y  Y1  1  0.997876  0.002124  0.002124  1
  Fe  Fe2  1  0.125067  0.625043  0.625043  1
  Fe  Fe3  1  0.624847  0.625043  0.625043  1
  Os  Os4  1  0.624917  0.625014  0.125151  1
  Os  Os5  1  0.624917  0.125151  0.625014  1
