# generated using pymatgen
data_Hf5ZrCuBi2
_symmetry_space_group_name_H-M   'P 1'
_cell_length_a   7.78012128
_cell_length_b   7.77240013
_cell_length_c   3.78552900
_cell_angle_alpha   90.00000000
_cell_angle_beta   90.00000000
_cell_angle_gamma   119.96717639
_symmetry_Int_Tables_number   1
_chemical_formula_structural   Hf5ZrCuBi2
_chemical_formula_sum   'Hf5 Zr1 Cu1 Bi2'
_cell_volume   198.30893193
_cell_formula_units_Z   1
loop_
 _symmetry_equiv_pos_site_id
 _symmetry_equiv_pos_as_xyz
  1  'x, y, z'
loop_
 _atom_site_type_symbol
 _atom_site_label
 _atom_site_symmetry_multiplicity
 _atom_site_fract_x
 _atom_site_fract_y
 _atom_site_fract_z
 _atom_site_occupancy
  Hf  Hf0  1  0.387962  0.388449  0.500000  1
  Hf  Hf1  1  0.612038  0.000487  0.500000  1
  Hf  Hf2  1  0.763962  0.765598  0.000000  1
  Hf  Hf3  1  0.236038  0.001637  0.000000  1
  Hf  Hf4  1  0.000000  0.235788  0.000000  1
  Zr  Zr5  1  0.000000  0.607095  0.500000  1
  Cu  Cu6  1  0.000000  0.000131  0.500000  1
  Bi  Bi7  1  0.665934  0.333374  0.000000  1
  Bi  Bi8  1  0.334066  0.667441  0.000000  1
