# generated using pymatgen
data_EuY5ReBi2
_symmetry_space_group_name_H-M   'P 1'
_cell_length_a   8.31214600
_cell_length_b   8.31643997
_cell_length_c   4.36334400
_cell_angle_alpha   90.00000000
_cell_angle_beta   90.00000000
_cell_angle_gamma   119.98291367
_symmetry_Int_Tables_number   1
_chemical_formula_structural   EuY5ReBi2
_chemical_formula_sum   'Eu1 Y5 Re1 Bi2'
_cell_volume   261.26152252
_cell_formula_units_Z   1
loop_
 _symmetry_equiv_pos_site_id
 _symmetry_equiv_pos_as_xyz
  1  'x, y, z'
loop_
 _atom_site_type_symbol
 _atom_site_label
 _atom_site_symmetry_multiplicity
 _atom_site_fract_x
 _atom_site_fract_y
 _atom_site_fract_z
 _atom_site_occupancy
  Eu  Eu0  1  0.608979  0.000000  0.000000  1
  Y  Y1  1  0.232600  0.000000  0.500000  1
  Y  Y2  1  0.000109  0.232788  0.500000  1
  Y  Y3  1  0.767321  0.767212  0.500000  1
  Y  Y4  1  0.999930  0.609155  0.000000  1
  Y  Y5  1  0.390775  0.390845  0.000000  1
  Re  Re6  1  0.000450  0.000000  0.000000  1
  Bi  Bi7  1  0.333097  0.666359  0.500000  1
  Bi  Bi8  1  0.666740  0.333641  0.500000  1
