# generated using pymatgen
data_SrRh2(SeO3)4
_symmetry_space_group_name_H-M   'P 1'
_cell_length_a   9.00318039
_cell_length_b   9.00314749
_cell_length_c   8.99386357
_cell_angle_alpha   110.28927097
_cell_angle_beta   112.66722521
_cell_angle_gamma   105.58224586
_symmetry_Int_Tables_number   1
_chemical_formula_structural   SrRh2(SeO3)4
_chemical_formula_sum   'Sr2 Rh4 Se8 O24'
_cell_volume   558.67967496
_cell_formula_units_Z   2
loop_
 _symmetry_equiv_pos_site_id
 _symmetry_equiv_pos_as_xyz
  1  'x, y, z'
loop_
 _atom_site_type_symbol
 _atom_site_label
 _atom_site_symmetry_multiplicity
 _atom_site_fract_x
 _atom_site_fract_y
 _atom_site_fract_z
 _atom_site_occupancy
  Sr  Sr0  1  0.749999  0.250019  0.500015  1
  Sr  Sr1  1  0.250013  0.750011  0.500021  1
  Rh  Rh2  1  0.749944  0.750003  0.499961  1
  Rh  Rh3  1  0.250021  0.249995  0.500022  1
  Rh  Rh4  1  0.500032  0.000038  0.000011  1
  Rh  Rh5  1  0.999995  0.499979  0.000014  1
  Se  Se6  1  0.845020  0.929663  0.274647  1
  Se  Se7  1  0.344985  0.429612  0.274657  1
  Se  Se8  1  0.655008  0.570369  0.725346  1
  Se  Se9  1  0.154962  0.070327  0.725337  1
  Se  Se10  1  0.697580  0.407340  0.104904  1
  Se  Se11  1  0.197588  0.907377  0.104966  1
  Se  Se12  1  0.302440  0.592623  0.895052  1
  Se  Se13  1  0.802407  0.092653  0.895062  1
  O  O14  1  0.824533  0.605073  0.929625  1
  O  O15  1  0.324528  0.105095  0.929633  1
  O  O16  1  0.675487  0.894929  0.070367  1
  O  O17  1  0.175433  0.394870  0.070387  1
  O  O18  1  0.660168  0.570514  0.230671  1
  O  O19  1  0.160207  0.070529  0.230751  1
  O  O20  1  0.339774  0.429458  0.769253  1
  O  O21  1  0.839817  0.929476  0.769284  1
  O  O22  1  0.808941  0.235028  0.800896  1
  O  O23  1  0.308862  0.735013  0.800886  1
  O  O24  1  0.065881  0.492030  0.800898  1
  O  O25  1  0.565870  0.991953  0.800882  1
  O  O26  1  0.434134  0.007993  0.199131  1
  O  O27  1  0.934134  0.508019  0.199101  1
  O  O28  1  0.691072  0.264981  0.199095  1
  O  O29  1  0.191158  0.765006  0.199144  1
  O  O30  1  0.521858  0.335653  0.591493  1
  O  O31  1  0.021868  0.835636  0.591442  1
  O  O32  1  0.755780  0.569573  0.591419  1
  O  O33  1  0.255858  0.069671  0.591515  1
  O  O34  1  0.744154  0.930384  0.408502  1
  O  O35  1  0.244189  0.430408  0.408552  1
  O  O36  1  0.978150  0.164356  0.408521  1
  O  O37  1  0.478148  0.664343  0.408533  1
