# generated using pymatgen
data_BeNb4VSn2
_symmetry_space_group_name_H-M   'P 1'
_cell_length_a   7.88061978
_cell_length_b   7.88062004
_cell_length_c   7.88061932
_cell_angle_alpha   95.74263978
_cell_angle_beta   95.74262717
_cell_angle_gamma   143.11861353
_symmetry_Int_Tables_number   1
_chemical_formula_structural   BeNb4VSn2
_chemical_formula_sum   'Be2 Nb8 V2 Sn4'
_cell_volume   278.64753206
_cell_formula_units_Z   2
loop_
 _symmetry_equiv_pos_site_id
 _symmetry_equiv_pos_as_xyz
  1  'x, y, z'
loop_
 _atom_site_type_symbol
 _atom_site_label
 _atom_site_symmetry_multiplicity
 _atom_site_fract_x
 _atom_site_fract_y
 _atom_site_fract_z
 _atom_site_occupancy
  Be  Be0  1  0.750000  0.750000  0.000000  1
  Be  Be1  1  0.250000  0.250000  0.000000  1
  Nb  Nb2  1  0.798469  0.928823  0.727292  1
  Nb  Nb3  1  0.928823  0.201531  0.130354  1
  Nb  Nb4  1  0.071177  0.798469  0.869646  1
  Nb  Nb5  1  0.201531  0.071177  0.272708  1
  Nb  Nb6  1  0.571177  0.701531  0.272708  1
  Nb  Nb7  1  0.428823  0.298469  0.727292  1
  Nb  Nb8  1  0.298469  0.571177  0.869646  1
  Nb  Nb9  1  0.701531  0.428823  0.130354  1
  V  V10  1  0.250000  0.750000  0.500000  1
  V  V11  1  0.750000  0.250000  0.500000  1
  Sn  Sn12  1  0.338983  0.838983  0.177968  1
  Sn  Sn13  1  0.838983  0.661017  0.500000  1
  Sn  Sn14  1  0.161017  0.338983  0.500000  1
  Sn  Sn15  1  0.661017  0.161017  0.822032  1
