# generated using pymatgen
data_NaYb3RuO6
_symmetry_space_group_name_H-M   'P 1'
_cell_length_a   6.43330074
_cell_length_b   6.43330123
_cell_length_c   6.43330095
_cell_angle_alpha   89.81330105
_cell_angle_beta   89.81330665
_cell_angle_gamma   89.81331802
_symmetry_Int_Tables_number   1
_chemical_formula_structural   NaYb3RuO6
_chemical_formula_sum   'Na2 Yb6 Ru2 O12'
_cell_volume   266.25312122
_cell_formula_units_Z   2
loop_
 _symmetry_equiv_pos_site_id
 _symmetry_equiv_pos_as_xyz
  1  'x, y, z'
loop_
 _atom_site_type_symbol
 _atom_site_label
 _atom_site_symmetry_multiplicity
 _atom_site_fract_x
 _atom_site_fract_y
 _atom_site_fract_z
 _atom_site_occupancy
  Na  Na0  1  0.250000  0.250000  0.250000  1
  Na  Na1  1  0.750000  0.750000  0.750000  1
  Yb  Yb2  1  0.750000  0.110429  0.389571  1
  Yb  Yb3  1  0.389571  0.750000  0.110429  1
  Yb  Yb4  1  0.110429  0.389571  0.750000  1
  Yb  Yb5  1  0.250000  0.889571  0.610429  1
  Yb  Yb6  1  0.610429  0.250000  0.889571  1
  Yb  Yb7  1  0.889571  0.610429  0.250000  1
  Ru  Ru8  1  0.500000  0.500000  0.500000  1
  Ru  Ru9  1  0.000000  0.000000  0.000000  1
  O  O10  1  0.430156  0.206144  0.561630  1
  O  O11  1  0.561630  0.430156  0.206144  1
  O  O12  1  0.206144  0.561630  0.430156  1
  O  O13  1  0.069844  0.938370  0.293856  1
  O  O14  1  0.293856  0.069844  0.938370  1
  O  O15  1  0.938370  0.293856  0.069844  1
  O  O16  1  0.569844  0.793856  0.438370  1
  O  O17  1  0.438370  0.569844  0.793856  1
  O  O18  1  0.793856  0.438370  0.569844  1
  O  O19  1  0.930156  0.061630  0.706144  1
  O  O20  1  0.061630  0.706144  0.930156  1
  O  O21  1  0.706144  0.930156  0.061630  1
