# generated using pymatgen
data_Lu5Ga3P9Ir19
_symmetry_space_group_name_H-M   'P 1'
_cell_length_a   12.77961900
_cell_length_b   12.67165896
_cell_length_c   3.93732200
_cell_angle_alpha   90.00000000
_cell_angle_beta   90.00000000
_cell_angle_gamma   119.88388635
_symmetry_Int_Tables_number   1
_chemical_formula_structural   Lu5Ga3P9Ir19
_chemical_formula_sum   'Lu5 Ga3 P9 Ir19'
_cell_volume   552.82783350
_cell_formula_units_Z   1
loop_
 _symmetry_equiv_pos_site_id
 _symmetry_equiv_pos_as_xyz
  1  'x, y, z'
loop_
 _atom_site_type_symbol
 _atom_site_label
 _atom_site_symmetry_multiplicity
 _atom_site_fract_x
 _atom_site_fract_y
 _atom_site_fract_z
 _atom_site_occupancy
  Lu  Lu0  1  0.662575  0.331444  0.000000  1
  Lu  Lu1  1  0.337398  0.667833  0.000000  1
  Lu  Lu2  1  0.825597  0.824054  0.500000  1
  Lu  Lu3  1  0.178370  0.999966  0.500000  1
  Lu  Lu4  1  0.997142  0.182730  0.500000  1
  Ga  Ga5  1  0.677778  0.165731  0.500000  1
  Ga  Ga6  1  0.646137  0.645704  0.000000  1
  Ga  Ga7  1  0.355485  0.997050  0.000000  1
  P  P8  1  0.828506  0.514340  0.500000  1
  P  P9  1  0.476502  0.317557  0.500000  1
  P  P10  1  0.183066  0.693205  0.500000  1
  P  P11  1  0.519252  0.825785  0.500000  1
  P  P12  1  0.309802  0.485694  0.500000  1
  P  P13  1  0.000075  0.357639  0.000000  1
  P  P14  1  0.172150  0.179758  0.000000  1
  P  P15  1  0.823296  0.999282  0.000000  1
  P  P16  1  0.003313  0.820045  0.000000  1
  Ir  Ir17  1  0.818387  0.182112  0.000000  1
  Ir  Ir18  1  0.827864  0.618892  0.000000  1
  Ir  Ir19  1  0.360522  0.195787  0.000000  1
  Ir  Ir20  1  0.175017  0.786991  0.000000  1
  Ir  Ir21  1  0.616622  0.825247  0.000000  1
  Ir  Ir22  1  0.191429  0.377806  0.000000  1
  Ir  Ir23  1  0.455075  0.446660  0.000000  1
  Ir  Ir24  1  0.559922  0.015000  0.000000  1
  Ir  Ir25  1  0.998297  0.536184  0.000000  1
  Ir  Ir26  1  0.278753  0.287986  0.500000  1
  Ir  Ir27  1  0.724173  0.997141  0.500000  1
  Ir  Ir28  1  0.002359  0.718800  0.500000  1
  Ir  Ir29  1  0.871607  0.362432  0.500000  1
  Ir  Ir30  1  0.641748  0.507101  0.500000  1
  Ir  Ir31  1  0.475753  0.136178  0.500000  1
  Ir  Ir32  1  0.370037  0.870718  0.500000  1
  Ir  Ir33  1  0.503729  0.634522  0.500000  1
  Ir  Ir34  1  0.132039  0.495113  0.500000  1
  Ir  Ir35  1  0.000225  0.997515  0.000000  1
