# generated using pymatgen
data_LiI37
_symmetry_space_group_name_H-M   'P 1'
_cell_length_a   13.12603411
_cell_length_b   15.24092487
_cell_length_c   14.80013029
_cell_angle_alpha   93.03635190
_cell_angle_beta   60.41339707
_cell_angle_gamma   74.52694343
_symmetry_Int_Tables_number   1
_chemical_formula_structural   LiI37
_chemical_formula_sum   'Li1 I37'
_cell_volume   2420.42759366
_cell_formula_units_Z   1
loop_
 _symmetry_equiv_pos_site_id
 _symmetry_equiv_pos_as_xyz
  1  'x, y, z'
loop_
 _atom_site_type_symbol
 _atom_site_label
 _atom_site_symmetry_multiplicity
 _atom_site_fract_x
 _atom_site_fract_y
 _atom_site_fract_z
 _atom_site_occupancy
  Li  Li0  1  0.500000  0.000000  0.000000  1
  I  I1  1  0.826710  0.277831  0.102446  1
  I  I2  1  0.173290  0.722169  0.897554  1
  I  I3  1  0.721708  0.071095  0.349933  1
  I  I4  1  0.278292  0.928905  0.650067  1
  I  I5  1  0.108915  0.337728  0.190533  1
  I  I6  1  0.891085  0.662272  0.809467  1
  I  I7  1  0.804305  0.535423  0.225558  1
  I  I8  1  0.195695  0.464577  0.774442  1
  I  I9  1  0.648592  0.305471  0.514164  1
  I  I10  1  0.351408  0.694529  0.485836  1
  I  I11  1  0.967511  0.153629  0.449140  1
  I  I12  1  0.032489  0.846371  0.550860  1
  I  I13  1  0.971383  0.986125  0.301468  1
  I  I14  1  0.028617  0.013875  0.698532  1
  I  I15  1  0.961732  0.301852  0.578673  1
  I  I16  1  0.038268  0.698148  0.421327  1
  I  I17  1  0.580778  0.371291  0.137367  1
  I  I18  1  0.419222  0.628709  0.862633  1
  I  I19  1  0.126118  0.481704  0.309647  1
  I  I20  1  0.873882  0.518296  0.690353  1
  I  I21  1  0.000000  0.500000  0.000000  1
  I  I22  1  0.509636  0.964093  0.194837  1
  I  I23  1  0.490364  0.035907  0.805163  1
  I  I24  1  0.248121  0.053887  0.320054  1
  I  I25  1  0.751879  0.946113  0.679946  1
  I  I26  1  0.457879  0.154203  0.402095  1
  I  I27  1  0.542121  0.845797  0.597905  1
  I  I28  1  0.077594  0.186352  0.059388  1
  I  I29  1  0.922406  0.813648  0.940612  1
  I  I30  1  0.675145  0.703095  0.403842  1
  I  I31  1  0.324855  0.296905  0.596158  1
  I  I32  1  0.649518  0.123650  0.960774  1
  I  I33  1  0.350482  0.876350  0.039226  1
  I  I34  1  0.392525  0.225395  0.070593  1
  I  I35  1  0.607475  0.774605  0.929407  1
  I  I36  1  0.543256  0.466906  0.675018  1
  I  I37  1  0.456744  0.533094  0.324982  1
