# generated using pymatgen
data_Dy10Y(Lu3Bi4)3
_symmetry_space_group_name_H-M   'P 1'
_cell_length_a   8.19575861
_cell_length_b   9.45098666
_cell_length_c   11.99781422
_cell_angle_alpha   89.98148533
_cell_angle_beta   90.07354699
_cell_angle_gamma   89.97358507
_symmetry_Int_Tables_number   1
_chemical_formula_structural   Dy10Y(Lu3Bi4)3
_chemical_formula_sum   'Dy10 Y1 Lu9 Bi12'
_cell_volume   929.32584465
_cell_formula_units_Z   1
loop_
 _symmetry_equiv_pos_site_id
 _symmetry_equiv_pos_as_xyz
  1  'x, y, z'
loop_
 _atom_site_type_symbol
 _atom_site_label
 _atom_site_symmetry_multiplicity
 _atom_site_fract_x
 _atom_site_fract_y
 _atom_site_fract_z
 _atom_site_occupancy
  Dy  Dy0  1  0.185167  0.749589  0.718830  1
  Dy  Dy1  1  0.685762  0.749446  0.781909  1
  Dy  Dy2  1  0.814482  0.249601  0.281570  1
  Dy  Dy3  1  0.314043  0.249703  0.218709  1
  Dy  Dy4  1  0.192550  0.938790  0.439773  1
  Dy  Dy5  1  0.309249  0.062045  0.941430  1
  Dy  Dy6  1  0.806968  0.438941  0.560125  1
  Dy  Dy7  1  0.354827  0.749679  0.215872  1
  Dy  Dy8  1  0.851944  0.748203  0.282774  1
  Dy  Dy9  1  0.645933  0.249367  0.783901  1
  Y  Y10  1  0.146735  0.248834  0.716675  1
  Lu  Lu11  1  0.022025  0.749424  0.989394  1
  Lu  Lu12  1  0.523278  0.750170  0.510552  1
  Lu  Lu13  1  0.976719  0.248983  0.010571  1
  Lu  Lu14  1  0.476907  0.249695  0.489096  1
  Lu  Lu15  1  0.308196  0.430600  0.941183  1
  Lu  Lu16  1  0.809131  0.069665  0.559244  1
  Lu  Lu17  1  0.690670  0.931443  0.058307  1
  Lu  Lu18  1  0.191155  0.569661  0.440695  1
  Lu  Lu19  1  0.692881  0.565492  0.059196  1
  Bi  Bi20  1  0.434459  0.003109  0.671989  1
  Bi  Bi21  1  0.934476  0.495534  0.828319  1
  Bi  Bi22  1  0.565846  0.503323  0.327811  1
  Bi  Bi23  1  0.065644  0.995457  0.171844  1
  Bi  Bi24  1  0.567234  0.995807  0.328203  1
  Bi  Bi25  1  0.066266  0.503415  0.171131  1
  Bi  Bi26  1  0.433130  0.495760  0.671648  1
  Bi  Bi27  1  0.932937  0.003250  0.828573  1
  Bi  Bi28  1  0.404153  0.743920  0.957132  1
  Bi  Bi29  1  0.904518  0.755654  0.542186  1
  Bi  Bi30  1  0.597329  0.249822  0.043807  1
  Bi  Bi31  1  0.095386  0.255621  0.457552  1
