# generated using pymatgen
data_Na3(SiPt)2
_symmetry_space_group_name_H-M   'P 1'
_cell_length_a   6.07150400
_cell_length_b   7.53463100
_cell_length_c   13.01509900
_cell_angle_alpha   90.00000000
_cell_angle_beta   90.00000000
_cell_angle_gamma   90.00000000
_symmetry_Int_Tables_number   1
_chemical_formula_structural   Na3(SiPt)2
_chemical_formula_sum   'Na12 Si8 Pt8'
_cell_volume   595.39577636
_cell_formula_units_Z   4
loop_
 _symmetry_equiv_pos_site_id
 _symmetry_equiv_pos_as_xyz
  1  'x, y, z'
loop_
 _atom_site_type_symbol
 _atom_site_label
 _atom_site_symmetry_multiplicity
 _atom_site_fract_x
 _atom_site_fract_y
 _atom_site_fract_z
 _atom_site_occupancy
  Na  Na0  1  0.653059  0.205707  0.250000  1
  Na  Na1  1  0.346941  0.794293  0.750000  1
  Na  Na2  1  0.346941  0.705707  0.250000  1
  Na  Na3  1  0.653059  0.294293  0.750000  1
  Na  Na4  1  0.119803  0.387853  0.101611  1
  Na  Na5  1  0.880197  0.612147  0.898389  1
  Na  Na6  1  0.880197  0.612147  0.601611  1
  Na  Na7  1  0.880197  0.887853  0.398389  1
  Na  Na8  1  0.119803  0.387853  0.398389  1
  Na  Na9  1  0.119803  0.112147  0.601611  1
  Na  Na10  1  0.119803  0.112147  0.898389  1
  Na  Na11  1  0.880197  0.887853  0.101611  1
  Si  Si12  1  0.190248  0.068775  0.250000  1
  Si  Si13  1  0.809752  0.931225  0.750000  1
  Si  Si14  1  0.809752  0.568775  0.250000  1
  Si  Si15  1  0.190248  0.431225  0.750000  1
  Si  Si16  1  0.557053  0.250000  0.000000  1
  Si  Si17  1  0.442947  0.750000  0.000000  1
  Si  Si18  1  0.442947  0.750000  0.500000  1
  Si  Si19  1  0.557053  0.250000  0.500000  1
  Pt  Pt20  1  0.364128  0.018311  0.092091  1
  Pt  Pt21  1  0.635872  0.981689  0.907909  1
  Pt  Pt22  1  0.635872  0.981689  0.592091  1
  Pt  Pt23  1  0.635872  0.518311  0.407909  1
  Pt  Pt24  1  0.364128  0.018311  0.407909  1
  Pt  Pt25  1  0.364128  0.481689  0.592091  1
  Pt  Pt26  1  0.364128  0.481689  0.907909  1
  Pt  Pt27  1  0.635872  0.518311  0.092091  1
