# generated using pymatgen
data_Sr2Al16Pd5Pt4
_symmetry_space_group_name_H-M   'P 1'
_cell_length_a   11.23326128
_cell_length_b   11.20456830
_cell_length_c   11.20456800
_cell_angle_alpha   158.35474477
_cell_angle_beta   117.43597896
_cell_angle_gamma   67.01919446
_symmetry_Int_Tables_number   1
_chemical_formula_structural   Sr2Al16Pd5Pt4
_chemical_formula_sum   'Sr2 Al16 Pd5 Pt4'
_cell_volume   458.58101349
_cell_formula_units_Z   1
loop_
 _symmetry_equiv_pos_site_id
 _symmetry_equiv_pos_as_xyz
  1  'x, y, z'
loop_
 _atom_site_type_symbol
 _atom_site_label
 _atom_site_symmetry_multiplicity
 _atom_site_fract_x
 _atom_site_fract_y
 _atom_site_fract_z
 _atom_site_occupancy
  Sr  Sr0  1  0.231000  0.231646  0.999354  1
  Sr  Sr1  1  0.767920  0.768743  0.999177  1
  Al  Al2  1  0.272763  0.395394  0.877370  1
  Al  Al3  1  0.089565  0.914753  0.174814  1
  Al  Al4  1  0.510382  0.207592  0.302791  1
  Al  Al5  1  0.259370  0.085971  0.173399  1
  Al  Al6  1  0.917258  0.416116  0.501143  1
  Al  Al7  1  0.720520  0.603504  0.117016  1
  Al  Al8  1  0.898232  0.200917  0.697313  1
  Al  Al9  1  0.493555  0.799058  0.694496  1
  Al  Al10  1  0.378364  0.999279  0.379084  1
  Al  Al11  1  0.618398  0.999527  0.618871  1
  Al  Al12  1  0.481013  0.603343  0.877670  1
  Al  Al13  1  0.098276  0.792750  0.305527  1
  Al  Al14  1  0.914746  0.079669  0.835076  1
  Al  Al15  1  0.754897  0.920689  0.834207  1
  Al  Al16  1  0.512421  0.396044  0.116378  1
  Al  Al17  1  0.088435  0.585553  0.502883  1
  Pd  Pd18  1  0.759704  0.499833  0.259871  1
  Pd  Pd19  1  0.025107  0.337462  0.687645  1
  Pd  Pd20  1  0.617535  0.120688  0.496847  1
  Pd  Pd21  1  0.227985  0.499362  0.728622  1
  Pd  Pd22  1  0.010261  0.000035  0.010226  1
  Pt  Pt23  1  0.376960  0.879391  0.497568  1
  Pt  Pt24  1  0.654878  0.342892  0.311985  1
  Pt  Pt25  1  0.351280  0.662836  0.688444  1
  Pt  Pt26  1  0.969174  0.656952  0.312221  1
