# generated using pymatgen
data_Tb8Sc12SiGe15
_symmetry_space_group_name_H-M   'P 1'
_cell_length_a   7.50413589
_cell_length_b   7.50692986
_cell_length_c   13.65634839
_cell_angle_alpha   90.04606607
_cell_angle_beta   90.09710833
_cell_angle_gamma   89.92376270
_symmetry_Int_Tables_number   1
_chemical_formula_structural   Tb8Sc12SiGe15
_chemical_formula_sum   'Tb8 Sc12 Si1 Ge15'
_cell_volume   769.30133727
_cell_formula_units_Z   1
loop_
 _symmetry_equiv_pos_site_id
 _symmetry_equiv_pos_as_xyz
  1  'x, y, z'
loop_
 _atom_site_type_symbol
 _atom_site_label
 _atom_site_symmetry_multiplicity
 _atom_site_fract_x
 _atom_site_fract_y
 _atom_site_fract_z
 _atom_site_occupancy
  Tb  Tb0  1  0.002064  0.346018  0.216820  1
  Tb  Tb1  1  0.998315  0.655128  0.716249  1
  Tb  Tb2  1  0.152005  0.503934  0.464696  1
  Tb  Tb3  1  0.499256  0.844766  0.034307  1
  Tb  Tb4  1  0.845672  0.498339  0.966199  1
  Tb  Tb5  1  0.501224  0.154838  0.533369  1
  Tb  Tb6  1  0.345172  0.001776  0.783689  1
  Tb  Tb7  1  0.656150  0.997970  0.284015  1
  Sc  Sc8  1  0.172004  0.171809  0.000128  1
  Sc  Sc9  1  0.828878  0.827673  0.498809  1
  Sc  Sc10  1  0.325579  0.671368  0.250757  1
  Sc  Sc11  1  0.671615  0.328035  0.749859  1
  Sc  Sc12  1  0.155635  0.997169  0.375324  1
  Sc  Sc13  1  0.842124  0.999476  0.876475  1
  Sc  Sc14  1  0.499227  0.658141  0.626356  1
  Sc  Sc15  1  0.342189  0.500236  0.873420  1
  Sc  Sc16  1  0.501913  0.342820  0.127001  1
  Sc  Sc17  1  0.658629  0.499152  0.373894  1
  Sc  Sc18  1  0.000399  0.158020  0.623480  1
  Sc  Sc19  1  0.000424  0.842884  0.124178  1
  Si  Si20  1  0.957521  0.707031  0.316434  1
  Ge  Ge21  1  0.366528  0.298448  0.323766  1
  Ge  Ge22  1  0.633314  0.700599  0.823616  1
  Ge  Ge23  1  0.200535  0.866784  0.573280  1
  Ge  Ge24  1  0.133743  0.799397  0.926790  1
  Ge  Ge25  1  0.799894  0.133740  0.073818  1
  Ge  Ge26  1  0.867050  0.200426  0.426450  1
  Ge  Ge27  1  0.299353  0.366566  0.676226  1
  Ge  Ge28  1  0.703937  0.634228  0.178784  1
  Ge  Ge29  1  0.294066  0.038847  0.181645  1
  Ge  Ge30  1  0.706882  0.961789  0.681153  1
  Ge  Ge31  1  0.461520  0.792907  0.431621  1
  Ge  Ge32  1  0.208119  0.538206  0.068350  1
  Ge  Ge33  1  0.538228  0.206586  0.931902  1
  Ge  Ge34  1  0.792832  0.461753  0.568567  1
  Ge  Ge35  1  0.037999  0.293140  0.818574  1
