# generated using pymatgen
data_CaSc2Ni8Ir
_symmetry_space_group_name_H-M   'P 1'
_cell_length_a   4.88046383
_cell_length_b   4.88046373
_cell_length_c   8.57715673
_cell_angle_alpha   73.47081903
_cell_angle_beta   73.47082071
_cell_angle_gamma   59.99999502
_symmetry_Int_Tables_number   1
_chemical_formula_structural   CaSc2Ni8Ir
_chemical_formula_sum   'Ca1 Sc2 Ni8 Ir1'
_cell_volume   167.10802080
_cell_formula_units_Z   1
loop_
 _symmetry_equiv_pos_site_id
 _symmetry_equiv_pos_as_xyz
  1  'x, y, z'
loop_
 _atom_site_type_symbol
 _atom_site_label
 _atom_site_symmetry_multiplicity
 _atom_site_fract_x
 _atom_site_fract_y
 _atom_site_fract_z
 _atom_site_occupancy
  Ca  Ca0  1  0.000000  0.000000  0.000000  1
  Sc  Sc1  1  0.139873  0.139873  0.580382  1
  Sc  Sc2  1  0.860127  0.860127  0.419618  1
  Ni  Ni3  1  0.077849  0.584728  0.752697  1
  Ni  Ni4  1  0.584728  0.584728  0.752697  1
  Ni  Ni5  1  0.584728  0.077849  0.752697  1
  Ni  Ni6  1  0.922151  0.415272  0.247303  1
  Ni  Ni7  1  0.415272  0.415272  0.247303  1
  Ni  Ni8  1  0.415272  0.922151  0.247303  1
  Ni  Ni9  1  0.333275  0.333275  0.000176  1
  Ni  Ni10  1  0.666725  0.666725  0.999824  1
  Ir  Ir11  1  0.500000  0.500000  0.500000  1
