# generated using pymatgen
data_Yb7TeN4
_symmetry_space_group_name_H-M   'P 1'
_cell_length_a   3.70954600
_cell_length_b   11.46506300
_cell_length_c   10.95357500
_cell_angle_alpha   90.00000000
_cell_angle_beta   90.00000000
_cell_angle_gamma   90.00000000
_symmetry_Int_Tables_number   1
_chemical_formula_structural   Yb7TeN4
_chemical_formula_sum   'Yb14 Te2 N8'
_cell_volume   465.85750096
_cell_formula_units_Z   2
loop_
 _symmetry_equiv_pos_site_id
 _symmetry_equiv_pos_as_xyz
  1  'x, y, z'
loop_
 _atom_site_type_symbol
 _atom_site_label
 _atom_site_symmetry_multiplicity
 _atom_site_fract_x
 _atom_site_fract_y
 _atom_site_fract_z
 _atom_site_occupancy
  Yb  Yb0  1  0.500523  0.657773  0.249693  1
  Yb  Yb1  1  0.500523  0.342227  0.750307  1
  Yb  Yb2  1  0.499477  0.157773  0.250307  1
  Yb  Yb3  1  0.499477  0.842227  0.749693  1
  Yb  Yb4  1  0.498720  0.500000  0.000000  1
  Yb  Yb5  1  0.501280  0.000000  0.500000  1
  Yb  Yb6  1  0.999727  0.924490  0.255995  1
  Yb  Yb7  1  0.999727  0.075510  0.744005  1
  Yb  Yb8  1  0.000273  0.424490  0.244005  1
  Yb  Yb9  1  0.000273  0.575510  0.755995  1
  Yb  Yb10  1  0.001244  0.760658  0.480705  1
  Yb  Yb11  1  0.001244  0.239342  0.519295  1
  Yb  Yb12  1  0.998756  0.260658  0.019295  1
  Yb  Yb13  1  0.998756  0.739342  0.980705  1
  Te  Te14  1  0.504960  0.500000  0.500000  1
  Te  Te15  1  0.495040  0.000000  0.000000  1
  N  N16  1  0.000544  0.603597  0.135127  1
  N  N17  1  0.000544  0.396403  0.864873  1
  N  N18  1  0.999456  0.103597  0.364873  1
  N  N19  1  0.999456  0.896403  0.635127  1
  N  N20  1  0.499967  0.834112  0.356116  1
  N  N21  1  0.499967  0.165888  0.643884  1
  N  N22  1  0.500033  0.334112  0.143884  1
  N  N23  1  0.500033  0.665888  0.856116  1
