# generated using pymatgen
data_Y18Lu2Cd6NiRh
_symmetry_space_group_name_H-M   'P 1'
_cell_length_a   9.65611000
_cell_length_b   9.65611125
_cell_length_c   9.82301700
_cell_angle_alpha   90.00000000
_cell_angle_beta   90.00000000
_cell_angle_gamma   119.99999573
_symmetry_Int_Tables_number   1
_chemical_formula_structural   Y18Lu2Cd6NiRh
_chemical_formula_sum   'Y18 Lu2 Cd6 Ni1 Rh1'
_cell_volume   793.19507874
_cell_formula_units_Z   1
loop_
 _symmetry_equiv_pos_site_id
 _symmetry_equiv_pos_as_xyz
  1  'x, y, z'
loop_
 _atom_site_type_symbol
 _atom_site_label
 _atom_site_symmetry_multiplicity
 _atom_site_fract_x
 _atom_site_fract_y
 _atom_site_fract_z
 _atom_site_occupancy
  Y  Y0  1  0.542720  0.457280  0.250000  1
  Y  Y1  1  0.542720  0.085442  0.250000  1
  Y  Y2  1  0.914558  0.457280  0.250000  1
  Y  Y3  1  0.456781  0.543219  0.750000  1
  Y  Y4  1  0.456781  0.913561  0.750000  1
  Y  Y5  1  0.086439  0.543219  0.750000  1
  Y  Y6  1  0.208194  0.791806  0.439853  1
  Y  Y7  1  0.208194  0.416389  0.439853  1
  Y  Y8  1  0.583611  0.791806  0.439853  1
  Y  Y9  1  0.790154  0.209846  0.562741  1
  Y  Y10  1  0.790154  0.580306  0.562741  1
  Y  Y11  1  0.419694  0.209846  0.562741  1
  Y  Y12  1  0.790154  0.209846  0.937259  1
  Y  Y13  1  0.790154  0.580306  0.937259  1
  Y  Y14  1  0.419694  0.209846  0.937259  1
  Y  Y15  1  0.208194  0.791806  0.060147  1
  Y  Y16  1  0.208194  0.416389  0.060147  1
  Y  Y17  1  0.583611  0.791806  0.060147  1
  Lu  Lu18  1  0.000000  0.000000  0.499906  1
  Lu  Lu19  1  0.000000  0.000000  0.000094  1
  Cd  Cd20  1  0.886721  0.113279  0.250000  1
  Cd  Cd21  1  0.886721  0.773441  0.250000  1
  Cd  Cd22  1  0.226559  0.113279  0.250000  1
  Cd  Cd23  1  0.113606  0.886394  0.750000  1
  Cd  Cd24  1  0.113606  0.227212  0.750000  1
  Cd  Cd25  1  0.772788  0.886394  0.750000  1
  Ni  Ni26  1  0.666667  0.333333  0.750000  1
  Rh  Rh27  1  0.333333  0.666667  0.250000  1
