# generated using pymatgen
data_Tb7Ho(Sc3Ga4)4
_symmetry_space_group_name_H-M   'P 1'
_cell_length_a   7.29942610
_cell_length_b   7.57515038
_cell_length_c   14.48394915
_cell_angle_alpha   89.97324094
_cell_angle_beta   89.99608037
_cell_angle_gamma   90.03452737
_symmetry_Int_Tables_number   1
_chemical_formula_structural   Tb7Ho(Sc3Ga4)4
_chemical_formula_sum   'Tb7 Ho1 Sc12 Ga16'
_cell_volume   800.87887678
_cell_formula_units_Z   1
loop_
 _symmetry_equiv_pos_site_id
 _symmetry_equiv_pos_as_xyz
  1  'x, y, z'
loop_
 _atom_site_type_symbol
 _atom_site_label
 _atom_site_symmetry_multiplicity
 _atom_site_fract_x
 _atom_site_fract_y
 _atom_site_fract_z
 _atom_site_occupancy
  Tb  Tb0  1  0.011599  0.179165  0.094628  1
  Tb  Tb1  1  0.988407  0.820913  0.905115  1
  Tb  Tb2  1  0.488302  0.679108  0.905416  1
  Tb  Tb3  1  0.988662  0.820414  0.594948  1
  Tb  Tb4  1  0.511559  0.320818  0.094618  1
  Tb  Tb5  1  0.011710  0.179224  0.405245  1
  Tb  Tb6  1  0.511658  0.320760  0.405598  1
  Ho  Ho7  1  0.488706  0.680027  0.595264  1
  Sc  Sc8  1  0.162256  0.502585  0.749889  1
  Sc  Sc9  1  0.837701  0.497846  0.249949  1
  Sc  Sc10  1  0.338035  0.002079  0.249920  1
  Sc  Sc11  1  0.662079  0.997266  0.749922  1
  Sc  Sc12  1  0.330190  0.172919  0.624821  1
  Sc  Sc13  1  0.669717  0.826842  0.375574  1
  Sc  Sc14  1  0.170048  0.672918  0.375355  1
  Sc  Sc15  1  0.670158  0.827128  0.124453  1
  Sc  Sc16  1  0.829307  0.327311  0.624681  1
  Sc  Sc17  1  0.330035  0.173002  0.875042  1
  Sc  Sc18  1  0.829809  0.327111  0.875112  1
  Sc  Sc19  1  0.169918  0.673058  0.124446  1
  Ga  Ga20  1  0.030818  0.117457  0.750103  1
  Ga  Ga21  1  0.969084  0.882476  0.249690  1
  Ga  Ga22  1  0.469052  0.617491  0.249640  1
  Ga  Ga23  1  0.530648  0.383097  0.750147  1
  Ga  Ga24  1  0.284139  0.872303  0.750115  1
  Ga  Ga25  1  0.716306  0.127469  0.249728  1
  Ga  Ga26  1  0.216225  0.372472  0.249800  1
  Ga  Ga27  1  0.783316  0.627674  0.750021  1
  Ga  Ga28  1  0.162436  0.465866  0.540926  1
  Ga  Ga29  1  0.838567  0.534677  0.459667  1
  Ga  Ga30  1  0.338686  0.964501  0.459971  1
  Ga  Ga31  1  0.838800  0.535545  0.040180  1
  Ga  Ga32  1  0.661066  0.033836  0.541009  1
  Ga  Ga33  1  0.160978  0.464378  0.959416  1
  Ga  Ga34  1  0.661109  0.035809  0.959384  1
  Ga  Ga35  1  0.338914  0.964455  0.040209  1
