# generated using pymatgen
data_Y4LuBi3
_symmetry_space_group_name_H-M   'P 1'
_cell_length_a   8.24623400
_cell_length_b   9.52689500
_cell_length_c   12.04738400
_cell_angle_alpha   90.00000000
_cell_angle_beta   90.00000000
_cell_angle_gamma   90.00000000
_symmetry_Int_Tables_number   1
_chemical_formula_structural   Y4LuBi3
_chemical_formula_sum   'Y16 Lu4 Bi12'
_cell_volume   946.45460024
_cell_formula_units_Z   4
loop_
 _symmetry_equiv_pos_site_id
 _symmetry_equiv_pos_as_xyz
  1  'x, y, z'
loop_
 _atom_site_type_symbol
 _atom_site_label
 _atom_site_symmetry_multiplicity
 _atom_site_fract_x
 _atom_site_fract_y
 _atom_site_fract_z
 _atom_site_occupancy
  Y  Y0  1  0.186293  0.750000  0.718995  1
  Y  Y1  1  0.686293  0.750000  0.781005  1
  Y  Y2  1  0.813707  0.250000  0.281005  1
  Y  Y3  1  0.313707  0.250000  0.218995  1
  Y  Y4  1  0.305771  0.437103  0.940103  1
  Y  Y5  1  0.805771  0.062897  0.559897  1
  Y  Y6  1  0.694229  0.937103  0.059897  1
  Y  Y7  1  0.194229  0.562897  0.440103  1
  Y  Y8  1  0.694229  0.562897  0.059897  1
  Y  Y9  1  0.194229  0.937103  0.440103  1
  Y  Y10  1  0.305771  0.062897  0.940103  1
  Y  Y11  1  0.805771  0.437103  0.559897  1
  Y  Y12  1  0.354393  0.750000  0.215180  1
  Y  Y13  1  0.854393  0.750000  0.284820  1
  Y  Y14  1  0.645607  0.250000  0.784820  1
  Y  Y15  1  0.145607  0.250000  0.715180  1
  Lu  Lu16  1  0.025983  0.750000  0.989093  1
  Lu  Lu17  1  0.525983  0.750000  0.510907  1
  Lu  Lu18  1  0.974017  0.250000  0.010907  1
  Lu  Lu19  1  0.474017  0.250000  0.489093  1
  Bi  Bi20  1  0.434104  0.003449  0.672667  1
  Bi  Bi21  1  0.934104  0.496551  0.827333  1
  Bi  Bi22  1  0.565896  0.503449  0.327333  1
  Bi  Bi23  1  0.065896  0.996551  0.172667  1
  Bi  Bi24  1  0.565896  0.996551  0.327333  1
  Bi  Bi25  1  0.065896  0.503449  0.172667  1
  Bi  Bi26  1  0.434104  0.496551  0.672667  1
  Bi  Bi27  1  0.934104  0.003449  0.827333  1
  Bi  Bi28  1  0.408628  0.750000  0.958450  1
  Bi  Bi29  1  0.908628  0.750000  0.541550  1
  Bi  Bi30  1  0.591372  0.250000  0.041550  1
  Bi  Bi31  1  0.091372  0.250000  0.458450  1
