# generated using pymatgen
data_SmDyY2(Si3Rh)2
_symmetry_space_group_name_H-M   'P 1'
_cell_length_a   8.19543088
_cell_length_b   8.18580641
_cell_length_c   7.99226800
_cell_angle_alpha   90.00000000
_cell_angle_beta   90.00000000
_cell_angle_gamma   119.96114722
_symmetry_Int_Tables_number   1
_chemical_formula_structural   SmDyY2(Si3Rh)2
_chemical_formula_sum   'Sm2 Dy2 Y4 Si12 Rh4'
_cell_volume   464.51936937
_cell_formula_units_Z   2
loop_
 _symmetry_equiv_pos_site_id
 _symmetry_equiv_pos_as_xyz
  1  'x, y, z'
loop_
 _atom_site_type_symbol
 _atom_site_label
 _atom_site_symmetry_multiplicity
 _atom_site_fract_x
 _atom_site_fract_y
 _atom_site_fract_z
 _atom_site_occupancy
  Sm  Sm0  1  0.999967  0.999983  0.250000  1
  Sm  Sm1  1  0.000128  0.000064  0.750000  1
  Dy  Dy2  1  0.508166  0.491824  0.250000  1
  Dy  Dy3  1  0.508166  0.016343  0.250000  1
  Y  Y4  1  0.983074  0.491537  0.250000  1
  Y  Y5  1  0.491368  0.508526  0.750000  1
  Y  Y6  1  0.491368  0.982841  0.750000  1
  Y  Y7  1  0.017117  0.508558  0.750000  1
  Si  Si8  1  0.167765  0.832510  0.500614  1
  Si  Si9  1  0.167765  0.335255  0.500614  1
  Si  Si10  1  0.664715  0.832358  0.500308  1
  Si  Si11  1  0.832275  0.167499  0.498953  1
  Si  Si12  1  0.832275  0.664777  0.498953  1
  Si  Si13  1  0.335230  0.167615  0.498726  1
  Si  Si14  1  0.832275  0.167499  0.001047  1
  Si  Si15  1  0.832275  0.664777  0.001047  1
  Si  Si16  1  0.335230  0.167615  0.001274  1
  Si  Si17  1  0.167765  0.832510  0.999386  1
  Si  Si18  1  0.167765  0.335255  0.999386  1
  Si  Si19  1  0.664715  0.832358  0.999692  1
  Rh  Rh20  1  0.334059  0.667030  0.465755  1
  Rh  Rh21  1  0.666239  0.333119  0.532255  1
  Rh  Rh22  1  0.666239  0.333119  0.967745  1
  Rh  Rh23  1  0.334059  0.667030  0.034245  1
