# generated using pymatgen
data_Nd3ZnRh3
_symmetry_space_group_name_H-M   'P 1'
_cell_length_a   5.63629463
_cell_length_b   5.63629509
_cell_length_c   14.16423600
_cell_angle_alpha   90.00000000
_cell_angle_beta   90.00000000
_cell_angle_gamma   136.32198977
_symmetry_Int_Tables_number   1
_chemical_formula_structural   Nd3ZnRh3
_chemical_formula_sum   'Nd6 Zn2 Rh6'
_cell_volume   310.74933853
_cell_formula_units_Z   2
loop_
 _symmetry_equiv_pos_site_id
 _symmetry_equiv_pos_as_xyz
  1  'x, y, z'
loop_
 _atom_site_type_symbol
 _atom_site_label
 _atom_site_symmetry_multiplicity
 _atom_site_fract_x
 _atom_site_fract_y
 _atom_site_fract_z
 _atom_site_occupancy
  Nd  Nd0  1  0.798617  0.201383  0.396340  1
  Nd  Nd1  1  0.201383  0.798617  0.603660  1
  Nd  Nd2  1  0.798617  0.201383  0.103660  1
  Nd  Nd3  1  0.201383  0.798617  0.896340  1
  Nd  Nd4  1  0.520000  0.480000  0.250000  1
  Nd  Nd5  1  0.480000  0.520000  0.750000  1
  Zn  Zn6  1  0.500000  0.500000  0.500000  1
  Zn  Zn7  1  0.500000  0.500000  0.000000  1
  Rh  Rh8  1  0.086790  0.913210  0.412031  1
  Rh  Rh9  1  0.913210  0.086790  0.587969  1
  Rh  Rh10  1  0.086790  0.913210  0.087969  1
  Rh  Rh11  1  0.913210  0.086790  0.912031  1
  Rh  Rh12  1  0.241336  0.758664  0.250000  1
  Rh  Rh13  1  0.758664  0.241336  0.750000  1
