# generated using pymatgen
data_Cs2FeF4
_symmetry_space_group_name_H-M   'P 1'
_cell_length_a   7.92414147
_cell_length_b   7.92414081
_cell_length_c   6.25821900
_cell_angle_alpha   90.00000000
_cell_angle_beta   90.00000000
_cell_angle_gamma   133.50033959
_symmetry_Int_Tables_number   1
_chemical_formula_structural   Cs2FeF4
_chemical_formula_sum   'Cs4 Fe2 F8'
_cell_volume   285.04598344
_cell_formula_units_Z   2
loop_
 _symmetry_equiv_pos_site_id
 _symmetry_equiv_pos_as_xyz
  1  'x, y, z'
loop_
 _atom_site_type_symbol
 _atom_site_label
 _atom_site_symmetry_multiplicity
 _atom_site_fract_x
 _atom_site_fract_y
 _atom_site_fract_z
 _atom_site_occupancy
  Cs  Cs0  1  0.645102  0.354898  0.000000  1
  Cs  Cs1  1  0.854898  0.145102  0.500000  1
  Cs  Cs2  1  0.354898  0.645102  0.000000  1
  Cs  Cs3  1  0.145102  0.854898  0.500000  1
  Fe  Fe4  1  0.000000  0.000000  0.000000  1
  Fe  Fe5  1  0.500000  0.500000  0.500000  1
  F  F6  1  0.860403  0.139597  0.000000  1
  F  F7  1  0.639597  0.360403  0.500000  1
  F  F8  1  0.139597  0.860403  0.000000  1
  F  F9  1  0.360403  0.639597  0.500000  1
  F  F10  1  0.251171  0.251171  0.247599  1
  F  F11  1  0.751171  0.751171  0.252401  1
  F  F12  1  0.248829  0.248829  0.747599  1
  F  F13  1  0.748829  0.748829  0.752401  1
