# generated using pymatgen
data_Ho2Er2Ti3GaIr4
_symmetry_space_group_name_H-M   'P 1'
_cell_length_a   4.32022800
_cell_length_b   6.90351676
_cell_length_c   7.95409912
_cell_angle_alpha   92.60791968
_cell_angle_beta   90.00000000
_cell_angle_gamma   90.00000000
_symmetry_Int_Tables_number   1
_chemical_formula_structural   Ho2Er2Ti3GaIr4
_chemical_formula_sum   'Ho2 Er2 Ti3 Ga1 Ir4'
_cell_volume   236.98344768
_cell_formula_units_Z   1
loop_
 _symmetry_equiv_pos_site_id
 _symmetry_equiv_pos_as_xyz
  1  'x, y, z'
loop_
 _atom_site_type_symbol
 _atom_site_label
 _atom_site_symmetry_multiplicity
 _atom_site_fract_x
 _atom_site_fract_y
 _atom_site_fract_z
 _atom_site_occupancy
  Ho  Ho0  1  0.250000  0.981402  0.314551  1
  Ho  Ho1  1  0.250000  0.471637  0.172449  1
  Er  Er2  1  0.750000  0.027919  0.688448  1
  Er  Er3  1  0.750000  0.511526  0.824619  1
  Ti  Ti4  1  0.250000  0.364660  0.570541  1
  Ti  Ti5  1  0.250000  0.863633  0.938764  1
  Ti  Ti6  1  0.750000  0.635773  0.431215  1
  Ga  Ga7  1  0.750000  0.147773  0.071564  1
  Ir  Ir8  1  0.250000  0.223985  0.875247  1
  Ir  Ir9  1  0.250000  0.726616  0.600704  1
  Ir  Ir10  1  0.750000  0.768683  0.110774  1
  Ir  Ir11  1  0.750000  0.276395  0.401124  1
