# generated using pymatgen
data_Hf12Th8Si15Ni
_symmetry_space_group_name_H-M   'P 1'
_cell_length_a   7.35603212
_cell_length_b   7.41157740
_cell_length_c   13.61561620
_cell_angle_alpha   90.48261565
_cell_angle_beta   89.73918651
_cell_angle_gamma   89.84073651
_symmetry_Int_Tables_number   1
_chemical_formula_structural   Hf12Th8Si15Ni
_chemical_formula_sum   'Hf12 Th8 Si15 Ni1'
_cell_volume   742.28371959
_cell_formula_units_Z   1
loop_
 _symmetry_equiv_pos_site_id
 _symmetry_equiv_pos_as_xyz
  1  'x, y, z'
loop_
 _atom_site_type_symbol
 _atom_site_label
 _atom_site_symmetry_multiplicity
 _atom_site_fract_x
 _atom_site_fract_y
 _atom_site_fract_z
 _atom_site_occupancy
  Hf  Hf0  1  0.172820  0.174534  0.999136  1
  Hf  Hf1  1  0.826170  0.824446  0.499595  1
  Hf  Hf2  1  0.328761  0.678541  0.249322  1
  Hf  Hf3  1  0.673534  0.325374  0.750105  1
  Hf  Hf4  1  0.156710  0.999815  0.376014  1
  Hf  Hf5  1  0.844003  0.003126  0.874286  1
  Hf  Hf6  1  0.504985  0.652321  0.624380  1
  Hf  Hf7  1  0.344661  0.497624  0.874795  1
  Hf  Hf8  1  0.495081  0.346642  0.127378  1
  Hf  Hf9  1  0.647244  0.499250  0.375775  1
  Hf  Hf10  1  0.999846  0.152164  0.624564  1
  Hf  Hf11  1  0.000424  0.848879  0.125127  1
  Th  Th12  1  0.000856  0.343906  0.217013  1
  Th  Th13  1  0.004669  0.655343  0.714270  1
  Th  Th14  1  0.164417  0.488924  0.462464  1
  Th  Th15  1  0.503130  0.844667  0.033593  1
  Th  Th16  1  0.841495  0.505672  0.967172  1
  Th  Th17  1  0.496095  0.155149  0.536353  1
  Th  Th18  1  0.343915  0.995994  0.784363  1
  Th  Th19  1  0.651341  0.006891  0.285869  1
  Si  Si20  1  0.634608  0.700088  0.815398  1
  Si  Si21  1  0.203347  0.864004  0.564451  1
  Si  Si22  1  0.131166  0.798884  0.934906  1
  Si  Si23  1  0.797522  0.135616  0.065659  1
  Si  Si24  1  0.867147  0.200281  0.435650  1
  Si  Si25  1  0.298467  0.366472  0.685119  1
  Si  Si26  1  0.702314  0.636756  0.185289  1
  Si  Si27  1  0.287993  0.050193  0.186047  1
  Si  Si28  1  0.712135  0.952312  0.684649  1
  Si  Si29  1  0.453220  0.789502  0.435854  1
  Si  Si30  1  0.210290  0.549260  0.064390  1
  Si  Si31  1  0.544708  0.211509  0.935661  1
  Si  Si32  1  0.791985  0.450219  0.564094  1
  Si  Si33  1  0.045638  0.290896  0.815182  1
  Si  Si34  1  0.952256  0.711174  0.314922  1
  Ni  Ni35  1  0.367047  0.293577  0.311156  1
