# generated using pymatgen
data_GdCuTeO6
_symmetry_space_group_name_H-M   'P 1'
_cell_length_a   5.14905800
_cell_length_b   5.14909416
_cell_length_c   9.78847700
_cell_angle_alpha   90.00103484
_cell_angle_beta   89.99947701
_cell_angle_gamma   120.00023027
_symmetry_Int_Tables_number   1
_chemical_formula_structural   GdCuTeO6
_chemical_formula_sum   'Gd2 Cu2 Te2 O12'
_cell_volume   224.75189699
_cell_formula_units_Z   2
loop_
 _symmetry_equiv_pos_site_id
 _symmetry_equiv_pos_as_xyz
  1  'x, y, z'
loop_
 _atom_site_type_symbol
 _atom_site_label
 _atom_site_symmetry_multiplicity
 _atom_site_fract_x
 _atom_site_fract_y
 _atom_site_fract_z
 _atom_site_occupancy
  Gd  Gd0  1  0.000000  0.000000  0.000000  1
  Gd  Gd1  1  0.999999  0.999999  0.500000  1
  Cu  Cu2  1  0.333333  0.666666  0.250000  1
  Cu  Cu3  1  0.666668  0.333335  0.750000  1
  Te  Te4  1  0.666668  0.333333  0.250000  1
  Te  Te5  1  0.333332  0.666666  0.750001  1
  O  O6  1  0.642306  0.633276  0.139182  1
  O  O7  1  0.366724  0.009030  0.139184  1
  O  O8  1  0.990970  0.357693  0.139184  1
  O  O9  1  0.366724  0.357694  0.360816  1
  O  O10  1  0.990971  0.633277  0.360816  1
  O  O11  1  0.642307  0.009031  0.360818  1
  O  O12  1  0.357692  0.990970  0.639182  1
  O  O13  1  0.633275  0.642307  0.639184  1
  O  O14  1  0.009030  0.366723  0.639185  1
  O  O15  1  0.009029  0.642308  0.860815  1
  O  O16  1  0.633275  0.990970  0.860815  1
  O  O17  1  0.357693  0.366724  0.860817  1
