# generated using pymatgen
data_Ho4Tm16Ir7Au5
_symmetry_space_group_name_H-M   'P 1'
_cell_length_a   11.02871673
_cell_length_b   11.03961200
_cell_length_c   6.30736800
_cell_angle_alpha   89.89050905
_cell_angle_beta   89.89139463
_cell_angle_gamma   89.57935024
_symmetry_Int_Tables_number   1
_chemical_formula_structural   Ho4Tm16Ir7Au5
_chemical_formula_sum   'Ho4 Tm16 Ir7 Au5'
_cell_volume   767.91596384
_cell_formula_units_Z   1
loop_
 _symmetry_equiv_pos_site_id
 _symmetry_equiv_pos_as_xyz
  1  'x, y, z'
loop_
 _atom_site_type_symbol
 _atom_site_label
 _atom_site_symmetry_multiplicity
 _atom_site_fract_x
 _atom_site_fract_y
 _atom_site_fract_z
 _atom_site_occupancy
  Ho  Ho0  1  0.299513  0.090736  0.364118  1
  Ho  Ho1  1  0.301093  0.907589  0.861996  1
  Ho  Ho2  1  0.697787  0.080753  0.859610  1
  Ho  Ho3  1  0.698374  0.905868  0.360923  1
  Tm  Tm4  1  0.580257  0.785419  0.875625  1
  Tm  Tm5  1  0.575074  0.206589  0.363154  1
  Tm  Tm6  1  0.418696  0.789010  0.375362  1
  Tm  Tm7  1  0.411836  0.207735  0.878170  1
  Tm  Tm8  1  0.213816  0.419824  0.624156  1
  Tm  Tm9  1  0.210358  0.581289  0.124608  1
  Tm  Tm10  1  0.794162  0.424959  0.136763  1
  Tm  Tm11  1  0.792953  0.588111  0.621528  1
  Tm  Tm12  1  0.910178  0.699217  0.135098  1
  Tm  Tm13  1  0.920117  0.303127  0.639368  1
  Tm  Tm14  1  0.091622  0.697798  0.637051  1
  Tm  Tm15  1  0.093179  0.302994  0.138119  1
  Tm  Tm16  1  0.998610  0.000275  0.499839  1
  Tm  Tm17  1  0.999707  0.001384  0.001397  1
  Tm  Tm18  1  0.495904  0.502036  0.001942  1
  Tm  Tm19  1  0.497824  0.504084  0.498442  1
  Ir  Ir20  1  0.653256  0.650472  0.249467  1
  Ir  Ir21  1  0.348590  0.347554  0.249512  1
  Ir  Ir22  1  0.345535  0.653408  0.749454  1
  Ir  Ir23  1  0.499304  0.999280  0.111395  1
  Ir  Ir24  1  0.499194  0.000012  0.613273  1
  Ir  Ir25  1  0.000129  0.500784  0.886165  1
  Ir  Ir26  1  0.000784  0.500679  0.388301  1
  Au  Au27  1  0.842331  0.159502  0.251387  1
  Au  Au28  1  0.844589  0.844299  0.752106  1
  Au  Au29  1  0.153620  0.157493  0.750687  1
  Au  Au30  1  0.155319  0.842704  0.251431  1
  Au  Au31  1  0.656287  0.345016  0.749549  1
