# generated using pymatgen
data_LuPaNi2Hg
_symmetry_space_group_name_H-M   'P 1'
_cell_length_a   7.19597921
_cell_length_b   7.19597881
_cell_length_c   3.43904100
_cell_angle_alpha   90.00000000
_cell_angle_beta   90.00000000
_cell_angle_gamma   146.72567361
_symmetry_Int_Tables_number   1
_chemical_formula_structural   LuPaNi2Hg
_chemical_formula_sum   'Lu1 Pa1 Ni2 Hg1'
_cell_volume   97.70372580
_cell_formula_units_Z   1
loop_
 _symmetry_equiv_pos_site_id
 _symmetry_equiv_pos_as_xyz
  1  'x, y, z'
loop_
 _atom_site_type_symbol
 _atom_site_label
 _atom_site_symmetry_multiplicity
 _atom_site_fract_x
 _atom_site_fract_y
 _atom_site_fract_z
 _atom_site_occupancy
  Lu  Lu0  1  0.635863  0.364137  0.500000  1
  Pa  Pa1  1  0.352886  0.647114  0.500000  1
  Ni  Ni2  1  0.201134  0.798866  0.000000  1
  Ni  Ni3  1  0.806954  0.193046  0.000000  1
  Hg  Hg4  1  0.003163  0.996837  0.000000  1
