# generated using pymatgen
data_GdY2AuO7
_symmetry_space_group_name_H-M   'P 1'
_cell_length_a   6.52178822
_cell_length_b   6.52178913
_cell_length_c   7.50207500
_cell_angle_alpha   90.00000000
_cell_angle_beta   90.00000000
_cell_angle_gamma   71.21651549
_symmetry_Int_Tables_number   1
_chemical_formula_structural   GdY2AuO7
_chemical_formula_sum   'Gd2 Y4 Au2 O14'
_cell_volume   302.09709060
_cell_formula_units_Z   2
loop_
 _symmetry_equiv_pos_site_id
 _symmetry_equiv_pos_as_xyz
  1  'x, y, z'
loop_
 _atom_site_type_symbol
 _atom_site_label
 _atom_site_symmetry_multiplicity
 _atom_site_fract_x
 _atom_site_fract_y
 _atom_site_fract_z
 _atom_site_occupancy
  Gd  Gd0  1  0.498416  0.501583  0.250001  1
  Gd  Gd1  1  0.501583  0.498416  0.750000  1
  Y  Y2  1  0.529362  0.002501  0.000756  1
  Y  Y3  1  0.997499  0.470639  0.499245  1
  Y  Y4  1  0.470639  0.997499  0.500755  1
  Y  Y5  1  0.002501  0.529362  0.999244  1
  Au  Au6  1  0.000479  0.999520  0.250001  1
  Au  Au7  1  0.999520  0.000479  0.750000  1
  O  O8  1  0.367044  0.367044  0.000000  1
  O  O9  1  0.640148  0.640148  0.000000  1
  O  O10  1  0.921792  0.921792  0.000000  1
  O  O11  1  0.923625  0.327400  0.224970  1
  O  O12  1  0.328542  0.922028  0.226196  1
  O  O13  1  0.077972  0.671458  0.273803  1
  O  O14  1  0.672600  0.076375  0.275030  1
  O  O15  1  0.078208  0.078208  0.500000  1
  O  O16  1  0.359852  0.359852  0.500000  1
  O  O17  1  0.632957  0.632957  0.500000  1
  O  O18  1  0.076375  0.672600  0.724971  1
  O  O19  1  0.671458  0.077972  0.726197  1
  O  O20  1  0.922028  0.328542  0.773803  1
  O  O21  1  0.327400  0.923625  0.775029  1
