# generated using pymatgen
data_Tb3Dy17Pb16
_symmetry_space_group_name_H-M   'P 1'
_cell_length_a   8.20100928
_cell_length_b   8.26441773
_cell_length_c   15.60706700
_cell_angle_alpha   90.02811262
_cell_angle_beta   90.30114448
_cell_angle_gamma   89.97573327
_symmetry_Int_Tables_number   1
_chemical_formula_structural   Tb3Dy17Pb16
_chemical_formula_sum   'Tb3 Dy17 Pb16'
_cell_volume   1057.77858170
_cell_formula_units_Z   1
loop_
 _symmetry_equiv_pos_site_id
 _symmetry_equiv_pos_as_xyz
  1  'x, y, z'
loop_
 _atom_site_type_symbol
 _atom_site_label
 _atom_site_symmetry_multiplicity
 _atom_site_fract_x
 _atom_site_fract_y
 _atom_site_fract_z
 _atom_site_occupancy
  Tb  Tb0  1  0.965751  0.823325  0.401159  1
  Tb  Tb1  1  0.533516  0.324187  0.598527  1
  Tb  Tb2  1  0.037370  0.176447  0.899842  1
  Dy  Dy3  1  0.378427  0.842442  0.879378  1
  Dy  Dy4  1  0.875567  0.658926  0.621319  1
  Dy  Dy5  1  0.623706  0.158062  0.378421  1
  Dy  Dy6  1  0.121806  0.341700  0.120798  1
  Dy  Dy7  1  0.621259  0.157000  0.120619  1
  Dy  Dy8  1  0.123352  0.341304  0.378550  1
  Dy  Dy9  1  0.376997  0.842269  0.621449  1
  Dy  Dy10  1  0.879004  0.657919  0.879193  1
  Dy  Dy11  1  0.539147  0.325396  0.899106  1
  Dy  Dy12  1  0.036379  0.176245  0.599643  1
  Dy  Dy13  1  0.464356  0.675351  0.400426  1
  Dy  Dy14  1  0.961127  0.823631  0.101070  1
  Dy  Dy15  1  0.462190  0.675117  0.100576  1
  Dy  Dy16  1  0.209269  0.505240  0.750013  1
  Dy  Dy17  1  0.709414  0.996081  0.750203  1
  Dy  Dy18  1  0.790414  0.494959  0.249633  1
  Dy  Dy19  1  0.290641  0.003791  0.249989  1
  Pb  Pb20  1  0.279347  0.030878  0.043543  1
  Pb  Pb21  1  0.782262  0.465775  0.456819  1
  Pb  Pb22  1  0.718218  0.966914  0.543037  1
  Pb  Pb23  1  0.221040  0.532788  0.957242  1
  Pb  Pb24  1  0.719779  0.966359  0.957329  1
  Pb  Pb25  1  0.215842  0.536412  0.542150  1
  Pb  Pb26  1  0.283721  0.035441  0.457606  1
  Pb  Pb27  1  0.780253  0.466640  0.042713  1
  Pb  Pb28  1  0.572586  0.625946  0.750314  1
  Pb  Pb29  1  0.072621  0.874686  0.750224  1
  Pb  Pb30  1  0.427422  0.373879  0.249544  1
  Pb  Pb31  1  0.927363  0.125105  0.249698  1
  Pb  Pb32  1  0.348299  0.154747  0.750130  1
  Pb  Pb33  1  0.848341  0.346491  0.749056  1
  Pb  Pb34  1  0.651394  0.845244  0.250571  1
  Pb  Pb35  1  0.151819  0.653303  0.250108  1
