# generated using pymatgen
data_Sm3Y2ErNiBr10
_symmetry_space_group_name_H-M   'P 1'
_cell_length_a   7.39182700
_cell_length_b   9.28422223
_cell_length_c   9.36152049
_cell_angle_alpha   107.90154598
_cell_angle_beta   96.18109806
_cell_angle_gamma   105.58111404
_symmetry_Int_Tables_number   1
_chemical_formula_structural   Sm3Y2ErNiBr10
_chemical_formula_sum   'Sm3 Y2 Er1 Ni1 Br10'
_cell_volume   576.06401048
_cell_formula_units_Z   1
loop_
 _symmetry_equiv_pos_site_id
 _symmetry_equiv_pos_as_xyz
  1  'x, y, z'
loop_
 _atom_site_type_symbol
 _atom_site_label
 _atom_site_symmetry_multiplicity
 _atom_site_fract_x
 _atom_site_fract_y
 _atom_site_fract_z
 _atom_site_occupancy
  Sm  Sm0  1  0.874559  0.953175  0.244150  1
  Sm  Sm1  1  0.127303  0.046798  0.756559  1
  Sm  Sm2  1  0.028893  0.702801  0.906518  1
  Y  Y3  1  0.646493  0.871007  0.827926  1
  Y  Y4  1  0.353413  0.132821  0.173033  1
  Er  Er5  1  0.970654  0.289086  0.091080  1
  Ni  Ni6  1  0.000581  0.999613  0.000087  1
  Br  Br7  1  0.641732  0.550726  0.728531  1
  Br  Br8  1  0.343118  0.449754  0.267784  1
  Br  Br9  1  0.746914  0.917373  0.548503  1
  Br  Br10  1  0.255580  0.084073  0.451590  1
  Br  Br11  1  0.914384  0.623443  0.172381  1
  Br  Br12  1  0.083824  0.368383  0.833154  1
  Br  Br13  1  0.553515  0.180545  0.918799  1
  Br  Br14  1  0.452025  0.825036  0.085135  1
  Br  Br15  1  0.228267  0.746447  0.656286  1
  Br  Br16  1  0.778748  0.258918  0.338484  1
