# generated using pymatgen
data_Ba3Tc2(As3Rh2)2
_symmetry_space_group_name_H-M   'P 1'
_cell_length_a   9.23842862
_cell_length_b   9.24011961
_cell_length_c   9.24011911
_cell_angle_alpha   153.89675853
_cell_angle_beta   91.45803524
_cell_angle_gamma   94.39151249
_symmetry_Int_Tables_number   1
_chemical_formula_structural   Ba3Tc2(As3Rh2)2
_chemical_formula_sum   'Ba3 Tc2 As6 Rh4'
_cell_volume   337.96174450
_cell_formula_units_Z   1
loop_
 _symmetry_equiv_pos_site_id
 _symmetry_equiv_pos_as_xyz
  1  'x, y, z'
loop_
 _atom_site_type_symbol
 _atom_site_label
 _atom_site_symmetry_multiplicity
 _atom_site_fract_x
 _atom_site_fract_y
 _atom_site_fract_z
 _atom_site_occupancy
  Ba  Ba0  1  0.330720  0.331522  0.999198  1
  Ba  Ba1  1  0.668269  0.666705  0.001564  1
  Ba  Ba2  1  0.001101  0.001744  0.999357  1
  Tc  Tc3  1  0.583437  0.835001  0.748436  1
  Tc  Tc4  1  0.246978  0.498377  0.748600  1
  As  As5  1  0.315562  0.666627  0.648934  1
  As  As6  1  0.686625  0.334536  0.352089  1
  As  As7  1  0.982390  0.334944  0.647445  1
  As  As8  1  0.351434  0.999006  0.352427  1
  As  As9  1  0.019453  0.666590  0.352865  1
  As  As10  1  0.645548  0.998334  0.647215  1
  Rh  Rh11  1  0.753317  0.503483  0.249834  1
  Rh  Rh12  1  0.079899  0.829840  0.250058  1
  Rh  Rh13  1  0.417688  0.166650  0.251038  1
  Rh  Rh14  1  0.917578  0.166640  0.750940  1
