# generated using pymatgen
data_Er4MoOs5Ru2
_symmetry_space_group_name_H-M   'P 1'
_cell_length_a   5.39011300
_cell_length_b   5.20913560
_cell_length_c   9.03459700
_cell_angle_alpha   90.00000000
_cell_angle_beta   90.00000000
_cell_angle_gamma   121.15607194
_symmetry_Int_Tables_number   1
_chemical_formula_structural   Er4MoOs5Ru2
_chemical_formula_sum   'Er4 Mo1 Os5 Ru2'
_cell_volume   217.08254114
_cell_formula_units_Z   1
loop_
 _symmetry_equiv_pos_site_id
 _symmetry_equiv_pos_as_xyz
  1  'x, y, z'
loop_
 _atom_site_type_symbol
 _atom_site_label
 _atom_site_symmetry_multiplicity
 _atom_site_fract_x
 _atom_site_fract_y
 _atom_site_fract_z
 _atom_site_occupancy
  Er  Er0  1  0.333627  0.667256  0.432898  1
  Er  Er1  1  0.670301  0.340602  0.563603  1
  Er  Er2  1  0.670301  0.340602  0.936397  1
  Er  Er3  1  0.333627  0.667256  0.067102  1
  Mo  Mo4  1  0.162428  0.324857  0.750000  1
  Os  Os5  1  0.171547  0.825122  0.750000  1
  Os  Os6  1  0.337465  0.166391  0.250000  1
  Os  Os7  1  0.825945  0.651890  0.250000  1
  Os  Os8  1  0.653575  0.825122  0.750000  1
  Os  Os9  1  0.828926  0.166391  0.250000  1
  Ru  Ru10  1  0.006128  0.012255  0.001919  1
  Ru  Ru11  1  0.006128  0.012255  0.498081  1
