# generated using pymatgen
data_HoEr9(PtPb3)2
_symmetry_space_group_name_H-M   'P 1'
_cell_length_a   9.15070000
_cell_length_b   9.15069993
_cell_length_c   6.77912500
_cell_angle_alpha   90.00000000
_cell_angle_beta   90.00000000
_cell_angle_gamma   120.00000750
_symmetry_Int_Tables_number   1
_chemical_formula_structural   HoEr9(PtPb3)2
_chemical_formula_sum   'Ho1 Er9 Pt2 Pb6'
_cell_volume   491.60112983
_cell_formula_units_Z   1
loop_
 _symmetry_equiv_pos_site_id
 _symmetry_equiv_pos_as_xyz
  1  'x, y, z'
loop_
 _atom_site_type_symbol
 _atom_site_label
 _atom_site_symmetry_multiplicity
 _atom_site_fract_x
 _atom_site_fract_y
 _atom_site_fract_z
 _atom_site_occupancy
  Ho  Ho0  1  0.333333  0.666667  0.000000  1
  Er  Er1  1  0.245040  0.000048  0.250103  1
  Er  Er2  1  0.755008  0.000048  0.749897  1
  Er  Er3  1  0.999952  0.244992  0.250103  1
  Er  Er4  1  0.999952  0.754960  0.749897  1
  Er  Er5  1  0.755008  0.754960  0.250103  1
  Er  Er6  1  0.245040  0.244992  0.749897  1
  Er  Er7  1  0.666667  0.333333  0.000000  1
  Er  Er8  1  0.666667  0.333333  0.500000  1
  Er  Er9  1  0.333333  0.666667  0.500000  1
  Pt  Pt10  1  0.000000  0.000000  0.000000  1
  Pt  Pt11  1  0.000000  0.000000  0.500000  1
  Pb  Pb12  1  0.600443  0.000149  0.250149  1
  Pb  Pb13  1  0.399706  0.000149  0.749851  1
  Pb  Pb14  1  0.999851  0.600294  0.250149  1
  Pb  Pb15  1  0.999851  0.399557  0.749851  1
  Pb  Pb16  1  0.399706  0.399557  0.250149  1
  Pb  Pb17  1  0.600443  0.600294  0.749851  1
