# generated using pymatgen
data_Y6CdRh7
_symmetry_space_group_name_H-M   'P 1'
_cell_length_a   7.67297422
_cell_length_b   7.67297306
_cell_length_c   7.67297400
_cell_angle_alpha   113.72557280
_cell_angle_beta   113.72557714
_cell_angle_gamma   113.72556509
_symmetry_Int_Tables_number   1
_chemical_formula_structural   Y6CdRh7
_chemical_formula_sum   'Y6 Cd1 Rh7'
_cell_volume   279.95383277
_cell_formula_units_Z   1
loop_
 _symmetry_equiv_pos_site_id
 _symmetry_equiv_pos_as_xyz
  1  'x, y, z'
loop_
 _atom_site_type_symbol
 _atom_site_label
 _atom_site_symmetry_multiplicity
 _atom_site_fract_x
 _atom_site_fract_y
 _atom_site_fract_z
 _atom_site_occupancy
  Y  Y0  1  0.044562  0.629651  0.771198  1
  Y  Y1  1  0.771198  0.044562  0.629651  1
  Y  Y2  1  0.629651  0.771198  0.044562  1
  Y  Y3  1  0.955438  0.370349  0.228802  1
  Y  Y4  1  0.228802  0.955438  0.370349  1
  Y  Y5  1  0.370349  0.228802  0.955438  1
  Cd  Cd6  1  0.500000  0.500000  0.500000  1
  Rh  Rh7  1  0.000000  0.000000  0.000000  1
  Rh  Rh8  1  0.870159  0.723101  0.431514  1
  Rh  Rh9  1  0.431514  0.870159  0.723101  1
  Rh  Rh10  1  0.723101  0.431514  0.870159  1
  Rh  Rh11  1  0.129841  0.276899  0.568486  1
  Rh  Rh12  1  0.568486  0.129841  0.276899  1
  Rh  Rh13  1  0.276899  0.568486  0.129841  1
