# generated using pymatgen
data_TbNp3(MoN2)4
_symmetry_space_group_name_H-M   'P 1'
_cell_length_a   3.18873800
_cell_length_b   5.62691094
_cell_length_c   10.87390373
_cell_angle_alpha   89.90488125
_cell_angle_beta   90.00000000
_cell_angle_gamma   90.00000000
_symmetry_Int_Tables_number   1
_chemical_formula_structural   TbNp3(MoN2)4
_chemical_formula_sum   'Tb1 Np3 Mo4 N8'
_cell_volume   195.10741030
_cell_formula_units_Z   1
loop_
 _symmetry_equiv_pos_site_id
 _symmetry_equiv_pos_as_xyz
  1  'x, y, z'
loop_
 _atom_site_type_symbol
 _atom_site_label
 _atom_site_symmetry_multiplicity
 _atom_site_fract_x
 _atom_site_fract_y
 _atom_site_fract_z
 _atom_site_occupancy
  Tb  Tb0  1  0.750000  0.424495  0.353938  1
  Np  Np1  1  0.250000  0.074088  0.856031  1
  Np  Np2  1  0.250000  0.570296  0.642905  1
  Np  Np3  1  0.750000  0.925700  0.144701  1
  Mo  Mo4  1  0.250000  0.430133  0.100711  1
  Mo  Mo5  1  0.250000  0.932777  0.403682  1
  Mo  Mo6  1  0.750000  0.569642  0.900399  1
  Mo  Mo7  1  0.750000  0.068050  0.599501  1
  N  N8  1  0.250000  0.160098  0.244135  1
  N  N9  1  0.250000  0.672993  0.253151  1
  N  N10  1  0.750000  0.833857  0.754882  1
  N  N11  1  0.750000  0.334825  0.745023  1
  N  N12  1  0.250000  0.756377  0.995674  1
  N  N13  1  0.250000  0.258790  0.504353  1
  N  N14  1  0.750000  0.242028  0.003860  1
  N  N15  1  0.750000  0.745851  0.497052  1
