# generated using pymatgen
data_Sc4B8Ru9W
_symmetry_space_group_name_H-M   'P 1'
_cell_length_a   3.02594400
_cell_length_b   8.55242758
_cell_length_c   10.05893631
_cell_angle_alpha   90.52431634
_cell_angle_beta   90.00000000
_cell_angle_gamma   90.00000000
_symmetry_Int_Tables_number   1
_chemical_formula_structural   Sc4B8Ru9W
_chemical_formula_sum   'Sc4 B8 Ru9 W1'
_cell_volume   260.30599226
_cell_formula_units_Z   1
loop_
 _symmetry_equiv_pos_site_id
 _symmetry_equiv_pos_as_xyz
  1  'x, y, z'
loop_
 _atom_site_type_symbol
 _atom_site_label
 _atom_site_symmetry_multiplicity
 _atom_site_fract_x
 _atom_site_fract_y
 _atom_site_fract_z
 _atom_site_occupancy
  Sc  Sc0  1  0.500000  0.842361  0.178209  1
  Sc  Sc1  1  0.500000  0.158444  0.819839  1
  Sc  Sc2  1  0.500000  0.658801  0.683827  1
  Sc  Sc3  1  0.500000  0.343611  0.316209  1
  B  B4  1  0.500000  0.965472  0.589167  1
  B  B5  1  0.500000  0.035359  0.409635  1
  B  B6  1  0.500000  0.850198  0.900361  1
  B  B7  1  0.500000  0.149058  0.099860  1
  B  B8  1  0.500000  0.646043  0.398985  1
  B  B9  1  0.500000  0.350988  0.601442  1
  B  B10  1  0.500000  0.463143  0.913425  1
  B  B11  1  0.500000  0.533951  0.088276  1
  Ru  Ru12  1  0.000000  0.335835  0.049497  1
  Ru  Ru13  1  0.000000  0.842100  0.452380  1
  Ru  Ru14  1  0.000000  0.158797  0.545512  1
  Ru  Ru15  1  0.000000  0.002255  0.999582  1
  Ru  Ru16  1  0.000000  0.403780  0.761179  1
  Ru  Ru17  1  0.000000  0.596905  0.239831  1
  Ru  Ru18  1  0.000000  0.499775  0.500963  1
  Ru  Ru19  1  0.000000  0.907560  0.736753  1
  Ru  Ru20  1  0.000000  0.095549  0.261331  1
  W  W21  1  0.000000  0.660013  0.953739  1
