# generated using pymatgen
data_Tb4In2Cu3Rh
_symmetry_space_group_name_H-M   'P 1'
_cell_length_a   7.63286029
_cell_length_b   7.63286029
_cell_length_c   3.71022500
_cell_angle_alpha   90.00000000
_cell_angle_beta   90.00000000
_cell_angle_gamma   90.32810792
_symmetry_Int_Tables_number   1
_chemical_formula_structural   Tb4In2Cu3Rh
_chemical_formula_sum   'Tb4 In2 Cu3 Rh1'
_cell_volume   216.15622776
_cell_formula_units_Z   1
loop_
 _symmetry_equiv_pos_site_id
 _symmetry_equiv_pos_as_xyz
  1  'x, y, z'
loop_
 _atom_site_type_symbol
 _atom_site_label
 _atom_site_symmetry_multiplicity
 _atom_site_fract_x
 _atom_site_fract_y
 _atom_site_fract_z
 _atom_site_occupancy
  Tb  Tb0  1  0.671820  0.171820  0.500000  1
  Tb  Tb1  1  0.317659  0.817659  0.500000  1
  Tb  Tb2  1  0.179452  0.336422  0.500000  1
  Tb  Tb3  1  0.836422  0.679452  0.500000  1
  In  In4  1  0.505663  0.500046  0.000000  1
  In  In5  1  0.000046  0.005663  0.000000  1
  Cu  Cu6  1  0.874363  0.374363  0.000000  1
  Cu  Cu7  1  0.616755  0.878779  0.000000  1
  Cu  Cu8  1  0.378779  0.116755  0.000000  1
  Rh  Rh9  1  0.119042  0.619042  0.000000  1
