# generated using pymatgen
data_NdZrMn3Ni9As7
_symmetry_space_group_name_H-M   'P 1'
_cell_length_a   9.53365200
_cell_length_b   9.53365129
_cell_length_c   3.81910500
_cell_angle_alpha   90.00000000
_cell_angle_beta   90.00000000
_cell_angle_gamma   120.00000247
_symmetry_Int_Tables_number   1
_chemical_formula_structural   NdZrMn3Ni9As7
_chemical_formula_sum   'Nd1 Zr1 Mn3 Ni9 As7'
_cell_volume   300.61509023
_cell_formula_units_Z   1
loop_
 _symmetry_equiv_pos_site_id
 _symmetry_equiv_pos_as_xyz
  1  'x, y, z'
loop_
 _atom_site_type_symbol
 _atom_site_label
 _atom_site_symmetry_multiplicity
 _atom_site_fract_x
 _atom_site_fract_y
 _atom_site_fract_z
 _atom_site_occupancy
  Nd  Nd0  1  0.333333  0.666667  0.500000  1
  Zr  Zr1  1  0.666667  0.333333  0.000000  1
  Mn  Mn2  1  0.099146  0.878541  0.500000  1
  Mn  Mn3  1  0.779395  0.900854  0.500000  1
  Mn  Mn4  1  0.121459  0.220605  0.500000  1
  Ni  Ni5  1  0.055494  0.622677  0.000000  1
  Ni  Ni6  1  0.567183  0.944506  0.000000  1
  Ni  Ni7  1  0.377323  0.432817  0.000000  1
  Ni  Ni8  1  0.281813  0.128819  0.000000  1
  Ni  Ni9  1  0.847007  0.718187  0.000000  1
  Ni  Ni10  1  0.871181  0.152993  0.000000  1
  Ni  Ni11  1  0.435077  0.057895  0.500000  1
  Ni  Ni12  1  0.622818  0.564923  0.500000  1
  Ni  Ni13  1  0.942105  0.377182  0.500000  1
  As  As14  1  0.293200  0.888001  0.000000  1
  As  As15  1  0.594801  0.706800  0.000000  1
  As  As16  1  0.111999  0.405199  0.000000  1
  As  As17  1  0.414897  0.296623  0.500000  1
  As  As18  1  0.881725  0.585103  0.500000  1
  As  As19  1  0.703377  0.118275  0.500000  1
  As  As20  1  0.000000  0.000000  0.000000  1
