# generated using pymatgen
data_TbMnCdPt3
_symmetry_space_group_name_H-M   'P 1'
_cell_length_a   5.24001010
_cell_length_b   5.24001020
_cell_length_c   5.24001054
_cell_angle_alpha   63.45711719
_cell_angle_beta   63.45711729
_cell_angle_gamma   63.45711451
_symmetry_Int_Tables_number   1
_chemical_formula_structural   TbMnCdPt3
_chemical_formula_sum   'Tb1 Mn1 Cd1 Pt3'
_cell_volume   109.51792086
_cell_formula_units_Z   1
loop_
 _symmetry_equiv_pos_site_id
 _symmetry_equiv_pos_as_xyz
  1  'x, y, z'
loop_
 _atom_site_type_symbol
 _atom_site_label
 _atom_site_symmetry_multiplicity
 _atom_site_fract_x
 _atom_site_fract_y
 _atom_site_fract_z
 _atom_site_occupancy
  Tb  Tb0  1  0.248314  0.248314  0.248314  1
  Mn  Mn1  1  0.626069  0.626069  0.626069  1
  Cd  Cd2  1  0.997647  0.997647  0.997647  1
  Pt  Pt3  1  0.626720  0.626720  0.124530  1
  Pt  Pt4  1  0.626720  0.124530  0.626720  1
  Pt  Pt5  1  0.124530  0.626720  0.626720  1
