# generated using pymatgen
data_Dy2TmCo8P6Os
_symmetry_space_group_name_H-M   'P 1'
_cell_length_a   3.70073500
_cell_length_b   10.46292100
_cell_length_c   12.20907200
_cell_angle_alpha   90.00000000
_cell_angle_beta   90.00000000
_cell_angle_gamma   90.00000000
_symmetry_Int_Tables_number   1
_chemical_formula_structural   Dy2TmCo8P6Os
_chemical_formula_sum   'Dy4 Tm2 Co16 P12 Os2'
_cell_volume   472.74134731
_cell_formula_units_Z   2
loop_
 _symmetry_equiv_pos_site_id
 _symmetry_equiv_pos_as_xyz
  1  'x, y, z'
loop_
 _atom_site_type_symbol
 _atom_site_label
 _atom_site_symmetry_multiplicity
 _atom_site_fract_x
 _atom_site_fract_y
 _atom_site_fract_z
 _atom_site_occupancy
  Dy  Dy0  1  0.000000  0.500000  0.524450  1
  Dy  Dy1  1  0.500000  0.000000  0.474882  1
  Dy  Dy2  1  0.000000  0.682800  0.793132  1
  Dy  Dy3  1  0.000000  0.317200  0.793132  1
  Tm  Tm4  1  0.500000  0.817568  0.207054  1
  Tm  Tm5  1  0.500000  0.182432  0.207054  1
  Co  Co6  1  0.500000  0.500000  0.703661  1
  Co  Co7  1  0.000000  0.000000  0.295657  1
  Co  Co8  1  0.000000  0.500000  0.987472  1
  Co  Co9  1  0.500000  0.000000  0.014062  1
  Co  Co10  1  0.500000  0.332232  0.990727  1
  Co  Co11  1  0.500000  0.667768  0.990727  1
  Co  Co12  1  0.000000  0.167164  0.010934  1
  Co  Co13  1  0.000000  0.832836  0.010934  1
  Co  Co14  1  0.500000  0.297307  0.430160  1
  Co  Co15  1  0.500000  0.702693  0.430160  1
  Co  Co16  1  0.000000  0.202338  0.568545  1
  Co  Co17  1  0.000000  0.797662  0.568545  1
  Co  Co18  1  0.500000  0.879448  0.708543  1
  Co  Co19  1  0.500000  0.120552  0.708543  1
  Co  Co20  1  0.000000  0.621347  0.290831  1
  Co  Co21  1  0.000000  0.378653  0.290831  1
  P  P22  1  0.500000  0.500000  0.881225  1
  P  P23  1  0.000000  0.000000  0.120123  1
  P  P24  1  0.500000  0.500000  0.350706  1
  P  P25  1  0.000000  0.000000  0.649107  1
  P  P26  1  0.500000  0.311626  0.615666  1
  P  P27  1  0.500000  0.688374  0.615666  1
  P  P28  1  0.000000  0.187966  0.382705  1
  P  P29  1  0.000000  0.812034  0.382705  1
  P  P30  1  0.500000  0.846657  0.893183  1
  P  P31  1  0.500000  0.153343  0.893183  1
  P  P32  1  0.000000  0.654479  0.107784  1
  P  P33  1  0.000000  0.345521  0.107784  1
  Os  Os34  1  0.500000  0.500000  0.158835  1
  Os  Os35  1  0.000000  0.000000  0.841293  1
