# generated using pymatgen
data_Nd4Al4NiIrRh2
_symmetry_space_group_name_H-M   'P 1'
_cell_length_a   4.32880500
_cell_length_b   7.03463259
_cell_length_c   8.02187363
_cell_angle_alpha   89.20379422
_cell_angle_beta   90.00000000
_cell_angle_gamma   90.00000000
_symmetry_Int_Tables_number   1
_chemical_formula_structural   Nd4Al4NiIrRh2
_chemical_formula_sum   'Nd4 Al4 Ni1 Ir1 Rh2'
_cell_volume   244.25492181
_cell_formula_units_Z   1
loop_
 _symmetry_equiv_pos_site_id
 _symmetry_equiv_pos_as_xyz
  1  'x, y, z'
loop_
 _atom_site_type_symbol
 _atom_site_label
 _atom_site_symmetry_multiplicity
 _atom_site_fract_x
 _atom_site_fract_y
 _atom_site_fract_z
 _atom_site_occupancy
  Nd  Nd0  1  0.250000  0.537882  0.177877  1
  Nd  Nd1  1  0.750000  0.466118  0.820345  1
  Nd  Nd2  1  0.750000  0.965189  0.683417  1
  Nd  Nd3  1  0.250000  0.034950  0.320469  1
  Al  Al4  1  0.250000  0.634752  0.563278  1
  Al  Al5  1  0.750000  0.363624  0.439353  1
  Al  Al6  1  0.750000  0.862595  0.058776  1
  Al  Al7  1  0.250000  0.132400  0.935879  1
  Ni  Ni8  1  0.250000  0.777041  0.880613  1
  Ir  Ir9  1  0.250000  0.271345  0.620298  1
  Rh  Rh10  1  0.750000  0.226296  0.116035  1
  Rh  Rh11  1  0.750000  0.727807  0.383660  1
