# generated using pymatgen
data_MnNbRuF12
_symmetry_space_group_name_H-M   'P 1'
_cell_length_a   5.36392470
_cell_length_b   5.65792626
_cell_length_c   9.36981413
_cell_angle_alpha   73.88347215
_cell_angle_beta   88.62060472
_cell_angle_gamma   62.34306707
_symmetry_Int_Tables_number   1
_chemical_formula_structural   MnNbRuF12
_chemical_formula_sum   'Mn1 Nb1 Ru1 F12'
_cell_volume   240.13105835
_cell_formula_units_Z   1
loop_
 _symmetry_equiv_pos_site_id
 _symmetry_equiv_pos_as_xyz
  1  'x, y, z'
loop_
 _atom_site_type_symbol
 _atom_site_label
 _atom_site_symmetry_multiplicity
 _atom_site_fract_x
 _atom_site_fract_y
 _atom_site_fract_z
 _atom_site_occupancy
  Mn  Mn0  1  0.503454  0.501713  0.497484  1
  Nb  Nb1  1  0.228997  0.993785  0.762676  1
  Ru  Ru2  1  0.773066  0.000373  0.246154  1
  F  F3  1  0.943975  0.227863  0.199979  1
  F  F4  1  0.055233  0.763843  0.795770  1
  F  F5  1  0.008532  0.768342  0.139104  1
  F  F6  1  0.460963  0.772195  0.627518  1
  F  F7  1  0.536076  0.228554  0.369076  1
  F  F8  1  0.941275  0.243401  0.576853  1
  F  F9  1  0.056613  0.761973  0.423399  1
  F  F10  1  0.405988  0.239590  0.679118  1
  F  F11  1  0.595505  0.760926  0.312411  1
  F  F12  1  0.514343  0.778127  0.925720  1
  F  F13  1  0.496074  0.219163  0.082431  1
  F  F14  1  0.979908  0.240152  0.862307  1
