# generated using pymatgen
data_Y6Ho2Sc12Si15Ge
_symmetry_space_group_name_H-M   'P 1'
_cell_length_a   7.10026152
_cell_length_b   7.38658216
_cell_length_c   13.99904411
_cell_angle_alpha   90.00531739
_cell_angle_beta   89.82909734
_cell_angle_gamma   90.05471874
_symmetry_Int_Tables_number   1
_chemical_formula_structural   Y6Ho2Sc12Si15Ge
_chemical_formula_sum   'Y6 Ho2 Sc12 Si15 Ge1'
_cell_volume   734.19957471
_cell_formula_units_Z   1
loop_
 _symmetry_equiv_pos_site_id
 _symmetry_equiv_pos_as_xyz
  1  'x, y, z'
loop_
 _atom_site_type_symbol
 _atom_site_label
 _atom_site_symmetry_multiplicity
 _atom_site_fract_x
 _atom_site_fract_y
 _atom_site_fract_z
 _atom_site_occupancy
  Y  Y0  1  0.011332  0.175522  0.096617  1
  Y  Y1  1  0.988757  0.824724  0.903438  1
  Y  Y2  1  0.489244  0.675478  0.903447  1
  Y  Y3  1  0.988874  0.824817  0.596757  1
  Y  Y4  1  0.510909  0.324757  0.096736  1
  Y  Y5  1  0.009680  0.175221  0.402822  1
  Ho  Ho6  1  0.511249  0.323174  0.402333  1
  Ho  Ho7  1  0.492072  0.677111  0.597222  1
  Sc  Sc8  1  0.162401  0.502214  0.751234  1
  Sc  Sc9  1  0.837372  0.497828  0.250209  1
  Sc  Sc10  1  0.337900  0.002314  0.250051  1
  Sc  Sc11  1  0.662176  0.997672  0.749975  1
  Sc  Sc12  1  0.334849  0.174045  0.626452  1
  Sc  Sc13  1  0.666402  0.823845  0.374033  1
  Sc  Sc14  1  0.166043  0.677098  0.374196  1
  Sc  Sc15  1  0.667674  0.822820  0.125311  1
  Sc  Sc16  1  0.831454  0.324069  0.625246  1
  Sc  Sc17  1  0.332051  0.176679  0.874632  1
  Sc  Sc18  1  0.831933  0.323123  0.874734  1
  Sc  Sc19  1  0.167802  0.677074  0.125331  1
  Si  Si20  1  0.034748  0.116725  0.750132  1
  Si  Si21  1  0.965021  0.884188  0.249503  1
  Si  Si22  1  0.464351  0.616188  0.249720  1
  Si  Si23  1  0.534875  0.384047  0.750290  1
  Si  Si24  1  0.286780  0.872306  0.750187  1
  Si  Si25  1  0.713253  0.126970  0.249666  1
  Si  Si26  1  0.213204  0.373340  0.250002  1
  Si  Si27  1  0.787046  0.626895  0.750068  1
  Si  Si28  1  0.834510  0.536898  0.459663  1
  Si  Si29  1  0.340608  0.964201  0.460701  1
  Si  Si30  1  0.841590  0.535353  0.039506  1
  Si  Si31  1  0.659436  0.036082  0.539086  1
  Si  Si32  1  0.158314  0.464586  0.960733  1
  Si  Si33  1  0.658179  0.035599  0.960694  1
  Si  Si34  1  0.341673  0.964551  0.039419  1
  Ge  Ge35  1  0.166237  0.462481  0.539856  1
