# generated using pymatgen
data_Dy7Ho9Cd4Os3Pt
_symmetry_space_group_name_H-M   'P 1'
_cell_length_a   9.57562254
_cell_length_b   9.69178209
_cell_length_c   9.70327100
_cell_angle_alpha   59.96076835
_cell_angle_beta   59.55802954
_cell_angle_gamma   59.51388756
_symmetry_Int_Tables_number   1
_chemical_formula_structural   Dy7Ho9Cd4Os3Pt
_chemical_formula_sum   'Dy7 Ho9 Cd4 Os3 Pt1'
_cell_volume   632.06914159
_cell_formula_units_Z   1
loop_
 _symmetry_equiv_pos_site_id
 _symmetry_equiv_pos_as_xyz
  1  'x, y, z'
loop_
 _atom_site_type_symbol
 _atom_site_label
 _atom_site_symmetry_multiplicity
 _atom_site_fract_x
 _atom_site_fract_y
 _atom_site_fract_z
 _atom_site_occupancy
  Dy  Dy0  1  0.814308  0.804605  0.190543  1
  Dy  Dy1  1  0.936580  0.561447  0.561473  1
  Dy  Dy2  1  0.551184  0.941287  0.940877  1
  Dy  Dy3  1  0.551184  0.941287  0.566652  1
  Dy  Dy4  1  0.936580  0.561446  0.940500  1
  Dy  Dy5  1  0.551227  0.566519  0.941127  1
  Dy  Dy6  1  0.936441  0.940769  0.561394  1
  Ho  Ho7  1  0.347598  0.350059  0.349734  1
  Ho  Ho8  1  0.347598  0.350059  0.952611  1
  Ho  Ho9  1  0.347725  0.952569  0.349854  1
  Ho  Ho10  1  0.970709  0.342993  0.343150  1
  Ho  Ho11  1  0.813884  0.190475  0.190515  1
  Ho  Ho12  1  0.185042  0.810767  0.811089  1
  Ho  Ho13  1  0.185042  0.810767  0.193101  1
  Ho  Ho14  1  0.813884  0.190475  0.805125  1
  Ho  Ho15  1  0.184862  0.193015  0.811061  1
  Cd  Cd16  1  0.581121  0.579396  0.579675  1
  Cd  Cd17  1  0.581121  0.579396  0.259807  1
  Cd  Cd18  1  0.581168  0.259482  0.579675  1
  Cd  Cd19  1  0.254510  0.581903  0.581793  1
  Os  Os20  1  0.150022  0.136087  0.135658  1
  Os  Os21  1  0.150022  0.136087  0.578234  1
  Os  Os22  1  0.150617  0.577960  0.135712  1
  Pt  Pt23  1  0.577572  0.141152  0.140638  1
