# generated using pymatgen
data_Dy3Y5Ti11Si16Hg
_symmetry_space_group_name_H-M   'P 1'
_cell_length_a   7.08448945
_cell_length_b   7.08458855
_cell_length_c   12.93007101
_cell_angle_alpha   89.88499387
_cell_angle_beta   90.11803064
_cell_angle_gamma   89.58004768
_symmetry_Int_Tables_number   1
_chemical_formula_structural   Dy3Y5Ti11Si16Hg
_chemical_formula_sum   'Dy3 Y5 Ti11 Si16 Hg1'
_cell_volume   648.94908634
_cell_formula_units_Z   1
loop_
 _symmetry_equiv_pos_site_id
 _symmetry_equiv_pos_as_xyz
  1  'x, y, z'
loop_
 _atom_site_type_symbol
 _atom_site_label
 _atom_site_symmetry_multiplicity
 _atom_site_fract_x
 _atom_site_fract_y
 _atom_site_fract_z
 _atom_site_occupancy
  Dy  Dy0  1  0.501999  0.160405  0.216053  1
  Dy  Dy1  1  0.498769  0.842523  0.714859  1
  Dy  Dy2  1  0.342930  0.999559  0.468562  1
  Y  Y3  1  0.997781  0.658965  0.033129  1
  Y  Y4  1  0.999679  0.342821  0.531439  1
  Y  Y5  1  0.658944  0.997750  0.966862  1
  Y  Y6  1  0.160469  0.502099  0.783919  1
  Y  Y7  1  0.842411  0.498598  0.285070  1
  Ti  Ti8  1  0.349859  0.504588  0.376256  1
  Ti  Ti9  1  0.852541  0.991117  0.377126  1
  Ti  Ti10  1  0.008746  0.150759  0.125400  1
  Ti  Ti11  1  0.991178  0.852664  0.622842  1
  Ti  Ti12  1  0.504678  0.349728  0.623712  1
  Ti  Ti13  1  0.150772  0.008766  0.874535  1
  Ti  Ti14  1  0.826407  0.173417  0.750557  1
  Ti  Ti15  1  0.173567  0.826517  0.249493  1
  Ti  Ti16  1  0.327100  0.327047  0.000033  1
  Ti  Ti17  1  0.492388  0.648928  0.124572  1
  Ti  Ti18  1  0.648918  0.492481  0.875345  1
  Si  Si19  1  0.067252  0.714377  0.432509  1
  Si  Si20  1  0.952238  0.290173  0.935927  1
  Si  Si21  1  0.714073  0.067085  0.567558  1
  Si  Si22  1  0.209246  0.453475  0.185362  1
  Si  Si23  1  0.794218  0.541310  0.694539  1
  Si  Si24  1  0.453559  0.209014  0.814626  1
  Si  Si25  1  0.541117  0.794529  0.305543  1
  Si  Si26  1  0.290290  0.952299  0.064122  1
  Si  Si27  1  0.798240  0.868692  0.184501  1
  Si  Si28  1  0.275552  0.625933  0.572377  1
  Si  Si29  1  0.705589  0.368968  0.066982  1
  Si  Si30  1  0.625539  0.275379  0.427592  1
  Si  Si31  1  0.369126  0.705734  0.933007  1
  Si  Si32  1  0.132560  0.201544  0.316751  1
  Si  Si33  1  0.201782  0.132169  0.683305  1
  Si  Si34  1  0.868486  0.798394  0.815513  1
  Hg  Hg35  1  0.671996  0.672188  0.500020  1
