# generated using pymatgen
data_Er3AlCo3
_symmetry_space_group_name_H-M   'P 1'
_cell_length_a   5.37442746
_cell_length_b   5.37442849
_cell_length_c   12.94144100
_cell_angle_alpha   90.00000000
_cell_angle_beta   90.00000000
_cell_angle_gamma   136.34598924
_symmetry_Int_Tables_number   1
_chemical_formula_structural   Er3AlCo3
_chemical_formula_sum   'Er6 Al2 Co6'
_cell_volume   258.03950058
_cell_formula_units_Z   2
loop_
 _symmetry_equiv_pos_site_id
 _symmetry_equiv_pos_as_xyz
  1  'x, y, z'
loop_
 _atom_site_type_symbol
 _atom_site_label
 _atom_site_symmetry_multiplicity
 _atom_site_fract_x
 _atom_site_fract_y
 _atom_site_fract_z
 _atom_site_occupancy
  Er  Er0  1  0.792849  0.207151  0.395152  1
  Er  Er1  1  0.207151  0.792849  0.604848  1
  Er  Er2  1  0.792849  0.207151  0.104848  1
  Er  Er3  1  0.207151  0.792849  0.895152  1
  Er  Er4  1  0.507722  0.492278  0.250000  1
  Er  Er5  1  0.492278  0.507722  0.750000  1
  Al  Al6  1  0.500000  0.500000  0.500000  1
  Al  Al7  1  0.500000  0.500000  0.000000  1
  Co  Co8  1  0.083920  0.916080  0.406587  1
  Co  Co9  1  0.916080  0.083920  0.593413  1
  Co  Co10  1  0.083920  0.916080  0.093413  1
  Co  Co11  1  0.916080  0.083920  0.906587  1
  Co  Co12  1  0.207279  0.792721  0.250000  1
  Co  Co13  1  0.792721  0.207279  0.750000  1
