# generated using pymatgen
data_Dy20Ir8OsRh3
_symmetry_space_group_name_H-M   'P 1'
_cell_length_a   10.84518600
_cell_length_b   10.84518600
_cell_length_c   6.40715000
_cell_angle_alpha   90.00000000
_cell_angle_beta   90.00000000
_cell_angle_gamma   90.00000000
_symmetry_Int_Tables_number   1
_chemical_formula_structural   Dy20Ir8OsRh3
_chemical_formula_sum   'Dy20 Ir8 Os1 Rh3'
_cell_volume   753.59654912
_cell_formula_units_Z   1
loop_
 _symmetry_equiv_pos_site_id
 _symmetry_equiv_pos_as_xyz
  1  'x, y, z'
loop_
 _atom_site_type_symbol
 _atom_site_label
 _atom_site_symmetry_multiplicity
 _atom_site_fract_x
 _atom_site_fract_y
 _atom_site_fract_z
 _atom_site_occupancy
  Dy  Dy0  1  0.292202  0.087700  0.376258  1
  Dy  Dy1  1  0.292884  0.912475  0.881772  1
  Dy  Dy2  1  0.707116  0.087525  0.881772  1
  Dy  Dy3  1  0.707798  0.912300  0.376258  1
  Dy  Dy4  1  0.587525  0.792884  0.881772  1
  Dy  Dy5  1  0.587700  0.207798  0.376258  1
  Dy  Dy6  1  0.412300  0.792202  0.376258  1
  Dy  Dy7  1  0.412475  0.207116  0.881772  1
  Dy  Dy8  1  0.209560  0.411107  0.620908  1
  Dy  Dy9  1  0.209465  0.588518  0.120520  1
  Dy  Dy10  1  0.790535  0.411482  0.120520  1
  Dy  Dy11  1  0.790440  0.588893  0.620908  1
  Dy  Dy12  1  0.911482  0.709465  0.120520  1
  Dy  Dy13  1  0.911107  0.290440  0.620908  1
  Dy  Dy14  1  0.088893  0.709560  0.620908  1
  Dy  Dy15  1  0.088518  0.290535  0.120520  1
  Dy  Dy16  1  0.000000  0.000000  0.499316  1
  Dy  Dy17  1  0.000000  0.000000  0.999183  1
  Dy  Dy18  1  0.500000  0.500000  0.999183  1
  Dy  Dy19  1  0.500000  0.500000  0.499316  1
  Ir  Ir20  1  0.847623  0.154467  0.250476  1
  Ir  Ir21  1  0.847552  0.845963  0.749962  1
  Ir  Ir22  1  0.152448  0.154037  0.749962  1
  Ir  Ir23  1  0.152377  0.845533  0.250476  1
  Ir  Ir24  1  0.654037  0.347552  0.749962  1
  Ir  Ir25  1  0.654467  0.652377  0.250476  1
  Ir  Ir26  1  0.345533  0.347623  0.250476  1
  Ir  Ir27  1  0.345963  0.652448  0.749962  1
  Os  Os28  1  0.500000  0.000000  0.125924  1
  Rh  Rh29  1  0.500000  0.000000  0.623715  1
  Rh  Rh30  1  0.000000  0.500000  0.876679  1
  Rh  Rh31  1  0.000000  0.500000  0.377093  1
