# generated using pymatgen
data_TmAg6CO11
_symmetry_space_group_name_H-M   'P 1'
_cell_length_a   7.07630909
_cell_length_b   7.07630871
_cell_length_c   7.07630718
_cell_angle_alpha   60.90500714
_cell_angle_beta   60.90500646
_cell_angle_gamma   60.90499963
_symmetry_Int_Tables_number   1
_chemical_formula_structural   TmAg6CO11
_chemical_formula_sum   'Tm1 Ag6 C1 O11'
_cell_volume   255.66714348
_cell_formula_units_Z   1
loop_
 _symmetry_equiv_pos_site_id
 _symmetry_equiv_pos_as_xyz
  1  'x, y, z'
loop_
 _atom_site_type_symbol
 _atom_site_label
 _atom_site_symmetry_multiplicity
 _atom_site_fract_x
 _atom_site_fract_y
 _atom_site_fract_z
 _atom_site_occupancy
  Tm  Tm0  1  0.999010  0.999010  0.999010  1
  Ag  Ag1  1  0.499274  0.000473  0.000473  1
  Ag  Ag2  1  0.500368  0.500368  0.001249  1
  Ag  Ag3  1  0.500368  0.001249  0.500368  1
  Ag  Ag4  1  0.000473  0.000473  0.499274  1
  Ag  Ag5  1  0.001249  0.500368  0.500368  1
  Ag  Ag6  1  0.000473  0.499274  0.000473  1
  C  C7  1  0.499719  0.499719  0.499719  1
  O  O8  1  0.591234  0.140776  0.140776  1
  O  O9  1  0.140776  0.591234  0.140776  1
  O  O10  1  0.136423  0.136423  0.136423  1
  O  O11  1  0.140776  0.140776  0.591234  1
  O  O12  1  0.603434  0.603434  0.292149  1
  O  O13  1  0.603434  0.292149  0.603434  1
  O  O14  1  0.292149  0.603434  0.603434  1
  O  O15  1  0.860489  0.860489  0.406140  1
  O  O16  1  0.860489  0.406140  0.860489  1
  O  O17  1  0.863719  0.863719  0.863719  1
  O  O18  1  0.406140  0.860489  0.860489  1
