# generated using pymatgen
data_Ho7Tm9(HgIr)4
_symmetry_space_group_name_H-M   'P 1'
_cell_length_a   9.51732969
_cell_length_b   9.51732950
_cell_length_c   9.51886600
_cell_angle_alpha   59.99465244
_cell_angle_beta   59.99465309
_cell_angle_gamma   60.01519730
_symmetry_Int_Tables_number   1
_chemical_formula_structural   Ho7Tm9(HgIr)4
_chemical_formula_sum   'Ho7 Tm9 Hg4 Ir4'
_cell_volume   609.69856961
_cell_formula_units_Z   1
loop_
 _symmetry_equiv_pos_site_id
 _symmetry_equiv_pos_as_xyz
  1  'x, y, z'
loop_
 _atom_site_type_symbol
 _atom_site_label
 _atom_site_symmetry_multiplicity
 _atom_site_fract_x
 _atom_site_fract_y
 _atom_site_fract_z
 _atom_site_occupancy
  Ho  Ho0  1  0.060052  0.060052  0.439948  1
  Ho  Ho1  1  0.189148  0.811027  0.811530  1
  Ho  Ho2  1  0.811027  0.189148  0.188296  1
  Ho  Ho3  1  0.811027  0.189148  0.811530  1
  Ho  Ho4  1  0.189148  0.811027  0.188296  1
  Ho  Ho5  1  0.811225  0.811225  0.188775  1
  Ho  Ho6  1  0.188714  0.188714  0.811286  1
  Tm  Tm7  1  0.600568  0.600568  0.600087  1
  Tm  Tm8  1  0.600568  0.600568  0.198777  1
  Tm  Tm9  1  0.600520  0.198316  0.600582  1
  Tm  Tm10  1  0.198316  0.600520  0.600582  1
  Tm  Tm11  1  0.059780  0.439709  0.440323  1
  Tm  Tm12  1  0.439709  0.059780  0.060188  1
  Tm  Tm13  1  0.439709  0.059780  0.440323  1
  Tm  Tm14  1  0.059780  0.439709  0.060188  1
  Tm  Tm15  1  0.439844  0.439844  0.060156  1
  Hg  Hg16  1  0.834367  0.834367  0.834583  1
  Hg  Hg17  1  0.834367  0.834367  0.496684  1
  Hg  Hg18  1  0.834678  0.496048  0.834637  1
  Hg  Hg19  1  0.496048  0.834678  0.834637  1
  Ir  Ir20  1  0.392261  0.392261  0.391481  1
  Ir  Ir21  1  0.392261  0.392261  0.823998  1
  Ir  Ir22  1  0.393261  0.823623  0.391559  1
  Ir  Ir23  1  0.823623  0.393261  0.391559  1
