# generated using pymatgen
data_Sc4Fe19MoP12
_symmetry_space_group_name_H-M   'P 1'
_cell_length_a   3.60892500
_cell_length_b   10.18517801
_cell_length_c   11.70986557
_cell_angle_alpha   89.15476257
_cell_angle_beta   90.00000000
_cell_angle_gamma   90.00000000
_symmetry_Int_Tables_number   1
_chemical_formula_structural   Sc4Fe19MoP12
_chemical_formula_sum   'Sc4 Fe19 Mo1 P12'
_cell_volume   430.37905807
_cell_formula_units_Z   1
loop_
 _symmetry_equiv_pos_site_id
 _symmetry_equiv_pos_as_xyz
  1  'x, y, z'
loop_
 _atom_site_type_symbol
 _atom_site_label
 _atom_site_symmetry_multiplicity
 _atom_site_fract_x
 _atom_site_fract_y
 _atom_site_fract_z
 _atom_site_occupancy
  Sc  Sc0  1  0.250000  0.575006  0.702721  1
  Sc  Sc1  1  0.250000  0.916953  0.205099  1
  Sc  Sc2  1  0.750000  0.424406  0.297829  1
  Sc  Sc3  1  0.750000  0.086165  0.791910  1
  Fe  Fe4  1  0.250000  0.218511  0.178332  1
  Fe  Fe5  1  0.250000  0.275762  0.673255  1
  Fe  Fe6  1  0.750000  0.784968  0.818253  1
  Fe  Fe7  1  0.750000  0.721767  0.329130  1
  Fe  Fe8  1  0.250000  0.874969  0.701331  1
  Fe  Fe9  1  0.250000  0.619935  0.203009  1
  Fe  Fe10  1  0.750000  0.125844  0.298138  1
  Fe  Fe11  1  0.750000  0.378277  0.799478  1
  Fe  Fe12  1  0.250000  0.405715  0.489863  1
  Fe  Fe13  1  0.250000  0.099125  0.988400  1
  Fe  Fe14  1  0.750000  0.590576  0.511827  1
  Fe  Fe15  1  0.750000  0.909895  0.011516  1
  Fe  Fe16  1  0.250000  0.459766  0.934061  1
  Fe  Fe17  1  0.250000  0.037518  0.431029  1
  Fe  Fe18  1  0.750000  0.532201  0.067964  1
  Fe  Fe19  1  0.750000  0.961535  0.567355  1
  Fe  Fe20  1  0.250000  0.790516  0.490210  1
  Fe  Fe21  1  0.750000  0.293303  0.011540  1
  Fe  Fe22  1  0.750000  0.207675  0.510767  1
  Mo  Mo23  1  0.250000  0.705876  0.988440  1
  P  P24  1  0.250000  0.422417  0.118670  1
  P  P25  1  0.250000  0.077606  0.613680  1
  P  P26  1  0.750000  0.573224  0.880945  1
  P  P27  1  0.750000  0.921864  0.384496  1
  P  P28  1  0.250000  0.263873  0.863900  1
  P  P29  1  0.250000  0.240616  0.371922  1
  P  P30  1  0.750000  0.734206  0.140218  1
  P  P31  1  0.750000  0.758074  0.625164  1
  P  P32  1  0.250000  0.599190  0.393526  1
  P  P33  1  0.250000  0.916102  0.891503  1
  P  P34  1  0.750000  0.396910  0.609149  1
  P  P35  1  0.750000  0.099655  0.105367  1
