# generated using pymatgen
data_Sr8Ca7Tb5Pt16
_symmetry_space_group_name_H-M   'P 1'
_cell_length_a   7.70253103
_cell_length_b   7.82805720
_cell_length_c   14.91739700
_cell_angle_alpha   90.04054152
_cell_angle_beta   90.02970219
_cell_angle_gamma   90.04330183
_symmetry_Int_Tables_number   1
_chemical_formula_structural   Sr8Ca7Tb5Pt16
_chemical_formula_sum   'Sr8 Ca7 Tb5 Pt16'
_cell_volume   899.45658106
_cell_formula_units_Z   1
loop_
 _symmetry_equiv_pos_site_id
 _symmetry_equiv_pos_as_xyz
  1  'x, y, z'
loop_
 _atom_site_type_symbol
 _atom_site_label
 _atom_site_symmetry_multiplicity
 _atom_site_fract_x
 _atom_site_fract_y
 _atom_site_fract_z
 _atom_site_occupancy
  Sr  Sr0  1  0.499548  0.326689  0.902970  1
  Sr  Sr1  1  0.000078  0.174384  0.595389  1
  Sr  Sr2  1  0.499231  0.675055  0.405165  1
  Sr  Sr3  1  0.001911  0.823493  0.095572  1
  Sr  Sr4  1  0.501557  0.675958  0.096765  1
  Sr  Sr5  1  0.002004  0.822543  0.404116  1
  Sr  Sr6  1  0.498337  0.323067  0.596750  1
  Sr  Sr7  1  0.998372  0.177008  0.902493  1
  Ca  Ca8  1  0.161790  0.332131  0.378104  1
  Ca  Ca9  1  0.338919  0.831363  0.621920  1
  Ca  Ca10  1  0.839463  0.668714  0.878080  1
  Ca  Ca11  1  0.177784  0.493978  0.749414  1
  Ca  Ca12  1  0.678482  0.006454  0.749574  1
  Ca  Ca13  1  0.823319  0.508918  0.251275  1
  Ca  Ca14  1  0.319517  0.991970  0.250990  1
  Tb  Tb15  1  0.339020  0.833991  0.876426  1
  Tb  Tb16  1  0.838424  0.666587  0.623573  1
  Tb  Tb17  1  0.660686  0.167001  0.376434  1
  Tb  Tb18  1  0.160767  0.332925  0.123521  1
  Tb  Tb19  1  0.661325  0.167928  0.123347  1
  Pt  Pt20  1  0.332589  0.046073  0.042550  1
  Pt  Pt21  1  0.827551  0.456397  0.459227  1
  Pt  Pt22  1  0.672155  0.956197  0.540694  1
  Pt  Pt23  1  0.170056  0.544245  0.959657  1
  Pt  Pt24  1  0.659060  0.963830  0.958841  1
  Pt  Pt25  1  0.155023  0.539545  0.543947  1
  Pt  Pt26  1  0.344432  0.039801  0.455495  1
  Pt  Pt27  1  0.839964  0.452046  0.044648  1
  Pt  Pt28  1  0.545858  0.632991  0.752520  1
  Pt  Pt29  1  0.046334  0.868043  0.748352  1
  Pt  Pt30  1  0.457738  0.365297  0.247620  1
  Pt  Pt31  1  0.950889  0.133526  0.246616  1
  Pt  Pt32  1  0.299584  0.121258  0.753099  1
  Pt  Pt33  1  0.799644  0.379233  0.746552  1
  Pt  Pt34  1  0.696798  0.881889  0.250747  1
  Pt  Pt35  1  0.201792  0.619474  0.247557  1
