# generated using pymatgen
data_Y8Er2BiPb5
_symmetry_space_group_name_H-M   'P 1'
_cell_length_a   9.09742920
_cell_length_b   9.09742960
_cell_length_c   6.57120501
_cell_angle_alpha   90.00381913
_cell_angle_beta   90.00380977
_cell_angle_gamma   119.99897954
_symmetry_Int_Tables_number   1
_chemical_formula_structural   Y8Er2BiPb5
_chemical_formula_sum   'Y8 Er2 Bi1 Pb5'
_cell_volume   470.99630299
_cell_formula_units_Z   1
loop_
 _symmetry_equiv_pos_site_id
 _symmetry_equiv_pos_as_xyz
  1  'x, y, z'
loop_
 _atom_site_type_symbol
 _atom_site_label
 _atom_site_symmetry_multiplicity
 _atom_site_fract_x
 _atom_site_fract_y
 _atom_site_fract_z
 _atom_site_occupancy
  Y  Y0  1  0.668107  0.332997  0.999867  1
  Y  Y1  1  0.332997  0.668107  0.999867  1
  Y  Y2  1  0.762502  0.762502  0.749759  1
  Y  Y3  1  0.237901  0.997119  0.749726  1
  Y  Y4  1  0.997119  0.237901  0.749726  1
  Y  Y5  1  0.238806  0.238806  0.250174  1
  Y  Y6  1  0.761278  0.000536  0.250201  1
  Y  Y7  1  0.000536  0.761278  0.250201  1
  Er  Er8  1  0.332974  0.668246  0.500020  1
  Er  Er9  1  0.668246  0.332974  0.500020  1
  Bi  Bi10  1  0.393071  0.393071  0.749327  1
  Pb  Pb11  1  0.605211  0.999738  0.748776  1
  Pb  Pb12  1  0.999738  0.605211  0.748776  1
  Pb  Pb13  1  0.606257  0.606257  0.251180  1
  Pb  Pb14  1  0.394212  0.001043  0.251190  1
  Pb  Pb15  1  0.001043  0.394212  0.251190  1
