# generated using pymatgen
data_Ba2CeAg5Se6
_symmetry_space_group_name_H-M   'P 1'
_cell_length_a   4.45382800
_cell_length_b   7.64989735
_cell_length_c   11.66409178
_cell_angle_alpha   94.25776312
_cell_angle_beta   90.00000000
_cell_angle_gamma   106.92405682
_symmetry_Int_Tables_number   1
_chemical_formula_structural   Ba2CeAg5Se6
_chemical_formula_sum   'Ba2 Ce1 Ag5 Se6'
_cell_volume   379.05318542
_cell_formula_units_Z   1
loop_
 _symmetry_equiv_pos_site_id
 _symmetry_equiv_pos_as_xyz
  1  'x, y, z'
loop_
 _atom_site_type_symbol
 _atom_site_label
 _atom_site_symmetry_multiplicity
 _atom_site_fract_x
 _atom_site_fract_y
 _atom_site_fract_z
 _atom_site_occupancy
  Ba  Ba0  1  0.252229  0.504458  0.707246  1
  Ba  Ba1  1  0.747771  0.495542  0.292754  1
  Ce  Ce2  1  0.500000  0.000000  0.500000  1
  Ag  Ag3  1  0.019031  0.038062  0.254020  1
  Ag  Ag4  1  0.980969  0.961938  0.745980  1
  Ag  Ag5  1  0.354843  0.709687  0.034962  1
  Ag  Ag6  1  0.645157  0.290313  0.965038  1
  Ag  Ag7  1  0.000000  0.000000  0.000000  1
  Se  Se8  1  0.131160  0.262319  0.450053  1
  Se  Se9  1  0.868840  0.737681  0.549947  1
  Se  Se10  1  0.158992  0.317985  0.101218  1
  Se  Se11  1  0.841008  0.682015  0.898782  1
  Se  Se12  1  0.412564  0.825127  0.259182  1
  Se  Se13  1  0.587436  0.174873  0.740818  1
