# generated using pymatgen
data_Sm3CCl3
_symmetry_space_group_name_H-M   'P 1'
_cell_length_a   9.49485054
_cell_length_b   9.49485038
_cell_length_c   9.49485000
_cell_angle_alpha   109.47121982
_cell_angle_beta   109.47121948
_cell_angle_gamma   109.47123639
_symmetry_Int_Tables_number   1
_chemical_formula_structural   Sm3CCl3
_chemical_formula_sum   'Sm12 C4 Cl12'
_cell_volume   658.93473561
_cell_formula_units_Z   4
loop_
 _symmetry_equiv_pos_site_id
 _symmetry_equiv_pos_as_xyz
  1  'x, y, z'
loop_
 _atom_site_type_symbol
 _atom_site_label
 _atom_site_symmetry_multiplicity
 _atom_site_fract_x
 _atom_site_fract_y
 _atom_site_fract_z
 _atom_site_occupancy
  Sm  Sm0  1  0.482501  0.749999  0.017498  1
  Sm  Sm1  1  0.750001  0.232502  0.267499  1
  Sm  Sm2  1  0.232502  0.267498  0.750000  1
  Sm  Sm3  1  0.465004  0.482502  0.232501  1
  Sm  Sm4  1  0.267498  0.017498  0.034995  1
  Sm  Sm5  1  0.232502  0.465004  0.482502  1
  Sm  Sm6  1  0.017498  0.034996  0.267499  1
  Sm  Sm7  1  0.017499  0.482501  0.750000  1
  Sm  Sm8  1  0.482502  0.232502  0.465005  1
  Sm  Sm9  1  0.750001  0.017499  0.482502  1
  Sm  Sm10  1  0.034996  0.267498  0.017498  1
  Sm  Sm11  1  0.267498  0.749999  0.232501  1
  C  C12  1  0.250000  0.250000  0.250000  1
  C  C13  1  0.999999  0.250000  0.500000  1
  C  C14  1  0.250000  0.500001  0.000000  1
  C  C15  1  0.500000  0.000000  0.250000  1
  Cl  Cl16  1  0.993002  0.986005  0.743002  1
  Cl  Cl17  1  0.756998  0.743002  0.250000  1
  Cl  Cl18  1  0.986004  0.743002  0.993002  1
  Cl  Cl19  1  0.250000  0.993002  0.506998  1
  Cl  Cl20  1  0.743002  0.993002  0.986005  1
  Cl  Cl21  1  0.506998  0.250000  0.993002  1
  Cl  Cl22  1  0.743002  0.250000  0.756998  1
  Cl  Cl23  1  0.506998  0.756998  0.513995  1
  Cl  Cl24  1  0.756998  0.513996  0.506998  1
  Cl  Cl25  1  0.250000  0.756998  0.743002  1
  Cl  Cl26  1  0.513995  0.506998  0.756998  1
  Cl  Cl27  1  0.993002  0.506998  0.250000  1
