# generated using pymatgen
data_RePt3F24
_symmetry_space_group_name_H-M   'P 1'
_cell_length_a   5.24856455
_cell_length_b   8.83452200
_cell_length_c   9.61168606
_cell_angle_alpha   90.00000000
_cell_angle_beta   89.94681780
_cell_angle_gamma   90.00000000
_symmetry_Int_Tables_number   1
_chemical_formula_structural   RePt3F24
_chemical_formula_sum   'Re1 Pt3 F24'
_cell_volume   445.67984019
_cell_formula_units_Z   1
loop_
 _symmetry_equiv_pos_site_id
 _symmetry_equiv_pos_as_xyz
  1  'x, y, z'
loop_
 _atom_site_type_symbol
 _atom_site_label
 _atom_site_symmetry_multiplicity
 _atom_site_fract_x
 _atom_site_fract_y
 _atom_site_fract_z
 _atom_site_occupancy
  Re  Re0  1  0.583787  0.750000  0.129886  1
  Pt  Pt1  1  0.918335  0.750000  0.628306  1
  Pt  Pt2  1  0.080634  0.250000  0.371119  1
  Pt  Pt3  1  0.416562  0.250000  0.870403  1
  F  F4  1  0.212247  0.750000  0.511640  1
  F  F5  1  0.784298  0.250000  0.484210  1
  F  F6  1  0.712833  0.250000  0.984338  1
  F  F7  1  0.296379  0.750000  0.019361  1
  F  F8  1  0.624302  0.750000  0.745379  1
  F  F9  1  0.376875  0.250000  0.256583  1
  F  F10  1  0.118656  0.250000  0.758588  1
  F  F11  1  0.872040  0.750000  0.240020  1
  F  F12  1  0.767357  0.598675  0.513630  1
  F  F13  1  0.229372  0.402583  0.484395  1
  F  F14  1  0.270893  0.403514  0.985902  1
  F  F15  1  0.229372  0.097417  0.484395  1
  F  F16  1  0.727177  0.602535  0.019784  1
  F  F17  1  0.767357  0.901325  0.513630  1
  F  F18  1  0.727177  0.897465  0.019784  1
  F  F19  1  0.270893  0.096486  0.985902  1
  F  F20  1  0.067242  0.598604  0.743155  1
  F  F21  1  0.934024  0.403317  0.255980  1
  F  F22  1  0.563724  0.402375  0.756377  1
  F  F23  1  0.934024  0.096683  0.255980  1
  F  F24  1  0.441738  0.602895  0.240862  1
  F  F25  1  0.067242  0.901396  0.743155  1
  F  F26  1  0.441738  0.897105  0.240862  1
  F  F27  1  0.563724  0.097625  0.756377  1
