# generated using pymatgen
data_Tb4BCl6
_symmetry_space_group_name_H-M   'P 1'
_cell_length_a   3.90455900
_cell_length_b   12.75105500
_cell_length_c   13.21200600
_cell_angle_alpha   90.00000000
_cell_angle_beta   90.00000000
_cell_angle_gamma   90.00000000
_symmetry_Int_Tables_number   1
_chemical_formula_structural   Tb4BCl6
_chemical_formula_sum   'Tb8 B2 Cl12'
_cell_volume   657.78940027
_cell_formula_units_Z   2
loop_
 _symmetry_equiv_pos_site_id
 _symmetry_equiv_pos_as_xyz
  1  'x, y, z'
loop_
 _atom_site_type_symbol
 _atom_site_label
 _atom_site_symmetry_multiplicity
 _atom_site_fract_x
 _atom_site_fract_y
 _atom_site_fract_z
 _atom_site_occupancy
  Tb  Tb0  1  0.000000  0.106523  0.084363  1
  Tb  Tb1  1  0.000000  0.893477  0.915637  1
  Tb  Tb2  1  0.000000  0.606523  0.415637  1
  Tb  Tb3  1  0.000000  0.393477  0.584363  1
  Tb  Tb4  1  0.500000  0.126499  0.851123  1
  Tb  Tb5  1  0.500000  0.873501  0.148877  1
  Tb  Tb6  1  0.500000  0.626499  0.648877  1
  Tb  Tb7  1  0.500000  0.373501  0.351123  1
  B  B8  1  0.500000  0.000000  0.000000  1
  B  B9  1  0.500000  0.500000  0.500000  1
  Cl  Cl10  1  0.500000  0.267810  0.682866  1
  Cl  Cl11  1  0.500000  0.732190  0.317134  1
  Cl  Cl12  1  0.500000  0.767810  0.817134  1
  Cl  Cl13  1  0.500000  0.232190  0.182866  1
  Cl  Cl14  1  0.000000  0.255476  0.929402  1
  Cl  Cl15  1  0.000000  0.744524  0.070598  1
  Cl  Cl16  1  0.000000  0.478093  0.244513  1
  Cl  Cl17  1  0.000000  0.521907  0.755487  1
  Cl  Cl18  1  0.000000  0.978093  0.255487  1
  Cl  Cl19  1  0.000000  0.021907  0.744513  1
  Cl  Cl20  1  0.000000  0.244524  0.429402  1
  Cl  Cl21  1  0.000000  0.755476  0.570598  1
