# generated using pymatgen
data_Tb8Ti11Si16Ir
_symmetry_space_group_name_H-M   'P 1'
_cell_length_a   7.04869673
_cell_length_b   7.04869673
_cell_length_c   12.90371591
_cell_angle_alpha   90.13100858
_cell_angle_beta   89.86899142
_cell_angle_gamma   89.84904624
_symmetry_Int_Tables_number   1
_chemical_formula_structural   Tb8Ti11Si16Ir
_chemical_formula_sum   'Tb8 Ti11 Si16 Ir1'
_cell_volume   641.10425584
_cell_formula_units_Z   1
loop_
 _symmetry_equiv_pos_site_id
 _symmetry_equiv_pos_as_xyz
  1  'x, y, z'
loop_
 _atom_site_type_symbol
 _atom_site_label
 _atom_site_symmetry_multiplicity
 _atom_site_fract_x
 _atom_site_fract_y
 _atom_site_fract_z
 _atom_site_occupancy
  Tb  Tb0  1  0.339894  0.004133  0.467420  1
  Tb  Tb1  1  0.496735  0.840868  0.718172  1
  Tb  Tb2  1  0.500564  0.159467  0.214975  1
  Tb  Tb3  1  0.840868  0.496735  0.281828  1
  Tb  Tb4  1  0.159467  0.500564  0.785025  1
  Tb  Tb5  1  0.658467  0.998075  0.968613  1
  Tb  Tb6  1  0.004133  0.339894  0.532580  1
  Tb  Tb7  1  0.998075  0.658467  0.031387  1
  Ti  Ti8  1  0.175781  0.827469  0.248260  1
  Ti  Ti9  1  0.827469  0.175781  0.751740  1
  Ti  Ti10  1  0.673464  0.673464  0.500000  1
  Ti  Ti11  1  0.150386  0.003561  0.876574  1
  Ti  Ti12  1  0.493575  0.657209  0.125011  1
  Ti  Ti13  1  0.507034  0.348715  0.628049  1
  Ti  Ti14  1  0.657209  0.493575  0.874989  1
  Ti  Ti15  1  0.348715  0.507034  0.371951  1
  Ti  Ti16  1  0.847819  0.993248  0.375330  1
  Ti  Ti17  1  0.003561  0.150386  0.123426  1
  Ti  Ti18  1  0.993248  0.847819  0.624670  1
  Si  Si19  1  0.201863  0.131104  0.686104  1
  Si  Si20  1  0.373805  0.700580  0.934630  1
  Si  Si21  1  0.630155  0.296204  0.434866  1
  Si  Si22  1  0.700580  0.373805  0.065370  1
  Si  Si23  1  0.296204  0.630155  0.565134  1
  Si  Si24  1  0.796746  0.869843  0.184475  1
  Si  Si25  1  0.131104  0.201863  0.313896  1
  Si  Si26  1  0.869843  0.796746  0.815525  1
  Si  Si27  1  0.286362  0.951414  0.064247  1
  Si  Si28  1  0.546918  0.791562  0.315697  1
  Si  Si29  1  0.449914  0.210336  0.818446  1
  Si  Si30  1  0.791562  0.546918  0.684303  1
  Si  Si31  1  0.210336  0.449914  0.181554  1
  Si  Si32  1  0.708977  0.047658  0.565795  1
  Si  Si33  1  0.951414  0.286362  0.935753  1
  Si  Si34  1  0.047658  0.708977  0.434205  1
  Ir  Ir35  1  0.330094  0.330094  0.000000  1
