# generated using pymatgen
data_LaYb5(Co7C2)2
_symmetry_space_group_name_H-M   'P 1'
_cell_length_a   5.06061300
_cell_length_b   5.06061116
_cell_length_c   13.67396400
_cell_angle_alpha   90.00000000
_cell_angle_beta   90.00000000
_cell_angle_gamma   120.00001858
_symmetry_Int_Tables_number   1
_chemical_formula_structural   LaYb5(Co7C2)2
_chemical_formula_sum   'La1 Yb5 Co14 C4'
_cell_volume   303.27113595
_cell_formula_units_Z   1
loop_
 _symmetry_equiv_pos_site_id
 _symmetry_equiv_pos_as_xyz
  1  'x, y, z'
loop_
 _atom_site_type_symbol
 _atom_site_label
 _atom_site_symmetry_multiplicity
 _atom_site_fract_x
 _atom_site_fract_y
 _atom_site_fract_z
 _atom_site_occupancy
  La  La0  1  0.666667  0.333333  0.537187  1
  Yb  Yb1  1  0.333333  0.666667  0.461261  1
  Yb  Yb2  1  0.333333  0.666667  0.034749  1
  Yb  Yb3  1  0.666667  0.333333  0.755873  1
  Yb  Yb4  1  0.666667  0.333333  0.964193  1
  Yb  Yb5  1  0.333333  0.666667  0.247566  1
  Co  Co6  1  0.163831  0.327662  0.659949  1
  Co  Co7  1  0.325364  0.162682  0.339936  1
  Co  Co8  1  0.332429  0.166215  0.151189  1
  Co  Co9  1  0.165444  0.834556  0.848538  1
  Co  Co10  1  0.837318  0.674636  0.339936  1
  Co  Co11  1  0.833785  0.166215  0.151189  1
  Co  Co12  1  0.672338  0.836169  0.659949  1
  Co  Co13  1  0.669112  0.834556  0.848538  1
  Co  Co14  1  0.163831  0.836169  0.659949  1
  Co  Co15  1  0.833785  0.667571  0.151189  1
  Co  Co16  1  0.000000  0.000000  0.001344  1
  Co  Co17  1  0.165444  0.330888  0.848538  1
  Co  Co18  1  0.837318  0.162682  0.339936  1
  Co  Co19  1  0.000000  0.000000  0.498600  1
  C  C20  1  0.666667  0.333333  0.248677  1
  C  C21  1  0.000000  0.000000  0.754419  1
  C  C22  1  0.333333  0.666667  0.752730  1
  C  C23  1  0.000000  0.000000  0.244565  1
