# generated using pymatgen
data_Ho3Tm7(SiPb3)2
_symmetry_space_group_name_H-M   'P 1'
_cell_length_a   9.24270800
_cell_length_b   9.24270856
_cell_length_c   6.43926400
_cell_angle_alpha   90.00000000
_cell_angle_beta   90.00000000
_cell_angle_gamma   120.00000514
_symmetry_Int_Tables_number   1
_chemical_formula_structural   Ho3Tm7(SiPb3)2
_chemical_formula_sum   'Ho3 Tm7 Si2 Pb6'
_cell_volume   476.39295686
_cell_formula_units_Z   1
loop_
 _symmetry_equiv_pos_site_id
 _symmetry_equiv_pos_as_xyz
  1  'x, y, z'
loop_
 _atom_site_type_symbol
 _atom_site_label
 _atom_site_symmetry_multiplicity
 _atom_site_fract_x
 _atom_site_fract_y
 _atom_site_fract_z
 _atom_site_occupancy
  Ho  Ho0  1  0.751510  0.751510  0.250000  1
  Ho  Ho1  1  0.248490  0.000000  0.250000  1
  Ho  Ho2  1  0.000000  0.248490  0.250000  1
  Tm  Tm3  1  0.666667  0.333333  0.500156  1
  Tm  Tm4  1  0.333333  0.666667  0.500156  1
  Tm  Tm5  1  0.333333  0.666667  0.999844  1
  Tm  Tm6  1  0.666667  0.333333  0.999844  1
  Tm  Tm7  1  0.250518  0.250518  0.750000  1
  Tm  Tm8  1  0.749482  0.000000  0.750000  1
  Tm  Tm9  1  0.000000  0.749482  0.750000  1
  Si  Si10  1  0.000000  0.000000  0.505936  1
  Si  Si11  1  0.000000  0.000000  0.994064  1
  Pb  Pb12  1  0.392830  0.392830  0.250000  1
  Pb  Pb13  1  0.607170  0.000000  0.250000  1
  Pb  Pb14  1  0.000000  0.607170  0.250000  1
  Pb  Pb15  1  0.608270  0.608270  0.750000  1
  Pb  Pb16  1  0.391730  0.000000  0.750000  1
  Pb  Pb17  1  0.000000  0.391730  0.750000  1
