# generated using pymatgen
data_HoMg(Ga2Ni)2
_symmetry_space_group_name_H-M   'P 1'
_cell_length_a   5.23826795
_cell_length_b   5.23826718
_cell_length_c   6.73307700
_cell_angle_alpha   90.00000000
_cell_angle_beta   90.00000000
_cell_angle_gamma   134.66320115
_symmetry_Int_Tables_number   1
_chemical_formula_structural   HoMg(Ga2Ni)2
_chemical_formula_sum   'Ho1 Mg1 Ga4 Ni2'
_cell_volume   131.40499749
_cell_formula_units_Z   1
loop_
 _symmetry_equiv_pos_site_id
 _symmetry_equiv_pos_as_xyz
  1  'x, y, z'
loop_
 _atom_site_type_symbol
 _atom_site_label
 _atom_site_symmetry_multiplicity
 _atom_site_fract_x
 _atom_site_fract_y
 _atom_site_fract_z
 _atom_site_occupancy
  Ho  Ho0  1  0.431673  0.568327  0.750000  1
  Mg  Mg1  1  0.570558  0.429442  0.250000  1
  Ga  Ga2  1  0.854697  0.145303  0.442892  1
  Ga  Ga3  1  0.142082  0.857918  0.545589  1
  Ga  Ga4  1  0.854697  0.145303  0.057108  1
  Ga  Ga5  1  0.142082  0.857918  0.954411  1
  Ni  Ni6  1  0.291306  0.708694  0.250000  1
  Ni  Ni7  1  0.712905  0.287095  0.750000  1
