# generated using pymatgen
data_DyPa5I24
_symmetry_space_group_name_H-M   'P 1'
_cell_length_a   9.22749800
_cell_length_b   9.28203429
_cell_length_c   19.41934243
_cell_angle_alpha   76.96960102
_cell_angle_beta   90.00000000
_cell_angle_gamma   90.00000000
_symmetry_Int_Tables_number   1
_chemical_formula_structural   DyPa5I24
_chemical_formula_sum   'Dy1 Pa5 I24'
_cell_volume   1620.43763090
_cell_formula_units_Z   1
loop_
 _symmetry_equiv_pos_site_id
 _symmetry_equiv_pos_as_xyz
  1  'x, y, z'
loop_
 _atom_site_type_symbol
 _atom_site_label
 _atom_site_symmetry_multiplicity
 _atom_site_fract_x
 _atom_site_fract_y
 _atom_site_fract_z
 _atom_site_occupancy
  Dy  Dy0  1  0.391874  0.000000  0.250000  1
  Pa  Pa1  1  0.880157  0.827672  0.581665  1
  Pa  Pa2  1  0.120083  0.172819  0.414745  1
  Pa  Pa3  1  0.628725  0.000000  0.750000  1
  Pa  Pa4  1  0.880157  0.172328  0.918335  1
  Pa  Pa5  1  0.120083  0.827181  0.085255  1
  I  I6  1  0.107299  0.393672  0.907661  1
  I  I7  1  0.587180  0.758335  0.260312  1
  I  I8  1  0.116908  0.070623  0.578364  1
  I  I9  1  0.351555  0.374383  0.427796  1
  I  I10  1  0.121367  0.776782  0.243158  1
  I  I11  1  0.121367  0.223218  0.256842  1
  I  I12  1  0.116908  0.929377  0.921636  1
  I  I13  1  0.414618  0.233860  0.740719  1
  I  I14  1  0.894755  0.607615  0.090716  1
  I  I15  1  0.877345  0.228361  0.754892  1
  I  I16  1  0.414618  0.766140  0.759281  1
  I  I17  1  0.894755  0.392385  0.409284  1
  I  I18  1  0.587180  0.241665  0.239688  1
  I  I19  1  0.653142  0.077100  0.587275  1
  I  I20  1  0.340287  0.925424  0.412590  1
  I  I21  1  0.877345  0.771639  0.745108  1
  I  I22  1  0.107299  0.606328  0.592339  1
  I  I23  1  0.646066  0.375919  0.928738  1
  I  I24  1  0.340287  0.074576  0.087410  1
  I  I25  1  0.878938  0.067674  0.080240  1
  I  I26  1  0.646066  0.624081  0.571262  1
  I  I27  1  0.653142  0.922900  0.912725  1
  I  I28  1  0.351555  0.625617  0.072204  1
  I  I29  1  0.878938  0.932326  0.419760  1
