# generated using pymatgen
data_Ti8MnCr(Si3C)2
_symmetry_space_group_name_H-M   'P 1'
_cell_length_a   7.35419100
_cell_length_b   7.35419105
_cell_length_c   5.03760000
_cell_angle_alpha   90.00000000
_cell_angle_beta   90.00000000
_cell_angle_gamma   120.00000427
_symmetry_Int_Tables_number   1
_chemical_formula_structural   Ti8MnCr(Si3C)2
_chemical_formula_sum   'Ti8 Mn1 Cr1 Si6 C2'
_cell_volume   235.95224088
_cell_formula_units_Z   1
loop_
 _symmetry_equiv_pos_site_id
 _symmetry_equiv_pos_as_xyz
  1  'x, y, z'
loop_
 _atom_site_type_symbol
 _atom_site_label
 _atom_site_symmetry_multiplicity
 _atom_site_fract_x
 _atom_site_fract_y
 _atom_site_fract_z
 _atom_site_occupancy
  Ti  Ti0  1  0.666667  0.333333  0.500000  1
  Ti  Ti1  1  0.333333  0.666667  0.500000  1
  Ti  Ti2  1  0.233224  0.999606  0.253718  1
  Ti  Ti3  1  0.766382  0.999606  0.746282  1
  Ti  Ti4  1  0.000394  0.233618  0.253718  1
  Ti  Ti5  1  0.000394  0.766776  0.746282  1
  Ti  Ti6  1  0.766382  0.766776  0.253718  1
  Ti  Ti7  1  0.233224  0.233618  0.746282  1
  Mn  Mn8  1  0.666667  0.333333  0.000000  1
  Cr  Cr9  1  0.333333  0.666667  0.000000  1
  Si  Si10  1  0.591653  0.001030  0.227168  1
  Si  Si11  1  0.409377  0.001030  0.772832  1
  Si  Si12  1  0.998970  0.590623  0.227168  1
  Si  Si13  1  0.998970  0.408347  0.772832  1
  Si  Si14  1  0.409377  0.408347  0.227168  1
  Si  Si15  1  0.591653  0.590623  0.772832  1
  C  C16  1  0.000000  0.000000  0.000000  1
  C  C17  1  0.000000  0.000000  0.500000  1
