# generated using pymatgen
data_Tm6Co16TcP12W
_symmetry_space_group_name_H-M   'P 1'
_cell_length_a   3.69649800
_cell_length_b   10.49930000
_cell_length_c   12.16421800
_cell_angle_alpha   90.00000000
_cell_angle_beta   90.00000000
_cell_angle_gamma   90.00000000
_symmetry_Int_Tables_number   1
_chemical_formula_structural   Tm6Co16TcP12W
_chemical_formula_sum   'Tm6 Co16 Tc1 P12 W1'
_cell_volume   472.10110333
_cell_formula_units_Z   1
loop_
 _symmetry_equiv_pos_site_id
 _symmetry_equiv_pos_as_xyz
  1  'x, y, z'
loop_
 _atom_site_type_symbol
 _atom_site_label
 _atom_site_symmetry_multiplicity
 _atom_site_fract_x
 _atom_site_fract_y
 _atom_site_fract_z
 _atom_site_occupancy
  Tm  Tm0  1  0.000000  0.500000  0.525453  1
  Tm  Tm1  1  0.500000  0.000000  0.474297  1
  Tm  Tm2  1  0.500000  0.818825  0.205016  1
  Tm  Tm3  1  0.500000  0.181175  0.205016  1
  Tm  Tm4  1  0.000000  0.680390  0.794042  1
  Tm  Tm5  1  0.000000  0.319610  0.794042  1
  Co  Co6  1  0.500000  0.500000  0.701765  1
  Co  Co7  1  0.000000  0.000000  0.299110  1
  Co  Co8  1  0.000000  0.500000  0.987440  1
  Co  Co9  1  0.500000  0.000000  0.013179  1
  Co  Co10  1  0.500000  0.333062  0.989853  1
  Co  Co11  1  0.500000  0.666938  0.989853  1
  Co  Co12  1  0.000000  0.168082  0.010723  1
  Co  Co13  1  0.000000  0.831918  0.010723  1
  Co  Co14  1  0.500000  0.296922  0.431143  1
  Co  Co15  1  0.500000  0.703078  0.431143  1
  Co  Co16  1  0.000000  0.204328  0.567961  1
  Co  Co17  1  0.000000  0.795672  0.567961  1
  Co  Co18  1  0.500000  0.877184  0.707212  1
  Co  Co19  1  0.500000  0.122816  0.707212  1
  Co  Co20  1  0.000000  0.621659  0.293159  1
  Co  Co21  1  0.000000  0.378341  0.293159  1
  Tc  Tc22  1  0.500000  0.500000  0.157381  1
  P  P23  1  0.500000  0.500000  0.880095  1
  P  P24  1  0.000000  0.000000  0.120845  1
  P  P25  1  0.500000  0.500000  0.350146  1
  P  P26  1  0.000000  0.000000  0.647694  1
  P  P27  1  0.500000  0.312717  0.616183  1
  P  P28  1  0.500000  0.687283  0.616183  1
  P  P29  1  0.000000  0.187480  0.383116  1
  P  P30  1  0.000000  0.812520  0.383116  1
  P  P31  1  0.500000  0.843231  0.892554  1
  P  P32  1  0.500000  0.156769  0.892554  1
  P  P33  1  0.000000  0.654258  0.108835  1
  P  P34  1  0.000000  0.345742  0.108835  1
  W  W35  1  0.000000  0.000000  0.842997  1
