# generated using pymatgen
data_Yb4ZnIr2Ru5
_symmetry_space_group_name_H-M   'P 1'
_cell_length_a   5.25244655
_cell_length_b   5.27482995
_cell_length_c   8.82325900
_cell_angle_alpha   90.00000000
_cell_angle_beta   90.00000000
_cell_angle_gamma   119.91655781
_symmetry_Int_Tables_number   1
_chemical_formula_structural   Yb4ZnIr2Ru5
_chemical_formula_sum   'Yb4 Zn1 Ir2 Ru5'
_cell_volume   211.88212182
_cell_formula_units_Z   1
loop_
 _symmetry_equiv_pos_site_id
 _symmetry_equiv_pos_as_xyz
  1  'x, y, z'
loop_
 _atom_site_type_symbol
 _atom_site_label
 _atom_site_symmetry_multiplicity
 _atom_site_fract_x
 _atom_site_fract_y
 _atom_site_fract_z
 _atom_site_occupancy
  Yb  Yb0  1  0.664896  0.329664  0.562218  1
  Yb  Yb1  1  0.330103  0.659848  0.431532  1
  Yb  Yb2  1  0.330103  0.659848  0.068468  1
  Yb  Yb3  1  0.664896  0.329664  0.937782  1
  Zn  Zn4  1  0.171742  0.343312  0.750000  1
  Ir  Ir5  1  0.985627  0.971072  0.502579  1
  Ir  Ir6  1  0.985627  0.971072  0.997421  1
  Ru  Ru7  1  0.189667  0.848726  0.750000  1
  Ru  Ru8  1  0.659265  0.848902  0.750000  1
  Ru  Ru9  1  0.843550  0.686890  0.250000  1
  Ru  Ru10  1  0.820962  0.175879  0.250000  1
  Ru  Ru11  1  0.353563  0.175124  0.250000  1
