# generated using pymatgen
data_Tb12Co3Ni
_symmetry_space_group_name_H-M   'P 1'
_cell_length_a   6.95304304
_cell_length_b   9.55146800
_cell_length_c   6.24828683
_cell_angle_alpha   90.00000000
_cell_angle_beta   90.08771655
_cell_angle_gamma   90.00000000
_symmetry_Int_Tables_number   1
_chemical_formula_structural   Tb12Co3Ni
_chemical_formula_sum   'Tb12 Co3 Ni1'
_cell_volume   414.95928955
_cell_formula_units_Z   1
loop_
 _symmetry_equiv_pos_site_id
 _symmetry_equiv_pos_as_xyz
  1  'x, y, z'
loop_
 _atom_site_type_symbol
 _atom_site_label
 _atom_site_symmetry_multiplicity
 _atom_site_fract_x
 _atom_site_fract_y
 _atom_site_fract_z
 _atom_site_occupancy
  Tb  Tb0  1  0.456949  0.750000  0.141977  1
  Tb  Tb1  1  0.178718  0.066193  0.175251  1
  Tb  Tb2  1  0.178718  0.433807  0.175251  1
  Tb  Tb3  1  0.673737  0.066962  0.327409  1
  Tb  Tb4  1  0.673737  0.433038  0.327409  1
  Tb  Tb5  1  0.957616  0.750000  0.357717  1
  Tb  Tb6  1  0.042185  0.250000  0.637307  1
  Tb  Tb7  1  0.324768  0.568392  0.676079  1
  Tb  Tb8  1  0.324768  0.931608  0.676079  1
  Tb  Tb9  1  0.824628  0.569884  0.824204  1
  Tb  Tb10  1  0.824628  0.930116  0.824204  1
  Tb  Tb11  1  0.536947  0.250000  0.854372  1
  Co  Co12  1  0.386861  0.250000  0.445415  1
  Co  Co13  1  0.613410  0.750000  0.550305  1
  Co  Co14  1  0.113638  0.750000  0.947812  1
  Ni  Ni15  1  0.888697  0.250000  0.059208  1
