# generated using pymatgen
data_Er7Th(InRu)2
_symmetry_space_group_name_H-M   'P 1'
_cell_length_a   9.64056435
_cell_length_b   9.61858950
_cell_length_c   9.57952600
_cell_angle_alpha   60.13426127
_cell_angle_beta   60.20922808
_cell_angle_gamma   59.83715257
_symmetry_Int_Tables_number   1
_chemical_formula_structural   Er7Th(InRu)2
_chemical_formula_sum   'Er14 Th2 In4 Ru4'
_cell_volume   628.96276205
_cell_formula_units_Z   2
loop_
 _symmetry_equiv_pos_site_id
 _symmetry_equiv_pos_as_xyz
  1  'x, y, z'
loop_
 _atom_site_type_symbol
 _atom_site_label
 _atom_site_symmetry_multiplicity
 _atom_site_fract_x
 _atom_site_fract_y
 _atom_site_fract_z
 _atom_site_occupancy
  Er  Er0  1  0.937805  0.553671  0.945881  1
  Er  Er1  1  0.311877  0.688067  0.309213  1
  Er  Er2  1  0.937805  0.553671  0.562643  1
  Er  Er3  1  0.314517  0.313405  0.686039  1
  Er  Er4  1  0.102624  0.102746  0.092847  1
  Er  Er5  1  0.560140  0.556863  0.941499  1
  Er  Er6  1  0.102624  0.102746  0.701782  1
  Er  Er7  1  0.692219  0.306833  0.693504  1
  Er  Er8  1  0.688312  0.685235  0.313226  1
  Er  Er9  1  0.692219  0.306833  0.307444  1
  Er  Er10  1  0.311877  0.688067  0.690843  1
  Er  Er11  1  0.553584  0.939775  0.559439  1
  Er  Er12  1  0.701728  0.099752  0.099260  1
  Er  Er13  1  0.553584  0.939775  0.947201  1
  Th  Th14  1  0.095411  0.717067  0.093761  1
  Th  Th15  1  0.936729  0.936512  0.563379  1
  In  In16  1  0.333357  0.332518  0.333186  1
  In  In17  1  0.001102  0.335696  0.331600  1
  In  In18  1  0.336118  0.000111  0.331885  1
  In  In19  1  0.333357  0.332518  0.000936  1
  Ru  Ru20  1  0.894725  0.897571  0.872100  1
  Ru  Ru21  1  0.894725  0.897571  0.335605  1
  Ru  Ru22  1  0.326366  0.885621  0.894007  1
  Ru  Ru23  1  0.887195  0.327373  0.892717  1
