# generated using pymatgen
data_YbSmHoZn11
_symmetry_space_group_name_H-M   'P 1'
_cell_length_a   8.17192491
_cell_length_b   8.17149893
_cell_length_c   8.17192500
_cell_angle_alpha   148.25657906
_cell_angle_beta   115.78611664
_cell_angle_gamma   73.41747710
_symmetry_Int_Tables_number   1
_chemical_formula_structural   YbSmHoZn11
_chemical_formula_sum   'Yb1 Sm1 Ho1 Zn11'
_cell_volume   254.36106933
_cell_formula_units_Z   1
loop_
 _symmetry_equiv_pos_site_id
 _symmetry_equiv_pos_as_xyz
  1  'x, y, z'
loop_
 _atom_site_type_symbol
 _atom_site_label
 _atom_site_symmetry_multiplicity
 _atom_site_fract_x
 _atom_site_fract_y
 _atom_site_fract_z
 _atom_site_occupancy
  Yb  Yb0  1  0.999979  0.999983  0.000005  1
  Sm  Sm1  1  0.702332  0.702317  0.999986  1
  Ho  Ho2  1  0.298063  0.298069  0.000006  1
  Zn  Zn3  1  0.500117  0.000121  0.500003  1
  Zn  Zn4  1  0.678249  0.499326  0.178930  1
  Zn  Zn5  1  0.320397  0.499326  0.821077  1
  Zn  Zn6  1  0.694726  0.339114  0.355668  1
  Zn  Zn7  1  0.304162  0.661687  0.642415  1
  Zn  Zn8  1  0.983447  0.339114  0.644388  1
  Zn  Zn9  1  0.019273  0.661687  0.357523  1
  Zn  Zn10  1  0.418438  0.136493  0.281902  1
  Zn  Zn11  1  0.578575  0.863133  0.715482  1
  Zn  Zn12  1  0.854590  0.136493  0.718055  1
  Zn  Zn13  1  0.147653  0.863133  0.284559  1
