# generated using pymatgen
data_Lu5BiAu2
_symmetry_space_group_name_H-M   'P 1'
_cell_length_a   8.56049036
_cell_length_b   8.56048988
_cell_length_c   8.56049061
_cell_angle_alpha   124.28196541
_cell_angle_beta   124.28196181
_cell_angle_gamma   82.73076328
_symmetry_Int_Tables_number   1
_chemical_formula_structural   Lu5BiAu2
_chemical_formula_sum   'Lu10 Bi2 Au4'
_cell_volume   411.24413529
_cell_formula_units_Z   2
loop_
 _symmetry_equiv_pos_site_id
 _symmetry_equiv_pos_as_xyz
  1  'x, y, z'
loop_
 _atom_site_type_symbol
 _atom_site_label
 _atom_site_symmetry_multiplicity
 _atom_site_fract_x
 _atom_site_fract_y
 _atom_site_fract_z
 _atom_site_occupancy
  Lu  Lu0  1  0.500000  0.500000  0.000000  1
  Lu  Lu1  1  0.000000  0.000000  0.000000  1
  Lu  Lu2  1  0.514036  0.014036  0.808660  1
  Lu  Lu3  1  0.205376  0.705376  0.191340  1
  Lu  Lu4  1  0.014036  0.205376  0.500000  1
  Lu  Lu5  1  0.705376  0.514036  0.500000  1
  Lu  Lu6  1  0.485964  0.985964  0.191340  1
  Lu  Lu7  1  0.794624  0.294624  0.808660  1
  Lu  Lu8  1  0.985964  0.794624  0.500000  1
  Lu  Lu9  1  0.294624  0.485964  0.500000  1
  Bi  Bi10  1  0.250000  0.250000  0.000000  1
  Bi  Bi11  1  0.750000  0.750000  0.000000  1
  Au  Au12  1  0.138303  0.638303  0.776605  1
  Au  Au13  1  0.861697  0.361697  0.223395  1
  Au  Au14  1  0.638303  0.861697  0.500000  1
  Au  Au15  1  0.361697  0.138303  0.500000  1
