# generated using pymatgen
data_PrSm(Si2Rh3)2
_symmetry_space_group_name_H-M   'P 1'
_cell_length_a   6.69211221
_cell_length_b   6.69211122
_cell_length_c   6.69211219
_cell_angle_alpha   130.35786225
_cell_angle_beta   114.63155253
_cell_angle_gamma   86.31098324
_symmetry_Int_Tables_number   1
_chemical_formula_structural   PrSm(Si2Rh3)2
_chemical_formula_sum   'Pr1 Sm1 Si4 Rh6'
_cell_volume   198.24555062
_cell_formula_units_Z   1
loop_
 _symmetry_equiv_pos_site_id
 _symmetry_equiv_pos_as_xyz
  1  'x, y, z'
loop_
 _atom_site_type_symbol
 _atom_site_label
 _atom_site_symmetry_multiplicity
 _atom_site_fract_x
 _atom_site_fract_y
 _atom_site_fract_z
 _atom_site_occupancy
  Pr  Pr0  1  0.250000  0.964995  0.714995  1
  Sm  Sm1  1  0.750000  0.039907  0.289907  1
  Si  Si2  1  0.578827  0.381479  0.802652  1
  Si  Si3  1  0.422707  0.621100  0.198394  1
  Si  Si4  1  0.077293  0.275688  0.198394  1
  Si  Si5  1  0.921173  0.723824  0.802652  1
  Rh  Rh6  1  0.214814  0.497277  0.714495  1
  Rh  Rh7  1  0.717217  0.999681  0.714495  1
  Rh  Rh8  1  0.782783  0.497277  0.282463  1
  Rh  Rh9  1  0.285186  0.999681  0.282463  1
  Rh  Rh10  1  0.501225  0.499545  0.500771  1
  Rh  Rh11  1  0.998775  0.499545  0.998319  1
