# generated using pymatgen
data_Pr2Sm2B4I5
_symmetry_space_group_name_H-M   'P 1'
_cell_length_a   9.86420011
_cell_length_b   9.86419907
_cell_length_c   10.00039832
_cell_angle_alpha   75.11111510
_cell_angle_beta   75.11111569
_cell_angle_gamma   25.37683072
_symmetry_Int_Tables_number   1
_chemical_formula_structural   Pr2Sm2B4I5
_chemical_formula_sum   'Pr2 Sm2 B4 I5'
_cell_volume   402.30150948
_cell_formula_units_Z   1
loop_
 _symmetry_equiv_pos_site_id
 _symmetry_equiv_pos_as_xyz
  1  'x, y, z'
loop_
 _atom_site_type_symbol
 _atom_site_label
 _atom_site_symmetry_multiplicity
 _atom_site_fract_x
 _atom_site_fract_y
 _atom_site_fract_z
 _atom_site_occupancy
  Pr  Pr0  1  0.134172  0.134172  0.932018  1
  Pr  Pr1  1  0.867487  0.867487  0.066591  1
  Sm  Sm2  1  0.503827  0.503827  0.752481  1
  Sm  Sm3  1  0.497989  0.497989  0.246395  1
  B  B4  1  0.315853  0.685799  0.999484  1
  B  B5  1  0.685799  0.315853  0.999484  1
  B  B6  1  0.000546  0.000546  0.094728  1
  B  B7  1  0.001084  0.001084  0.904233  1
  I  I8  1  0.673930  0.673930  0.675701  1
  I  I9  1  0.327938  0.327938  0.323529  1
  I  I10  1  0.329528  0.329528  0.844133  1
  I  I11  1  0.672559  0.672559  0.153469  1
  I  I12  1  0.003589  0.003589  0.497953  1
