# generated using pymatgen
data_Cs6Na4NbAlP6
_symmetry_space_group_name_H-M   'P 1'
_cell_length_a   10.60301416
_cell_length_b   10.60301394
_cell_length_c   16.62053100
_cell_angle_alpha   90.00000000
_cell_angle_beta   90.00000000
_cell_angle_gamma   142.37987928
_symmetry_Int_Tables_number   1
_chemical_formula_structural   Cs6Na4NbAlP6
_chemical_formula_sum   'Cs12 Na8 Nb2 Al2 P12'
_cell_volume   1140.60352988
_cell_formula_units_Z   2
loop_
 _symmetry_equiv_pos_site_id
 _symmetry_equiv_pos_as_xyz
  1  'x, y, z'
loop_
 _atom_site_type_symbol
 _atom_site_label
 _atom_site_symmetry_multiplicity
 _atom_site_fract_x
 _atom_site_fract_y
 _atom_site_fract_z
 _atom_site_occupancy
  Cs  Cs0  1  0.939883  0.607479  0.829941  1
  Cs  Cs1  1  0.560117  0.892521  0.329941  1
  Cs  Cs2  1  0.392521  0.060117  0.170059  1
  Cs  Cs3  1  0.049978  0.389716  0.173660  1
  Cs  Cs4  1  0.889716  0.549978  0.326340  1
  Cs  Cs5  1  0.450022  0.110284  0.673660  1
  Cs  Cs6  1  0.610284  0.950022  0.826340  1
  Cs  Cs7  1  0.275984  0.281165  0.316320  1
  Cs  Cs8  1  0.781165  0.775984  0.183680  1
  Cs  Cs9  1  0.224016  0.218835  0.816320  1
  Cs  Cs10  1  0.718835  0.724016  0.683680  1
  Cs  Cs11  1  0.107479  0.439883  0.670059  1
  Na  Na12  1  0.921415  0.078585  0.000000  1
  Na  Na13  1  0.578585  0.421415  0.500000  1
  Na  Na14  1  0.080454  0.919546  0.000000  1
  Na  Na15  1  0.419546  0.580454  0.500000  1
  Na  Na16  1  0.751600  0.248400  0.000000  1
  Na  Na17  1  0.748400  0.251600  0.500000  1
  Na  Na18  1  0.243210  0.756790  0.000000  1
  Na  Na19  1  0.256790  0.743210  0.500000  1
  Nb  Nb20  1  0.420388  0.579612  0.000000  1
  Nb  Nb21  1  0.079612  0.920388  0.500000  1
  Al  Al22  1  0.584912  0.415088  0.000000  1
  Al  Al23  1  0.915088  0.084912  0.500000  1
  P  P24  1  0.860453  0.555128  0.088266  1
  P  P25  1  0.444872  0.139547  0.911734  1
  P  P26  1  0.639547  0.944872  0.588266  1
  P  P27  1  0.947915  0.646572  0.584831  1
  P  P28  1  0.146572  0.447915  0.915169  1
  P  P29  1  0.552085  0.853428  0.084831  1
  P  P30  1  0.353428  0.052085  0.415169  1
  P  P31  1  0.193754  0.190782  0.581090  1
  P  P32  1  0.690782  0.693754  0.918910  1
  P  P33  1  0.306246  0.309218  0.081090  1
  P  P34  1  0.055128  0.360453  0.411734  1
  P  P35  1  0.809218  0.806246  0.418910  1
