# generated using pymatgen
data_Eu6Sn(P3Rh5)4
_symmetry_space_group_name_H-M   'P 1'
_cell_length_a   13.62254300
_cell_length_b   13.62254162
_cell_length_c   3.93928400
_cell_angle_alpha   90.00000000
_cell_angle_beta   90.00000000
_cell_angle_gamma   120.00000092
_symmetry_Int_Tables_number   1
_chemical_formula_structural   Eu6Sn(P3Rh5)4
_chemical_formula_sum   'Eu6 Sn1 P12 Rh20'
_cell_volume   633.08824647
_cell_formula_units_Z   1
loop_
 _symmetry_equiv_pos_site_id
 _symmetry_equiv_pos_as_xyz
  1  'x, y, z'
loop_
 _atom_site_type_symbol
 _atom_site_label
 _atom_site_symmetry_multiplicity
 _atom_site_fract_x
 _atom_site_fract_y
 _atom_site_fract_z
 _atom_site_occupancy
  Eu  Eu0  1  0.525890  0.717341  0.251613  1
  Eu  Eu1  1  0.282659  0.808548  0.251613  1
  Eu  Eu2  1  0.191452  0.474110  0.251613  1
  Eu  Eu3  1  0.474110  0.282659  0.748387  1
  Eu  Eu4  1  0.717341  0.191452  0.748387  1
  Eu  Eu5  1  0.808548  0.525890  0.748387  1
  Sn  Sn6  1  0.000000  0.000000  0.000000  1
  P  P7  1  0.523410  0.134541  0.249746  1
  P  P8  1  0.865459  0.388871  0.249746  1
  P  P9  1  0.611129  0.476590  0.249746  1
  P  P10  1  0.949378  0.718868  0.245546  1
  P  P11  1  0.281132  0.230509  0.245546  1
  P  P12  1  0.769491  0.050622  0.245546  1
  P  P13  1  0.388871  0.523410  0.750254  1
  P  P14  1  0.476590  0.865459  0.750254  1
  P  P15  1  0.134541  0.611129  0.750254  1
  P  P16  1  0.718868  0.769491  0.754454  1
  P  P17  1  0.230509  0.949378  0.754454  1
  P  P18  1  0.050622  0.281132  0.754454  1
  Rh  Rh19  1  0.333333  0.666667  0.752203  1
  Rh  Rh20  1  0.923167  0.253748  0.244251  1
  Rh  Rh21  1  0.746252  0.669420  0.244251  1
  Rh  Rh22  1  0.330580  0.076833  0.244251  1
  Rh  Rh23  1  0.441606  0.024772  0.748733  1
  Rh  Rh24  1  0.975228  0.416835  0.748733  1
  Rh  Rh25  1  0.583165  0.558394  0.748733  1
  Rh  Rh26  1  0.666667  0.333333  0.247797  1
  Rh  Rh27  1  0.098031  0.203882  0.264215  1
  Rh  Rh28  1  0.796118  0.894149  0.264215  1
  Rh  Rh29  1  0.105851  0.901969  0.264215  1
  Rh  Rh30  1  0.024772  0.583165  0.251267  1
  Rh  Rh31  1  0.416835  0.441606  0.251267  1
  Rh  Rh32  1  0.558394  0.975228  0.251267  1
  Rh  Rh33  1  0.669420  0.923167  0.755749  1
  Rh  Rh34  1  0.076833  0.746252  0.755749  1
  Rh  Rh35  1  0.253748  0.330580  0.755749  1
  Rh  Rh36  1  0.901969  0.796118  0.735785  1
  Rh  Rh37  1  0.203882  0.105851  0.735785  1
  Rh  Rh38  1  0.894149  0.098031  0.735785  1
