# generated using pymatgen
data_Rb2GaH8Cl
_symmetry_space_group_name_H-M   'P 1'
_cell_length_a   5.43769000
_cell_length_b   7.63098900
_cell_length_c   10.65081900
_cell_angle_alpha   90.00000000
_cell_angle_beta   90.00000000
_cell_angle_gamma   90.00000000
_symmetry_Int_Tables_number   1
_chemical_formula_structural   Rb2GaH8Cl
_chemical_formula_sum   'Rb4 Ga2 H16 Cl2'
_cell_volume   441.95522929
_cell_formula_units_Z   2
loop_
 _symmetry_equiv_pos_site_id
 _symmetry_equiv_pos_as_xyz
  1  'x, y, z'
loop_
 _atom_site_type_symbol
 _atom_site_label
 _atom_site_symmetry_multiplicity
 _atom_site_fract_x
 _atom_site_fract_y
 _atom_site_fract_z
 _atom_site_occupancy
  Rb  Rb0  1  0.250000  0.244367  0.671605  1
  Rb  Rb1  1  0.250000  0.255633  0.171605  1
  Rb  Rb2  1  0.750000  0.732518  0.369002  1
  Rb  Rb3  1  0.750000  0.767482  0.869002  1
  Ga  Ga4  1  0.750000  0.262652  0.937775  1
  Ga  Ga5  1  0.750000  0.237348  0.437775  1
  H  H6  1  0.250000  0.868157  0.802927  1
  H  H7  1  0.250000  0.631843  0.302927  1
  H  H8  1  0.750000  0.351767  0.072504  1
  H  H9  1  0.750000  0.148233  0.572504  1
  H  H10  1  0.250000  0.625881  0.231092  1
  H  H11  1  0.250000  0.874119  0.731092  1
  H  H12  1  0.750000  0.406358  0.825257  1
  H  H13  1  0.750000  0.093642  0.325257  1
  H  H14  1  0.984306  0.138407  0.922093  1
  H  H15  1  0.515694  0.361593  0.422093  1
  H  H16  1  0.680021  0.889681  0.112587  1
  H  H17  1  0.819979  0.610319  0.612587  1
  H  H18  1  0.819979  0.889681  0.112587  1
  H  H19  1  0.680021  0.610319  0.612587  1
  H  H20  1  0.515694  0.138407  0.922093  1
  H  H21  1  0.984306  0.361593  0.422093  1
  Cl  Cl22  1  0.250000  0.668684  0.020478  1
  Cl  Cl23  1  0.250000  0.831316  0.520478  1
