# generated using pymatgen
data_Ac3Cd3SnHg2
_symmetry_space_group_name_H-M   'P 1'
_cell_length_a   8.21705700
_cell_length_b   8.21705766
_cell_length_c   4.69760500
_cell_angle_alpha   90.00000000
_cell_angle_beta   90.00000000
_cell_angle_gamma   120.00000943
_symmetry_Int_Tables_number   1
_chemical_formula_structural   Ac3Cd3SnHg2
_chemical_formula_sum   'Ac3 Cd3 Sn1 Hg2'
_cell_volume   274.68802104
_cell_formula_units_Z   1
loop_
 _symmetry_equiv_pos_site_id
 _symmetry_equiv_pos_as_xyz
  1  'x, y, z'
loop_
 _atom_site_type_symbol
 _atom_site_label
 _atom_site_symmetry_multiplicity
 _atom_site_fract_x
 _atom_site_fract_y
 _atom_site_fract_z
 _atom_site_occupancy
  Ac  Ac0  1  0.416698  0.412367  0.500000  1
  Ac  Ac1  1  0.587633  0.004331  0.500000  1
  Ac  Ac2  1  0.995669  0.583302  0.500000  1
  Cd  Cd3  1  0.755771  0.748774  0.000000  1
  Cd  Cd4  1  0.251226  0.006997  0.000000  1
  Cd  Cd5  1  0.993003  0.244229  0.000000  1
  Sn  Sn6  1  0.333333  0.666667  0.000000  1
  Hg  Hg7  1  0.666667  0.333333  0.000000  1
  Hg  Hg8  1  0.000000  0.000000  0.500000  1
