# generated using pymatgen
data_Lu13Th3(CoHg)4
_symmetry_space_group_name_H-M   'P 1'
_cell_length_a   9.37110159
_cell_length_b   9.37938168
_cell_length_c   9.37938100
_cell_angle_alpha   59.99999888
_cell_angle_beta   59.97076608
_cell_angle_gamma   59.97076351
_symmetry_Int_Tables_number   1
_chemical_formula_structural   Lu13Th3(CoHg)4
_chemical_formula_sum   'Lu13 Th3 Co4 Hg4'
_cell_volume   582.68250658
_cell_formula_units_Z   1
loop_
 _symmetry_equiv_pos_site_id
 _symmetry_equiv_pos_as_xyz
  1  'x, y, z'
loop_
 _atom_site_type_symbol
 _atom_site_label
 _atom_site_symmetry_multiplicity
 _atom_site_fract_x
 _atom_site_fract_y
 _atom_site_fract_z
 _atom_site_occupancy
  Lu  Lu0  1  0.947188  0.350937  0.350937  1
  Lu  Lu1  1  0.813935  0.187422  0.187422  1
  Lu  Lu2  1  0.186579  0.814070  0.814070  1
  Lu  Lu3  1  0.186579  0.814070  0.185281  1
  Lu  Lu4  1  0.813935  0.187422  0.811221  1
  Lu  Lu5  1  0.186579  0.185281  0.814070  1
  Lu  Lu6  1  0.813935  0.811221  0.187422  1
  Lu  Lu7  1  0.935937  0.563611  0.563611  1
  Lu  Lu8  1  0.564677  0.935087  0.935087  1
  Lu  Lu9  1  0.564677  0.935087  0.565149  1
  Lu  Lu10  1  0.935937  0.563611  0.936841  1
  Lu  Lu11  1  0.564677  0.565149  0.935087  1
  Lu  Lu12  1  0.935937  0.936841  0.563611  1
  Th  Th13  1  0.343864  0.348163  0.348163  1
  Th  Th14  1  0.343864  0.348163  0.959808  1
  Th  Th15  1  0.343864  0.959808  0.348163  1
  Co  Co16  1  0.145548  0.141622  0.141622  1
  Co  Co17  1  0.145548  0.141622  0.571209  1
  Co  Co18  1  0.145548  0.571209  0.141622  1
  Co  Co19  1  0.569007  0.143664  0.143664  1
  Hg  Hg20  1  0.590497  0.584209  0.584209  1
  Hg  Hg21  1  0.590497  0.584209  0.241084  1
  Hg  Hg22  1  0.590497  0.241084  0.584209  1
  Hg  Hg23  1  0.240691  0.586437  0.586437  1
