# generated using pymatgen
data_KNb8NiSe16
_symmetry_space_group_name_H-M   'P 1'
_cell_length_a   6.95911903
_cell_length_b   6.95946442
_cell_length_c   14.63574621
_cell_angle_alpha   89.99096591
_cell_angle_beta   89.98993152
_cell_angle_gamma   119.99953773
_symmetry_Int_Tables_number   1
_chemical_formula_structural   KNb8NiSe16
_chemical_formula_sum   'K1 Nb8 Ni1 Se16'
_cell_volume   613.87165957
_cell_formula_units_Z   1
loop_
 _symmetry_equiv_pos_site_id
 _symmetry_equiv_pos_as_xyz
  1  'x, y, z'
loop_
 _atom_site_type_symbol
 _atom_site_label
 _atom_site_symmetry_multiplicity
 _atom_site_fract_x
 _atom_site_fract_y
 _atom_site_fract_z
 _atom_site_occupancy
  K  K0  1  0.000000  0.000000  0.500000  1
  Nb  Nb1  1  0.000208  0.000157  0.214693  1
  Nb  Nb2  1  0.999792  0.999843  0.785307  1
  Nb  Nb3  1  0.508333  0.016512  0.214064  1
  Nb  Nb4  1  0.983708  0.491885  0.214058  1
  Nb  Nb5  1  0.508323  0.491885  0.214064  1
  Nb  Nb6  1  0.491667  0.983488  0.785936  1
  Nb  Nb7  1  0.016292  0.508115  0.785942  1
  Nb  Nb8  1  0.491677  0.508115  0.785936  1
  Ni  Ni9  1  0.000000  0.000000  0.000000  1
  Se  Se10  1  0.333372  0.666761  0.904636  1
  Se  Se11  1  0.666628  0.333239  0.095364  1
  Se  Se12  1  0.667160  0.333748  0.335561  1
  Se  Se13  1  0.332840  0.666252  0.664439  1
  Se  Se14  1  0.169024  0.831822  0.327477  1
  Se  Se15  1  0.168971  0.337379  0.327487  1
  Se  Se16  1  0.663193  0.831746  0.327433  1
  Se  Se17  1  0.830976  0.168178  0.672523  1
  Se  Se18  1  0.831029  0.662621  0.672513  1
  Se  Se19  1  0.336807  0.168254  0.672567  1
  Se  Se20  1  0.831620  0.168576  0.898299  1
  Se  Se21  1  0.831547  0.663030  0.898291  1
  Se  Se22  1  0.336927  0.168522  0.898320  1
  Se  Se23  1  0.168380  0.831424  0.101701  1
  Se  Se24  1  0.168453  0.336970  0.101709  1
  Se  Se25  1  0.663073  0.831478  0.101680  1
