# generated using pymatgen
data_Ho12Si12PtAu3
_symmetry_space_group_name_H-M   'P 1'
_cell_length_a   4.21529500
_cell_length_b   10.86468112
_cell_length_c   12.35504898
_cell_angle_alpha   89.98588540
_cell_angle_beta   90.00000000
_cell_angle_gamma   90.00000000
_symmetry_Int_Tables_number   1
_chemical_formula_structural   Ho12Si12PtAu3
_chemical_formula_sum   'Ho12 Si12 Pt1 Au3'
_cell_volume   565.83448987
_cell_formula_units_Z   1
loop_
 _symmetry_equiv_pos_site_id
 _symmetry_equiv_pos_as_xyz
  1  'x, y, z'
loop_
 _atom_site_type_symbol
 _atom_site_label
 _atom_site_symmetry_multiplicity
 _atom_site_fract_x
 _atom_site_fract_y
 _atom_site_fract_z
 _atom_site_occupancy
  Ho  Ho0  1  0.250000  0.876226  0.019613  1
  Ho  Ho1  1  0.250000  0.625323  0.520901  1
  Ho  Ho2  1  0.750000  0.121784  0.979022  1
  Ho  Ho3  1  0.750000  0.375677  0.481235  1
  Ho  Ho4  1  0.250000  0.922430  0.602080  1
  Ho  Ho5  1  0.250000  0.578335  0.099823  1
  Ho  Ho6  1  0.750000  0.078035  0.398496  1
  Ho  Ho7  1  0.750000  0.421652  0.896833  1
  Ho  Ho8  1  0.250000  0.666588  0.802155  1
  Ho  Ho9  1  0.250000  0.836133  0.302677  1
  Ho  Ho10  1  0.750000  0.336769  0.197204  1
  Ho  Ho11  1  0.750000  0.157271  0.698946  1
  Si  Si12  1  0.250000  0.015918  0.825255  1
  Si  Si13  1  0.250000  0.475209  0.326128  1
  Si  Si14  1  0.750000  0.974413  0.175173  1
  Si  Si15  1  0.750000  0.527674  0.673731  1
  Si  Si16  1  0.250000  0.242097  0.846745  1
  Si  Si17  1  0.250000  0.253408  0.347905  1
  Si  Si18  1  0.750000  0.753216  0.152035  1
  Si  Si19  1  0.750000  0.751647  0.657390  1
  Si  Si20  1  0.250000  0.185471  0.536761  1
  Si  Si21  1  0.250000  0.314645  0.034604  1
  Si  Si22  1  0.750000  0.816118  0.465861  1
  Si  Si23  1  0.750000  0.694196  0.959607  1
  Pt  Pt24  1  0.750000  0.889989  0.818232  1
  Au  Au25  1  0.250000  0.388599  0.682242  1
  Au  Au26  1  0.250000  0.110915  0.181539  1
  Au  Au27  1  0.750000  0.610263  0.317811  1
