# generated using pymatgen
data_Na2AlAgP2
_symmetry_space_group_name_H-M   'P 1'
_cell_length_a   8.05924769
_cell_length_b   8.05924690
_cell_length_c   8.05924809
_cell_angle_alpha   136.37516850
_cell_angle_beta   137.66815145
_cell_angle_gamma   62.41074432
_symmetry_Int_Tables_number   1
_chemical_formula_structural   Na2AlAgP2
_chemical_formula_sum   'Na4 Al2 Ag2 P4'
_cell_volume   240.27072176
_cell_formula_units_Z   2
loop_
 _symmetry_equiv_pos_site_id
 _symmetry_equiv_pos_as_xyz
  1  'x, y, z'
loop_
 _atom_site_type_symbol
 _atom_site_label
 _atom_site_symmetry_multiplicity
 _atom_site_fract_x
 _atom_site_fract_y
 _atom_site_fract_z
 _atom_site_occupancy
  Na  Na0  1  0.104215  0.822074  0.282140  1
  Na  Na1  1  0.539935  0.322074  0.217860  1
  Na  Na2  1  0.460065  0.677926  0.782140  1
  Na  Na3  1  0.895785  0.177926  0.717860  1
  Al  Al4  1  0.000000  0.250000  0.250000  1
  Al  Al5  1  0.000000  0.750000  0.750000  1
  Ag  Ag6  1  0.500000  0.750000  0.250000  1
  Ag  Ag7  1  0.500000  0.250000  0.750000  1
  P  P8  1  0.098195  0.391680  0.706515  1
  P  P9  1  0.901805  0.608320  0.293485  1
  P  P10  1  0.685165  0.891680  0.793485  1
  P  P11  1  0.314835  0.108320  0.206515  1
