# generated using pymatgen
data_Tb4Dy8Co4SnPt
_symmetry_space_group_name_H-M   'P 1'
_cell_length_a   8.32922873
_cell_length_b   8.32922888
_cell_length_c   8.32922879
_cell_angle_alpha   106.94328843
_cell_angle_beta   110.44130573
_cell_angle_gamma   111.05888752
_symmetry_Int_Tables_number   1
_chemical_formula_structural   Tb4Dy8Co4SnPt
_chemical_formula_sum   'Tb4 Dy8 Co4 Sn1 Pt1'
_cell_volume   444.16902559
_cell_formula_units_Z   1
loop_
 _symmetry_equiv_pos_site_id
 _symmetry_equiv_pos_as_xyz
  1  'x, y, z'
loop_
 _atom_site_type_symbol
 _atom_site_label
 _atom_site_symmetry_multiplicity
 _atom_site_fract_x
 _atom_site_fract_y
 _atom_site_fract_z
 _atom_site_occupancy
  Tb  Tb0  1  0.476452  0.291029  0.185423  1
  Tb  Tb1  1  0.105606  0.291029  0.814577  1
  Tb  Tb2  1  0.894394  0.708971  0.185423  1
  Tb  Tb3  1  0.523548  0.708971  0.814577  1
  Dy  Dy4  1  0.305431  0.620436  0.315005  1
  Dy  Dy5  1  0.305431  0.990427  0.684995  1
  Dy  Dy6  1  0.694569  0.379564  0.684995  1
  Dy  Dy7  1  0.694569  0.009573  0.315005  1
  Dy  Dy8  1  0.199170  0.214119  0.413289  1
  Dy  Dy9  1  0.800830  0.785881  0.586711  1
  Dy  Dy10  1  0.199170  0.785881  0.985050  1
  Dy  Dy11  1  0.800830  0.214119  0.014950  1
  Co  Co12  1  0.500000  0.612128  0.112128  1
  Co  Co13  1  0.500000  0.387872  0.887872  1
  Co  Co14  1  0.378203  0.000000  0.378203  1
  Co  Co15  1  0.621797  0.000000  0.621797  1
  Sn  Sn16  1  0.000000  0.500000  0.500000  1
  Pt  Pt17  1  0.000000  0.000000  0.000000  1
