# generated using pymatgen
data_Y(TiZn2)2
_symmetry_space_group_name_H-M   'P 1'
_cell_length_a   5.53216797
_cell_length_b   5.53216756
_cell_length_c   5.53216796
_cell_angle_alpha   101.25820054
_cell_angle_beta   101.25819129
_cell_angle_gamma   127.55615417
_symmetry_Int_Tables_number   1
_chemical_formula_structural   Y(TiZn2)2
_chemical_formula_sum   'Y1 Ti2 Zn4'
_cell_volume   120.40970500
_cell_formula_units_Z   1
loop_
 _symmetry_equiv_pos_site_id
 _symmetry_equiv_pos_as_xyz
  1  'x, y, z'
loop_
 _atom_site_type_symbol
 _atom_site_label
 _atom_site_symmetry_multiplicity
 _atom_site_fract_x
 _atom_site_fract_y
 _atom_site_fract_z
 _atom_site_occupancy
  Y  Y0  1  0.000000  0.000000  0.000000  1
  Ti  Ti1  1  0.250000  0.750000  0.500000  1
  Ti  Ti2  1  0.750000  0.250000  0.500000  1
  Zn  Zn3  1  0.692481  0.307519  0.000000  1
  Zn  Zn4  1  0.692481  0.692481  0.384964  1
  Zn  Zn5  1  0.307519  0.307519  0.615036  1
  Zn  Zn6  1  0.307519  0.692481  0.000000  1
