# generated using pymatgen
data_Ca5Pb19
_symmetry_space_group_name_H-M   'P 1'
_cell_length_a   7.00407000
_cell_length_b   7.00407039
_cell_length_c   17.71235300
_cell_angle_alpha   90.00000000
_cell_angle_beta   90.00000000
_cell_angle_gamma   119.99999816
_symmetry_Int_Tables_number   1
_chemical_formula_structural   Ca5Pb19
_chemical_formula_sum   'Ca5 Pb19'
_cell_volume   752.50238125
_cell_formula_units_Z   1
loop_
 _symmetry_equiv_pos_site_id
 _symmetry_equiv_pos_as_xyz
  1  'x, y, z'
loop_
 _atom_site_type_symbol
 _atom_site_label
 _atom_site_symmetry_multiplicity
 _atom_site_fract_x
 _atom_site_fract_y
 _atom_site_fract_z
 _atom_site_occupancy
  Ca  Ca0  1  0.666667  0.333333  0.582563  1
  Ca  Ca1  1  0.666667  0.333333  0.919731  1
  Ca  Ca2  1  0.000000  0.000000  0.079822  1
  Ca  Ca3  1  0.333333  0.666667  0.245218  1
  Ca  Ca4  1  0.333333  0.666667  0.754217  1
  Pb  Pb5  1  0.000000  0.000000  0.417474  1
  Pb  Pb6  1  0.004607  0.502303  0.416572  1
  Pb  Pb7  1  0.497697  0.502303  0.416572  1
  Pb  Pb8  1  0.497697  0.995393  0.416572  1
  Pb  Pb9  1  0.673900  0.836949  0.580643  1
  Pb  Pb10  1  0.163051  0.836949  0.580643  1
  Pb  Pb11  1  0.163051  0.326100  0.580643  1
  Pb  Pb12  1  0.666540  0.833269  0.919304  1
  Pb  Pb13  1  0.166731  0.833269  0.919304  1
  Pb  Pb14  1  0.166731  0.333460  0.919304  1
  Pb  Pb15  1  0.000457  0.500230  0.081811  1
  Pb  Pb16  1  0.499770  0.500230  0.081811  1
  Pb  Pb17  1  0.499770  0.999543  0.081811  1
  Pb  Pb18  1  0.329907  0.164954  0.249607  1
  Pb  Pb19  1  0.835046  0.164954  0.249607  1
  Pb  Pb20  1  0.835046  0.670093  0.249607  1
  Pb  Pb21  1  0.329300  0.164650  0.752207  1
  Pb  Pb22  1  0.835350  0.164650  0.752207  1
  Pb  Pb23  1  0.835350  0.670700  0.752207  1
