# generated using pymatgen
data_Er2Lu4TcSb2
_symmetry_space_group_name_H-M   'P 1'
_cell_length_a   8.02899200
_cell_length_b   8.03545042
_cell_length_c   4.23860000
_cell_angle_alpha   90.00000000
_cell_angle_beta   90.00000000
_cell_angle_gamma   119.97342427
_symmetry_Int_Tables_number   1
_chemical_formula_structural   Er2Lu4TcSb2
_chemical_formula_sum   'Er2 Lu4 Tc1 Sb2'
_cell_volume   236.88663332
_cell_formula_units_Z   1
loop_
 _symmetry_equiv_pos_site_id
 _symmetry_equiv_pos_as_xyz
  1  'x, y, z'
loop_
 _atom_site_type_symbol
 _atom_site_label
 _atom_site_symmetry_multiplicity
 _atom_site_fract_x
 _atom_site_fract_y
 _atom_site_fract_z
 _atom_site_occupancy
  Er  Er0  1  0.000631  0.606475  0.500000  1
  Er  Er1  1  0.394156  0.393525  0.500000  1
  Lu  Lu2  1  0.233764  0.000000  0.000000  1
  Lu  Lu3  1  0.764585  0.764753  0.000000  1
  Lu  Lu4  1  0.999832  0.235247  0.000000  1
  Lu  Lu5  1  0.608962  0.000000  0.500000  1
  Tc  Tc6  1  0.996914  0.000000  0.500000  1
  Sb  Sb7  1  0.334591  0.668026  0.000000  1
  Sb  Sb8  1  0.666566  0.331974  0.000000  1
