# generated using pymatgen
data_Tb2Dy6In3Co
_symmetry_space_group_name_H-M   'P 1'
_cell_length_a   10.39178600
_cell_length_b   10.38730149
_cell_length_c   7.01324202
_cell_angle_alpha   89.99197733
_cell_angle_beta   90.00000000
_cell_angle_gamma   120.01428254
_symmetry_Int_Tables_number   1
_chemical_formula_structural   Tb2Dy6In3Co
_chemical_formula_sum   'Tb4 Dy12 In6 Co2'
_cell_volume   655.51081673
_cell_formula_units_Z   2
loop_
 _symmetry_equiv_pos_site_id
 _symmetry_equiv_pos_as_xyz
  1  'x, y, z'
loop_
 _atom_site_type_symbol
 _atom_site_label
 _atom_site_symmetry_multiplicity
 _atom_site_fract_x
 _atom_site_fract_y
 _atom_site_fract_z
 _atom_site_occupancy
  Tb  Tb0  1  0.534782  0.069563  0.512175  1
  Tb  Tb1  1  0.930451  0.465375  0.512506  1
  Tb  Tb2  1  0.534926  0.465375  0.512506  1
  Tb  Tb3  1  0.464888  0.929777  0.012292  1
  Dy  Dy4  1  0.070127  0.535165  0.012085  1
  Dy  Dy5  1  0.465036  0.535165  0.012085  1
  Dy  Dy6  1  0.177516  0.355031  0.720659  1
  Dy  Dy7  1  0.645373  0.822707  0.720362  1
  Dy  Dy8  1  0.177334  0.822707  0.720362  1
  Dy  Dy9  1  0.822215  0.644430  0.220213  1
  Dy  Dy10  1  0.355088  0.177670  0.220296  1
  Dy  Dy11  1  0.822583  0.177670  0.220296  1
  Dy  Dy12  1  0.666599  0.333197  0.904418  1
  Dy  Dy13  1  0.333278  0.666558  0.403735  1
  Dy  Dy14  1  0.999988  0.999976  0.501263  1
  Dy  Dy15  1  0.000020  0.000041  0.001770  1
  In  In16  1  0.836669  0.673338  0.760412  1
  In  In17  1  0.326602  0.163343  0.759938  1
  In  In18  1  0.836741  0.163343  0.759938  1
  In  In19  1  0.163471  0.326942  0.259790  1
  In  In20  1  0.673412  0.836478  0.259572  1
  In  In21  1  0.163066  0.836478  0.259572  1
  Co  Co22  1  0.666634  0.333266  0.289046  1
  Co  Co23  1  0.333202  0.666406  0.788909  1
