# generated using pymatgen
data_Er3ScBe4(AlIr5)2
_symmetry_space_group_name_H-M   'P 1'
_cell_length_a   9.64667100
_cell_length_b   9.64667100
_cell_length_c   3.13617700
_cell_angle_alpha   90.00000000
_cell_angle_beta   90.00000000
_cell_angle_gamma   89.70027199
_symmetry_Int_Tables_number   1
_chemical_formula_structural   Er3ScBe4(AlIr5)2
_chemical_formula_sum   'Er3 Sc1 Be4 Al2 Ir10'
_cell_volume   291.84318561
_cell_formula_units_Z   1
loop_
 _symmetry_equiv_pos_site_id
 _symmetry_equiv_pos_as_xyz
  1  'x, y, z'
loop_
 _atom_site_type_symbol
 _atom_site_label
 _atom_site_symmetry_multiplicity
 _atom_site_fract_x
 _atom_site_fract_y
 _atom_site_fract_z
 _atom_site_occupancy
  Er  Er0  1  0.677639  0.175366  0.000000  1
  Er  Er1  1  0.324634  0.822361  0.000000  1
  Er  Er2  1  0.175129  0.324871  0.000000  1
  Sc  Sc3  1  0.824306  0.675694  0.000000  1
  Be  Be4  1  0.120172  0.624069  0.000000  1
  Be  Be5  1  0.875931  0.379828  0.000000  1
  Be  Be6  1  0.625724  0.874276  0.000000  1
  Be  Be7  1  0.378144  0.121856  0.000000  1
  Al  Al8  1  0.000286  0.002185  0.000000  1
  Al  Al9  1  0.497815  0.499714  0.000000  1
  Ir  Ir10  1  0.210467  0.065690  0.500000  1
  Ir  Ir11  1  0.793232  0.926713  0.500000  1
  Ir  Ir12  1  0.060446  0.789930  0.500000  1
  Ir  Ir13  1  0.710070  0.439554  0.500000  1
  Ir  Ir14  1  0.934082  0.211943  0.500000  1
  Ir  Ir15  1  0.288057  0.565918  0.500000  1
  Ir  Ir16  1  0.573287  0.706768  0.500000  1
  Ir  Ir17  1  0.434310  0.289533  0.500000  1
  Ir  Ir18  1  0.501826  0.998174  0.500000  1
  Ir  Ir19  1  0.994443  0.505557  0.500000  1
