# generated using pymatgen
data_Ba4Sb7Au9
_symmetry_space_group_name_H-M   'P 1'
_cell_length_a   4.86594700
_cell_length_b   9.00859500
_cell_length_c   12.40886453
_cell_angle_alpha   89.44020711
_cell_angle_beta   90.00000000
_cell_angle_gamma   90.00000000
_symmetry_Int_Tables_number   1
_chemical_formula_structural   Ba4Sb7Au9
_chemical_formula_sum   'Ba4 Sb7 Au9'
_cell_volume   543.92090594
_cell_formula_units_Z   1
loop_
 _symmetry_equiv_pos_site_id
 _symmetry_equiv_pos_as_xyz
  1  'x, y, z'
loop_
 _atom_site_type_symbol
 _atom_site_label
 _atom_site_symmetry_multiplicity
 _atom_site_fract_x
 _atom_site_fract_y
 _atom_site_fract_z
 _atom_site_occupancy
  Ba  Ba0  1  0.750000  0.748027  0.333564  1
  Ba  Ba1  1  0.250000  0.753655  0.839118  1
  Ba  Ba2  1  0.250000  0.255217  0.671040  1
  Ba  Ba3  1  0.750000  0.244008  0.154310  1
  Sb  Sb4  1  0.250000  0.406623  0.343079  1
  Sb  Sb5  1  0.250000  0.915499  0.151507  1
  Sb  Sb6  1  0.750000  0.590095  0.030607  1
  Sb  Sb7  1  0.750000  0.592186  0.658508  1
  Sb  Sb8  1  0.750000  0.092358  0.846044  1
  Sb  Sb9  1  0.250000  0.892118  0.542989  1
  Sb  Sb10  1  0.750000  0.109992  0.457589  1
  Au  Au11  1  0.250000  0.411113  0.970333  1
  Au  Au12  1  0.250000  0.094567  0.958001  1
  Au  Au13  1  0.750000  0.406495  0.841885  1
  Au  Au14  1  0.750000  0.919547  0.659850  1
  Au  Au15  1  0.250000  0.591446  0.165565  1
  Au  Au16  1  0.250000  0.078319  0.340509  1
  Au  Au17  1  0.750000  0.897462  0.034826  1
  Au  Au18  1  0.250000  0.584557  0.533957  1
  Au  Au19  1  0.750000  0.416716  0.466720  1
