# generated using pymatgen
data_La5PrP13Rh20
_symmetry_space_group_name_H-M   'P 1'
_cell_length_a   13.54131008
_cell_length_b   13.54672044
_cell_length_c   3.99516602
_cell_angle_alpha   90.00150337
_cell_angle_beta   90.00940502
_cell_angle_gamma   119.97911741
_symmetry_Int_Tables_number   1
_chemical_formula_structural   La5PrP13Rh20
_chemical_formula_sum   'La5 Pr1 P13 Rh20'
_cell_volume   634.82153940
_cell_formula_units_Z   1
loop_
 _symmetry_equiv_pos_site_id
 _symmetry_equiv_pos_as_xyz
  1  'x, y, z'
loop_
 _atom_site_type_symbol
 _atom_site_label
 _atom_site_symmetry_multiplicity
 _atom_site_fract_x
 _atom_site_fract_y
 _atom_site_fract_z
 _atom_site_occupancy
  La  La0  1  0.529720  0.717502  0.246459  1
  La  La1  1  0.282286  0.811993  0.246556  1
  La  La2  1  0.187889  0.470327  0.246439  1
  La  La3  1  0.470656  0.282744  0.753456  1
  La  La4  1  0.717677  0.188225  0.753546  1
  Pr  Pr5  1  0.813694  0.531217  0.753389  1
  P  P6  1  0.520119  0.133355  0.251125  1
  P  P7  1  0.866039  0.387161  0.250987  1
  P  P8  1  0.614261  0.479865  0.251137  1
  P  P9  1  0.948911  0.720693  0.255252  1
  P  P10  1  0.278566  0.228096  0.255293  1
  P  P11  1  0.771879  0.050374  0.255293  1
  P  P12  1  0.387081  0.519788  0.749001  1
  P  P13  1  0.480169  0.866973  0.748913  1
  P  P14  1  0.132981  0.613163  0.748996  1
  P  P15  1  0.721548  0.771850  0.744610  1
  P  P16  1  0.227909  0.949463  0.744705  1
  P  P17  1  0.050128  0.278500  0.744698  1
  P  P18  1  0.999995  0.999821  0.999666  1
  Rh  Rh19  1  0.333269  0.666549  0.750512  1
  Rh  Rh20  1  0.923677  0.248779  0.257513  1
  Rh  Rh21  1  0.751720  0.674786  0.257651  1
  Rh  Rh22  1  0.324771  0.076295  0.257626  1
  Rh  Rh23  1  0.439521  0.024749  0.752232  1
  Rh  Rh24  1  0.974613  0.415033  0.752180  1
  Rh  Rh25  1  0.585793  0.560375  0.752205  1
  Rh  Rh26  1  0.666557  0.333359  0.249394  1
  Rh  Rh27  1  0.091786  0.184804  0.244194  1
  Rh  Rh28  1  0.815397  0.907084  0.244660  1
  Rh  Rh29  1  0.092613  0.907692  0.244394  1
  Rh  Rh30  1  0.024161  0.585060  0.247807  1
  Rh  Rh31  1  0.414970  0.439907  0.247892  1
  Rh  Rh32  1  0.560304  0.975070  0.247960  1
  Rh  Rh33  1  0.675195  0.923616  0.742644  1
  Rh  Rh34  1  0.075994  0.751160  0.742317  1
  Rh  Rh35  1  0.248360  0.324768  0.742384  1
  Rh  Rh36  1  0.908183  0.815185  0.755600  1
  Rh  Rh37  1  0.184616  0.092850  0.755647  1
  Rh  Rh38  1  0.906989  0.091769  0.755663  1
