# generated using pymatgen
data_CaLa(Al5Os)4
_symmetry_space_group_name_H-M   'P 1'
_cell_length_a   6.90438012
_cell_length_b   6.90437889
_cell_length_c   9.20553500
_cell_angle_alpha   90.00000000
_cell_angle_beta   90.00000000
_cell_angle_gamma   96.46440469
_symmetry_Int_Tables_number   1
_chemical_formula_structural   CaLa(Al5Os)4
_chemical_formula_sum   'Ca1 La1 Al20 Os4'
_cell_volume   436.04195657
_cell_formula_units_Z   1
loop_
 _symmetry_equiv_pos_site_id
 _symmetry_equiv_pos_as_xyz
  1  'x, y, z'
loop_
 _atom_site_type_symbol
 _atom_site_label
 _atom_site_symmetry_multiplicity
 _atom_site_fract_x
 _atom_site_fract_y
 _atom_site_fract_z
 _atom_site_occupancy
  Ca  Ca0  1  0.626300  0.373700  0.750000  1
  La  La1  1  0.374874  0.625126  0.250000  1
  Al  Al2  1  0.283600  0.021235  0.750000  1
  Al  Al3  1  0.016651  0.280529  0.250000  1
  Al  Al4  1  0.719471  0.983349  0.250000  1
  Al  Al5  1  0.978765  0.716400  0.750000  1
  Al  Al6  1  0.876590  0.123410  0.956905  1
  Al  Al7  1  0.122541  0.877459  0.047511  1
  Al  Al8  1  0.876590  0.123410  0.543095  1
  Al  Al9  1  0.122541  0.877459  0.452489  1
  Al  Al10  1  0.643620  0.915582  0.750000  1
  Al  Al11  1  0.911993  0.644098  0.250000  1
  Al  Al12  1  0.355902  0.088007  0.250000  1
  Al  Al13  1  0.084418  0.356380  0.750000  1
  Al  Al14  1  0.340261  0.659739  0.896914  1
  Al  Al15  1  0.658861  0.341139  0.100682  1
  Al  Al16  1  0.340261  0.659739  0.603086  1
  Al  Al17  1  0.658861  0.341139  0.399318  1
  Al  Al18  1  0.726202  0.724021  0.997755  1
  Al  Al19  1  0.726202  0.724021  0.502245  1
  Al  Al20  1  0.275979  0.273798  0.997755  1
  Al  Al21  1  0.275979  0.273798  0.502245  1
  Os  Os22  1  0.500575  0.998806  0.999354  1
  Os  Os23  1  0.001194  0.499425  0.999354  1
  Os  Os24  1  0.500575  0.998806  0.500646  1
  Os  Os25  1  0.001194  0.499425  0.500646  1
