# generated using pymatgen
data_Ho4Pt3Pb2Au
_symmetry_space_group_name_H-M   'P 1'
_cell_length_a   8.04888529
_cell_length_b   8.04888479
_cell_length_c   3.55077300
_cell_angle_alpha   90.00000000
_cell_angle_beta   90.00000000
_cell_angle_gamma   90.54678633
_symmetry_Int_Tables_number   1
_chemical_formula_structural   Ho4Pt3Pb2Au
_chemical_formula_sum   'Ho4 Pt3 Pb2 Au1'
_cell_volume   230.02475735
_cell_formula_units_Z   1
loop_
 _symmetry_equiv_pos_site_id
 _symmetry_equiv_pos_as_xyz
  1  'x, y, z'
loop_
 _atom_site_type_symbol
 _atom_site_label
 _atom_site_symmetry_multiplicity
 _atom_site_fract_x
 _atom_site_fract_y
 _atom_site_fract_z
 _atom_site_occupancy
  Ho  Ho0  1  0.681782  0.161463  0.500000  1
  Ho  Ho1  1  0.338537  0.818218  0.500000  1
  Ho  Ho2  1  0.154246  0.345754  0.500000  1
  Ho  Ho3  1  0.831033  0.668967  0.500000  1
  Pt  Pt4  1  0.124691  0.631015  0.000000  1
  Pt  Pt5  1  0.868985  0.375309  0.000000  1
  Pt  Pt6  1  0.625144  0.874856  0.000000  1
  Pb  Pb7  1  0.001264  0.997689  0.000000  1
  Pb  Pb8  1  0.502311  0.498736  0.000000  1
  Au  Au9  1  0.372007  0.127993  0.000000  1
