# generated using pymatgen
data_Mg4Sb2Pd7Rh3
_symmetry_space_group_name_H-M   'P 1'
_cell_length_a   4.22782300
_cell_length_b   5.57298305
_cell_length_c   10.93290440
_cell_angle_alpha   89.37206557
_cell_angle_beta   90.00000000
_cell_angle_gamma   90.00000000
_symmetry_Int_Tables_number   1
_chemical_formula_structural   Mg4Sb2Pd7Rh3
_chemical_formula_sum   'Mg4 Sb2 Pd7 Rh3'
_cell_volume   257.58109651
_cell_formula_units_Z   1
loop_
 _symmetry_equiv_pos_site_id
 _symmetry_equiv_pos_as_xyz
  1  'x, y, z'
loop_
 _atom_site_type_symbol
 _atom_site_label
 _atom_site_symmetry_multiplicity
 _atom_site_fract_x
 _atom_site_fract_y
 _atom_site_fract_z
 _atom_site_occupancy
  Mg  Mg0  1  0.500000  0.166505  0.144263  1
  Mg  Mg1  1  0.500000  0.832613  0.853626  1
  Mg  Mg2  1  0.500000  0.336247  0.643450  1
  Mg  Mg3  1  0.500000  0.667700  0.359845  1
  Sb  Sb4  1  0.000000  0.002030  0.501054  1
  Sb  Sb5  1  0.000000  0.490903  0.996680  1
  Pd  Pd6  1  0.500000  0.687616  0.110553  1
  Pd  Pd7  1  0.000000  0.423418  0.243545  1
  Pd  Pd8  1  0.000000  0.580960  0.753691  1
  Pd  Pd9  1  0.000000  0.081576  0.745686  1
  Pd  Pd10  1  0.000000  0.921819  0.256081  1
  Pd  Pd11  1  0.000000  0.990787  0.000361  1
  Pd  Pd12  1  0.000000  0.500625  0.499193  1
  Rh  Rh13  1  0.500000  0.184692  0.392144  1
  Rh  Rh14  1  0.500000  0.819286  0.606666  1
  Rh  Rh15  1  0.500000  0.313226  0.893162  1
