# generated using pymatgen
data_Tm12InCo4Ni
_symmetry_space_group_name_H-M   'P 1'
_cell_length_a   8.15909837
_cell_length_b   8.15909752
_cell_length_c   8.15909802
_cell_angle_alpha   110.76498233
_cell_angle_beta   110.99396993
_cell_angle_gamma   106.69008892
_symmetry_Int_Tables_number   1
_chemical_formula_structural   Tm12InCo4Ni
_chemical_formula_sum   'Tm12 In1 Co4 Ni1'
_cell_volume   417.38736612
_cell_formula_units_Z   1
loop_
 _symmetry_equiv_pos_site_id
 _symmetry_equiv_pos_as_xyz
  1  'x, y, z'
loop_
 _atom_site_type_symbol
 _atom_site_label
 _atom_site_symmetry_multiplicity
 _atom_site_fract_x
 _atom_site_fract_y
 _atom_site_fract_z
 _atom_site_occupancy
  Tm  Tm0  1  0.186240  0.290638  0.476878  1
  Tm  Tm1  1  0.813760  0.709362  0.523122  1
  Tm  Tm2  1  0.186240  0.709362  0.895602  1
  Tm  Tm3  1  0.813760  0.290638  0.104398  1
  Tm  Tm4  1  0.314966  0.619618  0.304653  1
  Tm  Tm5  1  0.685034  0.380382  0.695347  1
  Tm  Tm6  1  0.314966  0.010313  0.695347  1
  Tm  Tm7  1  0.685034  0.989687  0.304653  1
  Tm  Tm8  1  0.409124  0.213678  0.195446  1
  Tm  Tm9  1  0.590876  0.786322  0.804554  1
  Tm  Tm10  1  0.018231  0.213678  0.804554  1
  Tm  Tm11  1  0.981769  0.786322  0.195446  1
  In  In12  1  0.500000  0.500000  0.000000  1
  Co  Co13  1  0.113028  0.613028  0.500000  1
  Co  Co14  1  0.886972  0.386972  0.500000  1
  Co  Co15  1  0.376706  0.000000  0.376706  1
  Co  Co16  1  0.623294  0.000000  0.623294  1
  Ni  Ni17  1  0.000000  0.000000  0.000000  1
