# generated using pymatgen
data_Eu2Th(InPt)3
_symmetry_space_group_name_H-M   'P 1'
_cell_length_a   7.78972800
_cell_length_b   7.75922984
_cell_length_c   4.10241700
_cell_angle_alpha   90.00000000
_cell_angle_beta   90.00000000
_cell_angle_gamma   120.13010744
_symmetry_Int_Tables_number   1
_chemical_formula_structural   Eu2Th(InPt)3
_chemical_formula_sum   'Eu2 Th1 In3 Pt3'
_cell_volume   214.45712000
_cell_formula_units_Z   1
loop_
 _symmetry_equiv_pos_site_id
 _symmetry_equiv_pos_as_xyz
  1  'x, y, z'
loop_
 _atom_site_type_symbol
 _atom_site_label
 _atom_site_symmetry_multiplicity
 _atom_site_fract_x
 _atom_site_fract_y
 _atom_site_fract_z
 _atom_site_occupancy
  Eu  Eu0  1  0.002224  0.591572  0.000000  1
  Eu  Eu1  1  0.410652  0.408428  0.000000  1
  Th  Th2  1  0.587986  0.000000  0.000000  1
  In  In3  1  0.238554  0.000000  0.500000  1
  In  In4  1  0.011690  0.262099  0.500000  1
  In  In5  1  0.749590  0.737901  0.500000  1
  Pt  Pt6  1  0.354259  0.691158  0.500000  1
  Pt  Pt7  1  0.663103  0.308842  0.500000  1
  Pt  Pt8  1  0.981944  0.000000  0.000000  1
