# generated using pymatgen
data_Dy2Er7ScCd3Ir
_symmetry_space_group_name_H-M   'P 1'
_cell_length_a   9.51251800
_cell_length_b   9.51042387
_cell_length_c   9.67552500
_cell_angle_alpha   90.00000000
_cell_angle_beta   90.00000000
_cell_angle_gamma   119.99271142
_symmetry_Int_Tables_number   1
_chemical_formula_structural   Dy2Er7ScCd3Ir
_chemical_formula_sum   'Dy4 Er14 Sc2 Cd6 Ir2'
_cell_volume   758.11035350
_cell_formula_units_Z   2
loop_
 _symmetry_equiv_pos_site_id
 _symmetry_equiv_pos_as_xyz
  1  'x, y, z'
loop_
 _atom_site_type_symbol
 _atom_site_label
 _atom_site_symmetry_multiplicity
 _atom_site_fract_x
 _atom_site_fract_y
 _atom_site_fract_z
 _atom_site_occupancy
  Dy  Dy0  1  0.918022  0.459010  0.250000  1
  Dy  Dy1  1  0.459303  0.540602  0.750000  1
  Dy  Dy2  1  0.459303  0.918700  0.750000  1
  Dy  Dy3  1  0.081010  0.540505  0.750000  1
  Er  Er4  1  0.208509  0.792423  0.440863  1
  Er  Er5  1  0.208509  0.416086  0.440863  1
  Er  Er6  1  0.584127  0.792064  0.440788  1
  Er  Er7  1  0.791490  0.207797  0.558304  1
  Er  Er8  1  0.791490  0.583692  0.558304  1
  Er  Er9  1  0.416431  0.208215  0.558047  1
  Er  Er10  1  0.791490  0.207797  0.941696  1
  Er  Er11  1  0.791490  0.583692  0.941696  1
  Er  Er12  1  0.416431  0.208215  0.941953  1
  Er  Er13  1  0.208509  0.792423  0.059137  1
  Er  Er14  1  0.208509  0.416086  0.059137  1
  Er  Er15  1  0.584127  0.792064  0.059212  1
  Er  Er16  1  0.540456  0.459020  0.250000  1
  Er  Er17  1  0.540456  0.081436  0.250000  1
  Sc  Sc18  1  0.000060  0.000030  0.500237  1
  Sc  Sc19  1  0.000060  0.000030  0.999763  1
  Cd  Cd20  1  0.888534  0.110437  0.250000  1
  Cd  Cd21  1  0.888534  0.778098  0.250000  1
  Cd  Cd22  1  0.222462  0.111232  0.250000  1
  Cd  Cd23  1  0.110738  0.889607  0.750000  1
  Cd  Cd24  1  0.110738  0.221129  0.750000  1
  Cd  Cd25  1  0.778543  0.889271  0.750000  1
  Ir  Ir26  1  0.333779  0.666890  0.250000  1
  Ir  Ir27  1  0.666897  0.333448  0.750000  1
