# generated using pymatgen
data_Tb4HoTm7Os4
_symmetry_space_group_name_H-M   'P 1'
_cell_length_a   7.38419602
_cell_length_b   8.94508276
_cell_length_c   6.28691216
_cell_angle_alpha   89.90930787
_cell_angle_beta   89.96509802
_cell_angle_gamma   89.98406132
_symmetry_Int_Tables_number   1
_chemical_formula_structural   Tb4HoTm7Os4
_chemical_formula_sum   'Tb4 Ho1 Tm7 Os4'
_cell_volume   415.26404625
_cell_formula_units_Z   1
loop_
 _symmetry_equiv_pos_site_id
 _symmetry_equiv_pos_as_xyz
  1  'x, y, z'
loop_
 _atom_site_type_symbol
 _atom_site_label
 _atom_site_symmetry_multiplicity
 _atom_site_fract_x
 _atom_site_fract_y
 _atom_site_fract_z
 _atom_site_occupancy
  Tb  Tb0  1  0.039746  0.250358  0.630173  1
  Tb  Tb1  1  0.959916  0.749657  0.370286  1
  Tb  Tb2  1  0.460264  0.749638  0.129755  1
  Tb  Tb3  1  0.540138  0.250206  0.869854  1
  Ho  Ho4  1  0.174813  0.062995  0.167003  1
  Tm  Tm5  1  0.825122  0.936571  0.832802  1
  Tm  Tm6  1  0.325645  0.936580  0.666752  1
  Tm  Tm7  1  0.825410  0.563170  0.833132  1
  Tm  Tm8  1  0.674501  0.063175  0.333413  1
  Tm  Tm9  1  0.174404  0.437341  0.166837  1
  Tm  Tm10  1  0.674602  0.436847  0.333234  1
  Tm  Tm11  1  0.325489  0.563136  0.666775  1
  Os  Os12  1  0.383283  0.250454  0.458795  1
  Os  Os13  1  0.617194  0.750116  0.541808  1
  Os  Os14  1  0.117014  0.749344  0.957761  1
  Os  Os15  1  0.882459  0.250413  0.041620  1
