# generated using pymatgen
data_Tb8Dy11TmPb16
_symmetry_space_group_name_H-M   'P 1'
_cell_length_a   8.22467900
_cell_length_b   8.31117621
_cell_length_c   15.68960500
_cell_angle_alpha   90.00000000
_cell_angle_beta   90.00000000
_cell_angle_gamma   90.01292592
_symmetry_Int_Tables_number   1
_chemical_formula_structural   Tb8Dy11TmPb16
_chemical_formula_sum   'Tb8 Dy11 Tm1 Pb16'
_cell_volume   1072.49048052
_cell_formula_units_Z   1
loop_
 _symmetry_equiv_pos_site_id
 _symmetry_equiv_pos_as_xyz
  1  'x, y, z'
loop_
 _atom_site_type_symbol
 _atom_site_label
 _atom_site_symmetry_multiplicity
 _atom_site_fract_x
 _atom_site_fract_y
 _atom_site_fract_z
 _atom_site_occupancy
  Tb  Tb0  1  0.534182  0.323127  0.899940  1
  Tb  Tb1  1  0.034167  0.176866  0.600007  1
  Tb  Tb2  1  0.465723  0.677032  0.400018  1
  Tb  Tb3  1  0.965930  0.823219  0.100003  1
  Tb  Tb4  1  0.465723  0.677032  0.099982  1
  Tb  Tb5  1  0.965930  0.823219  0.399997  1
  Tb  Tb6  1  0.534182  0.323127  0.600060  1
  Tb  Tb7  1  0.034167  0.176866  0.899993  1
  Dy  Dy8  1  0.376526  0.840928  0.879310  1
  Dy  Dy9  1  0.876525  0.659037  0.620749  1
  Dy  Dy10  1  0.623226  0.158918  0.379323  1
  Dy  Dy11  1  0.123613  0.340853  0.120654  1
  Dy  Dy12  1  0.623226  0.158918  0.120677  1
  Dy  Dy13  1  0.123613  0.340853  0.379346  1
  Dy  Dy14  1  0.376526  0.840928  0.620690  1
  Dy  Dy15  1  0.876525  0.659037  0.879251  1
  Dy  Dy16  1  0.208298  0.504167  0.750000  1
  Dy  Dy17  1  0.708295  0.995883  0.750000  1
  Dy  Dy18  1  0.791695  0.495933  0.250000  1
  Tm  Tm19  1  0.291509  0.004222  0.250000  1
  Pb  Pb20  1  0.282079  0.033970  0.043082  1
  Pb  Pb21  1  0.782061  0.465948  0.457321  1
  Pb  Pb22  1  0.717932  0.965901  0.542695  1
  Pb  Pb23  1  0.217903  0.534029  0.957328  1
  Pb  Pb24  1  0.717932  0.965901  0.957305  1
  Pb  Pb25  1  0.217903  0.534029  0.542672  1
  Pb  Pb26  1  0.282079  0.033970  0.456918  1
  Pb  Pb27  1  0.782061  0.465948  0.042679  1
  Pb  Pb28  1  0.572043  0.626455  0.750000  1
  Pb  Pb29  1  0.072111  0.873607  0.750000  1
  Pb  Pb30  1  0.427729  0.373210  0.250000  1
  Pb  Pb31  1  0.928725  0.125923  0.250000  1
  Pb  Pb32  1  0.345342  0.152286  0.750000  1
  Pb  Pb33  1  0.845399  0.347478  0.750000  1
  Pb  Pb34  1  0.654331  0.847808  0.250000  1
  Pb  Pb35  1  0.154786  0.653376  0.250000  1
