# generated using pymatgen
data_Ca3YRe2(TcB8)2
_symmetry_space_group_name_H-M   'P 1'
_cell_length_a   3.57886100
_cell_length_b   6.00841749
_cell_length_c   11.61455366
_cell_angle_alpha   90.08280131
_cell_angle_beta   90.00000000
_cell_angle_gamma   90.00000000
_symmetry_Int_Tables_number   1
_chemical_formula_structural   Ca3YRe2(TcB8)2
_chemical_formula_sum   'Ca3 Y1 Re2 Tc2 B16'
_cell_volume   249.75086669
_cell_formula_units_Z   1
loop_
 _symmetry_equiv_pos_site_id
 _symmetry_equiv_pos_as_xyz
  1  'x, y, z'
loop_
 _atom_site_type_symbol
 _atom_site_label
 _atom_site_symmetry_multiplicity
 _atom_site_fract_x
 _atom_site_fract_y
 _atom_site_fract_z
 _atom_site_occupancy
  Ca  Ca0  1  0.000000  0.127862  0.150834  1
  Ca  Ca1  1  0.000000  0.872931  0.850073  1
  Ca  Ca2  1  0.000000  0.627235  0.348874  1
  Y  Y3  1  0.000000  0.372026  0.650341  1
  Re  Re4  1  0.000000  0.630780  0.083250  1
  Re  Re5  1  0.000000  0.370507  0.915769  1
  Tc  Tc6  1  0.000000  0.130843  0.417764  1
  Tc  Tc7  1  0.000000  0.870777  0.584299  1
  B  B8  1  0.500000  0.476314  0.192353  1
  B  B9  1  0.500000  0.524219  0.807318  1
  B  B10  1  0.500000  0.977210  0.308019  1
  B  B11  1  0.500000  0.023792  0.692278  1
  B  B12  1  0.500000  0.283207  0.315301  1
  B  B13  1  0.500000  0.715671  0.684470  1
  B  B14  1  0.500000  0.784889  0.184776  1
  B  B15  1  0.500000  0.214687  0.815013  1
  B  B16  1  0.500000  0.363938  0.468231  1
  B  B17  1  0.500000  0.635679  0.531960  1
  B  B18  1  0.500000  0.864956  0.031951  1
  B  B19  1  0.500000  0.134886  0.967849  1
  B  B20  1  0.500000  0.385541  0.047023  1
  B  B21  1  0.500000  0.614162  0.952187  1
  B  B22  1  0.500000  0.885897  0.452667  1
  B  B23  1  0.500000  0.111989  0.547400  1
