# generated using pymatgen
data_HfZrSn2IrRh
_symmetry_space_group_name_H-M   'P 1'
_cell_length_a   7.42892000
_cell_length_b   7.42892048
_cell_length_c   7.25846100
_cell_angle_alpha   90.00000000
_cell_angle_beta   90.00000000
_cell_angle_gamma   119.99999785
_symmetry_Int_Tables_number   1
_chemical_formula_structural   HfZrSn2IrRh
_chemical_formula_sum   'Hf3 Zr3 Sn6 Ir3 Rh3'
_cell_volume   346.91779723
_cell_formula_units_Z   3
loop_
 _symmetry_equiv_pos_site_id
 _symmetry_equiv_pos_as_xyz
  1  'x, y, z'
loop_
 _atom_site_type_symbol
 _atom_site_label
 _atom_site_symmetry_multiplicity
 _atom_site_fract_x
 _atom_site_fract_y
 _atom_site_fract_z
 _atom_site_occupancy
  Hf  Hf0  1  0.986192  0.388308  0.251242  1
  Hf  Hf1  1  0.611692  0.597884  0.251242  1
  Hf  Hf2  1  0.402116  0.013808  0.251242  1
  Zr  Zr3  1  0.026481  0.413280  0.749741  1
  Zr  Zr4  1  0.586720  0.613201  0.749741  1
  Zr  Zr5  1  0.386799  0.973519  0.749741  1
  Sn  Sn6  1  0.268846  0.268803  0.500817  1
  Sn  Sn7  1  0.999958  0.731154  0.500817  1
  Sn  Sn8  1  0.997586  0.727690  0.000520  1
  Sn  Sn9  1  0.731197  0.000042  0.500817  1
  Sn  Sn10  1  0.730105  0.002414  0.000520  1
  Sn  Sn11  1  0.272310  0.269895  0.000520  1
  Ir  Ir12  1  0.333333  0.666667  0.455334  1
  Ir  Ir13  1  0.666667  0.333333  0.517047  1
  Ir  Ir14  1  0.333333  0.666667  0.044172  1
  Rh  Rh15  1  0.000000  0.000000  0.751479  1
  Rh  Rh16  1  0.000000  0.000000  0.249635  1
  Rh  Rh17  1  0.666667  0.333333  0.975370  1
