# generated using pymatgen
data_LiNd8ZnPd23
_symmetry_space_group_name_H-M   'P 1'
_cell_length_a   8.45074900
_cell_length_b   8.52251500
_cell_length_c   8.52251500
_cell_angle_alpha   90.00000000
_cell_angle_beta   90.00000000
_cell_angle_gamma   90.00000000
_symmetry_Int_Tables_number   1
_chemical_formula_structural   LiNd8ZnPd23
_chemical_formula_sum   'Li1 Nd8 Zn1 Pd23'
_cell_volume   613.80546558
_cell_formula_units_Z   1
loop_
 _symmetry_equiv_pos_site_id
 _symmetry_equiv_pos_as_xyz
  1  'x, y, z'
loop_
 _atom_site_type_symbol
 _atom_site_label
 _atom_site_symmetry_multiplicity
 _atom_site_fract_x
 _atom_site_fract_y
 _atom_site_fract_z
 _atom_site_occupancy
  Li  Li0  1  0.256904  0.500000  0.500000  1
  Nd  Nd1  1  0.249838  0.244820  0.244820  1
  Nd  Nd2  1  0.749280  0.748991  0.748991  1
  Nd  Nd3  1  0.749280  0.748991  0.251009  1
  Nd  Nd4  1  0.749280  0.251009  0.748991  1
  Nd  Nd5  1  0.249838  0.244820  0.755180  1
  Nd  Nd6  1  0.249838  0.755180  0.244820  1
  Nd  Nd7  1  0.249838  0.755180  0.755180  1
  Nd  Nd8  1  0.749280  0.251009  0.251009  1
  Zn  Zn9  1  0.999240  0.000000  0.000000  1
  Pd  Pd10  1  0.262528  0.500000  0.000000  1
  Pd  Pd11  1  0.737078  0.500000  0.000000  1
  Pd  Pd12  1  0.004665  0.263787  0.500000  1
  Pd  Pd13  1  0.500908  0.263822  0.000000  1
  Pd  Pd14  1  0.004665  0.736213  0.500000  1
  Pd  Pd15  1  0.500908  0.736178  0.000000  1
  Pd  Pd16  1  0.500908  0.000000  0.263822  1
  Pd  Pd17  1  0.262528  0.000000  0.500000  1
  Pd  Pd18  1  0.500908  0.000000  0.736178  1
  Pd  Pd19  1  0.737078  0.000000  0.500000  1
  Pd  Pd20  1  0.004665  0.500000  0.263787  1
  Pd  Pd21  1  0.004665  0.500000  0.736213  1
  Pd  Pd22  1  0.745649  0.500000  0.500000  1
  Pd  Pd23  1  0.495791  0.255906  0.500000  1
  Pd  Pd24  1  0.495791  0.744094  0.500000  1
  Pd  Pd25  1  0.495791  0.500000  0.255906  1
  Pd  Pd26  1  0.495791  0.500000  0.744094  1
  Pd  Pd27  1  0.300414  0.000000  0.000000  1
  Pd  Pd28  1  0.700771  0.000000  0.000000  1
  Pd  Pd29  1  0.998970  0.298465  0.000000  1
  Pd  Pd30  1  0.998970  0.701535  0.000000  1
  Pd  Pd31  1  0.998970  0.000000  0.298465  1
  Pd  Pd32  1  0.998970  0.000000  0.701535  1
