# generated using pymatgen
data_Pr4Pt6O19
_symmetry_space_group_name_H-M   'P 1'
_cell_length_a   7.87694270
_cell_length_b   7.87694297
_cell_length_c   7.87694300
_cell_angle_alpha   109.47121556
_cell_angle_beta   109.47121626
_cell_angle_gamma   109.47122795
_symmetry_Int_Tables_number   1
_chemical_formula_structural   Pr4Pt6O19
_chemical_formula_sum   'Pr4 Pt6 O19'
_cell_volume   376.22808416
_cell_formula_units_Z   1
loop_
 _symmetry_equiv_pos_site_id
 _symmetry_equiv_pos_as_xyz
  1  'x, y, z'
loop_
 _atom_site_type_symbol
 _atom_site_label
 _atom_site_symmetry_multiplicity
 _atom_site_fract_x
 _atom_site_fract_y
 _atom_site_fract_z
 _atom_site_occupancy
  Pr  Pr0  1  0.683270  0.683270  0.683270  1
  Pr  Pr1  1  0.316730  0.000000  0.000000  1
  Pr  Pr2  1  0.000000  0.316730  0.000000  1
  Pr  Pr3  1  0.000000  0.000000  0.316730  1
  Pt  Pt4  1  0.340670  0.840670  0.500000  1
  Pt  Pt5  1  0.659330  0.159330  0.500000  1
  Pt  Pt6  1  0.840670  0.500000  0.340670  1
  Pt  Pt7  1  0.159330  0.500000  0.659330  1
  Pt  Pt8  1  0.500000  0.340670  0.840670  1
  Pt  Pt9  1  0.500000  0.659330  0.159330  1
  O  O10  1  0.661948  0.661948  0.000000  1
  O  O11  1  0.338052  0.338052  0.000000  1
  O  O12  1  0.661948  0.000000  0.661948  1
  O  O13  1  0.338052  0.000000  0.338052  1
  O  O14  1  0.000000  0.661948  0.661948  1
  O  O15  1  0.000000  0.338052  0.338052  1
  O  O16  1  0.000000  0.000000  0.000000  1
  O  O17  1  0.357506  0.607625  0.318791  1
  O  O18  1  0.642494  0.961285  0.250119  1
  O  O19  1  0.711167  0.392375  0.749881  1
  O  O20  1  0.607625  0.318791  0.357506  1
  O  O21  1  0.288833  0.038715  0.681209  1
  O  O22  1  0.961285  0.250118  0.642494  1
  O  O23  1  0.392375  0.749881  0.711167  1
  O  O24  1  0.038715  0.681209  0.288833  1
  O  O25  1  0.318791  0.357506  0.607625  1
  O  O26  1  0.749881  0.711167  0.392375  1
  O  O27  1  0.681209  0.288833  0.038715  1
  O  O28  1  0.250118  0.642494  0.961285  1
