# generated using pymatgen
data_HfU3(CuRh5)2
_symmetry_space_group_name_H-M   'P 1'
_cell_length_a   4.03705600
_cell_length_b   5.63572933
_cell_length_c   11.21488961
_cell_angle_alpha   89.71152691
_cell_angle_beta   90.00000000
_cell_angle_gamma   90.00000000
_symmetry_Int_Tables_number   1
_chemical_formula_structural   HfU3(CuRh5)2
_chemical_formula_sum   'Hf1 U3 Cu2 Rh10'
_cell_volume   255.15518549
_cell_formula_units_Z   1
loop_
 _symmetry_equiv_pos_site_id
 _symmetry_equiv_pos_as_xyz
  1  'x, y, z'
loop_
 _atom_site_type_symbol
 _atom_site_label
 _atom_site_symmetry_multiplicity
 _atom_site_fract_x
 _atom_site_fract_y
 _atom_site_fract_z
 _atom_site_occupancy
  Hf  Hf0  1  0.500000  0.268529  0.128901  1
  U  U1  1  0.500000  0.230625  0.628650  1
  U  U2  1  0.500000  0.768962  0.366376  1
  U  U3  1  0.500000  0.729773  0.876770  1
  Cu  Cu4  1  0.000000  0.501782  0.497701  1
  Cu  Cu5  1  0.000000  0.014016  0.004910  1
  Rh  Rh6  1  0.500000  0.227798  0.879237  1
  Rh  Rh7  1  0.500000  0.768315  0.116733  1
  Rh  Rh8  1  0.500000  0.728574  0.616540  1
  Rh  Rh9  1  0.500000  0.270282  0.382005  1
  Rh  Rh10  1  0.000000  0.470088  0.743476  1
  Rh  Rh11  1  0.000000  0.524682  0.255015  1
  Rh  Rh12  1  0.000000  0.003013  0.500289  1
  Rh  Rh13  1  0.000000  0.506386  0.997727  1
  Rh  Rh14  1  0.000000  0.017989  0.247858  1
  Rh  Rh15  1  0.000000  0.969185  0.757813  1
