# generated using pymatgen
data_Y5Ho3Tc3B24Os
_symmetry_space_group_name_H-M   'P 1'
_cell_length_a   3.67721200
_cell_length_b   9.16180716
_cell_length_c   11.55128102
_cell_angle_alpha   89.95579683
_cell_angle_beta   90.00000000
_cell_angle_gamma   90.00000000
_symmetry_Int_Tables_number   1
_chemical_formula_structural   Y5Ho3Tc3B24Os
_chemical_formula_sum   'Y5 Ho3 Tc3 B24 Os1'
_cell_volume   389.16147002
_cell_formula_units_Z   1
loop_
 _symmetry_equiv_pos_site_id
 _symmetry_equiv_pos_as_xyz
  1  'x, y, z'
loop_
 _atom_site_type_symbol
 _atom_site_label
 _atom_site_symmetry_multiplicity
 _atom_site_fract_x
 _atom_site_fract_y
 _atom_site_fract_z
 _atom_site_occupancy
  Y  Y0  1  0.000000  0.323645  0.413915  1
  Y  Y1  1  0.000000  0.675519  0.584561  1
  Y  Y2  1  0.000000  0.822748  0.087092  1
  Y  Y3  1  0.000000  0.178248  0.914428  1
  Y  Y4  1  0.000000  0.942629  0.370399  1
  Ho  Ho5  1  0.000000  0.058318  0.630395  1
  Ho  Ho6  1  0.000000  0.442823  0.130174  1
  Ho  Ho7  1  0.000000  0.557072  0.869363  1
  Tc  Tc8  1  0.000000  0.638211  0.320071  1
  Tc  Tc9  1  0.000000  0.361415  0.680384  1
  Tc  Tc10  1  0.000000  0.138552  0.178112  1
  B  B11  1  0.500000  0.553065  0.432668  1
  B  B12  1  0.500000  0.446676  0.567147  1
  B  B13  1  0.500000  0.053208  0.067068  1
  B  B14  1  0.500000  0.946137  0.932576  1
  B  B15  1  0.500000  0.748049  0.418499  1
  B  B16  1  0.500000  0.250993  0.581692  1
  B  B17  1  0.500000  0.249295  0.081602  1
  B  B18  1  0.500000  0.751191  0.918053  1
  B  B19  1  0.500000  0.791269  0.265582  1
  B  B20  1  0.500000  0.208588  0.734681  1
  B  B21  1  0.500000  0.291781  0.234379  1
  B  B22  1  0.500000  0.709150  0.765604  1
  B  B23  1  0.500000  0.630562  0.185698  1
  B  B24  1  0.500000  0.369186  0.814758  1
  B  B25  1  0.500000  0.130786  0.313738  1
  B  B26  1  0.500000  0.869231  0.685984  1
  B  B27  1  0.500000  0.982236  0.211605  1
  B  B28  1  0.500000  0.016664  0.788010  1
  B  B29  1  0.500000  0.482254  0.287810  1
  B  B30  1  0.500000  0.517408  0.711979  1
  B  B31  1  0.500000  0.601392  0.027996  1
  B  B32  1  0.500000  0.399673  0.971801  1
  B  B33  1  0.500000  0.102005  0.472188  1
  B  B34  1  0.500000  0.898524  0.529101  1
  Os  Os35  1  0.000000  0.861499  0.820889  1
