# generated using pymatgen
data_Tb4Th2ScTi(Co4P3)4
_symmetry_space_group_name_H-M   'P 1'
_cell_length_a   3.73745800
_cell_length_b   10.66351300
_cell_length_c   12.31900800
_cell_angle_alpha   90.00000000
_cell_angle_beta   90.00000000
_cell_angle_gamma   90.00000000
_symmetry_Int_Tables_number   1
_chemical_formula_structural   Tb4Th2ScTi(Co4P3)4
_chemical_formula_sum   'Tb4 Th2 Sc1 Ti1 Co16 P12'
_cell_volume   490.96706627
_cell_formula_units_Z   1
loop_
 _symmetry_equiv_pos_site_id
 _symmetry_equiv_pos_as_xyz
  1  'x, y, z'
loop_
 _atom_site_type_symbol
 _atom_site_label
 _atom_site_symmetry_multiplicity
 _atom_site_fract_x
 _atom_site_fract_y
 _atom_site_fract_z
 _atom_site_occupancy
  Tb  Tb0  1  0.500000  0.819839  0.202615  1
  Tb  Tb1  1  0.500000  0.180161  0.202615  1
  Tb  Tb2  1  0.000000  0.681923  0.797647  1
  Tb  Tb3  1  0.000000  0.318077  0.797647  1
  Th  Th4  1  0.000000  0.500000  0.530458  1
  Th  Th5  1  0.500000  0.000000  0.471038  1
  Sc  Sc6  1  0.500000  0.500000  0.150413  1
  Ti  Ti7  1  0.000000  0.000000  0.848552  1
  Co  Co8  1  0.500000  0.500000  0.701718  1
  Co  Co9  1  0.000000  0.000000  0.298807  1
  Co  Co10  1  0.000000  0.500000  0.984659  1
  Co  Co11  1  0.500000  0.000000  0.012697  1
  Co  Co12  1  0.500000  0.329618  0.992340  1
  Co  Co13  1  0.500000  0.670382  0.992340  1
  Co  Co14  1  0.000000  0.165436  0.004427  1
  Co  Co15  1  0.000000  0.834564  0.004427  1
  Co  Co16  1  0.500000  0.296327  0.433085  1
  Co  Co17  1  0.500000  0.703673  0.433085  1
  Co  Co18  1  0.000000  0.202015  0.569338  1
  Co  Co19  1  0.000000  0.797985  0.569338  1
  Co  Co20  1  0.500000  0.880176  0.707939  1
  Co  Co21  1  0.500000  0.119824  0.707939  1
  Co  Co22  1  0.000000  0.621345  0.293913  1
  Co  Co23  1  0.000000  0.378655  0.293913  1
  P  P24  1  0.500000  0.500000  0.883031  1
  P  P25  1  0.000000  0.000000  0.117019  1
  P  P26  1  0.500000  0.500000  0.353123  1
  P  P27  1  0.000000  0.000000  0.651159  1
  P  P28  1  0.500000  0.304833  0.618278  1
  P  P29  1  0.500000  0.695167  0.618278  1
  P  P30  1  0.000000  0.194742  0.382631  1
  P  P31  1  0.000000  0.805258  0.382631  1
  P  P32  1  0.500000  0.844094  0.892356  1
  P  P33  1  0.500000  0.155906  0.892356  1
  P  P34  1  0.000000  0.660802  0.104094  1
  P  P35  1  0.000000  0.339198  0.104094  1
