# generated using pymatgen
data_CsYZr6CBr18
_symmetry_space_group_name_H-M   'P 1'
_cell_length_a   10.16549000
_cell_length_b   10.16548950
_cell_length_c   19.05414800
_cell_angle_alpha   90.00000000
_cell_angle_beta   90.00000000
_cell_angle_gamma   120.00000164
_symmetry_Int_Tables_number   1
_chemical_formula_structural   CsYZr6CBr18
_chemical_formula_sum   'Cs2 Y2 Zr12 C2 Br36'
_cell_volume   1705.20568603
_cell_formula_units_Z   2
loop_
 _symmetry_equiv_pos_site_id
 _symmetry_equiv_pos_as_xyz
  1  'x, y, z'
loop_
 _atom_site_type_symbol
 _atom_site_label
 _atom_site_symmetry_multiplicity
 _atom_site_fract_x
 _atom_site_fract_y
 _atom_site_fract_z
 _atom_site_occupancy
  Cs  Cs0  1  0.333333  0.666667  0.750000  1
  Cs  Cs1  1  0.666667  0.333333  0.250000  1
  Y  Y2  1  0.666667  0.333333  0.750000  1
  Y  Y3  1  0.333333  0.666667  0.250000  1
  Zr  Zr4  1  0.837557  0.040449  0.569931  1
  Zr  Zr5  1  0.162443  0.959551  0.430069  1
  Zr  Zr6  1  0.959551  0.797108  0.569931  1
  Zr  Zr7  1  0.837557  0.797108  0.930069  1
  Zr  Zr8  1  0.040449  0.202892  0.430069  1
  Zr  Zr9  1  0.162443  0.202892  0.069931  1
  Zr  Zr10  1  0.202892  0.162443  0.569931  1
  Zr  Zr11  1  0.959551  0.162443  0.930069  1
  Zr  Zr12  1  0.797108  0.837557  0.430069  1
  Zr  Zr13  1  0.040449  0.837557  0.069931  1
  Zr  Zr14  1  0.202892  0.040449  0.930069  1
  Zr  Zr15  1  0.797108  0.959551  0.069931  1
  C  C16  1  0.000000  0.000000  0.500000  1
  C  C17  1  0.000000  0.000000  0.000000  1
  Br  Br18  1  0.276430  0.421210  0.501490  1
  Br  Br19  1  0.723570  0.578790  0.498510  1
  Br  Br20  1  0.578790  0.855220  0.501490  1
  Br  Br21  1  0.276430  0.855220  0.998510  1
  Br  Br22  1  0.421210  0.144780  0.498510  1
  Br  Br23  1  0.723570  0.144780  0.001490  1
  Br  Br24  1  0.144780  0.723570  0.501490  1
  Br  Br25  1  0.578790  0.723570  0.998510  1
  Br  Br26  1  0.855220  0.276430  0.498510  1
  Br  Br27  1  0.421210  0.276430  0.001490  1
  Br  Br28  1  0.144780  0.421210  0.998510  1
  Br  Br29  1  0.855220  0.578790  0.001490  1
  Br  Br30  1  0.045682  0.233895  0.660739  1
  Br  Br31  1  0.954318  0.766105  0.339261  1
  Br  Br32  1  0.766105  0.811786  0.660739  1
  Br  Br33  1  0.045682  0.811786  0.839261  1
  Br  Br34  1  0.233895  0.188214  0.339261  1
  Br  Br35  1  0.954318  0.188214  0.160739  1
  Br  Br36  1  0.188214  0.954318  0.660739  1
  Br  Br37  1  0.766105  0.954318  0.839261  1
  Br  Br38  1  0.811786  0.045682  0.339261  1
  Br  Br39  1  0.233895  0.045682  0.160739  1
  Br  Br40  1  0.188214  0.233895  0.839261  1
  Br  Br41  1  0.811786  0.766105  0.160739  1
  Br  Br42  1  0.632894  0.088600  0.663917  1
  Br  Br43  1  0.367106  0.911400  0.336083  1
  Br  Br44  1  0.911400  0.544294  0.663917  1
  Br  Br45  1  0.632894  0.544294  0.836083  1
  Br  Br46  1  0.088600  0.455706  0.336083  1
  Br  Br47  1  0.367106  0.455706  0.163917  1
  Br  Br48  1  0.455706  0.367106  0.663917  1
  Br  Br49  1  0.911400  0.367106  0.836083  1
  Br  Br50  1  0.544294  0.632894  0.336083  1
  Br  Br51  1  0.088600  0.632894  0.163917  1
  Br  Br52  1  0.455706  0.088600  0.836083  1
  Br  Br53  1  0.544294  0.911400  0.163917  1
