# generated using pymatgen
data_Ba4CoSbO8
_symmetry_space_group_name_H-M   'P 1'
_cell_length_a   7.22821259
_cell_length_b   7.22821247
_cell_length_c   5.87320400
_cell_angle_alpha   90.00000000
_cell_angle_beta   90.00000000
_cell_angle_gamma   131.77452608
_symmetry_Int_Tables_number   1
_chemical_formula_structural   Ba4CoSbO8
_chemical_formula_sum   'Ba4 Co1 Sb1 O8'
_cell_volume   228.84590404
_cell_formula_units_Z   1
loop_
 _symmetry_equiv_pos_site_id
 _symmetry_equiv_pos_as_xyz
  1  'x, y, z'
loop_
 _atom_site_type_symbol
 _atom_site_label
 _atom_site_symmetry_multiplicity
 _atom_site_fract_x
 _atom_site_fract_y
 _atom_site_fract_z
 _atom_site_occupancy
  Ba  Ba0  1  0.356068  0.643932  0.000000  1
  Ba  Ba1  1  0.858401  0.141599  0.500000  1
  Ba  Ba2  1  0.141599  0.858401  0.500000  1
  Ba  Ba3  1  0.643932  0.356068  0.000000  1
  Co  Co4  1  0.000000  0.000000  0.000000  1
  Sb  Sb5  1  0.500000  0.500000  0.500000  1
  O  O6  1  0.257818  0.257818  0.743910  1
  O  O7  1  0.742182  0.742182  0.256090  1
  O  O8  1  0.742182  0.742182  0.743910  1
  O  O9  1  0.257818  0.257818  0.256090  1
  O  O10  1  0.146315  0.853685  0.000000  1
  O  O11  1  0.654063  0.345937  0.500000  1
  O  O12  1  0.345937  0.654063  0.500000  1
  O  O13  1  0.853685  0.146315  0.000000  1
