# generated using pymatgen
data_RbEr(SeO3)2
_symmetry_space_group_name_H-M   'P 1'
_cell_length_a   5.81763400
_cell_length_b   8.83990400
_cell_length_c   13.62890500
_cell_angle_alpha   90.00000000
_cell_angle_beta   90.00000000
_cell_angle_gamma   90.00000000
_symmetry_Int_Tables_number   1
_chemical_formula_structural   RbEr(SeO3)2
_chemical_formula_sum   'Rb4 Er4 Se8 O24'
_cell_volume   700.89814137
_cell_formula_units_Z   4
loop_
 _symmetry_equiv_pos_site_id
 _symmetry_equiv_pos_as_xyz
  1  'x, y, z'
loop_
 _atom_site_type_symbol
 _atom_site_label
 _atom_site_symmetry_multiplicity
 _atom_site_fract_x
 _atom_site_fract_y
 _atom_site_fract_z
 _atom_site_occupancy
  Rb  Rb0  1  0.250000  0.997076  0.627150  1
  Rb  Rb1  1  0.250000  0.502924  0.127150  1
  Rb  Rb2  1  0.750000  0.002924  0.372850  1
  Rb  Rb3  1  0.750000  0.497076  0.872850  1
  Er  Er4  1  0.250000  0.805992  0.898816  1
  Er  Er5  1  0.250000  0.694008  0.398816  1
  Er  Er6  1  0.750000  0.194008  0.101184  1
  Er  Er7  1  0.750000  0.305992  0.601184  1
  Se  Se8  1  0.750000  0.010883  0.798405  1
  Se  Se9  1  0.750000  0.489117  0.298405  1
  Se  Se10  1  0.250000  0.989117  0.201595  1
  Se  Se11  1  0.250000  0.510883  0.701595  1
  Se  Se12  1  0.750000  0.712146  0.565111  1
  Se  Se13  1  0.750000  0.787854  0.065111  1
  Se  Se14  1  0.250000  0.287854  0.434889  1
  Se  Se15  1  0.250000  0.212146  0.934889  1
  O  O16  1  0.980611  0.888836  0.793674  1
  O  O17  1  0.519389  0.611164  0.293674  1
  O  O18  1  0.480611  0.111164  0.206326  1
  O  O19  1  0.019389  0.388836  0.706326  1
  O  O20  1  0.019389  0.111164  0.206326  1
  O  O21  1  0.480611  0.388836  0.706326  1
  O  O22  1  0.519389  0.888836  0.793674  1
  O  O23  1  0.980611  0.611164  0.293674  1
  O  O24  1  0.750000  0.080636  0.679510  1
  O  O25  1  0.750000  0.419364  0.179510  1
  O  O26  1  0.250000  0.919364  0.320490  1
  O  O27  1  0.250000  0.580636  0.820490  1
  O  O28  1  0.980916  0.786253  0.501146  1
  O  O29  1  0.519084  0.713747  0.001146  1
  O  O30  1  0.480916  0.213747  0.498854  1
  O  O31  1  0.019084  0.286253  0.998854  1
  O  O32  1  0.019084  0.213747  0.498854  1
  O  O33  1  0.480916  0.286253  0.998854  1
  O  O34  1  0.519084  0.786253  0.501146  1
  O  O35  1  0.980916  0.713747  0.001146  1
  O  O36  1  0.750000  0.527664  0.527307  1
  O  O37  1  0.750000  0.972336  0.027307  1
  O  O38  1  0.250000  0.472336  0.472693  1
  O  O39  1  0.250000  0.027664  0.972693  1
