# generated using pymatgen
data_AlGa3(NiRu)2
_symmetry_space_group_name_H-M   'P 1'
_cell_length_a   5.85109827
_cell_length_b   5.85767018
_cell_length_c   6.13280210
_cell_angle_alpha   89.99679733
_cell_angle_beta   89.97926902
_cell_angle_gamma   90.02825424
_symmetry_Int_Tables_number   1
_chemical_formula_structural   AlGa3(NiRu)2
_chemical_formula_sum   'Al2 Ga6 Ni4 Ru4'
_cell_volume   210.19441686
_cell_formula_units_Z   2
loop_
 _symmetry_equiv_pos_site_id
 _symmetry_equiv_pos_as_xyz
  1  'x, y, z'
loop_
 _atom_site_type_symbol
 _atom_site_label
 _atom_site_symmetry_multiplicity
 _atom_site_fract_x
 _atom_site_fract_y
 _atom_site_fract_z
 _atom_site_occupancy
  Al  Al0  1  0.499968  0.999995  0.750125  1
  Al  Al1  1  0.499930  0.500035  0.750083  1
  Ga  Ga2  1  0.500017  0.000035  0.249876  1
  Ga  Ga3  1  0.500038  0.499980  0.249924  1
  Ga  Ga4  1  0.000043  0.999979  0.250117  1
  Ga  Ga5  1  0.000088  0.500052  0.250038  1
  Ga  Ga6  1  0.999981  0.999998  0.749911  1
  Ga  Ga7  1  0.999962  0.499942  0.749924  1
  Ni  Ni8  1  0.250736  0.750015  0.999129  1
  Ni  Ni9  1  0.749151  0.249961  0.500859  1
  Ni  Ni10  1  0.250868  0.750046  0.501065  1
  Ni  Ni11  1  0.749275  0.249958  0.998971  1
  Ru  Ru12  1  0.250051  0.249971  0.999489  1
  Ru  Ru13  1  0.749888  0.749962  0.999509  1
  Ru  Ru14  1  0.250227  0.250033  0.500490  1
  Ru  Ru15  1  0.749785  0.750030  0.500490  1
