# generated using pymatgen
data_SmMn2TlF14
_symmetry_space_group_name_H-M   'P 1'
_cell_length_a   5.47607598
_cell_length_b   8.82694360
_cell_length_c   11.83125900
_cell_angle_alpha   62.18764639
_cell_angle_beta   89.89623910
_cell_angle_gamma   89.99277293
_symmetry_Int_Tables_number   1
_chemical_formula_structural   SmMn2TlF14
_chemical_formula_sum   'Sm2 Mn4 Tl2 F28'
_cell_volume   505.82248972
_cell_formula_units_Z   2
loop_
 _symmetry_equiv_pos_site_id
 _symmetry_equiv_pos_as_xyz
  1  'x, y, z'
loop_
 _atom_site_type_symbol
 _atom_site_label
 _atom_site_symmetry_multiplicity
 _atom_site_fract_x
 _atom_site_fract_y
 _atom_site_fract_z
 _atom_site_occupancy
  Sm  Sm0  1  0.259284  0.811571  0.264290  1
  Sm  Sm1  1  0.740716  0.188429  0.735710  1
  Mn  Mn2  1  0.759299  0.721263  0.043113  1
  Mn  Mn3  1  0.240701  0.278737  0.956887  1
  Mn  Mn4  1  0.260394  0.273131  0.454064  1
  Mn  Mn5  1  0.739606  0.726869  0.545936  1
  Tl  Tl6  1  0.765292  0.192895  0.236270  1
  Tl  Tl7  1  0.234708  0.807105  0.763730  1
  F  F8  1  0.928645  0.711066  0.422928  1
  F  F9  1  0.071355  0.288934  0.577072  1
  F  F10  1  0.425057  0.301835  0.075879  1
  F  F11  1  0.574943  0.698165  0.924121  1
  F  F12  1  0.482953  0.728477  0.130587  1
  F  F13  1  0.517047  0.271523  0.869413  1
  F  F14  1  0.977513  0.276572  0.367176  1
  F  F15  1  0.022487  0.723428  0.632824  1
  F  F16  1  0.944262  0.739258  0.168708  1
  F  F17  1  0.055738  0.260742  0.831292  1
  F  F18  1  0.445978  0.263856  0.324199  1
  F  F19  1  0.554022  0.736144  0.675801  1
  F  F20  1  0.770966  0.483306  0.142287  1
  F  F21  1  0.229034  0.516694  0.857713  1
  F  F22  1  0.272355  0.510350  0.363065  1
  F  F23  1  0.727645  0.489650  0.636935  1
  F  F24  1  0.953075  0.288733  0.035626  1
  F  F25  1  0.046925  0.711267  0.964374  1
  F  F26  1  0.458069  0.721017  0.461648  1
  F  F27  1  0.541931  0.278983  0.538352  1
  F  F28  1  0.739103  0.959567  0.460405  1
  F  F29  1  0.260897  0.040433  0.539595  1
  F  F30  1  0.239018  0.044171  0.047989  1
  F  F31  1  0.760982  0.955829  0.952011  1
  F  F32  1  0.604189  0.976963  0.225587  1
  F  F33  1  0.395811  0.023037  0.774413  1
  F  F34  1  0.096469  0.040230  0.273277  1
  F  F35  1  0.903531  0.959770  0.726723  1
