# generated using pymatgen
data_Ca2Tb9In9Co4
_symmetry_space_group_name_H-M   'P 1'
_cell_length_a   13.09080646
_cell_length_b   13.09265867
_cell_length_c   3.66723900
_cell_angle_alpha   90.00000000
_cell_angle_beta   90.00000000
_cell_angle_gamma   111.84499326
_symmetry_Int_Tables_number   1
_chemical_formula_structural   Ca2Tb9In9Co4
_chemical_formula_sum   'Ca2 Tb9 In9 Co4'
_cell_volume   583.40772927
_cell_formula_units_Z   1
loop_
 _symmetry_equiv_pos_site_id
 _symmetry_equiv_pos_as_xyz
  1  'x, y, z'
loop_
 _atom_site_type_symbol
 _atom_site_label
 _atom_site_symmetry_multiplicity
 _atom_site_fract_x
 _atom_site_fract_y
 _atom_site_fract_z
 _atom_site_occupancy
  Ca  Ca0  1  0.339056  0.660963  0.500000  1
  Ca  Ca1  1  0.660944  0.339037  0.500000  1
  Tb  Tb2  1  0.500000  0.500000  0.500000  1
  Tb  Tb3  1  0.815959  0.815989  0.500000  1
  Tb  Tb4  1  0.184041  0.184011  0.500000  1
  Tb  Tb5  1  0.580121  0.917485  0.500000  1
  Tb  Tb6  1  0.419879  0.082515  0.500000  1
  Tb  Tb7  1  0.917484  0.580112  0.500000  1
  Tb  Tb8  1  0.082516  0.419888  0.500000  1
  Tb  Tb9  1  0.123342  0.876677  0.500000  1
  Tb  Tb10  1  0.876658  0.123323  0.500000  1
  In  In11  1  0.337294  0.870554  0.000000  1
  In  In12  1  0.662706  0.129446  0.000000  1
  In  In13  1  0.870501  0.337259  0.000000  1
  In  In14  1  0.129499  0.662741  0.000000  1
  In  In15  1  0.583328  0.721972  0.000000  1
  In  In16  1  0.416672  0.278028  0.000000  1
  In  In17  1  0.721915  0.583313  0.000000  1
  In  In18  1  0.278085  0.416687  0.000000  1
  In  In19  1  0.000000  0.000000  0.000000  1
  Co  Co20  1  0.745091  0.950194  0.000000  1
  Co  Co21  1  0.254909  0.049806  0.000000  1
  Co  Co22  1  0.950226  0.745126  0.000000  1
  Co  Co23  1  0.049774  0.254874  0.000000  1
