# generated using pymatgen
data_Tm4GaRu7
_symmetry_space_group_name_H-M   'P 1'
_cell_length_a   5.33822268
_cell_length_b   5.33822209
_cell_length_c   8.58924400
_cell_angle_alpha   89.99884824
_cell_angle_beta   90.00114986
_cell_angle_gamma   119.99707968
_symmetry_Int_Tables_number   1
_chemical_formula_structural   Tm4GaRu7
_chemical_formula_sum   'Tm4 Ga1 Ru7'
_cell_volume   211.97843195
_cell_formula_units_Z   1
loop_
 _symmetry_equiv_pos_site_id
 _symmetry_equiv_pos_as_xyz
  1  'x, y, z'
loop_
 _atom_site_type_symbol
 _atom_site_label
 _atom_site_symmetry_multiplicity
 _atom_site_fract_x
 _atom_site_fract_y
 _atom_site_fract_z
 _atom_site_occupancy
  Tm  Tm0  1  0.666654  0.333346  0.570365  1
  Tm  Tm1  1  0.333346  0.666654  0.429635  1
  Tm  Tm2  1  0.333359  0.666641  0.064439  1
  Tm  Tm3  1  0.666641  0.333359  0.935561  1
  Ga  Ga4  1  0.000000  0.000000  0.500000  1
  Ru  Ru5  1  0.000000  0.000000  0.000000  1
  Ru  Ru6  1  0.171610  0.343245  0.749011  1
  Ru  Ru7  1  0.171603  0.828397  0.748978  1
  Ru  Ru8  1  0.656755  0.828390  0.749011  1
  Ru  Ru9  1  0.828390  0.656755  0.250989  1
  Ru  Ru10  1  0.828397  0.171603  0.251022  1
  Ru  Ru11  1  0.343245  0.171610  0.250989  1
