# generated using pymatgen
data_K3Ba(CeSe3)2
_symmetry_space_group_name_H-M   'P 1'
_cell_length_a   7.74473429
_cell_length_b   7.74473461
_cell_length_c   8.13813443
_cell_angle_alpha   99.27548860
_cell_angle_beta   99.27549216
_cell_angle_gamma   120.04351536
_symmetry_Int_Tables_number   1
_chemical_formula_structural   K3Ba(CeSe3)2
_chemical_formula_sum   'K3 Ba1 Ce2 Se6'
_cell_volume   399.96191450
_cell_formula_units_Z   1
loop_
 _symmetry_equiv_pos_site_id
 _symmetry_equiv_pos_as_xyz
  1  'x, y, z'
loop_
 _atom_site_type_symbol
 _atom_site_label
 _atom_site_symmetry_multiplicity
 _atom_site_fract_x
 _atom_site_fract_y
 _atom_site_fract_z
 _atom_site_occupancy
  K  K0  1  0.839894  0.160106  0.500000  1
  K  K1  1  0.500000  0.500000  0.500000  1
  K  K2  1  0.160106  0.839894  0.500000  1
  Ba  Ba3  1  0.000000  0.000000  0.000000  1
  Ce  Ce4  1  0.667241  0.332759  0.000000  1
  Ce  Ce5  1  0.332759  0.667241  0.000000  1
  Se  Se6  1  0.707597  0.707597  0.210626  1
  Se  Se7  1  0.435795  0.071727  0.210912  1
  Se  Se8  1  0.071727  0.435795  0.210912  1
  Se  Se9  1  0.928274  0.564206  0.789089  1
  Se  Se10  1  0.564206  0.928274  0.789089  1
  Se  Se11  1  0.292404  0.292404  0.789374  1
