# generated using pymatgen
data_Tb7Dy(Sc3Pt4)4
_symmetry_space_group_name_H-M   'P 1'
_cell_length_a   7.39489700
_cell_length_b   7.38050200
_cell_length_c   13.85356000
_cell_angle_alpha   89.99893083
_cell_angle_beta   89.99914788
_cell_angle_gamma   90.00224911
_symmetry_Int_Tables_number   1
_chemical_formula_structural   Tb7Dy(Sc3Pt4)4
_chemical_formula_sum   'Tb7 Dy1 Sc12 Pt16'
_cell_volume   756.10031903
_cell_formula_units_Z   1
loop_
 _symmetry_equiv_pos_site_id
 _symmetry_equiv_pos_as_xyz
  1  'x, y, z'
loop_
 _atom_site_type_symbol
 _atom_site_label
 _atom_site_symmetry_multiplicity
 _atom_site_fract_x
 _atom_site_fract_y
 _atom_site_fract_z
 _atom_site_occupancy
  Tb  Tb0  1  0.008567  0.175714  0.095468  1
  Tb  Tb1  1  0.991434  0.824274  0.904533  1
  Tb  Tb2  1  0.491456  0.675714  0.904533  1
  Tb  Tb3  1  0.991418  0.824235  0.595450  1
  Tb  Tb4  1  0.508545  0.324284  0.095470  1
  Tb  Tb5  1  0.008587  0.175725  0.404543  1
  Tb  Tb6  1  0.508566  0.324368  0.404586  1
  Dy  Dy7  1  0.491319  0.675815  0.595563  1
  Sc  Sc8  1  0.164251  0.499622  0.749951  1
  Sc  Sc9  1  0.835850  0.500434  0.250005  1
  Sc  Sc10  1  0.335853  0.999584  0.250002  1
  Sc  Sc11  1  0.664105  0.000376  0.749950  1
  Sc  Sc12  1  0.332573  0.165749  0.623944  1
  Sc  Sc13  1  0.667371  0.834213  0.376099  1
  Sc  Sc14  1  0.167501  0.665728  0.376052  1
  Sc  Sc15  1  0.667463  0.834277  0.123969  1
  Sc  Sc16  1  0.832445  0.334355  0.623935  1
  Sc  Sc17  1  0.332567  0.165779  0.876022  1
  Sc  Sc18  1  0.832538  0.334271  0.876020  1
  Sc  Sc19  1  0.167463  0.665708  0.123964  1
  Pt  Pt20  1  0.030314  0.125901  0.750001  1
  Pt  Pt21  1  0.969692  0.874071  0.250006  1
  Pt  Pt22  1  0.469697  0.625941  0.249996  1
  Pt  Pt23  1  0.530254  0.374196  0.749917  1
  Pt  Pt24  1  0.294525  0.857013  0.749873  1
  Pt  Pt25  1  0.705636  0.142829  0.250001  1
  Pt  Pt26  1  0.205643  0.357156  0.249993  1
  Pt  Pt27  1  0.794215  0.642857  0.749922  1
  Pt  Pt28  1  0.172897  0.458468  0.543315  1
  Pt  Pt29  1  0.827277  0.541775  0.456790  1
  Pt  Pt30  1  0.327430  0.958107  0.456799  1
  Pt  Pt31  1  0.827346  0.541728  0.043267  1
  Pt  Pt32  1  0.672569  0.041493  0.543308  1
  Pt  Pt33  1  0.172646  0.458266  0.956747  1
  Pt  Pt34  1  0.672629  0.041707  0.956740  1
  Pt  Pt35  1  0.327357  0.958265  0.043267  1
