# generated using pymatgen
data_Ca20Hg3Bi13
_symmetry_space_group_name_H-M   'P 1'
_cell_length_a   8.30410200
_cell_length_b   8.75490738
_cell_length_c   16.20510500
_cell_angle_alpha   90.00000000
_cell_angle_beta   90.00000000
_cell_angle_gamma   89.98302378
_symmetry_Int_Tables_number   1
_chemical_formula_structural   Ca20Hg3Bi13
_chemical_formula_sum   'Ca20 Hg3 Bi13'
_cell_volume   1178.13772168
_cell_formula_units_Z   1
loop_
 _symmetry_equiv_pos_site_id
 _symmetry_equiv_pos_as_xyz
  1  'x, y, z'
loop_
 _atom_site_type_symbol
 _atom_site_label
 _atom_site_symmetry_multiplicity
 _atom_site_fract_x
 _atom_site_fract_y
 _atom_site_fract_z
 _atom_site_occupancy
  Ca  Ca0  1  0.473031  0.700746  0.591684  1
  Ca  Ca1  1  0.978182  0.791990  0.913903  1
  Ca  Ca2  1  0.032669  0.197329  0.407778  1
  Ca  Ca3  1  0.532189  0.328532  0.106417  1
  Ca  Ca4  1  0.473031  0.700746  0.908316  1
  Ca  Ca5  1  0.978182  0.791990  0.586097  1
  Ca  Ca6  1  0.032669  0.197329  0.092222  1
  Ca  Ca7  1  0.532189  0.328532  0.393583  1
  Ca  Ca8  1  0.376445  0.856465  0.383759  1
  Ca  Ca9  1  0.852191  0.637142  0.121745  1
  Ca  Ca10  1  0.132541  0.358174  0.617310  1
  Ca  Ca11  1  0.630702  0.139268  0.887388  1
  Ca  Ca12  1  0.630702  0.139268  0.612612  1
  Ca  Ca13  1  0.132541  0.358174  0.882690  1
  Ca  Ca14  1  0.852191  0.637142  0.378255  1
  Ca  Ca15  1  0.376445  0.856465  0.116241  1
  Ca  Ca16  1  0.289652  0.991798  0.750000  1
  Ca  Ca17  1  0.788975  0.507582  0.750000  1
  Ca  Ca18  1  0.205686  0.495934  0.250000  1
  Ca  Ca19  1  0.703022  0.997533  0.250000  1
  Hg  Hg20  1  0.437971  0.343613  0.750000  1
  Hg  Hg21  1  0.932577  0.152338  0.750000  1
  Hg  Hg22  1  0.066757  0.862960  0.250000  1
  Bi  Bi23  1  0.734880  0.961036  0.049922  1
  Bi  Bi24  1  0.212511  0.548052  0.453467  1
  Bi  Bi25  1  0.763421  0.458894  0.947516  1
  Bi  Bi26  1  0.267547  0.038535  0.552970  1
  Bi  Bi27  1  0.267547  0.038535  0.947030  1
  Bi  Bi28  1  0.763421  0.458894  0.552484  1
  Bi  Bi29  1  0.212511  0.548052  0.046533  1
  Bi  Bi30  1  0.734880  0.961036  0.450078  1
  Bi  Bi31  1  0.550171  0.640003  0.250000  1
  Bi  Bi32  1  0.188744  0.633155  0.750000  1
  Bi  Bi33  1  0.689786  0.866561  0.750000  1
  Bi  Bi34  1  0.325832  0.140240  0.250000  1
  Bi  Bi35  1  0.848206  0.335952  0.250000  1
