# generated using pymatgen
data_Er6Hf8Ga8Ir7
_symmetry_space_group_name_H-M   'P 1'
_cell_length_a   9.22484292
_cell_length_b   9.22484268
_cell_length_c   9.22484300
_cell_angle_alpha   59.99999527
_cell_angle_beta   59.99999612
_cell_angle_gamma   59.99999449
_symmetry_Int_Tables_number   1
_chemical_formula_structural   Er6Hf8Ga8Ir7
_chemical_formula_sum   'Er6 Hf8 Ga8 Ir7'
_cell_volume   555.08806231
_cell_formula_units_Z   1
loop_
 _symmetry_equiv_pos_site_id
 _symmetry_equiv_pos_as_xyz
  1  'x, y, z'
loop_
 _atom_site_type_symbol
 _atom_site_label
 _atom_site_symmetry_multiplicity
 _atom_site_fract_x
 _atom_site_fract_y
 _atom_site_fract_z
 _atom_site_occupancy
  Er  Er0  1  0.690315  0.690315  0.309685  1
  Er  Er1  1  0.309685  0.690315  0.309685  1
  Er  Er2  1  0.690315  0.309685  0.309685  1
  Er  Er3  1  0.309685  0.309685  0.690315  1
  Er  Er4  1  0.690315  0.309685  0.690315  1
  Er  Er5  1  0.309685  0.690315  0.690315  1
  Hf  Hf6  1  0.874642  0.874642  0.376075  1
  Hf  Hf7  1  0.874642  0.376075  0.874642  1
  Hf  Hf8  1  0.376075  0.874642  0.874642  1
  Hf  Hf9  1  0.874642  0.874642  0.874642  1
  Hf  Hf10  1  0.125358  0.125358  0.623925  1
  Hf  Hf11  1  0.125358  0.623925  0.125358  1
  Hf  Hf12  1  0.623925  0.125358  0.125358  1
  Hf  Hf13  1  0.125358  0.125358  0.125358  1
  Ga  Ga14  1  0.657146  0.657146  0.028562  1
  Ga  Ga15  1  0.657146  0.028562  0.657146  1
  Ga  Ga16  1  0.028562  0.657146  0.657146  1
  Ga  Ga17  1  0.657146  0.657146  0.657146  1
  Ga  Ga18  1  0.342854  0.342854  0.971438  1
  Ga  Ga19  1  0.342854  0.971438  0.342854  1
  Ga  Ga20  1  0.971438  0.342854  0.342854  1
  Ga  Ga21  1  0.342854  0.342854  0.342854  1
  Ir  Ir22  1  0.000000  0.000000  0.000000  1
  Ir  Ir23  1  0.000000  0.000000  0.500000  1
  Ir  Ir24  1  0.500000  0.000000  0.500000  1
  Ir  Ir25  1  0.000000  0.500000  0.500000  1
  Ir  Ir26  1  0.500000  0.500000  0.000000  1
  Ir  Ir27  1  0.000000  0.500000  0.000000  1
  Ir  Ir28  1  0.500000  0.000000  0.000000  1
