# generated using pymatgen
data_DyY9Si6O
_symmetry_space_group_name_H-M   'P 1'
_cell_length_a   8.42306200
_cell_length_b   8.42306179
_cell_length_c   6.32094300
_cell_angle_alpha   90.00000000
_cell_angle_beta   90.00000000
_cell_angle_gamma   119.99999299
_symmetry_Int_Tables_number   1
_chemical_formula_structural   DyY9Si6O
_chemical_formula_sum   'Dy1 Y9 Si6 O1'
_cell_volume   388.37612141
_cell_formula_units_Z   1
loop_
 _symmetry_equiv_pos_site_id
 _symmetry_equiv_pos_as_xyz
  1  'x, y, z'
loop_
 _atom_site_type_symbol
 _atom_site_label
 _atom_site_symmetry_multiplicity
 _atom_site_fract_x
 _atom_site_fract_y
 _atom_site_fract_z
 _atom_site_occupancy
  Dy  Dy0  1  0.333333  0.666667  0.500000  1
  Y  Y1  1  0.666667  0.333333  0.500000  1
  Y  Y2  1  0.666667  0.333333  0.000000  1
  Y  Y3  1  0.333333  0.666667  0.000000  1
  Y  Y4  1  0.999997  0.763511  0.260036  1
  Y  Y5  1  0.236489  0.236487  0.260036  1
  Y  Y6  1  0.763513  0.000003  0.260036  1
  Y  Y7  1  0.999997  0.236487  0.739964  1
  Y  Y8  1  0.763513  0.763511  0.739964  1
  Y  Y9  1  0.236489  0.000003  0.739964  1
  Si  Si10  1  0.000027  0.396764  0.249951  1
  Si  Si11  1  0.603236  0.603264  0.249951  1
  Si  Si12  1  0.396736  0.999973  0.249951  1
  Si  Si13  1  0.000027  0.603264  0.750049  1
  Si  Si14  1  0.396736  0.396764  0.750049  1
  Si  Si15  1  0.603236  0.999973  0.750049  1
  O  O16  1  0.000000  0.000000  0.500000  1
