# generated using pymatgen
data_Dy2NpTc3
_symmetry_space_group_name_H-M   'P 1'
_cell_length_a   5.78689500
_cell_length_b   5.78689505
_cell_length_c   8.13732600
_cell_angle_alpha   90.00000000
_cell_angle_beta   90.00000000
_cell_angle_gamma   119.99998258
_symmetry_Int_Tables_number   1
_chemical_formula_structural   Dy2NpTc3
_chemical_formula_sum   'Dy4 Np2 Tc6'
_cell_volume   235.99545090
_cell_formula_units_Z   2
loop_
 _symmetry_equiv_pos_site_id
 _symmetry_equiv_pos_as_xyz
  1  'x, y, z'
loop_
 _atom_site_type_symbol
 _atom_site_label
 _atom_site_symmetry_multiplicity
 _atom_site_fract_x
 _atom_site_fract_y
 _atom_site_fract_z
 _atom_site_occupancy
  Dy  Dy0  1  0.333333  0.666667  0.441859  1
  Dy  Dy1  1  0.666667  0.333333  0.558141  1
  Dy  Dy2  1  0.666667  0.333333  0.941859  1
  Dy  Dy3  1  0.333333  0.666667  0.058141  1
  Np  Np4  1  0.000000  0.000000  0.500000  1
  Np  Np5  1  0.000000  0.000000  0.000000  1
  Tc  Tc6  1  0.837542  0.162458  0.250000  1
  Tc  Tc7  1  0.837542  0.675085  0.250000  1
  Tc  Tc8  1  0.324915  0.162458  0.250000  1
  Tc  Tc9  1  0.162458  0.837542  0.750000  1
  Tc  Tc10  1  0.162458  0.324915  0.750000  1
  Tc  Tc11  1  0.675085  0.837542  0.750000  1
