# generated using pymatgen
data_Pa2FeIr2
_symmetry_space_group_name_H-M   'P 1'
_cell_length_a   5.71225200
_cell_length_b   7.91531500
_cell_length_c   8.48521600
_cell_angle_alpha   90.00000000
_cell_angle_beta   90.00000000
_cell_angle_gamma   90.00000000
_symmetry_Int_Tables_number   1
_chemical_formula_structural   Pa2FeIr2
_chemical_formula_sum   'Pa8 Fe4 Ir8'
_cell_volume   383.65288066
_cell_formula_units_Z   4
loop_
 _symmetry_equiv_pos_site_id
 _symmetry_equiv_pos_as_xyz
  1  'x, y, z'
loop_
 _atom_site_type_symbol
 _atom_site_label
 _atom_site_symmetry_multiplicity
 _atom_site_fract_x
 _atom_site_fract_y
 _atom_site_fract_z
 _atom_site_occupancy
  Pa  Pa0  1  0.750000  0.910928  0.852914  1
  Pa  Pa1  1  0.750000  0.410928  0.647086  1
  Pa  Pa2  1  0.250000  0.089072  0.147086  1
  Pa  Pa3  1  0.250000  0.589072  0.352914  1
  Pa  Pa4  1  0.750000  0.929280  0.387905  1
  Pa  Pa5  1  0.750000  0.429280  0.112095  1
  Pa  Pa6  1  0.250000  0.070720  0.612095  1
  Pa  Pa7  1  0.250000  0.570720  0.887905  1
  Fe  Fe8  1  0.750000  0.581990  0.340187  1
  Fe  Fe9  1  0.750000  0.081990  0.159813  1
  Fe  Fe10  1  0.250000  0.418010  0.659813  1
  Fe  Fe11  1  0.250000  0.918010  0.840187  1
  Ir  Ir12  1  0.997836  0.267796  0.387504  1
  Ir  Ir13  1  0.502164  0.767796  0.112496  1
  Ir  Ir14  1  0.497836  0.732204  0.612496  1
  Ir  Ir15  1  0.002164  0.232204  0.887504  1
  Ir  Ir16  1  0.002164  0.732204  0.612496  1
  Ir  Ir17  1  0.497836  0.232204  0.887504  1
  Ir  Ir18  1  0.502164  0.267796  0.387504  1
  Ir  Ir19  1  0.997836  0.767796  0.112496  1
