# generated using pymatgen
data_Li2NdErSi2Sn
_symmetry_space_group_name_H-M   'P 1'
_cell_length_a   9.62711639
_cell_length_b   9.62711571
_cell_length_c   6.85099000
_cell_angle_alpha   90.00000000
_cell_angle_beta   90.00000000
_cell_angle_gamma   153.29626807
_symmetry_Int_Tables_number   1
_chemical_formula_structural   Li2NdErSi2Sn
_chemical_formula_sum   'Li4 Nd2 Er2 Si4 Sn2'
_cell_volume   285.33613167
_cell_formula_units_Z   2
loop_
 _symmetry_equiv_pos_site_id
 _symmetry_equiv_pos_as_xyz
  1  'x, y, z'
loop_
 _atom_site_type_symbol
 _atom_site_label
 _atom_site_symmetry_multiplicity
 _atom_site_fract_x
 _atom_site_fract_y
 _atom_site_fract_z
 _atom_site_occupancy
  Li  Li0  1  0.184705  0.815295  0.054868  1
  Li  Li1  1  0.184705  0.815295  0.445132  1
  Li  Li2  1  0.815295  0.184705  0.945132  1
  Li  Li3  1  0.815295  0.184705  0.554868  1
  Nd  Nd4  1  0.549606  0.450394  0.250000  1
  Nd  Nd5  1  0.450394  0.549606  0.750000  1
  Er  Er6  1  0.351483  0.648517  0.250000  1
  Er  Er7  1  0.648517  0.351483  0.750000  1
  Si  Si8  1  0.058430  0.941570  0.925532  1
  Si  Si9  1  0.941570  0.058430  0.074468  1
  Si  Si10  1  0.941570  0.058430  0.425532  1
  Si  Si11  1  0.058430  0.941570  0.574468  1
  Sn  Sn12  1  0.721794  0.278206  0.250000  1
  Sn  Sn13  1  0.278206  0.721794  0.750000  1
