# generated using pymatgen
data_NaEuGaPt3
_symmetry_space_group_name_H-M   'P 1'
_cell_length_a   5.29390288
_cell_length_b   5.61543271
_cell_length_c   5.61543300
_cell_angle_alpha   60.00000418
_cell_angle_beta   57.96968621
_cell_angle_gamma   57.96969181
_symmetry_Int_Tables_number   1
_chemical_formula_structural   NaEuGaPt3
_chemical_formula_sum   'Na1 Eu1 Ga1 Pt3'
_cell_volume   114.28639999
_cell_formula_units_Z   1
loop_
 _symmetry_equiv_pos_site_id
 _symmetry_equiv_pos_as_xyz
  1  'x, y, z'
loop_
 _atom_site_type_symbol
 _atom_site_label
 _atom_site_symmetry_multiplicity
 _atom_site_fract_x
 _atom_site_fract_y
 _atom_site_fract_z
 _atom_site_occupancy
  Na  Na0  1  0.246745  0.251085  0.251085  1
  Eu  Eu1  1  0.989982  0.003340  0.003340  1
  Ga  Ga2  1  0.127622  0.624126  0.624126  1
  Pt  Pt3  1  0.628550  0.126107  0.622671  1
  Pt  Pt4  1  0.628550  0.622671  0.126107  1
  Pt  Pt5  1  0.628550  0.622671  0.622671  1
