# generated using pymatgen
data_La17Yb3Ga5Ge7
_symmetry_space_group_name_H-M   'P 1'
_cell_length_a   8.04404156
_cell_length_b   8.03874227
_cell_length_c   14.36739080
_cell_angle_alpha   89.98908846
_cell_angle_beta   90.06832636
_cell_angle_gamma   89.88247446
_symmetry_Int_Tables_number   1
_chemical_formula_structural   La17Yb3Ga5Ge7
_chemical_formula_sum   'La17 Yb3 Ga5 Ge7'
_cell_volume   929.04999441
_cell_formula_units_Z   1
loop_
 _symmetry_equiv_pos_site_id
 _symmetry_equiv_pos_as_xyz
  1  'x, y, z'
loop_
 _atom_site_type_symbol
 _atom_site_label
 _atom_site_symmetry_multiplicity
 _atom_site_fract_x
 _atom_site_fract_y
 _atom_site_fract_z
 _atom_site_occupancy
  La  La0  1  0.332402  0.316698  0.101913  1
  La  La1  1  0.832094  0.820185  0.897160  1
  La  La2  1  0.836444  0.181242  0.396282  1
  La  La3  1  0.168637  0.179517  0.897224  1
  La  La4  1  0.667936  0.683628  0.102335  1
  La  La5  1  0.821620  0.831066  0.602610  1
  La  La6  1  0.318671  0.336771  0.397036  1
  La  La7  1  0.182144  0.833127  0.101468  1
  La  La8  1  0.177877  0.167707  0.602021  1
  La  La9  1  0.816670  0.167756  0.102120  1
  La  La10  1  0.330576  0.678553  0.601318  1
  La  La11  1  0.501282  0.001025  0.286139  1
  La  La12  1  0.680234  0.329523  0.897220  1
  La  La13  1  0.669457  0.321211  0.602224  1
  La  La14  1  0.319663  0.668641  0.898242  1
  La  La15  1  0.162406  0.817717  0.397261  1
  La  La16  1  0.681672  0.665286  0.395974  1
  Yb  Yb17  1  0.501277  0.000158  0.761629  1
  Yb  Yb18  1  0.998419  0.500880  0.231795  1
  Yb  Yb19  1  0.999634  0.498648  0.736205  1
  Ga  Ga20  1  0.118573  0.880815  0.749712  1
  Ga  Ga21  1  0.382001  0.382003  0.749824  1
  Ga  Ga22  1  0.120216  0.120371  0.247631  1
  Ga  Ga23  1  0.380573  0.620954  0.247299  1
  Ga  Ga24  1  0.618868  0.616961  0.749808  1
  Ge  Ge25  1  0.620269  0.380921  0.247766  1
  Ge  Ge26  1  0.881884  0.118792  0.749849  1
  Ge  Ge27  1  0.500131  0.000221  0.500879  1
  Ge  Ge28  1  0.879732  0.880410  0.247516  1
  Ge  Ge29  1  0.998941  0.499748  0.006740  1
  Ge  Ge30  1  0.500560  0.999778  0.989115  1
  Ge  Ge31  1  0.999137  0.499685  0.505687  1
