# generated using pymatgen
data_DyHo3(Zr3Sn4)2
_symmetry_space_group_name_H-M   'P 1'
_cell_length_a   7.77237100
_cell_length_b   7.82091912
_cell_length_c   14.72592700
_cell_angle_alpha   89.98984621
_cell_angle_beta   90.00000000
_cell_angle_gamma   90.00000000
_symmetry_Int_Tables_number   1
_chemical_formula_structural   DyHo3(Zr3Sn4)2
_chemical_formula_sum   'Dy2 Ho6 Zr12 Sn16'
_cell_volume   895.14616195
_cell_formula_units_Z   2
loop_
 _symmetry_equiv_pos_site_id
 _symmetry_equiv_pos_as_xyz
  1  'x, y, z'
loop_
 _atom_site_type_symbol
 _atom_site_label
 _atom_site_symmetry_multiplicity
 _atom_site_fract_x
 _atom_site_fract_y
 _atom_site_fract_z
 _atom_site_occupancy
  Dy  Dy0  1  0.512832  0.322312  0.592793  1
  Dy  Dy1  1  0.012832  0.177688  0.907207  1
  Ho  Ho2  1  0.513000  0.322245  0.907053  1
  Ho  Ho3  1  0.013000  0.177755  0.592947  1
  Ho  Ho4  1  0.487039  0.677827  0.407097  1
  Ho  Ho5  1  0.987039  0.822173  0.092903  1
  Ho  Ho6  1  0.486993  0.677827  0.092879  1
  Ho  Ho7  1  0.986993  0.822173  0.407121  1
  Zr  Zr8  1  0.349725  0.837135  0.871065  1
  Zr  Zr9  1  0.849725  0.662865  0.628935  1
  Zr  Zr10  1  0.650486  0.162761  0.370939  1
  Zr  Zr11  1  0.150486  0.337239  0.129061  1
  Zr  Zr12  1  0.650436  0.162768  0.128978  1
  Zr  Zr13  1  0.150436  0.337232  0.371022  1
  Zr  Zr14  1  0.349571  0.837261  0.628960  1
  Zr  Zr15  1  0.849571  0.662739  0.871040  1
  Zr  Zr16  1  0.171841  0.509740  0.749970  1
  Zr  Zr17  1  0.671841  0.990260  0.750030  1
  Zr  Zr18  1  0.828218  0.490360  0.250008  1
  Zr  Zr19  1  0.328218  0.009640  0.249992  1
  Sn  Sn20  1  0.311023  0.039887  0.042172  1
  Sn  Sn21  1  0.811023  0.460113  0.457828  1
  Sn  Sn22  1  0.689413  0.959735  0.542177  1
  Sn  Sn23  1  0.189413  0.540265  0.957823  1
  Sn  Sn24  1  0.688874  0.959667  0.957866  1
  Sn  Sn25  1  0.188874  0.540333  0.542134  1
  Sn  Sn26  1  0.310587  0.039949  0.457882  1
  Sn  Sn27  1  0.810587  0.460051  0.042118  1
  Sn  Sn28  1  0.544320  0.615313  0.750075  1
  Sn  Sn29  1  0.044320  0.884687  0.749925  1
  Sn  Sn30  1  0.455718  0.385060  0.249991  1
  Sn  Sn31  1  0.955718  0.114940  0.250009  1
  Sn  Sn32  1  0.317858  0.154646  0.750118  1
  Sn  Sn33  1  0.817858  0.345354  0.749882  1
  Sn  Sn34  1  0.682068  0.845100  0.249964  1
  Sn  Sn35  1  0.182068  0.654900  0.250036  1
