# generated using pymatgen
data_Er4TmRh2
_symmetry_space_group_name_H-M   'P 1'
_cell_length_a   6.34264420
_cell_length_b   7.13232138
_cell_length_c   8.54668845
_cell_angle_alpha   96.84472644
_cell_angle_beta   111.78092266
_cell_angle_gamma   90.00000508
_symmetry_Int_Tables_number   1
_chemical_formula_structural   Er4TmRh2
_chemical_formula_sum   'Er8 Tm2 Rh4'
_cell_volume   356.06204498
_cell_formula_units_Z   2
loop_
 _symmetry_equiv_pos_site_id
 _symmetry_equiv_pos_as_xyz
  1  'x, y, z'
loop_
 _atom_site_type_symbol
 _atom_site_label
 _atom_site_symmetry_multiplicity
 _atom_site_fract_x
 _atom_site_fract_y
 _atom_site_fract_z
 _atom_site_occupancy
  Er  Er0  1  0.790463  0.082573  0.812515  1
  Er  Er1  1  0.977949  0.417427  0.187485  1
  Er  Er2  1  0.209537  0.917427  0.187485  1
  Er  Er3  1  0.022051  0.582573  0.812515  1
  Er  Er4  1  0.209210  0.186257  0.561357  1
  Er  Er5  1  0.647854  0.313743  0.438643  1
  Er  Er6  1  0.790790  0.813743  0.438643  1
  Er  Er7  1  0.352146  0.686257  0.561357  1
  Tm  Tm8  1  0.423459  0.250000  0.000000  1
  Tm  Tm9  1  0.576541  0.750000  0.000000  1
  Rh  Rh10  1  0.597934  0.426223  0.780120  1
  Rh  Rh11  1  0.817814  0.073777  0.219880  1
  Rh  Rh12  1  0.402066  0.573777  0.219880  1
  Rh  Rh13  1  0.182186  0.926223  0.780120  1
