# generated using pymatgen
data_Ta2V3Rh
_symmetry_space_group_name_H-M   'P 1'
_cell_length_a   5.01144200
_cell_length_b   5.01144106
_cell_length_c   8.40456600
_cell_angle_alpha   90.00000000
_cell_angle_beta   90.00000000
_cell_angle_gamma   120.00000618
_symmetry_Int_Tables_number   1
_chemical_formula_structural   Ta2V3Rh
_chemical_formula_sum   'Ta4 V6 Rh2'
_cell_volume   182.79791266
_cell_formula_units_Z   2
loop_
 _symmetry_equiv_pos_site_id
 _symmetry_equiv_pos_as_xyz
  1  'x, y, z'
loop_
 _atom_site_type_symbol
 _atom_site_label
 _atom_site_symmetry_multiplicity
 _atom_site_fract_x
 _atom_site_fract_y
 _atom_site_fract_z
 _atom_site_occupancy
  Ta  Ta0  1  0.333333  0.666667  0.941316  1
  Ta  Ta1  1  0.666667  0.333333  0.058684  1
  Ta  Ta2  1  0.666667  0.333333  0.441316  1
  Ta  Ta3  1  0.333333  0.666667  0.558684  1
  V  V4  1  0.172538  0.827462  0.250000  1
  V  V5  1  0.172538  0.345074  0.250000  1
  V  V6  1  0.654926  0.827462  0.250000  1
  V  V7  1  0.827462  0.172538  0.750000  1
  V  V8  1  0.827462  0.654926  0.750000  1
  V  V9  1  0.345074  0.172538  0.750000  1
  Rh  Rh10  1  0.000000  0.000000  0.500000  1
  Rh  Rh11  1  0.000000  0.000000  0.000000  1
