# generated using pymatgen
data_PrYNp2F14
_symmetry_space_group_name_H-M   'P 1'
_cell_length_a   6.05496408
_cell_length_b   6.39640459
_cell_length_c   8.70692700
_cell_angle_alpha   76.84601291
_cell_angle_beta   90.21361897
_cell_angle_gamma   90.09912396
_symmetry_Int_Tables_number   1
_chemical_formula_structural   PrYNp2F14
_chemical_formula_sum   'Pr1 Y1 Np2 F14'
_cell_volume   328.36889765
_cell_formula_units_Z   1
loop_
 _symmetry_equiv_pos_site_id
 _symmetry_equiv_pos_as_xyz
  1  'x, y, z'
loop_
 _atom_site_type_symbol
 _atom_site_label
 _atom_site_symmetry_multiplicity
 _atom_site_fract_x
 _atom_site_fract_y
 _atom_site_fract_z
 _atom_site_occupancy
  Pr  Pr0  1  0.700666  0.352144  0.680528  1
  Y  Y1  1  0.199401  0.655113  0.311573  1
  Np  Np2  1  0.206620  0.811643  0.775109  1
  Np  Np3  1  0.706562  0.185264  0.226348  1
  F  F4  1  0.404564  0.483271  0.509572  1
  F  F5  1  0.921556  0.534146  0.475808  1
  F  F6  1  0.944507  0.923717  0.237650  1
  F  F7  1  0.422421  0.086999  0.763046  1
  F  F8  1  0.452017  0.931420  0.247959  1
  F  F9  1  0.938922  0.045310  0.759890  1
  F  F10  1  0.470365  0.447427  0.214730  1
  F  F11  1  0.988294  0.536171  0.791367  1
  F  F12  1  0.200136  0.756322  0.031907  1
  F  F13  1  0.694295  0.240115  0.972829  1
  F  F14  1  0.199677  0.859992  0.520076  1
  F  F15  1  0.700071  0.135084  0.480769  1
  F  F16  1  0.995779  0.397364  0.217629  1
  F  F17  1  0.506870  0.618502  0.783207  1
