# generated using pymatgen
data_KHo2(H6Ru)2
_symmetry_space_group_name_H-M   'P 1'
_cell_length_a   4.93595600
_cell_length_b   4.93595712
_cell_length_c   8.37691200
_cell_angle_alpha   90.00000000
_cell_angle_beta   90.00000000
_cell_angle_gamma   120.00000592
_symmetry_Int_Tables_number   1
_chemical_formula_structural   KHo2(H6Ru)2
_chemical_formula_sum   'K1 Ho2 H12 Ru2'
_cell_volume   176.74910223
_cell_formula_units_Z   1
loop_
 _symmetry_equiv_pos_site_id
 _symmetry_equiv_pos_as_xyz
  1  'x, y, z'
loop_
 _atom_site_type_symbol
 _atom_site_label
 _atom_site_symmetry_multiplicity
 _atom_site_fract_x
 _atom_site_fract_y
 _atom_site_fract_z
 _atom_site_occupancy
  K  K0  1  0.000000  0.000000  0.000000  1
  Ho  Ho1  1  0.666667  0.333333  0.361298  1
  Ho  Ho2  1  0.333333  0.666667  0.638702  1
  H  H3  1  0.169037  0.830963  0.392506  1
  H  H4  1  0.661925  0.830963  0.392506  1
  H  H5  1  0.169037  0.338075  0.392506  1
  H  H6  1  0.830963  0.169037  0.607494  1
  H  H7  1  0.338075  0.169037  0.607494  1
  H  H8  1  0.830963  0.661925  0.607494  1
  H  H9  1  0.501317  0.002636  0.838499  1
  H  H10  1  0.501317  0.498683  0.838499  1
  H  H11  1  0.997364  0.498683  0.838499  1
  H  H12  1  0.498683  0.997364  0.161501  1
  H  H13  1  0.498683  0.501317  0.161501  1
  H  H14  1  0.002636  0.501317  0.161501  1
  Ru  Ru15  1  0.666667  0.333333  0.725105  1
  Ru  Ru16  1  0.333333  0.666667  0.274895  1
