# generated using pymatgen
data_Y2GaB2IrRh4
_symmetry_space_group_name_H-M   'P 1'
_cell_length_a   9.54149700
_cell_length_b   9.54149700
_cell_length_c   3.21065200
_cell_angle_alpha   90.00000000
_cell_angle_beta   90.00000000
_cell_angle_gamma   90.00000000
_symmetry_Int_Tables_number   1
_chemical_formula_structural   Y2GaB2IrRh4
_chemical_formula_sum   'Y4 Ga2 B4 Ir2 Rh8'
_cell_volume   292.29828784
_cell_formula_units_Z   2
loop_
 _symmetry_equiv_pos_site_id
 _symmetry_equiv_pos_as_xyz
  1  'x, y, z'
loop_
 _atom_site_type_symbol
 _atom_site_label
 _atom_site_symmetry_multiplicity
 _atom_site_fract_x
 _atom_site_fract_y
 _atom_site_fract_z
 _atom_site_occupancy
  Y  Y0  1  0.822471  0.322471  0.000000  1
  Y  Y1  1  0.322471  0.177529  0.000000  1
  Y  Y2  1  0.677529  0.822471  0.000000  1
  Y  Y3  1  0.177529  0.677529  0.000000  1
  Ga  Ga4  1  0.000000  0.000000  0.000000  1
  Ga  Ga5  1  0.500000  0.500000  0.000000  1
  B  B6  1  0.620374  0.120374  0.000000  1
  B  B7  1  0.120374  0.379626  0.000000  1
  B  B8  1  0.879626  0.620374  0.000000  1
  B  B9  1  0.379626  0.879626  0.000000  1
  Ir  Ir10  1  0.500000  0.000000  0.500000  1
  Ir  Ir11  1  0.000000  0.500000  0.500000  1
  Rh  Rh12  1  0.069100  0.219790  0.500000  1
  Rh  Rh13  1  0.219790  0.930900  0.500000  1
  Rh  Rh14  1  0.780210  0.069100  0.500000  1
  Rh  Rh15  1  0.930900  0.780210  0.500000  1
  Rh  Rh16  1  0.430900  0.719790  0.500000  1
  Rh  Rh17  1  0.569100  0.280210  0.500000  1
  Rh  Rh18  1  0.719790  0.569100  0.500000  1
  Rh  Rh19  1  0.280210  0.430900  0.500000  1
