# generated using pymatgen
data_ZrTa2(ZnIr2)3
_symmetry_space_group_name_H-M   'P 1'
_cell_length_a   4.20933200
_cell_length_b   7.00011800
_cell_length_c   12.61287000
_cell_angle_alpha   90.00000000
_cell_angle_beta   90.00000454
_cell_angle_gamma   90.00000000
_symmetry_Int_Tables_number   1
_chemical_formula_structural   ZrTa2(ZnIr2)3
_chemical_formula_sum   'Zr2 Ta4 Zn6 Ir12'
_cell_volume   371.64856595
_cell_formula_units_Z   2
loop_
 _symmetry_equiv_pos_site_id
 _symmetry_equiv_pos_as_xyz
  1  'x, y, z'
loop_
 _atom_site_type_symbol
 _atom_site_label
 _atom_site_symmetry_multiplicity
 _atom_site_fract_x
 _atom_site_fract_y
 _atom_site_fract_z
 _atom_site_occupancy
  Zr  Zr0  1  0.000024  0.000000  0.664193  1
  Zr  Zr1  1  0.500024  0.500000  0.835822  1
  Ta  Ta2  1  0.000000  0.000000  0.001180  1
  Ta  Ta3  1  0.499971  0.500000  0.165593  1
  Ta  Ta4  1  0.999974  0.000000  0.334390  1
  Ta  Ta5  1  0.499999  0.500000  0.498819  1
  Zn  Zn6  1  0.000001  0.500000  0.001781  1
  Zn  Zn7  1  0.499970  0.000000  0.169620  1
  Zn  Zn8  1  0.999969  0.500000  0.330379  1
  Zn  Zn9  1  0.500001  0.000000  0.498220  1
  Zn  Zn10  1  0.000031  0.500000  0.667661  1
  Zn  Zn11  1  0.500031  0.000000  0.832343  1
  Ir  Ir12  1  0.499998  0.242689  0.005881  1
  Ir  Ir13  1  0.499998  0.757312  0.005881  1
  Ir  Ir14  1  0.999980  0.251146  0.168343  1
  Ir  Ir15  1  0.999980  0.748854  0.168343  1
  Ir  Ir16  1  0.499980  0.248828  0.331664  1
  Ir  Ir17  1  0.499980  0.751173  0.331664  1
  Ir  Ir18  1  0.999998  0.257328  0.494115  1
  Ir  Ir19  1  0.999998  0.742669  0.494115  1
  Ir  Ir20  1  0.500021  0.257808  0.662235  1
  Ir  Ir21  1  0.500021  0.742193  0.662235  1
  Ir  Ir22  1  0.000023  0.242195  0.837762  1
  Ir  Ir23  1  0.000023  0.757805  0.837762  1
