# generated using pymatgen
data_TiCo2Si2W
_symmetry_space_group_name_H-M   'P 1'
_cell_length_a   3.60306700
_cell_length_b   6.11558900
_cell_length_c   6.95846300
_cell_angle_alpha   90.00000000
_cell_angle_beta   90.00000000
_cell_angle_gamma   90.00000000
_symmetry_Int_Tables_number   1
_chemical_formula_structural   TiCo2Si2W
_chemical_formula_sum   'Ti2 Co4 Si4 W2'
_cell_volume   153.32887570
_cell_formula_units_Z   2
loop_
 _symmetry_equiv_pos_site_id
 _symmetry_equiv_pos_as_xyz
  1  'x, y, z'
loop_
 _atom_site_type_symbol
 _atom_site_label
 _atom_site_symmetry_multiplicity
 _atom_site_fract_x
 _atom_site_fract_y
 _atom_site_fract_z
 _atom_site_occupancy
  Ti  Ti0  1  0.250000  0.522467  0.679910  1
  Ti  Ti1  1  0.750000  0.977533  0.179910  1
  Co  Co2  1  0.250000  0.644107  0.062267  1
  Co  Co3  1  0.750000  0.360346  0.936150  1
  Co  Co4  1  0.250000  0.139654  0.436150  1
  Co  Co5  1  0.750000  0.855893  0.562267  1
  Si  Si6  1  0.750000  0.729620  0.878638  1
  Si  Si7  1  0.250000  0.770380  0.378638  1
  Si  Si8  1  0.750000  0.226925  0.619747  1
  Si  Si9  1  0.250000  0.273075  0.119747  1
  W  W10  1  0.250000  0.023937  0.823287  1
  W  W11  1  0.750000  0.476063  0.323287  1
