# generated using pymatgen
data_NdDyBi2O7
_symmetry_space_group_name_H-M   'P 1'
_cell_length_a   6.67659406
_cell_length_b   6.78317184
_cell_length_c   7.86405706
_cell_angle_alpha   106.54740221
_cell_angle_beta   89.62171146
_cell_angle_gamma   98.11136393
_symmetry_Int_Tables_number   1
_chemical_formula_structural   NdDyBi2O7
_chemical_formula_sum   'Nd2 Dy2 Bi4 O14'
_cell_volume   337.77383996
_cell_formula_units_Z   2
loop_
 _symmetry_equiv_pos_site_id
 _symmetry_equiv_pos_as_xyz
  1  'x, y, z'
loop_
 _atom_site_type_symbol
 _atom_site_label
 _atom_site_symmetry_multiplicity
 _atom_site_fract_x
 _atom_site_fract_y
 _atom_site_fract_z
 _atom_site_occupancy
  Nd  Nd0  1  0.260115  0.538730  0.884789  1
  Nd  Nd1  1  0.739885  0.461270  0.115211  1
  Dy  Dy2  1  0.459078  0.005279  0.252251  1
  Dy  Dy3  1  0.540922  0.994721  0.747749  1
  Bi  Bi4  1  0.000000  0.000000  0.500000  1
  Bi  Bi5  1  0.000000  0.000000  0.000000  1
  Bi  Bi6  1  0.723837  0.458874  0.610930  1
  Bi  Bi7  1  0.276163  0.541126  0.389070  1
  O  O8  1  0.444242  0.656158  0.172601  1
  O  O9  1  0.555758  0.343842  0.827399  1
  O  O10  1  0.303627  0.931234  0.949324  1
  O  O11  1  0.696373  0.068766  0.050676  1
  O  O12  1  0.301039  0.920836  0.512625  1
  O  O13  1  0.698961  0.079164  0.487375  1
  O  O14  1  0.537652  0.356021  0.346152  1
  O  O15  1  0.462348  0.643979  0.653848  1
  O  O16  1  0.932434  0.675255  0.962024  1
  O  O17  1  0.067566  0.324745  0.037976  1
  O  O18  1  0.088620  0.321249  0.623706  1
  O  O19  1  0.911380  0.678751  0.376294  1
  O  O20  1  0.876855  0.927536  0.732753  1
  O  O21  1  0.123145  0.072464  0.267247  1
