# generated using pymatgen
data_Er8TcRuBr8
_symmetry_space_group_name_H-M   'P 1'
_cell_length_a   8.90586535
_cell_length_b   8.90586586
_cell_length_c   6.54074305
_cell_angle_alpha   89.51447644
_cell_angle_beta   89.51447038
_cell_angle_gamma   89.37617345
_symmetry_Int_Tables_number   1
_chemical_formula_structural   Er8TcRuBr8
_chemical_formula_sum   'Er8 Tc1 Ru1 Br8'
_cell_volume   518.70778812
_cell_formula_units_Z   1
loop_
 _symmetry_equiv_pos_site_id
 _symmetry_equiv_pos_as_xyz
  1  'x, y, z'
loop_
 _atom_site_type_symbol
 _atom_site_label
 _atom_site_symmetry_multiplicity
 _atom_site_fract_x
 _atom_site_fract_y
 _atom_site_fract_z
 _atom_site_occupancy
  Er  Er0  1  0.248036  0.901474  0.011461  1
  Er  Er1  1  0.751041  0.098927  0.990656  1
  Er  Er2  1  0.098526  0.751964  0.488539  1
  Er  Er3  1  0.901073  0.248959  0.509344  1
  Er  Er4  1  0.752574  0.902998  0.507256  1
  Er  Er5  1  0.247403  0.097203  0.490630  1
  Er  Er6  1  0.097002  0.247426  0.992744  1
  Er  Er7  1  0.902797  0.752597  0.009370  1
  Tc  Tc8  1  0.994092  0.005908  0.250000  1
  Ru  Ru9  1  0.006133  0.993867  0.750000  1
  Br  Br10  1  0.420914  0.817144  0.405477  1
  Br  Br11  1  0.579464  0.182628  0.595736  1
  Br  Br12  1  0.182856  0.579086  0.094523  1
  Br  Br13  1  0.817372  0.420536  0.904264  1
  Br  Br14  1  0.416435  0.191728  0.096485  1
  Br  Br15  1  0.584155  0.808144  0.902858  1
  Br  Br16  1  0.808272  0.583565  0.403515  1
  Br  Br17  1  0.191856  0.415845  0.597142  1
