# generated using pymatgen
data_Yb6Tl2Ir
_symmetry_space_group_name_H-M   'P 1'
_cell_length_a   8.64214300
_cell_length_b   8.64214329
_cell_length_c   4.08586900
_cell_angle_alpha   90.00000000
_cell_angle_beta   90.00000000
_cell_angle_gamma   119.99999508
_symmetry_Int_Tables_number   1
_chemical_formula_structural   Yb6Tl2Ir
_chemical_formula_sum   'Yb6 Tl2 Ir1'
_cell_volume   264.27616887
_cell_formula_units_Z   1
loop_
 _symmetry_equiv_pos_site_id
 _symmetry_equiv_pos_as_xyz
  1  'x, y, z'
loop_
 _atom_site_type_symbol
 _atom_site_label
 _atom_site_symmetry_multiplicity
 _atom_site_fract_x
 _atom_site_fract_y
 _atom_site_fract_z
 _atom_site_occupancy
  Yb  Yb0  1  0.000000  0.604349  0.500000  1
  Yb  Yb1  1  0.604349  0.000000  0.500000  1
  Yb  Yb2  1  0.395651  0.395651  0.500000  1
  Yb  Yb3  1  0.000000  0.235134  0.000000  1
  Yb  Yb4  1  0.235134  0.000000  0.000000  1
  Yb  Yb5  1  0.764866  0.764866  0.000000  1
  Tl  Tl6  1  0.666667  0.333333  0.000000  1
  Tl  Tl7  1  0.333333  0.666667  0.000000  1
  Ir  Ir8  1  0.000000  0.000000  0.500000  1
