# generated using pymatgen
data_Ce2SiIrI
_symmetry_space_group_name_H-M   'P 1'
_cell_length_a   4.29072200
_cell_length_b   4.29071955
_cell_length_c   16.57741900
_cell_angle_alpha   90.00000000
_cell_angle_beta   90.00000000
_cell_angle_gamma   120.00000348
_symmetry_Int_Tables_number   1
_chemical_formula_structural   Ce2SiIrI
_chemical_formula_sum   'Ce4 Si2 Ir2 I2'
_cell_volume   264.30661772
_cell_formula_units_Z   2
loop_
 _symmetry_equiv_pos_site_id
 _symmetry_equiv_pos_as_xyz
  1  'x, y, z'
loop_
 _atom_site_type_symbol
 _atom_site_label
 _atom_site_symmetry_multiplicity
 _atom_site_fract_x
 _atom_site_fract_y
 _atom_site_fract_z
 _atom_site_occupancy
  Ce  Ce0  1  0.000000  0.000000  0.607324  1
  Ce  Ce1  1  0.000000  0.000000  0.395487  1
  Ce  Ce2  1  0.000000  0.000000  0.107324  1
  Ce  Ce3  1  0.000000  0.000000  0.895487  1
  Si  Si4  1  0.666667  0.333333  0.506549  1
  Si  Si5  1  0.333333  0.666667  0.006549  1
  Ir  Ir6  1  0.666667  0.333333  0.993632  1
  Ir  Ir7  1  0.333333  0.666667  0.493632  1
  I  I8  1  0.666667  0.333333  0.247011  1
  I  I9  1  0.333333  0.666667  0.747011  1
