# generated using pymatgen
data_TmHf(NiAs)2
_symmetry_space_group_name_H-M   'P 1'
_cell_length_a   3.97856500
_cell_length_b   3.97856444
_cell_length_c   14.64655800
_cell_angle_alpha   90.00000000
_cell_angle_beta   90.00000000
_cell_angle_gamma   119.99999636
_symmetry_Int_Tables_number   1
_chemical_formula_structural   TmHf(NiAs)2
_chemical_formula_sum   'Tm2 Hf2 Ni4 As4'
_cell_volume   200.77936552
_cell_formula_units_Z   2
loop_
 _symmetry_equiv_pos_site_id
 _symmetry_equiv_pos_as_xyz
  1  'x, y, z'
loop_
 _atom_site_type_symbol
 _atom_site_label
 _atom_site_symmetry_multiplicity
 _atom_site_fract_x
 _atom_site_fract_y
 _atom_site_fract_z
 _atom_site_occupancy
  Tm  Tm0  1  0.000000  0.000000  0.000000  1
  Tm  Tm1  1  0.000000  0.000000  0.500000  1
  Hf  Hf2  1  0.000000  0.000000  0.250000  1
  Hf  Hf3  1  0.000000  0.000000  0.750000  1
  Ni  Ni4  1  0.333333  0.666667  0.156121  1
  Ni  Ni5  1  0.666667  0.333333  0.843879  1
  Ni  Ni6  1  0.666667  0.333333  0.656121  1
  Ni  Ni7  1  0.333333  0.666667  0.343879  1
  As  As8  1  0.333333  0.666667  0.620260  1
  As  As9  1  0.666667  0.333333  0.379740  1
  As  As10  1  0.666667  0.333333  0.120260  1
  As  As11  1  0.333333  0.666667  0.879740  1
