# generated using pymatgen
data_LiMg(Ta2N3)2
_symmetry_space_group_name_H-M   'P 1'
_cell_length_a   5.23637100
_cell_length_b   5.23637048
_cell_length_c   10.39606700
_cell_angle_alpha   90.00000000
_cell_angle_beta   90.00000000
_cell_angle_gamma   119.99999696
_symmetry_Int_Tables_number   1
_chemical_formula_structural   LiMg(Ta2N3)2
_chemical_formula_sum   'Li2 Mg2 Ta8 N12'
_cell_volume   246.86555072
_cell_formula_units_Z   2
loop_
 _symmetry_equiv_pos_site_id
 _symmetry_equiv_pos_as_xyz
  1  'x, y, z'
loop_
 _atom_site_type_symbol
 _atom_site_label
 _atom_site_symmetry_multiplicity
 _atom_site_fract_x
 _atom_site_fract_y
 _atom_site_fract_z
 _atom_site_occupancy
  Li  Li0  1  0.333333  0.666667  0.000000  1
  Li  Li1  1  0.333333  0.666667  0.500000  1
  Mg  Mg2  1  0.666667  0.333333  0.500000  1
  Mg  Mg3  1  0.666667  0.333333  0.000000  1
  Ta  Ta4  1  0.003872  0.345362  0.250000  1
  Ta  Ta5  1  0.654638  0.996128  0.750000  1
  Ta  Ta6  1  0.341490  0.345362  0.750000  1
  Ta  Ta7  1  0.000000  0.000000  0.500000  1
  Ta  Ta8  1  0.000000  0.000000  0.000000  1
  Ta  Ta9  1  0.654638  0.658510  0.250000  1
  Ta  Ta10  1  0.341490  0.996128  0.250000  1
  Ta  Ta11  1  0.003872  0.658510  0.750000  1
  N  N12  1  0.674513  0.672324  0.622275  1
  N  N13  1  0.674513  0.672324  0.877725  1
  N  N14  1  0.327676  0.325487  0.122275  1
  N  N15  1  0.327676  0.325487  0.377725  1
  N  N16  1  0.327676  0.002188  0.877725  1
  N  N17  1  0.327676  0.002188  0.622275  1
  N  N18  1  0.997812  0.672324  0.377725  1
  N  N19  1  0.997812  0.672324  0.122275  1
  N  N20  1  0.674513  0.002188  0.122275  1
  N  N21  1  0.674513  0.002188  0.377725  1
  N  N22  1  0.997812  0.325487  0.877725  1
  N  N23  1  0.997812  0.325487  0.622275  1
