# generated using pymatgen
data_Y3HoMg2Rh3
_symmetry_space_group_name_H-M   'P 1'
_cell_length_a   7.49979594
_cell_length_b   7.53953263
_cell_length_c   4.06804600
_cell_angle_alpha   90.00000000
_cell_angle_beta   90.00000000
_cell_angle_gamma   120.17542123
_symmetry_Int_Tables_number   1
_chemical_formula_structural   Y3HoMg2Rh3
_chemical_formula_sum   'Y3 Ho1 Mg2 Rh3'
_cell_volume   198.85657564
_cell_formula_units_Z   1
loop_
 _symmetry_equiv_pos_site_id
 _symmetry_equiv_pos_as_xyz
  1  'x, y, z'
loop_
 _atom_site_type_symbol
 _atom_site_label
 _atom_site_symmetry_multiplicity
 _atom_site_fract_x
 _atom_site_fract_y
 _atom_site_fract_z
 _atom_site_occupancy
  Y  Y0  1  0.000000  0.611481  0.500000  1
  Y  Y1  1  0.435188  0.413236  0.500000  1
  Y  Y2  1  0.564812  0.978048  0.500000  1
  Ho  Ho3  1  0.000000  0.247848  0.000000  1
  Mg  Mg4  1  0.250286  0.003674  0.000000  1
  Mg  Mg5  1  0.749714  0.753388  0.000000  1
  Rh  Rh6  1  0.325251  0.658578  0.000000  1
  Rh  Rh7  1  0.000000  0.000418  0.500000  1
  Rh  Rh8  1  0.674749  0.333326  0.000000  1
