# generated using pymatgen
data_Dy2Y2HfIr3
_symmetry_space_group_name_H-M   'P 1'
_cell_length_a   10.87546600
_cell_length_b   10.87546600
_cell_length_c   6.26722800
_cell_angle_alpha   90.00000000
_cell_angle_beta   90.00000000
_cell_angle_gamma   90.00000000
_symmetry_Int_Tables_number   1
_chemical_formula_structural   Dy2Y2HfIr3
_chemical_formula_sum   'Dy8 Y8 Hf4 Ir12'
_cell_volume   741.26115929
_cell_formula_units_Z   4
loop_
 _symmetry_equiv_pos_site_id
 _symmetry_equiv_pos_as_xyz
  1  'x, y, z'
loop_
 _atom_site_type_symbol
 _atom_site_label
 _atom_site_symmetry_multiplicity
 _atom_site_fract_x
 _atom_site_fract_y
 _atom_site_fract_z
 _atom_site_occupancy
  Dy  Dy0  1  0.210255  0.414871  0.624684  1
  Dy  Dy1  1  0.210255  0.585129  0.124684  1
  Dy  Dy2  1  0.789745  0.414871  0.124684  1
  Dy  Dy3  1  0.789745  0.585129  0.624684  1
  Dy  Dy4  1  0.914871  0.710255  0.124684  1
  Dy  Dy5  1  0.914871  0.289745  0.624684  1
  Dy  Dy6  1  0.085129  0.710255  0.624684  1
  Dy  Dy7  1  0.085129  0.289745  0.124684  1
  Y  Y8  1  0.288644  0.085789  0.374509  1
  Y  Y9  1  0.288644  0.914211  0.874509  1
  Y  Y10  1  0.711356  0.085789  0.874509  1
  Y  Y11  1  0.711356  0.914211  0.374509  1
  Y  Y12  1  0.585789  0.788644  0.874509  1
  Y  Y13  1  0.585789  0.211356  0.374509  1
  Y  Y14  1  0.414211  0.788644  0.374509  1
  Y  Y15  1  0.414211  0.211356  0.874509  1
  Hf  Hf16  1  0.000000  0.000000  0.500128  1
  Hf  Hf17  1  0.000000  0.000000  0.000128  1
  Hf  Hf18  1  0.500000  0.500000  0.000128  1
  Hf  Hf19  1  0.500000  0.500000  0.500128  1
  Ir  Ir20  1  0.858944  0.143037  0.250769  1
  Ir  Ir21  1  0.858944  0.856963  0.750769  1
  Ir  Ir22  1  0.141056  0.143037  0.750769  1
  Ir  Ir23  1  0.141056  0.856963  0.250769  1
  Ir  Ir24  1  0.643037  0.358944  0.750769  1
  Ir  Ir25  1  0.643037  0.641056  0.250769  1
  Ir  Ir26  1  0.356963  0.358944  0.250769  1
  Ir  Ir27  1  0.356963  0.641056  0.750769  1
  Ir  Ir28  1  0.500000  0.000000  0.121196  1
  Ir  Ir29  1  0.500000  0.000000  0.621196  1
  Ir  Ir30  1  0.000000  0.500000  0.878703  1
  Ir  Ir31  1  0.000000  0.500000  0.378703  1
