# generated using pymatgen
data_Tc11B12W13
_symmetry_space_group_name_H-M   'P 1'
_cell_length_a   3.07797000
_cell_length_b   9.00016941
_cell_length_c   15.63341035
_cell_angle_alpha   89.94014166
_cell_angle_beta   90.00000000
_cell_angle_gamma   90.00000000
_symmetry_Int_Tables_number   1
_chemical_formula_structural   Tc11B12W13
_chemical_formula_sum   'Tc11 B12 W13'
_cell_volume   433.08042804
_cell_formula_units_Z   1
loop_
 _symmetry_equiv_pos_site_id
 _symmetry_equiv_pos_as_xyz
  1  'x, y, z'
loop_
 _atom_site_type_symbol
 _atom_site_label
 _atom_site_symmetry_multiplicity
 _atom_site_fract_x
 _atom_site_fract_y
 _atom_site_fract_z
 _atom_site_occupancy
  Tc  Tc0  1  0.500000  0.713251  0.354453  1
  Tc  Tc1  1  0.500000  0.287286  0.645944  1
  Tc  Tc2  1  0.500000  0.213284  0.144465  1
  Tc  Tc3  1  0.500000  0.786358  0.854314  1
  Tc  Tc4  1  0.500000  0.514243  0.090953  1
  Tc  Tc5  1  0.500000  0.485318  0.909424  1
  Tc  Tc6  1  0.500000  0.016419  0.412005  1
  Tc  Tc7  1  0.500000  0.984617  0.590830  1
  Tc  Tc8  1  0.500000  0.561518  0.733340  1
  Tc  Tc9  1  0.500000  0.436705  0.267279  1
  Tc  Tc10  1  0.500000  0.062167  0.766531  1
  B  B11  1  0.500000  0.606193  0.494266  1
  B  B12  1  0.500000  0.394227  0.505685  1
  B  B13  1  0.500000  0.106774  0.003812  1
  B  B14  1  0.500000  0.892700  0.992854  1
  B  B15  1  0.000000  0.609782  0.833419  1
  B  B16  1  0.000000  0.388168  0.167298  1
  B  B17  1  0.000000  0.110335  0.666078  1
  B  B18  1  0.000000  0.892674  0.337010  1
  B  B19  1  0.500000  0.718735  0.601636  1
  B  B20  1  0.500000  0.281826  0.399268  1
  B  B21  1  0.500000  0.218944  0.898460  1
  B  B22  1  0.500000  0.782272  0.101507  1
  W  W23  1  0.000000  0.796191  0.496109  1
  W  W24  1  0.000000  0.205013  0.504960  1
  W  W25  1  0.000000  0.295265  0.002981  1
  W  W26  1  0.000000  0.702488  0.996350  1
  W  W27  1  0.000000  0.521285  0.592627  1
  W  W28  1  0.000000  0.479903  0.407757  1
  W  W29  1  0.000000  0.019960  0.906016  1
  W  W30  1  0.000000  0.978636  0.089709  1
  W  W31  1  0.000000  0.685412  0.198980  1
  W  W32  1  0.000000  0.313965  0.799776  1
  W  W33  1  0.000000  0.185312  0.300478  1
  W  W34  1  0.000000  0.813865  0.700217  1
  W  W35  1  0.500000  0.938908  0.233211  1
