# generated using pymatgen
data_Tb4Fe12P12Ru7Rh
_symmetry_space_group_name_H-M   'P 1'
_cell_length_a   3.75859900
_cell_length_b   10.45721932
_cell_length_c   12.04799948
_cell_angle_alpha   90.41673201
_cell_angle_beta   90.00000000
_cell_angle_gamma   90.00000000
_symmetry_Int_Tables_number   1
_chemical_formula_structural   Tb4Fe12P12Ru7Rh
_chemical_formula_sum   'Tb4 Fe12 P12 Ru7 Rh1'
_cell_volume   473.52799854
_cell_formula_units_Z   1
loop_
 _symmetry_equiv_pos_site_id
 _symmetry_equiv_pos_as_xyz
  1  'x, y, z'
loop_
 _atom_site_type_symbol
 _atom_site_label
 _atom_site_symmetry_multiplicity
 _atom_site_fract_x
 _atom_site_fract_y
 _atom_site_fract_z
 _atom_site_occupancy
  Tb  Tb0  1  0.250000  0.586262  0.708918  1
  Tb  Tb1  1  0.250000  0.917355  0.210097  1
  Tb  Tb2  1  0.750000  0.417804  0.289586  1
  Tb  Tb3  1  0.750000  0.078389  0.791895  1
  Fe  Fe4  1  0.250000  0.225378  0.174522  1
  Fe  Fe5  1  0.250000  0.280167  0.677912  1
  Fe  Fe6  1  0.750000  0.775801  0.825176  1
  Fe  Fe7  1  0.750000  0.725449  0.325945  1
  Fe  Fe8  1  0.250000  0.881248  0.697214  1
  Fe  Fe9  1  0.250000  0.618468  0.198030  1
  Fe  Fe10  1  0.750000  0.119754  0.302164  1
  Fe  Fe11  1  0.750000  0.376062  0.799011  1
  Fe  Fe12  1  0.250000  0.460621  0.932234  1
  Fe  Fe13  1  0.250000  0.039532  0.435621  1
  Fe  Fe14  1  0.750000  0.536577  0.063163  1
  Fe  Fe15  1  0.750000  0.963530  0.564602  1
  P  P16  1  0.250000  0.425688  0.111561  1
  P  P17  1  0.250000  0.074807  0.612962  1
  P  P18  1  0.750000  0.576170  0.887087  1
  P  P19  1  0.750000  0.926741  0.387274  1
  P  P20  1  0.250000  0.267820  0.865649  1
  P  P21  1  0.250000  0.226895  0.359942  1
  P  P22  1  0.750000  0.722694  0.142487  1
  P  P23  1  0.750000  0.775863  0.639650  1
  P  P24  1  0.250000  0.607412  0.384186  1
  P  P25  1  0.250000  0.891204  0.881580  1
  P  P26  1  0.750000  0.397651  0.610243  1
  P  P27  1  0.750000  0.107963  0.117593  1
  Ru  Ru28  1  0.250000  0.702192  0.984449  1
  Ru  Ru29  1  0.250000  0.799066  0.483873  1
  Ru  Ru30  1  0.750000  0.295615  0.014127  1
  Ru  Ru31  1  0.750000  0.202993  0.516216  1
  Ru  Ru32  1  0.250000  0.403855  0.485745  1
  Ru  Ru33  1  0.250000  0.092915  0.986849  1
  Ru  Ru34  1  0.750000  0.599677  0.514181  1
  Rh  Rh35  1  0.750000  0.900383  0.018257  1
