# generated using pymatgen
data_ErTm(SiTc2)4
_symmetry_space_group_name_H-M   'P 1'
_cell_length_a   7.32979091
_cell_length_b   7.32979091
_cell_length_c   4.13531000
_cell_angle_alpha   90.00000000
_cell_angle_beta   90.00000000
_cell_angle_gamma   89.94278075
_symmetry_Int_Tables_number   1
_chemical_formula_structural   ErTm(SiTc2)4
_chemical_formula_sum   'Er1 Tm1 Si4 Tc8'
_cell_volume   222.17287128
_cell_formula_units_Z   1
loop_
 _symmetry_equiv_pos_site_id
 _symmetry_equiv_pos_as_xyz
  1  'x, y, z'
loop_
 _atom_site_type_symbol
 _atom_site_label
 _atom_site_symmetry_multiplicity
 _atom_site_fract_x
 _atom_site_fract_y
 _atom_site_fract_z
 _atom_site_occupancy
  Er  Er0  1  0.500000  0.500000  0.500000  1
  Tm  Tm1  1  0.000000  0.000000  0.000000  1
  Si  Si2  1  0.792528  0.207472  0.500000  1
  Si  Si3  1  0.207472  0.792528  0.500000  1
  Si  Si4  1  0.292175  0.292175  0.000000  1
  Si  Si5  1  0.707825  0.707825  0.000000  1
  Tc  Tc6  1  0.656480  0.905687  0.500000  1
  Tc  Tc7  1  0.343520  0.094313  0.500000  1
  Tc  Tc8  1  0.156030  0.594707  0.000000  1
  Tc  Tc9  1  0.843970  0.405293  0.000000  1
  Tc  Tc10  1  0.905687  0.656480  0.500000  1
  Tc  Tc11  1  0.094313  0.343520  0.500000  1
  Tc  Tc12  1  0.594707  0.156030  0.000000  1
  Tc  Tc13  1  0.405293  0.843970  0.000000  1
