# generated using pymatgen
data_Nb6Ga4CuNiC2
_symmetry_space_group_name_H-M   'P 1'
_cell_length_a   8.28037914
_cell_length_b   8.28014069
_cell_length_c   8.27300900
_cell_angle_alpha   60.02697967
_cell_angle_beta   60.02797914
_cell_angle_gamma   60.05963534
_symmetry_Int_Tables_number   1
_chemical_formula_structural   Nb6Ga4CuNiC2
_chemical_formula_sum   'Nb12 Ga8 Cu2 Ni2 C4'
_cell_volume   401.43220593
_cell_formula_units_Z   2
loop_
 _symmetry_equiv_pos_site_id
 _symmetry_equiv_pos_as_xyz
  1  'x, y, z'
loop_
 _atom_site_type_symbol
 _atom_site_label
 _atom_site_symmetry_multiplicity
 _atom_site_fract_x
 _atom_site_fract_y
 _atom_site_fract_z
 _atom_site_occupancy
  Nb  Nb0  1  0.814191  0.814190  0.185810  1
  Nb  Nb1  1  0.186512  0.186499  0.813492  1
  Nb  Nb2  1  0.813863  0.185296  0.814098  1
  Nb  Nb3  1  0.185296  0.813864  0.186734  1
  Nb  Nb4  1  0.185302  0.813861  0.814098  1
  Nb  Nb5  1  0.813864  0.185290  0.186742  1
  Nb  Nb6  1  0.435809  0.435810  0.064190  1
  Nb  Nb7  1  0.063488  0.063501  0.436508  1
  Nb  Nb8  1  0.436137  0.064704  0.435902  1
  Nb  Nb9  1  0.064704  0.436136  0.063266  1
  Nb  Nb10  1  0.064698  0.436139  0.435902  1
  Nb  Nb11  1  0.436136  0.064710  0.063258  1
  Ga  Ga12  1  0.754028  0.412670  0.416649  1
  Ga  Ga13  1  0.412671  0.754037  0.416644  1
  Ga  Ga14  1  0.414602  0.414596  0.752015  1
  Ga  Ga15  1  0.414601  0.414595  0.418785  1
  Ga  Ga16  1  0.495972  0.837330  0.833351  1
  Ga  Ga17  1  0.837329  0.495963  0.833356  1
  Ga  Ga18  1  0.835398  0.835404  0.497985  1
  Ga  Ga19  1  0.835399  0.835405  0.831215  1
  Cu  Cu20  1  0.625000  0.625000  0.125000  1
  Cu  Cu21  1  0.625000  0.625000  0.625000  1
  Ni  Ni22  1  0.125000  0.625000  0.625000  1
  Ni  Ni23  1  0.625000  0.125000  0.625000  1
  C  C24  1  0.625000  0.125000  0.125000  1
  C  C25  1  0.125000  0.625000  0.125000  1
  C  C26  1  0.125000  0.125000  0.625000  1
  C  C27  1  0.125000  0.125000  0.125000  1
