# generated using pymatgen
data_Sc6Nb2Al13Os7W
_symmetry_space_group_name_H-M   'P 1'
_cell_length_a   8.86020169
_cell_length_b   8.86020257
_cell_length_c   8.84811700
_cell_angle_alpha   59.87375152
_cell_angle_beta   59.87374411
_cell_angle_gamma   59.83299919
_symmetry_Int_Tables_number   1
_chemical_formula_structural   Sc6Nb2Al13Os7W
_chemical_formula_sum   'Sc6 Nb2 Al13 Os7 W1'
_cell_volume   489.60143538
_cell_formula_units_Z   1
loop_
 _symmetry_equiv_pos_site_id
 _symmetry_equiv_pos_as_xyz
  1  'x, y, z'
loop_
 _atom_site_type_symbol
 _atom_site_label
 _atom_site_symmetry_multiplicity
 _atom_site_fract_x
 _atom_site_fract_y
 _atom_site_fract_z
 _atom_site_occupancy
  Sc  Sc0  1  0.715627  0.715627  0.275962  1
  Sc  Sc1  1  0.288503  0.712181  0.289480  1
  Sc  Sc2  1  0.712181  0.288503  0.289480  1
  Sc  Sc3  1  0.289722  0.289722  0.711086  1
  Sc  Sc4  1  0.714421  0.276804  0.714723  1
  Sc  Sc5  1  0.276804  0.714421  0.714723  1
  Nb  Nb6  1  0.877958  0.362972  0.876663  1
  Nb  Nb7  1  0.362972  0.877958  0.876663  1
  Al  Al8  1  0.880653  0.880653  0.879948  1
  Al  Al9  1  0.121077  0.121077  0.637704  1
  Al  Al10  1  0.121774  0.636673  0.121223  1
  Al  Al11  1  0.636673  0.121774  0.121223  1
  Al  Al12  1  0.121998  0.121998  0.121691  1
  Al  Al13  1  0.666027  0.666027  0.008171  1
  Al  Al14  1  0.666783  0.007761  0.665826  1
  Al  Al15  1  0.007761  0.666783  0.665826  1
  Al  Al16  1  0.659139  0.659139  0.659063  1
  Al  Al17  1  0.335880  0.335880  0.994830  1
  Al  Al18  1  0.335807  0.994026  0.336493  1
  Al  Al19  1  0.994026  0.335807  0.336493  1
  Al  Al20  1  0.336033  0.336033  0.336252  1
  Os  Os21  1  0.998903  0.998903  0.008858  1
  Os  Os22  1  0.998404  0.998404  0.496356  1
  Os  Os23  1  0.506938  0.996971  0.499951  1
  Os  Os24  1  0.996971  0.506938  0.499951  1
  Os  Os25  1  0.502529  0.502529  0.997866  1
  Os  Os26  1  0.999104  0.499298  0.999108  1
  Os  Os27  1  0.499298  0.999104  0.999108  1
  W  W28  1  0.876036  0.876036  0.365275  1
