# generated using pymatgen
data_ZrCo2Si2Mo
_symmetry_space_group_name_H-M   'P 1'
_cell_length_a   3.70062400
_cell_length_b   6.25680200
_cell_length_c   7.09487400
_cell_angle_alpha   90.00000000
_cell_angle_beta   90.00000000
_cell_angle_gamma   90.00000000
_symmetry_Int_Tables_number   1
_chemical_formula_structural   ZrCo2Si2Mo
_chemical_formula_sum   'Zr2 Co4 Si4 Mo2'
_cell_volume   164.27522090
_cell_formula_units_Z   2
loop_
 _symmetry_equiv_pos_site_id
 _symmetry_equiv_pos_as_xyz
  1  'x, y, z'
loop_
 _atom_site_type_symbol
 _atom_site_label
 _atom_site_symmetry_multiplicity
 _atom_site_fract_x
 _atom_site_fract_y
 _atom_site_fract_z
 _atom_site_occupancy
  Zr  Zr0  1  0.750000  0.977454  0.678308  1
  Zr  Zr1  1  0.750000  0.477454  0.821692  1
  Co  Co2  1  0.250000  0.144048  0.939842  1
  Co  Co3  1  0.250000  0.644048  0.560158  1
  Co  Co4  1  0.750000  0.860332  0.065735  1
  Co  Co5  1  0.750000  0.360332  0.434265  1
  Si  Si6  1  0.250000  0.275983  0.599587  1
  Si  Si7  1  0.250000  0.775983  0.900413  1
  Si  Si8  1  0.750000  0.723189  0.370570  1
  Si  Si9  1  0.750000  0.223189  0.129430  1
  Mo  Mo10  1  0.250000  0.018994  0.314363  1
  Mo  Mo11  1  0.250000  0.518994  0.185637  1
