# generated using pymatgen
data_Pr3Sn2Ir
_symmetry_space_group_name_H-M   'P 1'
_cell_length_a   4.51973200
_cell_length_b   12.10147800
_cell_length_c   12.87435400
_cell_angle_alpha   90.00000000
_cell_angle_beta   90.00000000
_cell_angle_gamma   90.00000000
_symmetry_Int_Tables_number   1
_chemical_formula_structural   Pr3Sn2Ir
_chemical_formula_sum   'Pr12 Sn8 Ir4'
_cell_volume   704.16842281
_cell_formula_units_Z   4
loop_
 _symmetry_equiv_pos_site_id
 _symmetry_equiv_pos_as_xyz
  1  'x, y, z'
loop_
 _atom_site_type_symbol
 _atom_site_label
 _atom_site_symmetry_multiplicity
 _atom_site_fract_x
 _atom_site_fract_y
 _atom_site_fract_z
 _atom_site_occupancy
  Pr  Pr0  1  0.250000  0.048567  0.882135  1
  Pr  Pr1  1  0.250000  0.451433  0.382135  1
  Pr  Pr2  1  0.750000  0.951433  0.117865  1
  Pr  Pr3  1  0.750000  0.548567  0.617865  1
  Pr  Pr4  1  0.250000  0.130618  0.555151  1
  Pr  Pr5  1  0.250000  0.369382  0.055151  1
  Pr  Pr6  1  0.750000  0.869382  0.444849  1
  Pr  Pr7  1  0.750000  0.630618  0.944849  1
  Pr  Pr8  1  0.250000  0.794049  0.736333  1
  Pr  Pr9  1  0.250000  0.705951  0.236333  1
  Pr  Pr10  1  0.750000  0.205951  0.263667  1
  Pr  Pr11  1  0.750000  0.294049  0.763667  1
  Sn  Sn12  1  0.250000  0.808389  0.993036  1
  Sn  Sn13  1  0.250000  0.691611  0.493036  1
  Sn  Sn14  1  0.750000  0.191611  0.006964  1
  Sn  Sn15  1  0.750000  0.308389  0.506964  1
  Sn  Sn16  1  0.250000  0.498220  0.809668  1
  Sn  Sn17  1  0.250000  0.001780  0.309668  1
  Sn  Sn18  1  0.750000  0.501780  0.190332  1
  Sn  Sn19  1  0.750000  0.998220  0.690332  1
  Ir  Ir20  1  0.250000  0.369350  0.628499  1
  Ir  Ir21  1  0.250000  0.130650  0.128499  1
  Ir  Ir22  1  0.750000  0.630650  0.371501  1
  Ir  Ir23  1  0.750000  0.869350  0.871501  1
