# generated using pymatgen
data_Er2CrFe(Co4P3)2
_symmetry_space_group_name_H-M   'P 1'
_cell_length_a   3.64447700
_cell_length_b   10.28318200
_cell_length_c   11.79224700
_cell_angle_alpha   90.00000000
_cell_angle_beta   90.00000000
_cell_angle_gamma   90.00000000
_symmetry_Int_Tables_number   1
_chemical_formula_structural   Er2CrFe(Co4P3)2
_chemical_formula_sum   'Er4 Cr2 Fe2 Co16 P12'
_cell_volume   441.93592158
_cell_formula_units_Z   2
loop_
 _symmetry_equiv_pos_site_id
 _symmetry_equiv_pos_as_xyz
  1  'x, y, z'
loop_
 _atom_site_type_symbol
 _atom_site_label
 _atom_site_symmetry_multiplicity
 _atom_site_fract_x
 _atom_site_fract_y
 _atom_site_fract_z
 _atom_site_occupancy
  Er  Er0  1  0.250000  0.582760  0.705193  1
  Er  Er1  1  0.250000  0.917240  0.205193  1
  Er  Er2  1  0.750000  0.418932  0.296451  1
  Er  Er3  1  0.750000  0.081068  0.796451  1
  Cr  Cr4  1  0.750000  0.291313  0.009703  1
  Cr  Cr5  1  0.750000  0.208687  0.509703  1
  Fe  Fe6  1  0.250000  0.710623  0.989542  1
  Fe  Fe7  1  0.250000  0.789377  0.489542  1
  Co  Co8  1  0.250000  0.405790  0.488064  1
  Co  Co9  1  0.250000  0.094210  0.988064  1
  Co  Co10  1  0.750000  0.593405  0.512171  1
  Co  Co11  1  0.750000  0.906595  0.012171  1
  Co  Co12  1  0.250000  0.220488  0.176014  1
  Co  Co13  1  0.250000  0.279512  0.676014  1
  Co  Co14  1  0.750000  0.777961  0.822700  1
  Co  Co15  1  0.750000  0.722039  0.322700  1
  Co  Co16  1  0.250000  0.883185  0.698899  1
  Co  Co17  1  0.250000  0.616815  0.198899  1
  Co  Co18  1  0.750000  0.116527  0.300392  1
  Co  Co19  1  0.750000  0.383473  0.800392  1
  Co  Co20  1  0.250000  0.465346  0.932633  1
  Co  Co21  1  0.250000  0.034654  0.432633  1
  Co  Co22  1  0.750000  0.534693  0.067593  1
  Co  Co23  1  0.750000  0.965307  0.567593  1
  P  P24  1  0.250000  0.419646  0.113915  1
  P  P25  1  0.250000  0.080354  0.613915  1
  P  P26  1  0.750000  0.581757  0.887655  1
  P  P27  1  0.750000  0.918243  0.387655  1
  P  P28  1  0.250000  0.269150  0.866486  1
  P  P29  1  0.250000  0.230850  0.366486  1
  P  P30  1  0.750000  0.731690  0.131447  1
  P  P31  1  0.750000  0.768310  0.631447  1
  P  P32  1  0.250000  0.602956  0.391750  1
  P  P33  1  0.250000  0.897044  0.891750  1
  P  P34  1  0.750000  0.403559  0.609393  1
  P  P35  1  0.750000  0.096441  0.109393  1
