# generated using pymatgen
data_Cs4TbNpCl10
_symmetry_space_group_name_H-M   'P 1'
_cell_length_a   7.61759100
_cell_length_b   9.88626447
_cell_length_c   15.56528700
_cell_angle_alpha   89.26048032
_cell_angle_beta   90.00000000
_cell_angle_gamma   90.00000000
_symmetry_Int_Tables_number   1
_chemical_formula_structural   Cs4TbNpCl10
_chemical_formula_sum   'Cs8 Tb2 Np2 Cl20'
_cell_volume   1172.11664213
_cell_formula_units_Z   2
loop_
 _symmetry_equiv_pos_site_id
 _symmetry_equiv_pos_as_xyz
  1  'x, y, z'
loop_
 _atom_site_type_symbol
 _atom_site_label
 _atom_site_symmetry_multiplicity
 _atom_site_fract_x
 _atom_site_fract_y
 _atom_site_fract_z
 _atom_site_occupancy
  Cs  Cs0  1  0.250000  0.664032  0.918398  1
  Cs  Cs1  1  0.750000  0.335968  0.081602  1
  Cs  Cs2  1  0.750000  0.836453  0.415562  1
  Cs  Cs3  1  0.250000  0.163547  0.584438  1
  Cs  Cs4  1  0.250000  0.973190  0.208349  1
  Cs  Cs5  1  0.750000  0.026810  0.791651  1
  Cs  Cs6  1  0.750000  0.525254  0.711812  1
  Cs  Cs7  1  0.250000  0.474746  0.288188  1
  Tb  Tb8  1  0.750000  0.822594  0.064109  1
  Tb  Tb9  1  0.250000  0.177406  0.935891  1
  Np  Np10  1  0.250000  0.681765  0.566007  1
  Np  Np11  1  0.750000  0.318235  0.433993  1
  Cl  Cl12  1  0.250000  0.520872  0.706205  1
  Cl  Cl13  1  0.750000  0.479128  0.293795  1
  Cl  Cl14  1  0.750000  0.976143  0.200479  1
  Cl  Cl15  1  0.250000  0.023857  0.799521  1
  Cl  Cl16  1  0.510168  0.839929  0.619671  1
  Cl  Cl17  1  0.489832  0.160071  0.380329  1
  Cl  Cl18  1  0.496222  0.667754  0.116393  1
  Cl  Cl19  1  0.010168  0.160071  0.380329  1
  Cl  Cl20  1  0.503778  0.332246  0.883607  1
  Cl  Cl21  1  0.989832  0.839929  0.619671  1
  Cl  Cl22  1  0.996222  0.332246  0.883607  1
  Cl  Cl23  1  0.003778  0.667754  0.116393  1
  Cl  Cl24  1  0.250000  0.785880  0.401334  1
  Cl  Cl25  1  0.750000  0.214120  0.598666  1
  Cl  Cl26  1  0.750000  0.715604  0.906576  1
  Cl  Cl27  1  0.250000  0.284396  0.093424  1
  Cl  Cl28  1  0.000000  0.500000  0.500000  1
  Cl  Cl29  1  0.000000  0.000000  0.000000  1
  Cl  Cl30  1  0.500000  0.500000  0.500000  1
  Cl  Cl31  1  0.500000  0.000000  0.000000  1
