# generated using pymatgen
data_DyHo3Al15(SiRh2)3
_symmetry_space_group_name_H-M   'P 1'
_cell_length_a   7.53375456
_cell_length_b   7.48751958
_cell_length_c   9.39451527
_cell_angle_alpha   89.98459867
_cell_angle_beta   89.93569218
_cell_angle_gamma   119.82067770
_symmetry_Int_Tables_number   1
_chemical_formula_structural   DyHo3Al15(SiRh2)3
_chemical_formula_sum   'Dy1 Ho3 Al15 Si3 Rh6'
_cell_volume   459.76499351
_cell_formula_units_Z   1
loop_
 _symmetry_equiv_pos_site_id
 _symmetry_equiv_pos_as_xyz
  1  'x, y, z'
loop_
 _atom_site_type_symbol
 _atom_site_label
 _atom_site_symmetry_multiplicity
 _atom_site_fract_x
 _atom_site_fract_y
 _atom_site_fract_z
 _atom_site_occupancy
  Dy  Dy0  1  0.319658  0.991996  0.249814  1
  Ho  Ho1  1  0.994600  0.664004  0.747405  1
  Ho  Ho2  1  0.006009  0.342279  0.254022  1
  Ho  Ho3  1  0.675005  0.001044  0.747707  1
  Al  Al4  1  0.128107  0.125633  0.750009  1
  Al  Al5  1  0.871808  0.871835  0.249253  1
  Al  Al6  1  0.338742  0.002850  0.923206  1
  Al  Al7  1  0.001279  0.330037  0.929523  1
  Al  Al8  1  0.666353  0.002172  0.075418  1
  Al  Al9  1  0.662308  0.998121  0.422321  1
  Al  Al10  1  0.338616  0.002924  0.577115  1
  Al  Al11  1  0.333198  0.331488  0.055674  1
  Al  Al12  1  0.664034  0.668028  0.945365  1
  Al  Al13  1  0.663559  0.667540  0.556103  1
  Al  Al14  1  0.335609  0.332003  0.444652  1
  Al  Al15  1  0.337757  0.550214  0.750211  1
  Al  Al16  1  0.661860  0.450612  0.250370  1
  Al  Al17  1  0.548494  0.342978  0.749916  1
  Al  Al18  1  0.455077  0.658150  0.249759  1
  Si  Si19  1  0.002264  0.328371  0.576008  1
  Si  Si20  1  0.996957  0.671962  0.430685  1
  Si  Si21  1  0.998066  0.665556  0.065076  1
  Rh  Rh22  1  0.689723  0.337556  0.501484  1
  Rh  Rh23  1  0.310489  0.662761  0.497395  1
  Rh  Rh24  1  0.319344  0.670478  0.002649  1
  Rh  Rh25  1  0.680170  0.336169  0.999471  1
  Rh  Rh26  1  0.999993  0.000197  0.499296  1
  Rh  Rh27  1  0.000919  0.993040  0.000092  1
