# generated using pymatgen
data_Hf18Ta3Ni2Os2W3
_symmetry_space_group_name_H-M   'P 1'
_cell_length_a   8.71372775
_cell_length_b   8.68332720
_cell_length_c   8.50676500
_cell_angle_alpha   90.00000000
_cell_angle_beta   90.00000000
_cell_angle_gamma   119.88174074
_symmetry_Int_Tables_number   1
_chemical_formula_structural   Hf18Ta3Ni2Os2W3
_chemical_formula_sum   'Hf18 Ta3 Ni2 Os2 W3'
_cell_volume   558.08650143
_cell_formula_units_Z   1
loop_
 _symmetry_equiv_pos_site_id
 _symmetry_equiv_pos_as_xyz
  1  'x, y, z'
loop_
 _atom_site_type_symbol
 _atom_site_label
 _atom_site_symmetry_multiplicity
 _atom_site_fract_x
 _atom_site_fract_y
 _atom_site_fract_z
 _atom_site_occupancy
  Hf  Hf0  1  0.201801  0.799569  0.443297  1
  Hf  Hf1  1  0.201793  0.402225  0.443289  1
  Hf  Hf2  1  0.599379  0.799688  0.441066  1
  Hf  Hf3  1  0.800418  0.200074  0.559082  1
  Hf  Hf4  1  0.800424  0.600346  0.559088  1
  Hf  Hf5  1  0.401970  0.200988  0.559044  1
  Hf  Hf6  1  0.800418  0.200074  0.940918  1
  Hf  Hf7  1  0.800424  0.600346  0.940912  1
  Hf  Hf8  1  0.401970  0.200988  0.940956  1
  Hf  Hf9  1  0.201801  0.799569  0.056703  1
  Hf  Hf10  1  0.201793  0.402225  0.056711  1
  Hf  Hf11  1  0.599379  0.799688  0.058934  1
  Hf  Hf12  1  0.543823  0.458083  0.250000  1
  Hf  Hf13  1  0.543828  0.085727  0.250000  1
  Hf  Hf14  1  0.914853  0.457433  0.250000  1
  Hf  Hf15  1  0.457417  0.542287  0.750000  1
  Hf  Hf16  1  0.457429  0.915156  0.750000  1
  Hf  Hf17  1  0.083362  0.541670  0.750000  1
  Ta  Ta18  1  0.227900  0.113943  0.250000  1
  Ta  Ta19  1  0.995641  0.997819  0.497284  1
  Ta  Ta20  1  0.995641  0.997819  0.002716  1
  Ni  Ni21  1  0.335144  0.667581  0.250000  1
  Ni  Ni22  1  0.667814  0.333909  0.750000  1
  Os  Os23  1  0.885236  0.115550  0.250000  1
  Os  Os24  1  0.885244  0.769693  0.250000  1
  W  W25  1  0.111586  0.884839  0.750000  1
  W  W26  1  0.111583  0.226750  0.750000  1
  W  W27  1  0.771936  0.885968  0.750000  1
