# generated using pymatgen
data_CsPrSnSe4
_symmetry_space_group_name_H-M   'P 1'
_cell_length_a   7.17587804
_cell_length_b   7.39007800
_cell_length_c   9.97624123
_cell_angle_alpha   89.99809658
_cell_angle_beta   107.47288762
_cell_angle_gamma   89.99738702
_symmetry_Int_Tables_number   1
_chemical_formula_structural   CsPrSnSe4
_chemical_formula_sum   'Cs2 Pr2 Sn2 Se8'
_cell_volume   504.63254638
_cell_formula_units_Z   2
loop_
 _symmetry_equiv_pos_site_id
 _symmetry_equiv_pos_as_xyz
  1  'x, y, z'
loop_
 _atom_site_type_symbol
 _atom_site_label
 _atom_site_symmetry_multiplicity
 _atom_site_fract_x
 _atom_site_fract_y
 _atom_site_fract_z
 _atom_site_occupancy
  Cs  Cs0  1  0.264120  0.010948  0.064906  1
  Cs  Cs1  1  0.735886  0.510936  0.935083  1
  Pr  Pr2  1  0.774399  0.489941  0.451951  1
  Pr  Pr3  1  0.225607  0.989926  0.548063  1
  Sn  Sn4  1  0.226763  0.520122  0.333453  1
  Sn  Sn5  1  0.773239  0.020134  0.666547  1
  Se  Se6  1  0.440857  0.522074  0.174055  1
  Se  Se7  1  0.963590  0.766540  0.292307  1
  Se  Se8  1  0.005478  0.242155  0.306494  1
  Se  Se9  1  0.549791  0.109083  0.424859  1
  Se  Se10  1  0.450214  0.609091  0.575126  1
  Se  Se11  1  0.994513  0.742136  0.693512  1
  Se  Se12  1  0.036398  0.266523  0.707699  1
  Se  Se13  1  0.559146  0.022070  0.825947  1
