# generated using pymatgen
data_GdLuB6W
_symmetry_space_group_name_H-M   'P 1'
_cell_length_a   3.58632900
_cell_length_b   9.27479700
_cell_length_c   11.69210100
_cell_angle_alpha   90.00000000
_cell_angle_beta   90.00000000
_cell_angle_gamma   90.00000000
_symmetry_Int_Tables_number   1
_chemical_formula_structural   GdLuB6W
_chemical_formula_sum   'Gd4 Lu4 B24 W4'
_cell_volume   388.90819909
_cell_formula_units_Z   4
loop_
 _symmetry_equiv_pos_site_id
 _symmetry_equiv_pos_as_xyz
  1  'x, y, z'
loop_
 _atom_site_type_symbol
 _atom_site_label
 _atom_site_symmetry_multiplicity
 _atom_site_fract_x
 _atom_site_fract_y
 _atom_site_fract_z
 _atom_site_occupancy
  Gd  Gd0  1  0.000000  0.320488  0.413902  1
  Gd  Gd1  1  0.000000  0.679512  0.586098  1
  Gd  Gd2  1  0.000000  0.820488  0.086098  1
  Gd  Gd3  1  0.000000  0.179512  0.913902  1
  Lu  Lu4  1  0.000000  0.944401  0.371993  1
  Lu  Lu5  1  0.000000  0.055599  0.628007  1
  Lu  Lu6  1  0.000000  0.444401  0.128007  1
  Lu  Lu7  1  0.000000  0.555599  0.871993  1
  B  B8  1  0.500000  0.552290  0.433862  1
  B  B9  1  0.500000  0.447710  0.566138  1
  B  B10  1  0.500000  0.052290  0.066138  1
  B  B11  1  0.500000  0.947710  0.933862  1
  B  B12  1  0.500000  0.753167  0.420310  1
  B  B13  1  0.500000  0.246833  0.579690  1
  B  B14  1  0.500000  0.253167  0.079690  1
  B  B15  1  0.500000  0.746833  0.920310  1
  B  B16  1  0.500000  0.795381  0.264528  1
  B  B17  1  0.500000  0.204619  0.735472  1
  B  B18  1  0.500000  0.295381  0.235472  1
  B  B19  1  0.500000  0.704619  0.764528  1
  B  B20  1  0.500000  0.630132  0.183015  1
  B  B21  1  0.500000  0.369868  0.816985  1
  B  B22  1  0.500000  0.130132  0.316985  1
  B  B23  1  0.500000  0.869868  0.683015  1
  B  B24  1  0.500000  0.979232  0.213581  1
  B  B25  1  0.500000  0.020768  0.786419  1
  B  B26  1  0.500000  0.479232  0.286419  1
  B  B27  1  0.500000  0.520768  0.713581  1
  B  B28  1  0.500000  0.597814  0.027278  1
  B  B29  1  0.500000  0.402186  0.972722  1
  B  B30  1  0.500000  0.097814  0.472722  1
  B  B31  1  0.500000  0.902186  0.527278  1
  W  W32  1  0.000000  0.640079  0.319733  1
  W  W33  1  0.000000  0.359921  0.680267  1
  W  W34  1  0.000000  0.140079  0.180267  1
  W  W35  1  0.000000  0.859921  0.819733  1
