# generated using pymatgen
data_Dy3Ho13Cd4CoRu3
_symmetry_space_group_name_H-M   'P 1'
_cell_length_a   9.58361405
_cell_length_b   9.58961583
_cell_length_c   9.50983934
_cell_angle_alpha   59.72256555
_cell_angle_beta   59.69938933
_cell_angle_gamma   59.97333552
_symmetry_Int_Tables_number   1
_chemical_formula_structural   Dy3Ho13Cd4CoRu3
_chemical_formula_sum   'Dy3 Ho13 Cd4 Co1 Ru3'
_cell_volume   615.16373323
_cell_formula_units_Z   1
loop_
 _symmetry_equiv_pos_site_id
 _symmetry_equiv_pos_as_xyz
  1  'x, y, z'
loop_
 _atom_site_type_symbol
 _atom_site_label
 _atom_site_symmetry_multiplicity
 _atom_site_fract_x
 _atom_site_fract_y
 _atom_site_fract_z
 _atom_site_occupancy
  Dy  Dy0  1  0.937803  0.937676  0.560643  1
  Dy  Dy1  1  0.811196  0.190367  0.186910  1
  Dy  Dy2  1  0.937725  0.563991  0.560529  1
  Ho  Ho3  1  0.939212  0.560997  0.938977  1
  Ho  Ho4  1  0.811125  0.811463  0.186897  1
  Ho  Ho5  1  0.344221  0.344029  0.351155  1
  Ho  Ho6  1  0.561102  0.938947  0.938858  1
  Ho  Ho7  1  0.563999  0.937663  0.560566  1
  Ho  Ho8  1  0.188498  0.815595  0.807569  1
  Ho  Ho9  1  0.188676  0.188360  0.807369  1
  Ho  Ho10  1  0.346333  0.346267  0.961025  1
  Ho  Ho11  1  0.344411  0.960525  0.351019  1
  Ho  Ho12  1  0.815208  0.188628  0.807362  1
  Ho  Ho13  1  0.561045  0.561243  0.938727  1
  Ho  Ho14  1  0.190077  0.811377  0.187044  1
  Ho  Ho15  1  0.960977  0.344016  0.351162  1
  Cd  Cd16  1  0.580564  0.580940  0.257667  1
  Cd  Cd17  1  0.258961  0.580646  0.579733  1
  Cd  Cd18  1  0.580395  0.580796  0.579655  1
  Cd  Cd19  1  0.580344  0.259170  0.579732  1
  Co  Co20  1  0.140422  0.139904  0.579838  1
  Ru  Ru21  1  0.580402  0.138324  0.142905  1
  Ru  Ru22  1  0.138695  0.138219  0.142336  1
  Ru  Ru23  1  0.138609  0.580859  0.142324  1
