# generated using pymatgen
data_DyEr2Mg3AgSn2
_symmetry_space_group_name_H-M   'P 1'
_cell_length_a   7.49690733
_cell_length_b   7.49690711
_cell_length_c   4.51156900
_cell_angle_alpha   90.00000000
_cell_angle_beta   90.00000000
_cell_angle_gamma   120.12320249
_symmetry_Int_Tables_number   1
_chemical_formula_structural   DyEr2Mg3AgSn2
_chemical_formula_sum   'Dy1 Er2 Mg3 Ag1 Sn2'
_cell_volume   219.32190267
_cell_formula_units_Z   1
loop_
 _symmetry_equiv_pos_site_id
 _symmetry_equiv_pos_as_xyz
  1  'x, y, z'
loop_
 _atom_site_type_symbol
 _atom_site_label
 _atom_site_symmetry_multiplicity
 _atom_site_fract_x
 _atom_site_fract_y
 _atom_site_fract_z
 _atom_site_occupancy
  Dy  Dy0  1  0.415270  0.415270  0.500000  1
  Er  Er1  1  0.585029  0.000213  0.500000  1
  Er  Er2  1  0.000213  0.585029  0.500000  1
  Mg  Mg3  1  0.762641  0.762641  0.000000  1
  Mg  Mg4  1  0.237502  0.999963  0.000000  1
  Mg  Mg5  1  0.999963  0.237502  0.000000  1
  Ag  Ag6  1  0.999123  0.999123  0.500000  1
  Sn  Sn7  1  0.667125  0.333136  0.000000  1
  Sn  Sn8  1  0.333136  0.667125  0.000000  1
