# generated using pymatgen
data_UCl4F
_symmetry_space_group_name_H-M   'P 1'
_cell_length_a   6.91638832
_cell_length_b   6.91638764
_cell_length_c   6.91638749
_cell_angle_alpha   96.09717345
_cell_angle_beta   96.09716779
_cell_angle_gamma   141.95899962
_symmetry_Int_Tables_number   1
_chemical_formula_structural   UCl4F
_chemical_formula_sum   'U1 Cl4 F1'
_cell_volume   192.74983762
_cell_formula_units_Z   1
loop_
 _symmetry_equiv_pos_site_id
 _symmetry_equiv_pos_as_xyz
  1  'x, y, z'
loop_
 _atom_site_type_symbol
 _atom_site_label
 _atom_site_symmetry_multiplicity
 _atom_site_fract_x
 _atom_site_fract_y
 _atom_site_fract_z
 _atom_site_occupancy
  U  U0  1  0.000000  0.000000  0.000000  1
  Cl  Cl1  1  0.257918  0.073789  0.331707  1
  Cl  Cl2  1  0.742082  0.926211  0.668293  1
  Cl  Cl3  1  0.073789  0.742082  0.815871  1
  Cl  Cl4  1  0.926211  0.257918  0.184129  1
  F  F5  1  0.500000  0.500000  0.000000  1
