# generated using pymatgen
data_Yb20Si11Hg
_symmetry_space_group_name_H-M   'P 1'
_cell_length_a   7.70110100
_cell_length_b   7.70110100
_cell_length_c   14.30849400
_cell_angle_alpha   90.00000000
_cell_angle_beta   90.00000000
_cell_angle_gamma   90.00000000
_symmetry_Int_Tables_number   1
_chemical_formula_structural   Yb20Si11Hg
_chemical_formula_sum   'Yb20 Si11 Hg1'
_cell_volume   848.59323284
_cell_formula_units_Z   1
loop_
 _symmetry_equiv_pos_site_id
 _symmetry_equiv_pos_as_xyz
  1  'x, y, z'
loop_
 _atom_site_type_symbol
 _atom_site_label
 _atom_site_symmetry_multiplicity
 _atom_site_fract_x
 _atom_site_fract_y
 _atom_site_fract_z
 _atom_site_occupancy
  Yb  Yb0  1  0.500000  0.000000  0.770205  1
  Yb  Yb1  1  0.326826  0.314487  0.106969  1
  Yb  Yb2  1  0.826944  0.813503  0.892992  1
  Yb  Yb3  1  0.000000  0.500000  0.232697  1
  Yb  Yb4  1  0.820424  0.174508  0.391195  1
  Yb  Yb5  1  0.173056  0.186497  0.892992  1
  Yb  Yb6  1  0.673174  0.685513  0.106969  1
  Yb  Yb7  1  0.000000  0.500000  0.744512  1
  Yb  Yb8  1  0.809531  0.837229  0.608077  1
  Yb  Yb9  1  0.325492  0.320424  0.391195  1
  Yb  Yb10  1  0.185513  0.826826  0.106969  1
  Yb  Yb11  1  0.190469  0.162771  0.608077  1
  Yb  Yb12  1  0.814487  0.173174  0.106969  1
  Yb  Yb13  1  0.337229  0.690469  0.608077  1
  Yb  Yb14  1  0.500000  0.000000  0.256454  1
  Yb  Yb15  1  0.686497  0.326944  0.892992  1
  Yb  Yb16  1  0.662771  0.309531  0.608077  1
  Yb  Yb17  1  0.313503  0.673056  0.892992  1
  Yb  Yb18  1  0.179576  0.825492  0.391195  1
  Yb  Yb19  1  0.674508  0.679576  0.391195  1
  Si  Si20  1  0.614312  0.390422  0.248915  1
  Si  Si21  1  0.889529  0.113251  0.750867  1
  Si  Si22  1  0.500000  0.000000  0.491914  1
  Si  Si23  1  0.890422  0.885688  0.248915  1
  Si  Si24  1  0.000000  0.500000  0.003303  1
  Si  Si25  1  0.110471  0.886749  0.750867  1
  Si  Si26  1  0.386749  0.389529  0.750867  1
  Si  Si27  1  0.109578  0.114312  0.248915  1
  Si  Si28  1  0.385688  0.609578  0.248915  1
  Si  Si29  1  0.613251  0.610471  0.750867  1
  Si  Si30  1  0.500000  0.000000  0.996146  1
  Hg  Hg31  1  0.000000  0.500000  0.508709  1
