# generated using pymatgen
data_Sr5(AsPd)6
_symmetry_space_group_name_H-M   'P 1'
_cell_length_a   4.37288900
_cell_length_b   8.84046300
_cell_length_c   20.17239000
_cell_angle_alpha   90.00000000
_cell_angle_beta   90.00000000
_cell_angle_gamma   90.00000000
_symmetry_Int_Tables_number   1
_chemical_formula_structural   Sr5(AsPd)6
_chemical_formula_sum   'Sr10 As12 Pd12'
_cell_volume   779.83158342
_cell_formula_units_Z   2
loop_
 _symmetry_equiv_pos_site_id
 _symmetry_equiv_pos_as_xyz
  1  'x, y, z'
loop_
 _atom_site_type_symbol
 _atom_site_label
 _atom_site_symmetry_multiplicity
 _atom_site_fract_x
 _atom_site_fract_y
 _atom_site_fract_z
 _atom_site_occupancy
  Sr  Sr0  1  0.500000  0.993995  0.682423  1
  Sr  Sr1  1  0.000000  0.001729  0.127381  1
  Sr  Sr2  1  0.500000  0.493995  0.317577  1
  Sr  Sr3  1  0.500000  0.506005  0.682423  1
  Sr  Sr4  1  0.000000  0.998271  0.872619  1
  Sr  Sr5  1  0.500000  0.006005  0.317577  1
  Sr  Sr6  1  0.000000  0.000000  0.500000  1
  Sr  Sr7  1  0.000000  0.498271  0.127381  1
  Sr  Sr8  1  0.000000  0.501729  0.872619  1
  Sr  Sr9  1  0.000000  0.500000  0.500000  1
  As  As10  1  0.500000  0.750000  0.560463  1
  As  As11  1  0.000000  0.750000  0.251974  1
  As  As12  1  0.000000  0.250000  0.748026  1
  As  As13  1  0.500000  0.750000  0.072582  1
  As  As14  1  0.000000  0.250000  0.252819  1
  As  As15  1  0.500000  0.250000  0.927418  1
  As  As16  1  0.500000  0.250000  0.070849  1
  As  As17  1  0.500000  0.750000  0.929151  1
  As  As18  1  0.000000  0.750000  0.747181  1
  As  As19  1  0.000000  0.750000  0.377221  1
  As  As20  1  0.000000  0.250000  0.622779  1
  As  As21  1  0.500000  0.250000  0.439537  1
  Pd  Pd22  1  0.000000  0.750000  0.621728  1
  Pd  Pd23  1  0.500000  0.250000  0.193835  1
  Pd  Pd24  1  0.500000  0.250000  0.564518  1
  Pd  Pd25  1  0.000000  0.250000  0.378272  1
  Pd  Pd26  1  0.500000  0.250000  0.803722  1
  Pd  Pd27  1  0.000000  0.250000  0.998827  1
  Pd  Pd28  1  0.500000  0.750000  0.806165  1
  Pd  Pd29  1  0.500000  0.750000  0.196278  1
  Pd  Pd30  1  0.000000  0.750000  0.001173  1
  Pd  Pd31  1  0.500000  0.000000  0.000000  1
  Pd  Pd32  1  0.500000  0.500000  0.000000  1
  Pd  Pd33  1  0.500000  0.750000  0.435482  1
