# generated using pymatgen
data_Sr8Ge12Pd3Au
_symmetry_space_group_name_H-M   'P 1'
_cell_length_a   8.71363000
_cell_length_b   8.71363265
_cell_length_c   9.11517800
_cell_angle_alpha   89.99998685
_cell_angle_beta   90.00001315
_cell_angle_gamma   119.99998994
_symmetry_Int_Tables_number   1
_chemical_formula_structural   Sr8Ge12Pd3Au
_chemical_formula_sum   'Sr8 Ge12 Pd3 Au1'
_cell_volume   599.36888203
_cell_formula_units_Z   1
loop_
 _symmetry_equiv_pos_site_id
 _symmetry_equiv_pos_as_xyz
  1  'x, y, z'
loop_
 _atom_site_type_symbol
 _atom_site_label
 _atom_site_symmetry_multiplicity
 _atom_site_fract_x
 _atom_site_fract_y
 _atom_site_fract_z
 _atom_site_occupancy
  Sr  Sr0  1  0.498356  0.501644  0.747149  1
  Sr  Sr1  1  0.499522  0.500478  0.252777  1
  Sr  Sr2  1  0.003288  0.501644  0.747149  1
  Sr  Sr3  1  0.000957  0.500478  0.252777  1
  Sr  Sr4  1  0.498356  0.996711  0.747149  1
  Sr  Sr5  1  0.499522  0.999043  0.252777  1
  Sr  Sr6  1  0.000000  0.000000  0.748518  1
  Sr  Sr7  1  0.000000  0.000000  0.251701  1
  Ge  Ge8  1  0.837578  0.162422  0.999684  1
  Ge  Ge9  1  0.168350  0.831650  0.000846  1
  Ge  Ge10  1  0.324844  0.162423  0.999684  1
  Ge  Ge11  1  0.166305  0.833695  0.499056  1
  Ge  Ge12  1  0.663301  0.831650  0.000846  1
  Ge  Ge13  1  0.833382  0.166618  0.500919  1
  Ge  Ge14  1  0.837578  0.675156  0.999684  1
  Ge  Ge15  1  0.667390  0.833695  0.499056  1
  Ge  Ge16  1  0.168350  0.336699  0.000846  1
  Ge  Ge17  1  0.333236  0.166618  0.500919  1
  Ge  Ge18  1  0.166305  0.332610  0.499056  1
  Ge  Ge19  1  0.833382  0.666764  0.500919  1
  Pd  Pd20  1  0.333333  0.666667  0.000719  1
  Pd  Pd21  1  0.333333  0.666667  0.499100  1
  Pd  Pd22  1  0.666667  0.333333  0.500853  1
  Au  Au23  1  0.666667  0.333333  0.997815  1
