# generated using pymatgen
data_Er4ThRu3
_symmetry_space_group_name_H-M   'P 1'
_cell_length_a   6.34816700
_cell_length_b   8.13340539
_cell_length_c   8.13340428
_cell_angle_alpha   118.98255817
_cell_angle_beta   90.00000000
_cell_angle_gamma   90.00000000
_symmetry_Int_Tables_number   1
_chemical_formula_structural   Er4ThRu3
_chemical_formula_sum   'Er8 Th2 Ru6'
_cell_volume   367.35473189
_cell_formula_units_Z   2
loop_
 _symmetry_equiv_pos_site_id
 _symmetry_equiv_pos_as_xyz
  1  'x, y, z'
loop_
 _atom_site_type_symbol
 _atom_site_label
 _atom_site_symmetry_multiplicity
 _atom_site_fract_x
 _atom_site_fract_y
 _atom_site_fract_z
 _atom_site_occupancy
  Er  Er0  1  0.000000  0.667496  0.332504  1
  Er  Er1  1  0.000000  0.332504  0.667496  1
  Er  Er2  1  0.500000  0.332504  0.667496  1
  Er  Er3  1  0.500000  0.667496  0.332504  1
  Er  Er4  1  0.750000  0.002161  0.260641  1
  Er  Er5  1  0.250000  0.997839  0.739359  1
  Er  Er6  1  0.750000  0.260641  0.002161  1
  Er  Er7  1  0.250000  0.739359  0.997839  1
  Th  Th8  1  0.750000  0.752050  0.752050  1
  Th  Th9  1  0.250000  0.247950  0.247950  1
  Ru  Ru10  1  0.750000  0.397264  0.397264  1
  Ru  Ru11  1  0.250000  0.602736  0.602736  1
  Ru  Ru12  1  0.750000  0.992190  0.610463  1
  Ru  Ru13  1  0.250000  0.007810  0.389537  1
  Ru  Ru14  1  0.750000  0.610463  0.992190  1
  Ru  Ru15  1  0.250000  0.389537  0.007810  1
