# generated using pymatgen
data_La2Dy14Y4ZnSi14Pt
_symmetry_space_group_name_H-M   'P 1'
_cell_length_a   7.44475976
_cell_length_b   7.83999253
_cell_length_c   14.68688106
_cell_angle_alpha   89.65591838
_cell_angle_beta   90.02263898
_cell_angle_gamma   89.99587972
_symmetry_Int_Tables_number   1
_chemical_formula_structural   La2Dy14Y4ZnSi14Pt
_chemical_formula_sum   'La2 Dy14 Y4 Zn1 Si14 Pt1'
_cell_volume   857.21161628
_cell_formula_units_Z   1
loop_
 _symmetry_equiv_pos_site_id
 _symmetry_equiv_pos_as_xyz
  1  'x, y, z'
loop_
 _atom_site_type_symbol
 _atom_site_label
 _atom_site_symmetry_multiplicity
 _atom_site_fract_x
 _atom_site_fract_y
 _atom_site_fract_z
 _atom_site_occupancy
  La  La0  1  0.522394  0.569215  0.341791  1
  La  La1  1  0.022531  0.428873  0.658925  1
  Dy  Dy2  1  0.807775  0.578914  0.875478  1
  Dy  Dy3  1  0.317038  0.426464  0.125192  1
  Dy  Dy4  1  0.183481  0.928047  0.373188  1
  Dy  Dy5  1  0.683009  0.070841  0.626766  1
  Dy  Dy6  1  0.182992  0.927583  0.628252  1
  Dy  Dy7  1  0.682153  0.071344  0.371932  1
  Dy  Dy8  1  0.811935  0.575026  0.125345  1
  Dy  Dy9  1  0.321809  0.431259  0.874075  1
  Dy  Dy10  1  0.648232  0.232549  0.999724  1
  Dy  Dy11  1  0.159080  0.769330  0.000319  1
  Dy  Dy12  1  0.349322  0.264282  0.500111  1
  Dy  Dy13  1  0.848937  0.734308  0.499582  1
  Dy  Dy14  1  0.477180  0.931387  0.846213  1
  Dy  Dy15  1  0.973066  0.062505  0.155308  1
  Y  Y16  1  0.473927  0.932529  0.152756  1
  Y  Y17  1  0.971066  0.062994  0.845840  1
  Y  Y18  1  0.527896  0.565299  0.652709  1
  Y  Y19  1  0.027640  0.433469  0.346594  1
  Zn  Zn20  1  0.018063  0.350458  0.998973  1
  Si  Si21  1  0.476928  0.858762  0.501121  1
  Si  Si22  1  0.978515  0.139732  0.498809  1
  Si  Si23  1  0.652203  0.275877  0.791238  1
  Si  Si24  1  0.150235  0.721203  0.209481  1
  Si  Si25  1  0.350921  0.215530  0.287993  1
  Si  Si26  1  0.849627  0.783509  0.712177  1
  Si  Si27  1  0.360737  0.218516  0.710720  1
  Si  Si28  1  0.858932  0.780920  0.289108  1
  Si  Si29  1  0.649827  0.269881  0.206254  1
  Si  Si30  1  0.146771  0.727694  0.792946  1
  Si  Si31  1  0.769082  0.880980  0.001016  1
  Si  Si32  1  0.262630  0.127241  0.999314  1
  Si  Si33  1  0.232919  0.626253  0.501873  1
  Si  Si34  1  0.733364  0.372941  0.498347  1
  Pt  Pt35  1  0.517784  0.654284  0.000532  1
