# generated using pymatgen
data_YPu2U(ReB6)2
_symmetry_space_group_name_H-M   'P 1'
_cell_length_a   3.66177200
_cell_length_b   9.27987481
_cell_length_c   11.47530853
_cell_angle_alpha   89.56793453
_cell_angle_beta   90.00000000
_cell_angle_gamma   90.00000000
_symmetry_Int_Tables_number   1
_chemical_formula_structural   YPu2U(ReB6)2
_chemical_formula_sum   'Y2 Pu4 U2 Re4 B24'
_cell_volume   389.92891334
_cell_formula_units_Z   2
loop_
 _symmetry_equiv_pos_site_id
 _symmetry_equiv_pos_as_xyz
  1  'x, y, z'
loop_
 _atom_site_type_symbol
 _atom_site_label
 _atom_site_symmetry_multiplicity
 _atom_site_fract_x
 _atom_site_fract_y
 _atom_site_fract_z
 _atom_site_occupancy
  Y  Y0  1  0.000000  0.947381  0.376159  1
  Y  Y1  1  0.000000  0.052619  0.623841  1
  Pu  Pu2  1  0.000000  0.328352  0.409718  1
  Pu  Pu3  1  0.000000  0.671648  0.590282  1
  Pu  Pu4  1  0.000000  0.833833  0.090257  1
  Pu  Pu5  1  0.000000  0.166167  0.909743  1
  U  U6  1  0.000000  0.455191  0.104708  1
  U  U7  1  0.000000  0.544809  0.895292  1
  Re  Re8  1  0.000000  0.637499  0.316744  1
  Re  Re9  1  0.000000  0.362501  0.683256  1
  Re  Re10  1  0.000000  0.148060  0.176572  1
  Re  Re11  1  0.000000  0.851940  0.823428  1
  B  B12  1  0.500000  0.552621  0.432168  1
  B  B13  1  0.500000  0.447379  0.567832  1
  B  B14  1  0.500000  0.051628  0.067907  1
  B  B15  1  0.500000  0.948372  0.932093  1
  B  B16  1  0.500000  0.745346  0.421432  1
  B  B17  1  0.500000  0.254654  0.578568  1
  B  B18  1  0.500000  0.243885  0.077113  1
  B  B19  1  0.500000  0.756115  0.922887  1
  B  B20  1  0.500000  0.797992  0.269882  1
  B  B21  1  0.500000  0.202008  0.730118  1
  B  B22  1  0.500000  0.299785  0.227896  1
  B  B23  1  0.500000  0.700215  0.772104  1
  B  B24  1  0.500000  0.640660  0.187393  1
  B  B25  1  0.500000  0.359340  0.812607  1
  B  B26  1  0.500000  0.139904  0.312586  1
  B  B27  1  0.500000  0.860096  0.687414  1
  B  B28  1  0.500000  0.987091  0.214675  1
  B  B29  1  0.500000  0.012909  0.785325  1
  B  B30  1  0.500000  0.485101  0.281561  1
  B  B31  1  0.500000  0.514899  0.718439  1
  B  B32  1  0.500000  0.638490  0.038389  1
  B  B33  1  0.500000  0.361510  0.961611  1
  B  B34  1  0.500000  0.128711  0.464466  1
  B  B35  1  0.500000  0.871289  0.535534  1
