# generated using pymatgen
data_Pr6GaSiI6
_symmetry_space_group_name_H-M   'P 1'
_cell_length_a   10.97040629
_cell_length_b   10.97040719
_cell_length_c   10.89658823
_cell_angle_alpha   109.46920355
_cell_angle_beta   109.46921299
_cell_angle_gamma   109.74806704
_symmetry_Int_Tables_number   1
_chemical_formula_structural   Pr6GaSiI6
_chemical_formula_sum   'Pr12 Ga2 Si2 I12'
_cell_volume   1006.09875487
_cell_formula_units_Z   2
loop_
 _symmetry_equiv_pos_site_id
 _symmetry_equiv_pos_as_xyz
  1  'x, y, z'
loop_
 _atom_site_type_symbol
 _atom_site_label
 _atom_site_symmetry_multiplicity
 _atom_site_fract_x
 _atom_site_fract_y
 _atom_site_fract_z
 _atom_site_occupancy
  Pr  Pr0  1  0.468696  0.486538  0.232653  1
  Pr  Pr1  1  0.753887  0.236044  0.267347  1
  Pr  Pr2  1  0.754368  0.017546  0.487105  1
  Pr  Pr3  1  0.232738  0.469559  0.487105  1
  Pr  Pr4  1  0.263956  0.746113  0.232653  1
  Pr  Pr5  1  0.030441  0.267262  0.012895  1
  Pr  Pr6  1  0.013462  0.031304  0.267347  1
  Pr  Pr7  1  0.482454  0.745632  0.012895  1
  Pr  Pr8  1  0.485982  0.235982  0.471963  1
  Pr  Pr9  1  0.017015  0.482985  0.750000  1
  Pr  Pr10  1  0.264018  0.014018  0.028037  1
  Pr  Pr11  1  0.232985  0.267015  0.750000  1
  Ga  Ga12  1  0.249880  0.250120  0.250000  1
  Ga  Ga13  1  0.500120  0.999880  0.250000  1
  Si  Si14  1  0.999891  0.249891  0.499782  1
  Si  Si15  1  0.250109  0.500109  0.000218  1
  I  I16  1  0.249805  0.756921  0.742399  1
  I  I17  1  0.514520  0.507405  0.757601  1
  I  I18  1  0.985039  0.741177  0.992376  1
  I  I19  1  0.743079  0.250195  0.757601  1
  I  I20  1  0.992595  0.985480  0.742399  1
  I  I21  1  0.248802  0.992663  0.507624  1
  I  I22  1  0.758823  0.514961  0.507624  1
  I  I23  1  0.507337  0.251198  0.992376  1
  I  I24  1  0.757678  0.742322  0.250000  1
  I  I25  1  0.742529  0.992529  0.985060  1
  I  I26  1  0.992322  0.507678  0.250000  1
  I  I27  1  0.507471  0.757471  0.514940  1
