# generated using pymatgen
data_HfZr9Zn2Bi5Pb
_symmetry_space_group_name_H-M   'P 1'
_cell_length_a   8.85747712
_cell_length_b   8.86095795
_cell_length_c   5.93106110
_cell_angle_alpha   89.98737043
_cell_angle_beta   89.99153688
_cell_angle_gamma   119.97022082
_symmetry_Int_Tables_number   1
_chemical_formula_structural   HfZr9Zn2Bi5Pb
_chemical_formula_sum   'Hf1 Zr9 Zn2 Bi5 Pb1'
_cell_volume   403.25889631
_cell_formula_units_Z   1
loop_
 _symmetry_equiv_pos_site_id
 _symmetry_equiv_pos_as_xyz
  1  'x, y, z'
loop_
 _atom_site_type_symbol
 _atom_site_label
 _atom_site_symmetry_multiplicity
 _atom_site_fract_x
 _atom_site_fract_y
 _atom_site_fract_z
 _atom_site_occupancy
  Hf  Hf0  1  0.333905  0.667647  0.999280  1
  Zr  Zr1  1  0.666386  0.332518  0.500630  1
  Zr  Zr2  1  0.666462  0.332611  0.999413  1
  Zr  Zr3  1  0.333958  0.667375  0.500511  1
  Zr  Zr4  1  0.264678  0.999584  0.250148  1
  Zr  Zr5  1  0.266263  0.266251  0.749913  1
  Zr  Zr6  1  0.000677  0.734076  0.749870  1
  Zr  Zr7  1  0.001287  0.266621  0.250041  1
  Zr  Zr8  1  0.734222  0.733823  0.250182  1
  Zr  Zr9  1  0.732825  0.999547  0.749903  1
  Zn  Zn10  1  0.000152  0.999996  0.999164  1
  Zn  Zn11  1  0.000140  0.999984  0.500843  1
  Bi  Bi12  1  0.614183  0.999879  0.249864  1
  Bi  Bi13  1  0.614546  0.614834  0.750143  1
  Bi  Bi14  1  0.000100  0.385365  0.750151  1
  Bi  Bi15  1  0.001019  0.615134  0.249878  1
  Bi  Bi16  1  0.385721  0.384908  0.249829  1
  Pb  Pb17  1  0.383475  0.999847  0.750237  1
