# generated using pymatgen
data_IrRh3(Pb2O7)2
_symmetry_space_group_name_H-M   'P 1'
_cell_length_a   7.32465672
_cell_length_b   7.31865467
_cell_length_c   7.32465700
_cell_angle_alpha   59.97287078
_cell_angle_beta   60.00000325
_cell_angle_gamma   59.97287230
_symmetry_Int_Tables_number   1
_chemical_formula_structural   IrRh3(Pb2O7)2
_chemical_formula_sum   'Ir1 Rh3 Pb4 O14'
_cell_volume   277.53172420
_cell_formula_units_Z   1
loop_
 _symmetry_equiv_pos_site_id
 _symmetry_equiv_pos_as_xyz
  1  'x, y, z'
loop_
 _atom_site_type_symbol
 _atom_site_label
 _atom_site_symmetry_multiplicity
 _atom_site_fract_x
 _atom_site_fract_y
 _atom_site_fract_z
 _atom_site_occupancy
  Ir  Ir0  1  0.625000  0.125000  0.625000  1
  Rh  Rh1  1  0.125000  0.625000  0.625000  1
  Rh  Rh2  1  0.625000  0.625000  0.125000  1
  Rh  Rh3  1  0.625000  0.625000  0.625000  1
  Pb  Pb4  1  0.625000  0.125000  0.125000  1
  Pb  Pb5  1  0.125000  0.625000  0.125000  1
  Pb  Pb6  1  0.125000  0.125000  0.625000  1
  Pb  Pb7  1  0.125000  0.125000  0.125000  1
  O  O8  1  0.705850  0.706550  0.293800  1
  O  O9  1  0.297953  0.292190  0.704928  1
  O  O10  1  0.704928  0.292190  0.704928  1
  O  O11  1  0.293800  0.706550  0.293800  1
  O  O12  1  0.293800  0.706550  0.705850  1
  O  O13  1  0.704928  0.292190  0.297953  1
  O  O14  1  0.544150  0.543450  0.956200  1
  O  O15  1  0.952047  0.957810  0.545072  1
  O  O16  1  0.545072  0.957810  0.545072  1
  O  O17  1  0.956200  0.543450  0.956200  1
  O  O18  1  0.956200  0.543450  0.544150  1
  O  O19  1  0.545072  0.957810  0.952047  1
  O  O20  1  0.249787  0.250638  0.249787  1
  O  O21  1  0.000213  0.999362  0.000213  1
