# generated using pymatgen
data_Ta4SiP3Ru4
_symmetry_space_group_name_H-M   'P 1'
_cell_length_a   3.76710700
_cell_length_b   6.35076214
_cell_length_c   7.22937158
_cell_angle_alpha   90.11396483
_cell_angle_beta   90.00000000
_cell_angle_gamma   90.00000000
_symmetry_Int_Tables_number   1
_chemical_formula_structural   Ta4SiP3Ru4
_chemical_formula_sum   'Ta4 Si1 P3 Ru4'
_cell_volume   172.95514716
_cell_formula_units_Z   1
loop_
 _symmetry_equiv_pos_site_id
 _symmetry_equiv_pos_as_xyz
  1  'x, y, z'
loop_
 _atom_site_type_symbol
 _atom_site_label
 _atom_site_symmetry_multiplicity
 _atom_site_fract_x
 _atom_site_fract_y
 _atom_site_fract_z
 _atom_site_occupancy
  Ta  Ta0  1  0.250000  0.023863  0.826410  1
  Ta  Ta1  1  0.250000  0.522989  0.673881  1
  Ta  Ta2  1  0.750000  0.975684  0.172298  1
  Ta  Ta3  1  0.750000  0.474626  0.326104  1
  Si  Si4  1  0.250000  0.770895  0.375196  1
  P  P5  1  0.250000  0.268731  0.124545  1
  P  P6  1  0.750000  0.229719  0.624167  1
  P  P7  1  0.750000  0.730392  0.875734  1
  Ru  Ru8  1  0.250000  0.152046  0.438854  1
  Ru  Ru9  1  0.250000  0.646615  0.057017  1
  Ru  Ru10  1  0.750000  0.854686  0.568105  1
  Ru  Ru11  1  0.750000  0.349755  0.937690  1
