# generated using pymatgen
data_Ba3CdSnO6
_symmetry_space_group_name_H-M   'P 1'
_cell_length_a   7.27298568
_cell_length_b   7.27298651
_cell_length_c   7.27298701
_cell_angle_alpha   92.27964514
_cell_angle_beta   92.27963965
_cell_angle_gamma   92.27963570
_symmetry_Int_Tables_number   1
_chemical_formula_structural   Ba3CdSnO6
_chemical_formula_sum   'Ba6 Cd2 Sn2 O12'
_cell_volume   383.77590557
_cell_formula_units_Z   2
loop_
 _symmetry_equiv_pos_site_id
 _symmetry_equiv_pos_as_xyz
  1  'x, y, z'
loop_
 _atom_site_type_symbol
 _atom_site_label
 _atom_site_symmetry_multiplicity
 _atom_site_fract_x
 _atom_site_fract_y
 _atom_site_fract_z
 _atom_site_occupancy
  Ba  Ba0  1  0.750000  0.393029  0.106971  1
  Ba  Ba1  1  0.106971  0.750000  0.393029  1
  Ba  Ba2  1  0.250000  0.606971  0.893029  1
  Ba  Ba3  1  0.393029  0.106971  0.750000  1
  Ba  Ba4  1  0.606971  0.893029  0.250000  1
  Ba  Ba5  1  0.893029  0.250000  0.606971  1
  Cd  Cd6  1  0.250000  0.250000  0.250000  1
  Cd  Cd7  1  0.750000  0.750000  0.750000  1
  Sn  Sn8  1  0.500000  0.500000  0.500000  1
  Sn  Sn9  1  0.000000  0.000000  0.000000  1
  O  O10  1  0.086785  0.277335  0.955114  1
  O  O11  1  0.955114  0.086785  0.277335  1
  O  O12  1  0.277335  0.955114  0.086785  1
  O  O13  1  0.413215  0.544886  0.222665  1
  O  O14  1  0.222665  0.413215  0.544886  1
  O  O15  1  0.544886  0.222665  0.413215  1
  O  O16  1  0.913215  0.722665  0.044886  1
  O  O17  1  0.044886  0.913215  0.722665  1
  O  O18  1  0.722665  0.044886  0.913215  1
  O  O19  1  0.586785  0.455114  0.777335  1
  O  O20  1  0.455114  0.777335  0.586785  1
  O  O21  1  0.777335  0.586785  0.455114  1
