# generated using pymatgen
data_Dy3(Tm3Ru2)7
_symmetry_space_group_name_H-M   'P 1'
_cell_length_a   11.18058534
_cell_length_b   8.28921091
_cell_length_c   11.13327837
_cell_angle_alpha   56.50138122
_cell_angle_beta   90.01882763
_cell_angle_gamma   89.99334788
_symmetry_Int_Tables_number   1
_chemical_formula_structural   Dy3(Tm3Ru2)7
_chemical_formula_sum   'Dy3 Tm21 Ru14'
_cell_volume   860.42746951
_cell_formula_units_Z   1
loop_
 _symmetry_equiv_pos_site_id
 _symmetry_equiv_pos_as_xyz
  1  'x, y, z'
loop_
 _atom_site_type_symbol
 _atom_site_label
 _atom_site_symmetry_multiplicity
 _atom_site_fract_x
 _atom_site_fract_y
 _atom_site_fract_z
 _atom_site_occupancy
  Dy  Dy0  1  0.705102  0.240774  0.531968  1
  Dy  Dy1  1  0.205228  0.758908  0.967757  1
  Dy  Dy2  1  0.844101  0.507895  0.655867  1
  Tm  Tm3  1  0.345054  0.492409  0.844833  1
  Tm  Tm4  1  0.155232  0.492482  0.345278  1
  Tm  Tm5  1  0.655046  0.507504  0.154525  1
  Tm  Tm6  1  0.007078  0.852361  0.361609  1
  Tm  Tm7  1  0.506754  0.148180  0.138017  1
  Tm  Tm8  1  0.993830  0.148178  0.637758  1
  Tm  Tm9  1  0.493486  0.851608  0.862089  1
  Tm  Tm10  1  0.793885  0.241159  0.032051  1
  Tm  Tm11  1  0.294025  0.758292  0.468592  1
  Tm  Tm12  1  0.930666  0.776988  0.090760  1
  Tm  Tm13  1  0.430492  0.222889  0.409373  1
  Tm  Tm14  1  0.068957  0.223042  0.909925  1
  Tm  Tm15  1  0.568198  0.776783  0.590354  1
  Tm  Tm16  1  0.301970  0.242696  0.674599  1
  Tm  Tm17  1  0.801891  0.757673  0.825730  1
  Tm  Tm18  1  0.698120  0.758639  0.324607  1
  Tm  Tm19  1  0.198430  0.241709  0.174919  1
  Tm  Tm20  1  0.925622  0.279828  0.293251  1
  Tm  Tm21  1  0.425577  0.720401  0.206647  1
  Tm  Tm22  1  0.074948  0.720388  0.706262  1
  Tm  Tm23  1  0.573979  0.279308  0.794184  1
  Ru  Ru24  1  0.499218  0.500956  0.499998  1
  Ru  Ru25  1  0.999133  0.498884  0.999982  1
  Ru  Ru26  1  0.647275  0.923501  0.034091  1
  Ru  Ru27  1  0.147540  0.076486  0.465952  1
  Ru  Ru28  1  0.352757  0.077178  0.966334  1
  Ru  Ru29  1  0.853050  0.923838  0.533478  1
  Ru  Ru30  1  0.398691  0.483990  0.103983  1
  Ru  Ru31  1  0.899036  0.516326  0.394980  1
  Ru  Ru32  1  0.601769  0.515454  0.896452  1
  Ru  Ru33  1  0.102950  0.484659  0.603276  1
  Ru  Ru34  1  0.821166  0.097609  0.849502  1
  Ru  Ru35  1  0.321235  0.900785  0.651257  1
  Ru  Ru36  1  0.179322  0.901250  0.152237  1
  Ru  Ru37  1  0.679191  0.098991  0.347525  1
