# generated using pymatgen
data_Na4Sr(GeS3)2
_symmetry_space_group_name_H-M   'P 1'
_cell_length_a   6.90072602
_cell_length_b   6.90072586
_cell_length_c   7.82091506
_cell_angle_alpha   81.51109388
_cell_angle_beta   81.51110167
_cell_angle_gamma   119.75628551
_symmetry_Int_Tables_number   1
_chemical_formula_structural   Na4Sr(GeS3)2
_chemical_formula_sum   'Na4 Sr1 Ge2 S6'
_cell_volume   309.02044553
_cell_formula_units_Z   1
loop_
 _symmetry_equiv_pos_site_id
 _symmetry_equiv_pos_as_xyz
  1  'x, y, z'
loop_
 _atom_site_type_symbol
 _atom_site_label
 _atom_site_symmetry_multiplicity
 _atom_site_fract_x
 _atom_site_fract_y
 _atom_site_fract_z
 _atom_site_occupancy
  Na  Na0  1  0.821748  0.178252  0.000000  1
  Na  Na1  1  0.178086  0.821914  0.000000  1
  Na  Na2  1  0.500165  0.499835  0.000000  1
  Na  Na3  1  0.665105  0.334895  0.500000  1
  Sr  Sr4  1  0.334925  0.665075  0.500000  1
  Ge  Ge5  1  0.052208  0.052202  0.337329  1
  Ge  Ge6  1  0.947798  0.947792  0.662671  1
  S  S7  1  0.082956  0.393810  0.248502  1
  S  S8  1  0.393393  0.082133  0.248328  1
  S  S9  1  0.917867  0.606607  0.751672  1
  S  S10  1  0.606190  0.917044  0.751498  1
  S  S11  1  0.774097  0.774539  0.246723  1
  S  S12  1  0.225461  0.225903  0.753277  1
