# generated using pymatgen
data_TmPaInPd2
_symmetry_space_group_name_H-M   'P 1'
_cell_length_a   7.84281600
_cell_length_b   7.71197600
_cell_length_c   3.64831400
_cell_angle_alpha   90.00000000
_cell_angle_beta   90.00000000
_cell_angle_gamma   90.00000000
_symmetry_Int_Tables_number   1
_chemical_formula_structural   TmPaInPd2
_chemical_formula_sum   'Tm2 Pa2 In2 Pd4'
_cell_volume   220.66319663
_cell_formula_units_Z   2
loop_
 _symmetry_equiv_pos_site_id
 _symmetry_equiv_pos_as_xyz
  1  'x, y, z'
loop_
 _atom_site_type_symbol
 _atom_site_label
 _atom_site_symmetry_multiplicity
 _atom_site_fract_x
 _atom_site_fract_y
 _atom_site_fract_z
 _atom_site_occupancy
  Tm  Tm0  1  0.173403  0.325922  0.500000  1
  Tm  Tm1  1  0.673403  0.174078  0.500000  1
  Pa  Pa2  1  0.328616  0.832164  0.500000  1
  Pa  Pa3  1  0.828616  0.667836  0.500000  1
  In  In4  1  0.996425  0.008761  0.000000  1
  In  In5  1  0.496425  0.491239  0.000000  1
  Pd  Pd6  1  0.371785  0.116942  0.000000  1
  Pd  Pd7  1  0.871785  0.383058  0.000000  1
  Pd  Pd8  1  0.129771  0.640737  0.000000  1
  Pd  Pd9  1  0.629771  0.859263  0.000000  1
