# generated using pymatgen
data_Tb2HoAl12Ru3Au
_symmetry_space_group_name_H-M   'P 1'
_cell_length_a   8.88318357
_cell_length_b   8.83790930
_cell_length_c   9.58062216
_cell_angle_alpha   90.06403166
_cell_angle_beta   89.89082705
_cell_angle_gamma   119.71857908
_symmetry_Int_Tables_number   1
_chemical_formula_structural   Tb2HoAl12Ru3Au
_chemical_formula_sum   'Tb4 Ho2 Al24 Ru6 Au2'
_cell_volume   653.23029562
_cell_formula_units_Z   2
loop_
 _symmetry_equiv_pos_site_id
 _symmetry_equiv_pos_as_xyz
  1  'x, y, z'
loop_
 _atom_site_type_symbol
 _atom_site_label
 _atom_site_symmetry_multiplicity
 _atom_site_fract_x
 _atom_site_fract_y
 _atom_site_fract_z
 _atom_site_occupancy
  Tb  Tb0  1  0.190377  0.385322  0.253451  1
  Tb  Tb1  1  0.809623  0.614678  0.746549  1
  Tb  Tb2  1  0.616080  0.808232  0.248462  1
  Tb  Tb3  1  0.383920  0.191768  0.751538  1
  Ho  Ho4  1  0.191803  0.805294  0.253911  1
  Ho  Ho5  1  0.808197  0.194706  0.746089  1
  Al  Al6  1  0.320861  0.661180  0.029301  1
  Al  Al7  1  0.679139  0.338820  0.970699  1
  Al  Al8  1  0.666475  0.333448  0.524786  1
  Al  Al9  1  0.333525  0.666552  0.475214  1
  Al  Al10  1  0.163888  0.327558  0.575478  1
  Al  Al11  1  0.836112  0.672442  0.424522  1
  Al  Al12  1  0.673918  0.837091  0.572530  1
  Al  Al13  1  0.848343  0.676873  0.080704  1
  Al  Al14  1  0.326082  0.162909  0.427470  1
  Al  Al15  1  0.151657  0.323127  0.919296  1
  Al  Al16  1  0.163589  0.836860  0.576133  1
  Al  Al17  1  0.317886  0.158915  0.084158  1
  Al  Al18  1  0.836411  0.163140  0.423867  1
  Al  Al19  1  0.682114  0.841085  0.915842  1
  Al  Al20  1  0.847856  0.171343  0.080867  1
  Al  Al21  1  0.152144  0.828657  0.919133  1
  Al  Al22  1  0.563718  0.127216  0.256773  1
  Al  Al23  1  0.436282  0.872784  0.743227  1
  Al  Al24  1  0.878531  0.439488  0.249489  1
  Al  Al25  1  0.121469  0.560512  0.750511  1
  Al  Al26  1  0.564169  0.436469  0.257178  1
  Al  Al27  1  0.435831  0.563531  0.742822  1
  Al  Al28  1  0.997267  0.998412  0.250892  1
  Al  Al29  1  0.002733  0.001588  0.749108  1
  Ru  Ru30  1  0.000000  0.500000  0.000000  1
  Ru  Ru31  1  0.500000  0.000000  0.500000  1
  Ru  Ru32  1  0.000000  0.500000  0.500000  1
  Ru  Ru33  1  0.500000  0.500000  0.500000  1
  Ru  Ru34  1  0.000000  0.000000  0.000000  1
  Ru  Ru35  1  0.000000  0.000000  0.500000  1
  Au  Au36  1  0.500000  0.000000  0.000000  1
  Au  Au37  1  0.500000  0.500000  0.000000  1
