# generated using pymatgen
data_Er20Ir6Pd5Au
_symmetry_space_group_name_H-M   'P 1'
_cell_length_a   10.98260900
_cell_length_b   10.97917649
_cell_length_c   6.32962000
_cell_angle_alpha   89.95096094
_cell_angle_beta   89.99839839
_cell_angle_gamma   89.88154186
_symmetry_Int_Tables_number   1
_chemical_formula_structural   Er20Ir6Pd5Au
_chemical_formula_sum   'Er20 Ir6 Pd5 Au1'
_cell_volume   763.22368464
_cell_formula_units_Z   1
loop_
 _symmetry_equiv_pos_site_id
 _symmetry_equiv_pos_as_xyz
  1  'x, y, z'
loop_
 _atom_site_type_symbol
 _atom_site_label
 _atom_site_symmetry_multiplicity
 _atom_site_fract_x
 _atom_site_fract_y
 _atom_site_fract_z
 _atom_site_occupancy
  Er  Er0  1  0.294210  0.090552  0.366694  1
  Er  Er1  1  0.296142  0.908368  0.868736  1
  Er  Er2  1  0.700114  0.084499  0.859908  1
  Er  Er3  1  0.700129  0.911571  0.365672  1
  Er  Er4  1  0.578991  0.791152  0.867335  1
  Er  Er5  1  0.576060  0.208661  0.365890  1
  Er  Er6  1  0.409476  0.792837  0.376570  1
  Er  Er7  1  0.409196  0.206637  0.875982  1
  Er  Er8  1  0.212534  0.417107  0.624741  1
  Er  Er9  1  0.212657  0.583534  0.125858  1
  Er  Er10  1  0.797231  0.417192  0.132329  1
  Er  Er11  1  0.797504  0.587963  0.632907  1
  Er  Er12  1  0.916860  0.704718  0.136129  1
  Er  Er13  1  0.918400  0.298555  0.638650  1
  Er  Er14  1  0.094279  0.702294  0.633261  1
  Er  Er15  1  0.095485  0.298439  0.131584  1
  Er  Er16  1  0.999832  0.996905  0.500726  1
  Er  Er17  1  0.000787  0.999068  0.999123  1
  Er  Er18  1  0.497265  0.497690  0.999407  1
  Er  Er19  1  0.497761  0.502153  0.499734  1
  Ir  Ir20  1  0.347417  0.345860  0.249660  1
  Ir  Ir21  1  0.347297  0.653938  0.749601  1
  Ir  Ir22  1  0.498549  0.998977  0.116139  1
  Ir  Ir23  1  0.497970  0.000350  0.615105  1
  Ir  Ir24  1  0.000466  0.501126  0.884918  1
  Ir  Ir25  1  0.000424  0.500472  0.383879  1
  Pd  Pd26  1  0.844552  0.845872  0.751468  1
  Pd  Pd27  1  0.152795  0.153122  0.748902  1
  Pd  Pd28  1  0.152911  0.845551  0.249534  1
  Pd  Pd29  1  0.655075  0.346101  0.749299  1
  Pd  Pd30  1  0.655318  0.653475  0.249339  1
  Au  Au31  1  0.842314  0.155260  0.250915  1
