# generated using pymatgen
data_Np2(AlAu3)3
_symmetry_space_group_name_H-M   'P 1'
_cell_length_a   5.69339538
_cell_length_b   5.69339476
_cell_length_c   9.94689900
_cell_angle_alpha   90.00000000
_cell_angle_beta   90.00000000
_cell_angle_gamma   123.13512405
_symmetry_Int_Tables_number   1
_chemical_formula_structural   Np2(AlAu3)3
_chemical_formula_sum   'Np2 Al3 Au9'
_cell_volume   269.99448648
_cell_formula_units_Z   1
loop_
 _symmetry_equiv_pos_site_id
 _symmetry_equiv_pos_as_xyz
  1  'x, y, z'
loop_
 _atom_site_type_symbol
 _atom_site_label
 _atom_site_symmetry_multiplicity
 _atom_site_fract_x
 _atom_site_fract_y
 _atom_site_fract_z
 _atom_site_occupancy
  Np  Np0  1  0.000000  0.500000  0.757872  1
  Np  Np1  1  0.500000  0.000000  0.242128  1
  Al  Al2  1  0.000000  0.000000  0.500000  1
  Al  Al3  1  0.000000  0.000000  0.000000  1
  Al  Al4  1  0.500000  0.500000  0.500000  1
  Au  Au5  1  0.000000  0.500000  0.062338  1
  Au  Au6  1  0.500000  0.000000  0.543553  1
  Au  Au7  1  0.500000  0.000000  0.937662  1
  Au  Au8  1  0.000000  0.500000  0.456447  1
  Au  Au9  1  0.703974  0.801451  0.738162  1
  Au  Au10  1  0.198549  0.296026  0.261838  1
  Au  Au11  1  0.801451  0.703974  0.261838  1
  Au  Au12  1  0.296026  0.198549  0.738162  1
  Au  Au13  1  0.500000  0.500000  0.000000  1
