# generated using pymatgen
data_LaThCo22
_symmetry_space_group_name_H-M   'P 1'
_cell_length_a   7.63747156
_cell_length_b   7.63747141
_cell_length_c   7.63747100
_cell_angle_alpha   99.81735674
_cell_angle_beta   99.81734132
_cell_angle_gamma   131.22243823
_symmetry_Int_Tables_number   1
_chemical_formula_structural   LaThCo22
_chemical_formula_sum   'La1 Th1 Co22'
_cell_volume   305.18513625
_cell_formula_units_Z   1
loop_
 _symmetry_equiv_pos_site_id
 _symmetry_equiv_pos_as_xyz
  1  'x, y, z'
loop_
 _atom_site_type_symbol
 _atom_site_label
 _atom_site_symmetry_multiplicity
 _atom_site_fract_x
 _atom_site_fract_y
 _atom_site_fract_z
 _atom_site_occupancy
  La  La0  1  0.000000  0.000000  0.000000  1
  Th  Th1  1  0.250000  0.750000  0.500000  1
  Co  Co2  1  0.750000  0.250000  0.500000  1
  Co  Co3  1  0.762365  0.183599  0.828731  1
  Co  Co4  1  0.354867  0.933633  0.171269  1
  Co  Co5  1  0.184382  0.514677  0.080004  1
  Co  Co6  1  0.895623  0.565326  0.080004  1
  Co  Co7  1  0.485323  0.815618  0.919996  1
  Co  Co8  1  0.434674  0.104377  0.919996  1
  Co  Co9  1  0.066367  0.645133  0.828731  1
  Co  Co10  1  0.816401  0.645133  0.578766  1
  Co  Co11  1  0.485323  0.565326  0.669705  1
  Co  Co12  1  0.895623  0.815618  0.330295  1
  Co  Co13  1  0.066367  0.237635  0.421234  1
  Co  Co14  1  0.354867  0.183599  0.421234  1
  Co  Co15  1  0.762365  0.933633  0.578766  1
  Co  Co16  1  0.434674  0.514677  0.330295  1
  Co  Co17  1  0.184382  0.104377  0.669705  1
  Co  Co18  1  0.816401  0.237635  0.171269  1
  Co  Co19  1  0.500000  0.500000  0.000000  1
  Co  Co20  1  0.625344  0.874991  0.249647  1
  Co  Co21  1  0.624304  0.374656  0.249647  1
  Co  Co22  1  0.125009  0.374656  0.750353  1
  Co  Co23  1  0.625344  0.375696  0.750353  1
