# generated using pymatgen
data_La3As2Br
_symmetry_space_group_name_H-M   'P 1'
_cell_length_a   7.58902961
_cell_length_b   7.58902826
_cell_length_c   7.58902938
_cell_angle_alpha   146.58855069
_cell_angle_beta   131.98213331
_cell_angle_gamma   59.75909714
_symmetry_Int_Tables_number   1
_chemical_formula_structural   La3As2Br
_chemical_formula_sum   'La3 As2 Br1'
_cell_volume   177.30140749
_cell_formula_units_Z   1
loop_
 _symmetry_equiv_pos_site_id
 _symmetry_equiv_pos_as_xyz
  1  'x, y, z'
loop_
 _atom_site_type_symbol
 _atom_site_label
 _atom_site_symmetry_multiplicity
 _atom_site_fract_x
 _atom_site_fract_y
 _atom_site_fract_z
 _atom_site_occupancy
  La  La0  1  0.000000  0.000000  0.000000  1
  La  La1  1  0.681693  0.681693  0.000000  1
  La  La2  1  0.318307  0.318307  0.000000  1
  As  As3  1  0.162648  0.662648  0.500000  1
  As  As4  1  0.837352  0.337352  0.500000  1
  Br  Br5  1  0.500000  0.000000  0.500000  1
