# generated using pymatgen
data_Tm4Lu6(TlSb)3
_symmetry_space_group_name_H-M   'P 1'
_cell_length_a   6.39323101
_cell_length_b   8.79713273
_cell_length_c   8.80530400
_cell_angle_alpha   119.97967874
_cell_angle_beta   89.99637937
_cell_angle_gamma   90.00236281
_symmetry_Int_Tables_number   1
_chemical_formula_structural   Tm4Lu6(TlSb)3
_chemical_formula_sum   'Tm4 Lu6 Tl3 Sb3'
_cell_volume   428.96851926
_cell_formula_units_Z   1
loop_
 _symmetry_equiv_pos_site_id
 _symmetry_equiv_pos_as_xyz
  1  'x, y, z'
loop_
 _atom_site_type_symbol
 _atom_site_label
 _atom_site_symmetry_multiplicity
 _atom_site_fract_x
 _atom_site_fract_y
 _atom_site_fract_z
 _atom_site_occupancy
  Tm  Tm0  1  0.750086  0.237414  0.000169  1
  Tm  Tm1  1  0.750006  0.762501  0.762262  1
  Tm  Tm2  1  0.750107  0.000415  0.238118  1
  Tm  Tm3  1  0.250024  0.762772  0.999829  1
  Lu  Lu4  1  0.497427  0.333303  0.666763  1
  Lu  Lu5  1  0.497440  0.666385  0.333203  1
  Lu  Lu6  1  0.002527  0.666560  0.333251  1
  Lu  Lu7  1  0.002549  0.333104  0.666641  1
  Lu  Lu8  1  0.250009  0.236874  0.236906  1
  Lu  Lu9  1  0.250018  0.999875  0.762951  1
  Tl  Tl10  1  0.249943  0.393102  0.999954  1
  Tl  Tl11  1  0.249793  0.606429  0.605657  1
  Tl  Tl12  1  0.250152  0.000642  0.394103  1
  Sb  Sb13  1  0.750037  0.603380  0.999954  1
  Sb  Sb14  1  0.749963  0.397048  0.396818  1
  Sb  Sb15  1  0.749920  0.000196  0.603422  1
