# generated using pymatgen
data_NaSr2(SnSb)6
_symmetry_space_group_name_H-M   'P 1'
_cell_length_a   7.68380900
_cell_length_b   7.68380923
_cell_length_c   10.03621028
_cell_angle_alpha   82.60999247
_cell_angle_beta   82.60999307
_cell_angle_gamma   120.00475398
_symmetry_Int_Tables_number   1
_chemical_formula_structural   NaSr2(SnSb)6
_chemical_formula_sum   'Na1 Sr2 Sn6 Sb6'
_cell_volume   495.86472806
_cell_formula_units_Z   1
loop_
 _symmetry_equiv_pos_site_id
 _symmetry_equiv_pos_as_xyz
  1  'x, y, z'
loop_
 _atom_site_type_symbol
 _atom_site_label
 _atom_site_symmetry_multiplicity
 _atom_site_fract_x
 _atom_site_fract_y
 _atom_site_fract_z
 _atom_site_occupancy
  Na  Na0  1  0.000000  0.000000  0.000000  1
  Sr  Sr1  1  0.666463  0.333537  0.000000  1
  Sr  Sr2  1  0.333537  0.666463  0.000000  1
  Sn  Sn3  1  0.537780  0.873415  0.377882  1
  Sn  Sn4  1  0.210510  0.210510  0.378356  1
  Sn  Sn5  1  0.873415  0.537780  0.377882  1
  Sn  Sn6  1  0.462220  0.126585  0.622118  1
  Sn  Sn7  1  0.126585  0.462220  0.622118  1
  Sn  Sn8  1  0.789490  0.789490  0.621644  1
  Sb  Sb9  1  0.404364  0.404364  0.776546  1
  Sb  Sb10  1  0.074480  0.744591  0.775807  1
  Sb  Sb11  1  0.744591  0.074480  0.775807  1
  Sb  Sb12  1  0.595636  0.595636  0.223454  1
  Sb  Sb13  1  0.255409  0.925520  0.224193  1
  Sb  Sb14  1  0.925520  0.255409  0.224193  1
