# generated using pymatgen
data_YbCu3HgPt
_symmetry_space_group_name_H-M   'P 1'
_cell_length_a   5.18797766
_cell_length_b   5.18797798
_cell_length_c   5.18797897
_cell_angle_alpha   59.55376114
_cell_angle_beta   59.55375683
_cell_angle_gamma   59.55376308
_symmetry_Int_Tables_number   1
_chemical_formula_structural   YbCu3HgPt
_chemical_formula_sum   'Yb1 Cu3 Hg1 Pt1'
_cell_volume   97.73516472
_cell_formula_units_Z   1
loop_
 _symmetry_equiv_pos_site_id
 _symmetry_equiv_pos_as_xyz
  1  'x, y, z'
loop_
 _atom_site_type_symbol
 _atom_site_label
 _atom_site_symmetry_multiplicity
 _atom_site_fract_x
 _atom_site_fract_y
 _atom_site_fract_z
 _atom_site_occupancy
  Yb  Yb0  1  0.749000  0.749000  0.749000  1
  Cu  Cu1  1  0.375954  0.875256  0.375954  1
  Cu  Cu2  1  0.375954  0.375954  0.875256  1
  Cu  Cu3  1  0.875256  0.375954  0.375954  1
  Hg  Hg4  1  0.998234  0.998234  0.998234  1
  Pt  Pt5  1  0.375601  0.375601  0.375601  1
