# generated using pymatgen
data_Dy7ErSc11Si16Mo
_symmetry_space_group_name_H-M   'P 1'
_cell_length_a   7.07192684
_cell_length_b   7.32660553
_cell_length_c   13.89551353
_cell_angle_alpha   90.15281392
_cell_angle_beta   89.68967938
_cell_angle_gamma   89.73247359
_symmetry_Int_Tables_number   1
_chemical_formula_structural   Dy7ErSc11Si16Mo
_chemical_formula_sum   'Dy7 Er1 Sc11 Si16 Mo1'
_cell_volume   719.95025844
_cell_formula_units_Z   1
loop_
 _symmetry_equiv_pos_site_id
 _symmetry_equiv_pos_as_xyz
  1  'x, y, z'
loop_
 _atom_site_type_symbol
 _atom_site_label
 _atom_site_symmetry_multiplicity
 _atom_site_fract_x
 _atom_site_fract_y
 _atom_site_fract_z
 _atom_site_occupancy
  Dy  Dy0  1  0.011757  0.174783  0.097287  1
  Dy  Dy1  1  0.989690  0.825329  0.898837  1
  Dy  Dy2  1  0.487741  0.678191  0.899408  1
  Dy  Dy3  1  0.993033  0.829058  0.595709  1
  Dy  Dy4  1  0.512808  0.323156  0.096432  1
  Dy  Dy5  1  0.009072  0.174986  0.403710  1
  Dy  Dy6  1  0.506796  0.323328  0.410067  1
  Er  Er7  1  0.487684  0.676812  0.596043  1
  Sc  Sc8  1  0.164227  0.495476  0.744867  1
  Sc  Sc9  1  0.837249  0.497773  0.251946  1
  Sc  Sc10  1  0.336187  0.002669  0.252578  1
  Sc  Sc11  1  0.658618  0.002185  0.746870  1
  Sc  Sc12  1  0.664631  0.825526  0.378991  1
  Sc  Sc13  1  0.168465  0.678458  0.378108  1
  Sc  Sc14  1  0.668755  0.824132  0.124651  1
  Sc  Sc15  1  0.833440  0.323506  0.623728  1
  Sc  Sc16  1  0.333406  0.176731  0.874811  1
  Sc  Sc17  1  0.830396  0.323204  0.871820  1
  Sc  Sc18  1  0.169974  0.676631  0.126111  1
  Si  Si19  1  0.043182  0.120116  0.745313  1
  Si  Si20  1  0.963050  0.885562  0.251426  1
  Si  Si21  1  0.466692  0.616098  0.251019  1
  Si  Si22  1  0.531478  0.376172  0.745400  1
  Si  Si23  1  0.287383  0.879348  0.745834  1
  Si  Si24  1  0.710267  0.127318  0.250885  1
  Si  Si25  1  0.215019  0.372526  0.250808  1
  Si  Si26  1  0.784099  0.624903  0.746366  1
  Si  Si27  1  0.175594  0.451615  0.540593  1
  Si  Si28  1  0.842681  0.532481  0.460882  1
  Si  Si29  1  0.333192  0.969449  0.471361  1
  Si  Si30  1  0.845258  0.535160  0.038862  1
  Si  Si31  1  0.647461  0.034827  0.544681  1
  Si  Si32  1  0.155469  0.466300  0.959446  1
  Si  Si33  1  0.661625  0.035995  0.958945  1
  Si  Si34  1  0.340695  0.962661  0.038239  1
  Mo  Mo35  1  0.332924  0.177533  0.627964  1
