# generated using pymatgen
data_CoPb2(SeO3)3
_symmetry_space_group_name_H-M   'P 1'
_cell_length_a   7.51866094
_cell_length_b   7.84510165
_cell_length_c   8.94632893
_cell_angle_alpha   103.08699921
_cell_angle_beta   105.34164650
_cell_angle_gamma   94.85228779
_symmetry_Int_Tables_number   1
_chemical_formula_structural   CoPb2(SeO3)3
_chemical_formula_sum   'Co2 Pb4 Se6 O18'
_cell_volume   489.77483421
_cell_formula_units_Z   2
loop_
 _symmetry_equiv_pos_site_id
 _symmetry_equiv_pos_as_xyz
  1  'x, y, z'
loop_
 _atom_site_type_symbol
 _atom_site_label
 _atom_site_symmetry_multiplicity
 _atom_site_fract_x
 _atom_site_fract_y
 _atom_site_fract_z
 _atom_site_occupancy
  Co  Co0  1  0.097446  0.337215  0.753335  1
  Co  Co1  1  0.902553  0.662785  0.246665  1
  Pb  Pb2  1  0.635985  0.489470  0.805454  1
  Pb  Pb3  1  0.364015  0.510530  0.194546  1
  Pb  Pb4  1  0.747691  0.907860  0.613392  1
  Pb  Pb5  1  0.252310  0.092140  0.386608  1
  Se  Se6  1  0.232144  0.633527  0.582644  1
  Se  Se7  1  0.906293  0.213861  0.040926  1
  Se  Se8  1  0.360063  0.083448  0.793163  1
  Se  Se9  1  0.639936  0.916552  0.206837  1
  Se  Se10  1  0.093706  0.786139  0.959073  1
  Se  Se11  1  0.767857  0.366473  0.417356  1
  O  O12  1  0.172842  0.628122  0.380382  1
  O  O13  1  0.827158  0.371878  0.619619  1
  O  O14  1  0.218987  0.410571  0.586156  1
  O  O15  1  0.781013  0.589429  0.413844  1
  O  O16  1  0.471525  0.696495  0.643647  1
  O  O17  1  0.528475  0.303505  0.356353  1
  O  O18  1  0.059737  0.814948  0.145642  1
  O  O19  1  0.940263  0.185052  0.854358  1
  O  O20  1  0.159632  0.577385  0.927801  1
  O  O21  1  0.840369  0.422615  0.072199  1
  O  O22  1  0.869229  0.751804  0.831666  1
  O  O23  1  0.130772  0.248196  0.168334  1
  O  O24  1  0.486798  0.879667  0.315442  1
  O  O25  1  0.513201  0.120333  0.684557  1
  O  O26  1  0.852638  0.943804  0.351990  1
  O  O27  1  0.357507  0.298643  0.897817  1
  O  O28  1  0.642494  0.701357  0.102183  1
  O  O29  1  0.147361  0.056196  0.648011  1
