# generated using pymatgen
data_Na5Sm4Gd11Sn16
_symmetry_space_group_name_H-M   'P 1'
_cell_length_a   7.89169753
_cell_length_b   8.29228315
_cell_length_c   15.66459500
_cell_angle_alpha   90.05004573
_cell_angle_beta   89.87924000
_cell_angle_gamma   90.02809592
_symmetry_Int_Tables_number   1
_chemical_formula_structural   Na5Sm4Gd11Sn16
_chemical_formula_sum   'Na5 Sm4 Gd11 Sn16'
_cell_volume   1025.09129008
_cell_formula_units_Z   1
loop_
 _symmetry_equiv_pos_site_id
 _symmetry_equiv_pos_as_xyz
  1  'x, y, z'
loop_
 _atom_site_type_symbol
 _atom_site_label
 _atom_site_symmetry_multiplicity
 _atom_site_fract_x
 _atom_site_fract_y
 _atom_site_fract_z
 _atom_site_occupancy
  Na  Na0  1  0.667276  0.168629  0.126639  1
  Na  Na1  1  0.156730  0.496374  0.750280  1
  Na  Na2  1  0.656664  0.005171  0.749743  1
  Na  Na3  1  0.843069  0.499287  0.248243  1
  Na  Na4  1  0.348431  0.997814  0.246583  1
  Sm  Sm5  1  0.333558  0.830169  0.874003  1
  Sm  Sm6  1  0.832860  0.671080  0.626781  1
  Sm  Sm7  1  0.667440  0.171123  0.372251  1
  Sm  Sm8  1  0.167693  0.330309  0.127495  1
  Gd  Gd9  1  0.166419  0.329194  0.373397  1
  Gd  Gd10  1  0.331561  0.829597  0.625924  1
  Gd  Gd11  1  0.830213  0.671303  0.875182  1
  Gd  Gd12  1  0.492379  0.312731  0.907276  1
  Gd  Gd13  1  0.991982  0.185112  0.594082  1
  Gd  Gd14  1  0.508456  0.686662  0.404477  1
  Gd  Gd15  1  0.007633  0.815461  0.096380  1
  Gd  Gd16  1  0.510733  0.687215  0.095324  1
  Gd  Gd17  1  0.006811  0.815505  0.405480  1
  Gd  Gd18  1  0.491348  0.314847  0.594356  1
  Gd  Gd19  1  0.990436  0.185526  0.904970  1
  Sn  Sn20  1  0.325660  0.036721  0.037725  1
  Sn  Sn21  1  0.825365  0.464805  0.461153  1
  Sn  Sn22  1  0.673223  0.963803  0.538034  1
  Sn  Sn23  1  0.172443  0.535956  0.961295  1
  Sn  Sn24  1  0.672725  0.965393  0.962095  1
  Sn  Sn25  1  0.174673  0.535779  0.538283  1
  Sn  Sn26  1  0.323515  0.036988  0.461531  1
  Sn  Sn27  1  0.827059  0.459806  0.038527  1
  Sn  Sn28  1  0.524577  0.596246  0.750809  1
  Sn  Sn29  1  0.024163  0.903972  0.750758  1
  Sn  Sn30  1  0.474212  0.405331  0.249785  1
  Sn  Sn31  1  0.976419  0.094229  0.249862  1
  Sn  Sn32  1  0.289161  0.144641  0.749829  1
  Sn  Sn33  1  0.788798  0.357010  0.750157  1
  Sn  Sn34  1  0.716402  0.851326  0.250569  1
  Sn  Sn35  1  0.209913  0.644892  0.250722  1
