# generated using pymatgen
data_GdPa2Ni3Sb4
_symmetry_space_group_name_H-M   'P 1'
_cell_length_a   8.20542379
_cell_length_b   8.18676441
_cell_length_c   8.19029600
_cell_angle_alpha   109.50068220
_cell_angle_beta   109.42354430
_cell_angle_gamma   109.40610680
_symmetry_Int_Tables_number   1
_chemical_formula_structural   GdPa2Ni3Sb4
_chemical_formula_sum   'Gd2 Pa4 Ni6 Sb8'
_cell_volume   423.97142299
_cell_formula_units_Z   2
loop_
 _symmetry_equiv_pos_site_id
 _symmetry_equiv_pos_as_xyz
  1  'x, y, z'
loop_
 _atom_site_type_symbol
 _atom_site_label
 _atom_site_symmetry_multiplicity
 _atom_site_fract_x
 _atom_site_fract_y
 _atom_site_fract_z
 _atom_site_occupancy
  Gd  Gd0  1  0.623934  0.375188  0.250441  1
  Gd  Gd1  1  0.376066  0.251255  0.626507  1
  Pa  Pa2  1  0.124295  0.749460  0.873080  1
  Pa  Pa3  1  0.748349  0.873468  0.124448  1
  Pa  Pa4  1  0.251651  0.625118  0.376098  1
  Pa  Pa5  1  0.875705  0.125164  0.748785  1
  Ni  Ni6  1  0.879726  0.246549  0.118280  1
  Ni  Ni7  1  0.372238  0.633720  0.753268  1
  Ni  Ni8  1  0.627762  0.761482  0.381030  1
  Ni  Ni9  1  0.766871  0.378682  0.638182  1
  Ni  Ni10  1  0.233129  0.111811  0.871311  1
  Ni  Ni11  1  0.120274  0.866822  0.238554  1
  Sb  Sb12  1  0.501134  0.003277  0.837747  1
  Sb  Sb13  1  0.164512  0.164599  0.166194  1
  Sb  Sb14  1  0.835488  0.500087  0.001682  1
  Sb  Sb15  1  0.001307  0.836365  0.498316  1
  Sb  Sb16  1  0.336013  0.497884  0.999233  1
  Sb  Sb17  1  0.998693  0.335058  0.497009  1
  Sb  Sb18  1  0.498866  0.002143  0.336613  1
  Sb  Sb19  1  0.663987  0.661871  0.663220  1
