# generated using pymatgen
data_Tb2YbSm3Tm2(B6Os)4
_symmetry_space_group_name_H-M   'P 1'
_cell_length_a   3.67135300
_cell_length_b   9.18653511
_cell_length_c   11.58925064
_cell_angle_alpha   90.13907442
_cell_angle_beta   90.00000000
_cell_angle_gamma   90.00000000
_symmetry_Int_Tables_number   1
_chemical_formula_structural   Tb2YbSm3Tm2(B6Os)4
_chemical_formula_sum   'Tb2 Yb1 Sm3 Tm2 B24 Os4'
_cell_volume   390.86965807
_cell_formula_units_Z   1
loop_
 _symmetry_equiv_pos_site_id
 _symmetry_equiv_pos_as_xyz
  1  'x, y, z'
loop_
 _atom_site_type_symbol
 _atom_site_label
 _atom_site_symmetry_multiplicity
 _atom_site_fract_x
 _atom_site_fract_y
 _atom_site_fract_z
 _atom_site_occupancy
  Tb  Tb0  1  0.000000  0.943911  0.371371  1
  Tb  Tb1  1  0.000000  0.057215  0.630180  1
  Yb  Yb2  1  0.000000  0.177570  0.914142  1
  Sm  Sm3  1  0.000000  0.322207  0.414480  1
  Sm  Sm4  1  0.000000  0.677176  0.586705  1
  Sm  Sm5  1  0.000000  0.823443  0.084607  1
  Tm  Tm6  1  0.000000  0.442090  0.126595  1
  Tm  Tm7  1  0.000000  0.555446  0.872243  1
  B  B8  1  0.500000  0.554631  0.430927  1
  B  B9  1  0.500000  0.445616  0.568929  1
  B  B10  1  0.500000  0.056074  0.067004  1
  B  B11  1  0.500000  0.946182  0.931664  1
  B  B12  1  0.500000  0.748010  0.417612  1
  B  B13  1  0.500000  0.252540  0.583209  1
  B  B14  1  0.500000  0.249367  0.080542  1
  B  B15  1  0.500000  0.750558  0.917840  1
  B  B16  1  0.500000  0.789019  0.265800  1
  B  B17  1  0.500000  0.210768  0.735449  1
  B  B18  1  0.500000  0.290860  0.232602  1
  B  B19  1  0.500000  0.708349  0.767140  1
  B  B20  1  0.500000  0.629535  0.184444  1
  B  B21  1  0.500000  0.369244  0.815679  1
  B  B22  1  0.500000  0.131795  0.313773  1
  B  B23  1  0.500000  0.868534  0.687176  1
  B  B24  1  0.500000  0.985846  0.212005  1
  B  B25  1  0.500000  0.016006  0.788580  1
  B  B26  1  0.500000  0.483461  0.285498  1
  B  B27  1  0.500000  0.515773  0.713994  1
  B  B28  1  0.500000  0.601201  0.027767  1
  B  B29  1  0.500000  0.397818  0.971752  1
  B  B30  1  0.500000  0.105562  0.471484  1
  B  B31  1  0.500000  0.894528  0.529278  1
  Os  Os32  1  0.000000  0.636811  0.319421  1
  Os  Os33  1  0.000000  0.363242  0.680210  1
  Os  Os34  1  0.000000  0.139911  0.178978  1
  Os  Os35  1  0.000000  0.859695  0.820916  1
