# generated using pymatgen
data_ErBi2SbO7
_symmetry_space_group_name_H-M   'P 1'
_cell_length_a   6.48828595
_cell_length_b   6.78879674
_cell_length_c   7.64425204
_cell_angle_alpha   106.38773140
_cell_angle_beta   89.63643553
_cell_angle_gamma   98.94536303
_symmetry_Int_Tables_number   1
_chemical_formula_structural   ErBi2SbO7
_chemical_formula_sum   'Er2 Bi4 Sb2 O14'
_cell_volume   318.85301285
_cell_formula_units_Z   2
loop_
 _symmetry_equiv_pos_site_id
 _symmetry_equiv_pos_as_xyz
  1  'x, y, z'
loop_
 _atom_site_type_symbol
 _atom_site_label
 _atom_site_symmetry_multiplicity
 _atom_site_fract_x
 _atom_site_fract_y
 _atom_site_fract_z
 _atom_site_occupancy
  Er  Er0  1  0.542734  0.995531  0.752558  1
  Er  Er1  1  0.457266  0.004469  0.247442  1
  Bi  Bi2  1  0.256608  0.512642  0.878707  1
  Bi  Bi3  1  0.743392  0.487358  0.121293  1
  Bi  Bi4  1  0.730576  0.461116  0.608609  1
  Bi  Bi5  1  0.269424  0.538884  0.391391  1
  Sb  Sb6  1  0.000000  0.000000  0.500000  1
  Sb  Sb7  1  0.000000  0.000000  0.000000  1
  O  O8  1  0.458580  0.661190  0.179971  1
  O  O9  1  0.541420  0.338810  0.820029  1
  O  O10  1  0.294453  0.953909  0.954436  1
  O  O11  1  0.705547  0.046091  0.045564  1
  O  O12  1  0.288872  0.928185  0.514900  1
  O  O13  1  0.711128  0.071815  0.485100  1
  O  O14  1  0.528078  0.347734  0.347613  1
  O  O15  1  0.471922  0.652266  0.652387  1
  O  O16  1  0.917386  0.687991  0.954285  1
  O  O17  1  0.082614  0.312009  0.045715  1
  O  O18  1  0.098069  0.307049  0.612235  1
  O  O19  1  0.901931  0.692951  0.387765  1
  O  O20  1  0.898736  0.955378  0.738456  1
  O  O21  1  0.101264  0.044622  0.261544  1
