# generated using pymatgen
data_Ho4Mn2PbO12
_symmetry_space_group_name_H-M   'P 1'
_cell_length_a   6.78572258
_cell_length_b   6.78572178
_cell_length_c   7.13195549
_cell_angle_alpha   74.76036403
_cell_angle_beta   74.76036775
_cell_angle_gamma   50.49962528
_symmetry_Int_Tables_number   1
_chemical_formula_structural   Ho4Mn2PbO12
_chemical_formula_sum   'Ho4 Mn2 Pb1 O12'
_cell_volume   242.46140608
_cell_formula_units_Z   1
loop_
 _symmetry_equiv_pos_site_id
 _symmetry_equiv_pos_as_xyz
  1  'x, y, z'
loop_
 _atom_site_type_symbol
 _atom_site_label
 _atom_site_symmetry_multiplicity
 _atom_site_fract_x
 _atom_site_fract_y
 _atom_site_fract_z
 _atom_site_occupancy
  Ho  Ho0  1  0.693367  0.693367  0.646662  1
  Ho  Ho1  1  0.304518  0.304518  0.840768  1
  Ho  Ho2  1  0.694324  0.694324  0.159266  1
  Ho  Ho3  1  0.000494  0.000494  0.495660  1
  Mn  Mn4  1  0.757196  0.244783  0.999797  1
  Mn  Mn5  1  0.244783  0.757196  0.999797  1
  Pb  Pb6  1  0.304019  0.304019  0.358167  1
  O  O7  1  0.902661  0.424864  0.916138  1
  O  O8  1  0.424864  0.902661  0.916138  1
  O  O9  1  0.100975  0.574547  0.088781  1
  O  O10  1  0.574547  0.100975  0.088781  1
  O  O11  1  0.100008  0.596043  0.568844  1
  O  O12  1  0.596043  0.100008  0.568844  1
  O  O13  1  0.903275  0.401275  0.425423  1
  O  O14  1  0.401275  0.903275  0.425423  1
  O  O15  1  0.995291  0.995291  0.821266  1
  O  O16  1  0.002202  0.002202  0.178827  1
  O  O17  1  0.499294  0.499294  0.817662  1
  O  O18  1  0.500863  0.500863  0.183758  1
