# generated using pymatgen
data_Zr7Mn(Co4As3)4
_symmetry_space_group_name_H-M   'P 1'
_cell_length_a   12.52094048
_cell_length_b   12.52094025
_cell_length_c   3.77595400
_cell_angle_alpha   90.00000000
_cell_angle_beta   90.00000000
_cell_angle_gamma   120.08971053
_symmetry_Int_Tables_number   1
_chemical_formula_structural   Zr7Mn(Co4As3)4
_chemical_formula_sum   'Zr7 Mn1 Co16 As12'
_cell_volume   512.19804440
_cell_formula_units_Z   1
loop_
 _symmetry_equiv_pos_site_id
 _symmetry_equiv_pos_as_xyz
  1  'x, y, z'
loop_
 _atom_site_type_symbol
 _atom_site_label
 _atom_site_symmetry_multiplicity
 _atom_site_fract_x
 _atom_site_fract_y
 _atom_site_fract_z
 _atom_site_occupancy
  Zr  Zr0  1  0.818131  0.818131  0.500000  1
  Zr  Zr1  1  0.998823  0.174159  0.500000  1
  Zr  Zr2  1  0.556639  0.999351  0.000000  1
  Zr  Zr3  1  0.333108  0.666023  0.000000  1
  Zr  Zr4  1  0.666023  0.333108  0.000000  1
  Zr  Zr5  1  0.999351  0.556639  0.000000  1
  Zr  Zr6  1  0.174159  0.998823  0.500000  1
  Mn  Mn7  1  0.442703  0.442703  0.000000  1
  Co  Co8  1  0.627459  0.819956  0.000000  1
  Co  Co9  1  0.376250  0.201525  0.000000  1
  Co  Co10  1  0.001231  0.720184  0.500000  1
  Co  Co11  1  0.284847  0.284847  0.500000  1
  Co  Co12  1  0.877176  0.355496  0.500000  1
  Co  Co13  1  0.720184  0.001231  0.500000  1
  Co  Co14  1  0.819956  0.627459  0.000000  1
  Co  Co15  1  0.177907  0.805937  0.000000  1
  Co  Co16  1  0.355496  0.877176  0.500000  1
  Co  Co17  1  0.126416  0.478005  0.500000  1
  Co  Co18  1  0.641607  0.518289  0.500000  1
  Co  Co19  1  0.001386  0.001386  0.000000  1
  Co  Co20  1  0.518289  0.641607  0.500000  1
  Co  Co21  1  0.478005  0.126416  0.500000  1
  Co  Co22  1  0.201525  0.376250  0.000000  1
  Co  Co23  1  0.805937  0.177907  0.000000  1
  As  As24  1  0.004210  0.346800  0.000000  1
  As  As25  1  0.823934  0.515239  0.500000  1
  As  As26  1  0.689304  0.175615  0.500000  1
  As  As27  1  0.177962  0.177962  0.000000  1
  As  As28  1  0.641542  0.641542  0.000000  1
  As  As29  1  0.823872  0.997916  0.000000  1
  As  As30  1  0.515239  0.823934  0.500000  1
  As  As31  1  0.175615  0.689304  0.500000  1
  As  As32  1  0.346800  0.004210  0.000000  1
  As  As33  1  0.483933  0.317066  0.500000  1
  As  As34  1  0.997916  0.823872  0.000000  1
  As  As35  1  0.317066  0.483933  0.500000  1
