# generated using pymatgen
data_Sm5B(WC3)2
_symmetry_space_group_name_H-M   'P 1'
_cell_length_a   8.65186346
_cell_length_b   8.65186389
_cell_length_c   3.50292700
_cell_angle_alpha   90.00000000
_cell_angle_beta   90.00000000
_cell_angle_gamma   123.93350130
_symmetry_Int_Tables_number   1
_chemical_formula_structural   Sm5B(WC3)2
_chemical_formula_sum   'Sm5 B1 W2 C6'
_cell_volume   217.55255982
_cell_formula_units_Z   1
loop_
 _symmetry_equiv_pos_site_id
 _symmetry_equiv_pos_as_xyz
  1  'x, y, z'
loop_
 _atom_site_type_symbol
 _atom_site_label
 _atom_site_symmetry_multiplicity
 _atom_site_fract_x
 _atom_site_fract_y
 _atom_site_fract_z
 _atom_site_occupancy
  Sm  Sm0  1  0.500000  0.500000  0.000000  1
  Sm  Sm1  1  0.071598  0.322818  0.500000  1
  Sm  Sm2  1  0.928402  0.677182  0.500000  1
  Sm  Sm3  1  0.677182  0.928402  0.500000  1
  Sm  Sm4  1  0.322818  0.071598  0.500000  1
  B  B5  1  0.000000  0.000000  0.000000  1
  W  W6  1  0.712106  0.287894  0.000000  1
  W  W7  1  0.287894  0.712106  0.000000  1
  C  C8  1  0.631883  0.368117  0.500000  1
  C  C9  1  0.368117  0.631883  0.500000  1
  C  C10  1  0.181021  0.181021  0.000000  1
  C  C11  1  0.818979  0.818979  0.000000  1
  C  C12  1  0.000000  0.500000  0.000000  1
  C  C13  1  0.500000  0.000000  0.000000  1
