# generated using pymatgen
data_TbTh7(MnSi3)4
_symmetry_space_group_name_H-M   'P 1'
_cell_length_a   8.23676600
_cell_length_b   8.23676548
_cell_length_c   8.21503900
_cell_angle_alpha   90.00000000
_cell_angle_beta   90.00000000
_cell_angle_gamma   120.00000209
_symmetry_Int_Tables_number   1
_chemical_formula_structural   TbTh7(MnSi3)4
_chemical_formula_sum   'Tb1 Th7 Mn4 Si12'
_cell_volume   482.67375055
_cell_formula_units_Z   1
loop_
 _symmetry_equiv_pos_site_id
 _symmetry_equiv_pos_as_xyz
  1  'x, y, z'
loop_
 _atom_site_type_symbol
 _atom_site_label
 _atom_site_symmetry_multiplicity
 _atom_site_fract_x
 _atom_site_fract_y
 _atom_site_fract_z
 _atom_site_occupancy
  Tb  Tb0  1  0.000000  0.000000  0.750000  1
  Th  Th1  1  0.500343  0.000684  0.250000  1
  Th  Th2  1  0.499687  0.999377  0.750000  1
  Th  Th3  1  0.999316  0.499657  0.250000  1
  Th  Th4  1  0.000623  0.500313  0.750000  1
  Th  Th5  1  0.500343  0.499657  0.250000  1
  Th  Th6  1  0.499687  0.500313  0.750000  1
  Th  Th7  1  0.000000  0.000000  0.250000  1
  Mn  Mn8  1  0.333333  0.666667  0.002041  1
  Mn  Mn9  1  0.666667  0.333333  0.000172  1
  Mn  Mn10  1  0.666667  0.333333  0.499828  1
  Mn  Mn11  1  0.333333  0.666667  0.497959  1
  Si  Si12  1  0.168083  0.336166  0.998386  1
  Si  Si13  1  0.831947  0.663893  0.997268  1
  Si  Si14  1  0.663834  0.831917  0.998386  1
  Si  Si15  1  0.831947  0.663893  0.502732  1
  Si  Si16  1  0.336107  0.168053  0.997268  1
  Si  Si17  1  0.168083  0.336166  0.501614  1
  Si  Si18  1  0.168083  0.831917  0.998386  1
  Si  Si19  1  0.336107  0.168053  0.502732  1
  Si  Si20  1  0.831947  0.168053  0.997268  1
  Si  Si21  1  0.663834  0.831917  0.501614  1
  Si  Si22  1  0.831947  0.168053  0.502732  1
  Si  Si23  1  0.168083  0.831917  0.501614  1
