# generated using pymatgen
data_Ho6Tm10Ga6FeCo
_symmetry_space_group_name_H-M   'P 1'
_cell_length_a   9.88265300
_cell_length_b   9.87897222
_cell_length_c   6.88738604
_cell_angle_alpha   89.98952278
_cell_angle_beta   90.00001888
_cell_angle_gamma   120.01136402
_symmetry_Int_Tables_number   1
_chemical_formula_structural   Ho6Tm10Ga6FeCo
_chemical_formula_sum   'Ho6 Tm10 Ga6 Fe1 Co1'
_cell_volume   582.26490698
_cell_formula_units_Z   1
loop_
 _symmetry_equiv_pos_site_id
 _symmetry_equiv_pos_as_xyz
  1  'x, y, z'
loop_
 _atom_site_type_symbol
 _atom_site_label
 _atom_site_symmetry_multiplicity
 _atom_site_fract_x
 _atom_site_fract_y
 _atom_site_fract_z
 _atom_site_occupancy
  Ho  Ho0  1  0.462808  0.925635  0.208151  1
  Ho  Ho1  1  0.535767  0.464213  0.707158  1
  Ho  Ho2  1  0.928449  0.464216  0.707185  1
  Ho  Ho3  1  0.535866  0.071743  0.707397  1
  Ho  Ho4  1  0.000070  0.000146  0.231727  1
  Ho  Ho5  1  0.999909  0.999798  0.732819  1
  Tm  Tm6  1  0.173135  0.826557  0.510454  1
  Tm  Tm7  1  0.653427  0.826554  0.510460  1
  Tm  Tm8  1  0.173532  0.347058  0.510283  1
  Tm  Tm9  1  0.826752  0.173552  0.012152  1
  Tm  Tm10  1  0.346787  0.173555  0.012126  1
  Tm  Tm11  1  0.826469  0.652962  0.012331  1
  Tm  Tm12  1  0.333210  0.666388  0.829993  1
  Tm  Tm13  1  0.666794  0.333556  0.328458  1
  Tm  Tm14  1  0.462634  0.537269  0.207812  1
  Tm  Tm15  1  0.074635  0.537277  0.207812  1
  Ga  Ga16  1  0.163211  0.836426  0.958236  1
  Ga  Ga17  1  0.673241  0.836454  0.958270  1
  Ga  Ga18  1  0.163445  0.326918  0.958330  1
  Ga  Ga19  1  0.836133  0.163862  0.457649  1
  Ga  Ga20  1  0.327727  0.163857  0.457666  1
  Ga  Ga21  1  0.836159  0.672302  0.457558  1
  Fe  Fe22  1  0.333171  0.666352  0.445783  1
  Co  Co23  1  0.666668  0.333350  0.944233  1
