# generated using pymatgen
data_Tm2LuAuO6
_symmetry_space_group_name_H-M   'P 1'
_cell_length_a   3.50585523
_cell_length_b   5.50047633
_cell_length_c   7.02566164
_cell_angle_alpha   89.26094936
_cell_angle_beta   102.39870073
_cell_angle_gamma   91.10898411
_symmetry_Int_Tables_number   1
_chemical_formula_structural   Tm2LuAuO6
_chemical_formula_sum   'Tm2 Lu1 Au1 O6'
_cell_volume   132.29205762
_cell_formula_units_Z   1
loop_
 _symmetry_equiv_pos_site_id
 _symmetry_equiv_pos_as_xyz
  1  'x, y, z'
loop_
 _atom_site_type_symbol
 _atom_site_label
 _atom_site_symmetry_multiplicity
 _atom_site_fract_x
 _atom_site_fract_y
 _atom_site_fract_z
 _atom_site_occupancy
  Tm  Tm0  1  0.611864  0.530575  0.761528  1
  Tm  Tm1  1  0.388136  0.469425  0.238472  1
  Lu  Lu2  1  0.000000  0.000000  0.500000  1
  Au  Au3  1  0.000000  0.000000  0.000000  1
  O  O4  1  0.832321  0.676563  0.104517  1
  O  O5  1  0.167679  0.323437  0.895483  1
  O  O6  1  0.523910  0.254185  0.532682  1
  O  O7  1  0.476090  0.745815  0.467318  1
  O  O8  1  0.124815  0.800908  0.780931  1
  O  O9  1  0.875185  0.199092  0.219069  1
