# generated using pymatgen
data_CsNd(NbBr3)6
_symmetry_space_group_name_H-M   'P 1'
_cell_length_a   10.89693311
_cell_length_b   10.89693264
_cell_length_c   10.89693243
_cell_angle_alpha   55.36591236
_cell_angle_beta   55.36591008
_cell_angle_gamma   55.36590859
_symmetry_Int_Tables_number   1
_chemical_formula_structural   CsNd(NbBr3)6
_chemical_formula_sum   'Cs1 Nd1 Nb6 Br18'
_cell_volume   816.45013245
_cell_formula_units_Z   1
loop_
 _symmetry_equiv_pos_site_id
 _symmetry_equiv_pos_as_xyz
  1  'x, y, z'
loop_
 _atom_site_type_symbol
 _atom_site_label
 _atom_site_symmetry_multiplicity
 _atom_site_fract_x
 _atom_site_fract_y
 _atom_site_fract_z
 _atom_site_occupancy
  Cs  Cs0  1  0.221749  0.221749  0.221749  1
  Nd  Nd1  1  0.498246  0.498246  0.498246  1
  Nb  Nb2  1  0.809251  0.141064  0.918643  1
  Nb  Nb3  1  0.918643  0.809251  0.141064  1
  Nb  Nb4  1  0.141064  0.918643  0.809251  1
  Nb  Nb5  1  0.191740  0.859310  0.080728  1
  Nb  Nb6  1  0.080728  0.191740  0.859310  1
  Nb  Nb7  1  0.859310  0.080728  0.191740  1
  Br  Br8  1  0.863479  0.407903  0.729957  1
  Br  Br9  1  0.729957  0.863479  0.407903  1
  Br  Br10  1  0.407903  0.729957  0.863479  1
  Br  Br11  1  0.135708  0.592584  0.272697  1
  Br  Br12  1  0.272697  0.135708  0.592584  1
  Br  Br13  1  0.592584  0.272697  0.135708  1
  Br  Br14  1  0.534000  0.338125  0.810724  1
  Br  Br15  1  0.810724  0.534000  0.338125  1
  Br  Br16  1  0.338125  0.810724  0.534000  1
  Br  Br17  1  0.463256  0.664192  0.190329  1
  Br  Br18  1  0.190329  0.463256  0.664192  1
  Br  Br19  1  0.664192  0.190329  0.463256  1
  Br  Br20  1  0.667475  0.936719  0.071544  1
  Br  Br21  1  0.071544  0.667475  0.936719  1
  Br  Br22  1  0.936719  0.071544  0.667475  1
  Br  Br23  1  0.336457  0.061281  0.923976  1
  Br  Br24  1  0.923976  0.336457  0.061281  1
  Br  Br25  1  0.061281  0.923976  0.336457  1
