# generated using pymatgen
data_ZrMnNi3Pt
_symmetry_space_group_name_H-M   'P 1'
_cell_length_a   4.82455843
_cell_length_b   4.82455759
_cell_length_c   4.82455895
_cell_angle_alpha   60.70189622
_cell_angle_beta   60.70190297
_cell_angle_gamma   60.70189180
_symmetry_Int_Tables_number   1
_chemical_formula_structural   ZrMnNi3Pt
_chemical_formula_sum   'Zr1 Mn1 Ni3 Pt1'
_cell_volume   80.66474013
_cell_formula_units_Z   1
loop_
 _symmetry_equiv_pos_site_id
 _symmetry_equiv_pos_as_xyz
  1  'x, y, z'
loop_
 _atom_site_type_symbol
 _atom_site_label
 _atom_site_symmetry_multiplicity
 _atom_site_fract_x
 _atom_site_fract_y
 _atom_site_fract_z
 _atom_site_occupancy
  Zr  Zr0  1  0.003074  0.003074  0.003074  1
  Mn  Mn1  1  0.623167  0.623167  0.623167  1
  Ni  Ni2  1  0.623605  0.126222  0.623605  1
  Ni  Ni3  1  0.126222  0.623605  0.623605  1
  Ni  Ni4  1  0.623605  0.623605  0.126222  1
  Pt  Pt5  1  0.250328  0.250328  0.250328  1
