# generated using pymatgen
data_Tb2Co9Tc3As7
_symmetry_space_group_name_H-M   'P 1'
_cell_length_a   3.82967300
_cell_length_b   9.36096655
_cell_length_c   9.36096800
_cell_angle_alpha   119.99999804
_cell_angle_beta   90.00000000
_cell_angle_gamma   90.00000000
_symmetry_Int_Tables_number   1
_chemical_formula_structural   Tb2Co9Tc3As7
_chemical_formula_sum   'Tb2 Co9 Tc3 As7'
_cell_volume   290.62554683
_cell_formula_units_Z   1
loop_
 _symmetry_equiv_pos_site_id
 _symmetry_equiv_pos_as_xyz
  1  'x, y, z'
loop_
 _atom_site_type_symbol
 _atom_site_label
 _atom_site_symmetry_multiplicity
 _atom_site_fract_x
 _atom_site_fract_y
 _atom_site_fract_z
 _atom_site_occupancy
  Tb  Tb0  1  0.000000  0.666667  0.333333  1
  Tb  Tb1  1  0.500000  0.333333  0.666667  1
  Co  Co2  1  0.000000  0.569088  0.940928  1
  Co  Co3  1  0.000000  0.371840  0.430912  1
  Co  Co4  1  0.000000  0.059072  0.628160  1
  Co  Co5  1  0.000000  0.875535  0.157227  1
  Co  Co6  1  0.000000  0.281691  0.124465  1
  Co  Co7  1  0.000000  0.842773  0.718309  1
  Co  Co8  1  0.500000  0.946813  0.380688  1
  Co  Co9  1  0.500000  0.433874  0.053187  1
  Co  Co10  1  0.500000  0.619312  0.566126  1
  Tc  Tc11  1  0.500000  0.782798  0.900381  1
  Tc  Tc12  1  0.500000  0.117583  0.217202  1
  Tc  Tc13  1  0.500000  0.099619  0.882417  1
  As  As14  1  0.000000  0.000000  0.000000  1
  As  As15  1  0.500000  0.706633  0.116280  1
  As  As16  1  0.500000  0.409649  0.293367  1
  As  As17  1  0.500000  0.883720  0.590351  1
  As  As18  1  0.000000  0.587980  0.701646  1
  As  As19  1  0.000000  0.113666  0.412020  1
  As  As20  1  0.000000  0.298354  0.886334  1
