# generated using pymatgen
data_Tm2Lu4Al21Si3Os8
_symmetry_space_group_name_H-M   'P 1'
_cell_length_a   8.68493801
_cell_length_b   8.68493777
_cell_length_c   9.60285000
_cell_angle_alpha   89.99833258
_cell_angle_beta   90.00166653
_cell_angle_gamma   119.99471872
_symmetry_Int_Tables_number   1
_chemical_formula_structural   Tm2Lu4Al21Si3Os8
_chemical_formula_sum   'Tm2 Lu4 Al21 Si3 Os8'
_cell_volume   627.31738026
_cell_formula_units_Z   1
loop_
 _symmetry_equiv_pos_site_id
 _symmetry_equiv_pos_as_xyz
  1  'x, y, z'
loop_
 _atom_site_type_symbol
 _atom_site_label
 _atom_site_symmetry_multiplicity
 _atom_site_fract_x
 _atom_site_fract_y
 _atom_site_fract_z
 _atom_site_occupancy
  Tm  Tm0  1  0.196347  0.803653  0.247703  1
  Tm  Tm1  1  0.803154  0.196846  0.752474  1
  Lu  Lu2  1  0.196892  0.393578  0.247601  1
  Lu  Lu3  1  0.802533  0.605311  0.752510  1
  Lu  Lu4  1  0.606422  0.803108  0.247601  1
  Lu  Lu5  1  0.394689  0.197467  0.752510  1
  Al  Al6  1  0.333433  0.666567  0.475151  1
  Al  Al7  1  0.164180  0.328192  0.575214  1
  Al  Al8  1  0.835131  0.670430  0.422558  1
  Al  Al9  1  0.671808  0.835820  0.575214  1
  Al  Al10  1  0.834926  0.670042  0.077479  1
  Al  Al11  1  0.329570  0.164869  0.422558  1
  Al  Al12  1  0.165366  0.330537  0.921933  1
  Al  Al13  1  0.164070  0.835930  0.575328  1
  Al  Al14  1  0.329958  0.165074  0.077479  1
  Al  Al15  1  0.835249  0.164751  0.422445  1
  Al  Al16  1  0.669463  0.834634  0.921933  1
  Al  Al17  1  0.835052  0.164948  0.077627  1
  Al  Al18  1  0.165233  0.834767  0.921808  1
  Al  Al19  1  0.563333  0.126384  0.248906  1
  Al  Al20  1  0.436980  0.874235  0.748792  1
  Al  Al21  1  0.873616  0.436667  0.248906  1
  Al  Al22  1  0.125765  0.563020  0.748792  1
  Al  Al23  1  0.563037  0.436963  0.248913  1
  Al  Al24  1  0.437269  0.562731  0.748781  1
  Al  Al25  1  0.999838  0.000162  0.248997  1
  Al  Al26  1  0.000160  0.999840  0.749462  1
  Si  Si27  1  0.333496  0.666504  0.040910  1
  Si  Si28  1  0.666516  0.333484  0.960590  1
  Si  Si29  1  0.666524  0.333476  0.540661  1
  Os  Os30  1  0.500007  0.000051  0.998766  1
  Os  Os31  1  0.999949  0.499993  0.998766  1
  Os  Os32  1  0.504225  0.008470  0.501531  1
  Os  Os33  1  0.500038  0.499962  0.998744  1
  Os  Os34  1  0.991530  0.495775  0.501531  1
  Os  Os35  1  0.504234  0.495766  0.501572  1
  Os  Os36  1  0.000006  0.999994  0.999040  1
  Os  Os37  1  0.000000  0.000000  0.499214  1
