# generated using pymatgen
data_Tm11LuGaCo4Ru
_symmetry_space_group_name_H-M   'P 1'
_cell_length_a   8.10492171
_cell_length_b   8.10711149
_cell_length_c   8.10711035
_cell_angle_alpha   111.09338425
_cell_angle_beta   110.93544196
_cell_angle_gamma   106.43742711
_symmetry_Int_Tables_number   1
_chemical_formula_structural   Tm11LuGaCo4Ru
_chemical_formula_sum   'Tm11 Lu1 Ga1 Co4 Ru1'
_cell_volume   409.15863603
_cell_formula_units_Z   1
loop_
 _symmetry_equiv_pos_site_id
 _symmetry_equiv_pos_as_xyz
  1  'x, y, z'
loop_
 _atom_site_type_symbol
 _atom_site_label
 _atom_site_symmetry_multiplicity
 _atom_site_fract_x
 _atom_site_fract_y
 _atom_site_fract_z
 _atom_site_occupancy
  Tm  Tm0  1  0.182914  0.221673  0.404238  1
  Tm  Tm1  1  0.182914  0.778675  0.961241  1
  Tm  Tm2  1  0.683193  0.487465  0.803676  1
  Tm  Tm3  1  0.683193  0.879517  0.195728  1
  Tm  Tm4  1  0.964019  0.271893  0.692126  1
  Tm  Tm5  1  0.035402  0.727975  0.307427  1
  Tm  Tm6  1  0.316958  0.120951  0.804799  1
  Tm  Tm7  1  0.316958  0.512158  0.196007  1
  Tm  Tm8  1  0.817339  0.221873  0.039519  1
  Tm  Tm9  1  0.817339  0.777819  0.595466  1
  Tm  Tm10  1  0.420774  0.728236  0.692538  1
  Lu  Lu11  1  0.579537  0.272319  0.307220  1
  Ga  Ga12  1  0.499897  0.000146  0.499750  1
  Co  Co13  1  0.886986  0.886820  0.000166  1
  Co  Co14  1  0.371940  0.499998  0.871942  1
  Co  Co15  1  0.628095  0.499772  0.128324  1
  Co  Co16  1  0.113585  0.113241  0.000344  1
  Ru  Ru17  1  0.998957  0.499468  0.499488  1
