# generated using pymatgen
data_Li4LaTh3Si8
_symmetry_space_group_name_H-M   'P 1'
_cell_length_a   3.88401000
_cell_length_b   7.78679277
_cell_length_c   10.51213221
_cell_angle_alpha   89.65147714
_cell_angle_beta   90.00000000
_cell_angle_gamma   90.00000000
_symmetry_Int_Tables_number   1
_chemical_formula_structural   Li4LaTh3Si8
_chemical_formula_sum   'Li4 La1 Th3 Si8'
_cell_volume   317.92284503
_cell_formula_units_Z   1
loop_
 _symmetry_equiv_pos_site_id
 _symmetry_equiv_pos_as_xyz
  1  'x, y, z'
loop_
 _atom_site_type_symbol
 _atom_site_label
 _atom_site_symmetry_multiplicity
 _atom_site_fract_x
 _atom_site_fract_y
 _atom_site_fract_z
 _atom_site_occupancy
  Li  Li0  1  0.250000  0.997085  0.394244  1
  Li  Li1  1  0.750000  0.010257  0.606351  1
  Li  Li2  1  0.250000  0.488618  0.108872  1
  Li  Li3  1  0.750000  0.508012  0.896164  1
  La  La4  1  0.750000  0.362708  0.363012  1
  Th  Th5  1  0.250000  0.133621  0.862914  1
  Th  Th6  1  0.750000  0.860682  0.134016  1
  Th  Th7  1  0.250000  0.637321  0.636627  1
  Si  Si8  1  0.750000  0.262389  0.066308  1
  Si  Si9  1  0.250000  0.729738  0.929743  1
  Si  Si10  1  0.750000  0.774295  0.430246  1
  Si  Si11  1  0.250000  0.236332  0.573335  1
  Si  Si12  1  0.750000  0.834923  0.816439  1
  Si  Si13  1  0.250000  0.158731  0.177216  1
  Si  Si14  1  0.750000  0.336704  0.685842  1
  Si  Si15  1  0.250000  0.668583  0.318670  1
