# generated using pymatgen
data_Ta3CrPb4O13
_symmetry_space_group_name_H-M   'P 1'
_cell_length_a   7.48758172
_cell_length_b   7.48758289
_cell_length_c   7.48758084
_cell_angle_alpha   60.44019999
_cell_angle_beta   60.44019505
_cell_angle_gamma   60.44019721
_symmetry_Int_Tables_number   1
_chemical_formula_structural   Ta3CrPb4O13
_chemical_formula_sum   'Ta3 Cr1 Pb4 O13'
_cell_volume   299.78548690
_cell_formula_units_Z   1
loop_
 _symmetry_equiv_pos_site_id
 _symmetry_equiv_pos_as_xyz
  1  'x, y, z'
loop_
 _atom_site_type_symbol
 _atom_site_label
 _atom_site_symmetry_multiplicity
 _atom_site_fract_x
 _atom_site_fract_y
 _atom_site_fract_z
 _atom_site_occupancy
  Ta  Ta0  1  0.001348  0.500531  0.500531  1
  Ta  Ta1  1  0.500531  0.500531  0.001348  1
  Ta  Ta2  1  0.500531  0.001348  0.500531  1
  Cr  Cr3  1  0.499951  0.499951  0.499951  1
  Pb  Pb4  1  0.999156  0.999156  0.999156  1
  Pb  Pb5  1  0.502809  0.001973  0.001973  1
  Pb  Pb6  1  0.001973  0.001973  0.502809  1
  Pb  Pb7  1  0.001973  0.502809  0.001973  1
  O  O8  1  0.827448  0.426933  0.426933  1
  O  O9  1  0.430620  0.817455  0.817455  1
  O  O10  1  0.426933  0.426933  0.827448  1
  O  O11  1  0.817455  0.817455  0.430620  1
  O  O12  1  0.817455  0.430620  0.817455  1
  O  O13  1  0.426933  0.827448  0.426933  1
  O  O14  1  0.180601  0.565687  0.565687  1
  O  O15  1  0.567905  0.183276  0.183276  1
  O  O16  1  0.565687  0.565687  0.180601  1
  O  O17  1  0.183276  0.183276  0.567905  1
  O  O18  1  0.183276  0.567905  0.183276  1
  O  O19  1  0.565687  0.180601  0.565687  1
  O  O20  1  0.123448  0.123448  0.123448  1
