# generated using pymatgen
data_LaGeSbO6
_symmetry_space_group_name_H-M   'P 1'
_cell_length_a   5.18921916
_cell_length_b   5.18922445
_cell_length_c   5.25816225
_cell_angle_alpha   90.06291570
_cell_angle_beta   90.06301836
_cell_angle_gamma   119.94939328
_symmetry_Int_Tables_number   1
_chemical_formula_structural   LaGeSbO6
_chemical_formula_sum   'La1 Ge1 Sb1 O6'
_cell_volume   122.68438132
_cell_formula_units_Z   1
loop_
 _symmetry_equiv_pos_site_id
 _symmetry_equiv_pos_as_xyz
  1  'x, y, z'
loop_
 _atom_site_type_symbol
 _atom_site_label
 _atom_site_symmetry_multiplicity
 _atom_site_fract_x
 _atom_site_fract_y
 _atom_site_fract_z
 _atom_site_occupancy
  La  La0  1  0.482547  0.517473  0.499997  1
  Ge  Ge1  1  0.815624  0.184372  0.000000  1
  Sb  Sb2  1  0.149394  0.850619  0.000000  1
  O  O3  1  0.104929  0.151327  0.208869  1
  O  O4  1  0.494525  0.897273  0.209732  1
  O  O5  1  0.850885  0.507148  0.209680  1
  O  O6  1  0.492854  0.149110  0.790310  1
  O  O7  1  0.102728  0.505471  0.790259  1
  O  O8  1  0.848670  0.895066  0.791121  1
