# generated using pymatgen
data_Dy3Er5Cd2NiOs
_symmetry_space_group_name_H-M   'P 1'
_cell_length_a   9.52737881
_cell_length_b   9.52737895
_cell_length_c   9.61422900
_cell_angle_alpha   59.69798604
_cell_angle_beta   59.69798555
_cell_angle_gamma   59.51754719
_symmetry_Int_Tables_number   1
_chemical_formula_structural   Dy3Er5Cd2NiOs
_chemical_formula_sum   'Dy6 Er10 Cd4 Ni2 Os2'
_cell_volume   612.00446276
_cell_formula_units_Z   2
loop_
 _symmetry_equiv_pos_site_id
 _symmetry_equiv_pos_as_xyz
  1  'x, y, z'
loop_
 _atom_site_type_symbol
 _atom_site_label
 _atom_site_symmetry_multiplicity
 _atom_site_fract_x
 _atom_site_fract_y
 _atom_site_fract_z
 _atom_site_occupancy
  Dy  Dy0  1  0.189581  0.805638  0.816082  1
  Dy  Dy1  1  0.805638  0.189581  0.188699  1
  Dy  Dy2  1  0.805638  0.189581  0.816082  1
  Dy  Dy3  1  0.189581  0.805638  0.188699  1
  Dy  Dy4  1  0.815465  0.815465  0.184535  1
  Dy  Dy5  1  0.192287  0.192287  0.807713  1
  Er  Er6  1  0.600370  0.600370  0.591972  1
  Er  Er7  1  0.600370  0.600370  0.207289  1
  Er  Er8  1  0.601932  0.205956  0.596057  1
  Er  Er9  1  0.205956  0.601932  0.596057  1
  Er  Er10  1  0.061264  0.435708  0.439925  1
  Er  Er11  1  0.435708  0.061264  0.063103  1
  Er  Er12  1  0.435708  0.061264  0.439925  1
  Er  Er13  1  0.061264  0.435708  0.063103  1
  Er  Er14  1  0.437991  0.437991  0.062009  1
  Er  Er15  1  0.060339  0.060339  0.439661  1
  Cd  Cd16  1  0.829073  0.829073  0.832926  1
  Cd  Cd17  1  0.829073  0.829073  0.508927  1
  Cd  Cd18  1  0.830065  0.506426  0.831754  1
  Cd  Cd19  1  0.506426  0.830065  0.831754  1
  Ni  Ni20  1  0.391582  0.827218  0.390600  1
  Ni  Ni21  1  0.827218  0.391582  0.390600  1
  Os  Os22  1  0.393735  0.393735  0.388694  1
  Os  Os23  1  0.393735  0.393735  0.823836  1
