# generated using pymatgen
data_Na2AgAu3
_symmetry_space_group_name_H-M   'P 1'
_cell_length_a   5.61375883
_cell_length_b   5.66316426
_cell_length_c   5.61375900
_cell_angle_alpha   60.28817519
_cell_angle_beta   60.00000491
_cell_angle_gamma   60.28818030
_symmetry_Int_Tables_number   1
_chemical_formula_structural   Na2AgAu3
_chemical_formula_sum   'Na2 Ag1 Au3'
_cell_volume   126.74467594
_cell_formula_units_Z   1
loop_
 _symmetry_equiv_pos_site_id
 _symmetry_equiv_pos_as_xyz
  1  'x, y, z'
loop_
 _atom_site_type_symbol
 _atom_site_label
 _atom_site_symmetry_multiplicity
 _atom_site_fract_x
 _atom_site_fract_y
 _atom_site_fract_z
 _atom_site_occupancy
  Na  Na0  1  0.749802  0.750594  0.749802  1
  Na  Na1  1  0.500198  0.499406  0.500198  1
  Ag  Ag2  1  0.125000  0.625000  0.125000  1
  Au  Au3  1  0.125000  0.125000  0.625000  1
  Au  Au4  1  0.625000  0.125000  0.125000  1
  Au  Au5  1  0.125000  0.125000  0.125000  1
