# generated using pymatgen
data_Lu6Co17MoAs12
_symmetry_space_group_name_H-M   'P 1'
_cell_length_a   3.77672300
_cell_length_b   10.90511700
_cell_length_c   12.60771600
_cell_angle_alpha   90.00000000
_cell_angle_beta   90.00000000
_cell_angle_gamma   90.00000000
_symmetry_Int_Tables_number   1
_chemical_formula_structural   Lu6Co17MoAs12
_chemical_formula_sum   'Lu6 Co17 Mo1 As12'
_cell_volume   519.25642615
_cell_formula_units_Z   1
loop_
 _symmetry_equiv_pos_site_id
 _symmetry_equiv_pos_as_xyz
  1  'x, y, z'
loop_
 _atom_site_type_symbol
 _atom_site_label
 _atom_site_symmetry_multiplicity
 _atom_site_fract_x
 _atom_site_fract_y
 _atom_site_fract_z
 _atom_site_occupancy
  Lu  Lu0  1  0.000000  0.500000  0.528260  1
  Lu  Lu1  1  0.500000  0.000000  0.474892  1
  Lu  Lu2  1  0.500000  0.819051  0.207757  1
  Lu  Lu3  1  0.500000  0.180949  0.207757  1
  Lu  Lu4  1  0.000000  0.681279  0.795940  1
  Lu  Lu5  1  0.000000  0.318721  0.795940  1
  Co  Co6  1  0.000000  0.000000  0.841161  1
  Co  Co7  1  0.500000  0.500000  0.700306  1
  Co  Co8  1  0.000000  0.000000  0.298782  1
  Co  Co9  1  0.000000  0.500000  0.987146  1
  Co  Co10  1  0.500000  0.000000  0.014714  1
  Co  Co11  1  0.500000  0.331720  0.991291  1
  Co  Co12  1  0.500000  0.668280  0.991291  1
  Co  Co13  1  0.000000  0.165160  0.004244  1
  Co  Co14  1  0.000000  0.834840  0.004244  1
  Co  Co15  1  0.500000  0.297615  0.432025  1
  Co  Co16  1  0.500000  0.702385  0.432025  1
  Co  Co17  1  0.000000  0.201337  0.568799  1
  Co  Co18  1  0.000000  0.798663  0.568799  1
  Co  Co19  1  0.500000  0.878343  0.705390  1
  Co  Co20  1  0.500000  0.121657  0.705390  1
  Co  Co21  1  0.000000  0.622286  0.293683  1
  Co  Co22  1  0.000000  0.377714  0.293683  1
  Mo  Mo23  1  0.500000  0.500000  0.155312  1
  As  As24  1  0.500000  0.500000  0.878512  1
  As  As25  1  0.000000  0.000000  0.120733  1
  As  As26  1  0.500000  0.500000  0.354633  1
  As  As27  1  0.000000  0.000000  0.651140  1
  As  As28  1  0.500000  0.313787  0.617670  1
  As  As29  1  0.500000  0.686213  0.617670  1
  As  As30  1  0.000000  0.185501  0.383760  1
  As  As31  1  0.000000  0.814499  0.383760  1
  As  As32  1  0.500000  0.848411  0.887608  1
  As  As33  1  0.500000  0.151589  0.887608  1
  As  As34  1  0.000000  0.659812  0.109040  1
  As  As35  1  0.000000  0.340188  0.109040  1
