# generated using pymatgen
data_Hf3Zr7CuPPb6
_symmetry_space_group_name_H-M   'P 1'
_cell_length_a   8.75525522
_cell_length_b   8.75771960
_cell_length_c   5.92709021
_cell_angle_alpha   89.96985255
_cell_angle_beta   90.01402935
_cell_angle_gamma   120.01200095
_symmetry_Int_Tables_number   1
_chemical_formula_structural   Hf3Zr7CuPPb6
_chemical_formula_sum   'Hf3 Zr7 Cu1 P1 Pb6'
_cell_volume   393.53142970
_cell_formula_units_Z   1
loop_
 _symmetry_equiv_pos_site_id
 _symmetry_equiv_pos_as_xyz
  1  'x, y, z'
loop_
 _atom_site_type_symbol
 _atom_site_label
 _atom_site_symmetry_multiplicity
 _atom_site_fract_x
 _atom_site_fract_y
 _atom_site_fract_z
 _atom_site_occupancy
  Hf  Hf0  1  0.666762  0.333455  0.499393  1
  Hf  Hf1  1  0.742500  0.743911  0.241371  1
  Hf  Hf2  1  0.257508  0.001360  0.241365  1
  Zr  Zr3  1  0.666538  0.333769  0.001253  1
  Zr  Zr4  1  0.999939  0.257601  0.243804  1
  Zr  Zr5  1  0.748545  0.999358  0.757871  1
  Zr  Zr6  1  0.251467  0.250852  0.757931  1
  Zr  Zr7  1  0.333272  0.666750  0.499289  1
  Zr  Zr8  1  0.333468  0.667254  0.001236  1
  Zr  Zr9  1  0.000026  0.747898  0.758755  1
  Cu  Cu10  1  0.000020  0.997231  0.488332  1
  P  P11  1  0.999986  0.998889  0.008556  1
  Pb  Pb12  1  0.607413  0.606987  0.744746  1
  Pb  Pb13  1  0.392991  0.000317  0.744713  1
  Pb  Pb14  1  0.999577  0.611315  0.255472  1
  Pb  Pb15  1  0.390877  0.390728  0.255291  1
  Pb  Pb16  1  0.999635  0.391724  0.745371  1
  Pb  Pb17  1  0.609476  0.000601  0.255252  1
