# generated using pymatgen
data_Dy9Y3Ir4
_symmetry_space_group_name_H-M   'P 1'
_cell_length_a   7.25526445
_cell_length_b   9.27691700
_cell_length_c   6.38275634
_cell_angle_alpha   90.00000000
_cell_angle_beta   90.25126067
_cell_angle_gamma   90.00000000
_symmetry_Int_Tables_number   1
_chemical_formula_structural   Dy9Y3Ir4
_chemical_formula_sum   'Dy9 Y3 Ir4'
_cell_volume   429.59676983
_cell_formula_units_Z   1
loop_
 _symmetry_equiv_pos_site_id
 _symmetry_equiv_pos_as_xyz
  1  'x, y, z'
loop_
 _atom_site_type_symbol
 _atom_site_label
 _atom_site_symmetry_multiplicity
 _atom_site_fract_x
 _atom_site_fract_y
 _atom_site_fract_z
 _atom_site_occupancy
  Dy  Dy0  1  0.177112  0.063377  0.171557  1
  Dy  Dy1  1  0.177112  0.436623  0.171557  1
  Dy  Dy2  1  0.676530  0.062718  0.327270  1
  Dy  Dy3  1  0.676530  0.437282  0.327270  1
  Dy  Dy4  1  0.323309  0.562756  0.672816  1
  Dy  Dy5  1  0.323309  0.937244  0.672816  1
  Dy  Dy6  1  0.822790  0.562877  0.828002  1
  Dy  Dy7  1  0.822790  0.937123  0.828002  1
  Dy  Dy8  1  0.535259  0.250001  0.869755  1
  Y  Y9  1  0.466338  0.750000  0.129321  1
  Y  Y10  1  0.966152  0.750000  0.370624  1
  Y  Y11  1  0.033615  0.250001  0.629718  1
  Ir  Ir12  1  0.882470  0.250001  0.050165  1
  Ir  Ir13  1  0.384537  0.250001  0.451501  1
  Ir  Ir14  1  0.615994  0.750000  0.550652  1
  Ir  Ir15  1  0.116153  0.750000  0.948970  1
