# generated using pymatgen
data_Hf2Be16Co
_symmetry_space_group_name_H-M   'P 1'
_cell_length_a   5.67571441
_cell_length_b   5.67571353
_cell_length_c   5.67571258
_cell_angle_alpha   83.08659416
_cell_angle_beta   83.08659821
_cell_angle_gamma   83.08659462
_symmetry_Int_Tables_number   1
_chemical_formula_structural   Hf2Be16Co
_chemical_formula_sum   'Hf2 Be16 Co1'
_cell_volume   179.14386984
_cell_formula_units_Z   1
loop_
 _symmetry_equiv_pos_site_id
 _symmetry_equiv_pos_as_xyz
  1  'x, y, z'
loop_
 _atom_site_type_symbol
 _atom_site_label
 _atom_site_symmetry_multiplicity
 _atom_site_fract_x
 _atom_site_fract_y
 _atom_site_fract_z
 _atom_site_occupancy
  Hf  Hf0  1  0.163107  0.163107  0.163107  1
  Hf  Hf1  1  0.841672  0.841672  0.841672  1
  Be  Be2  1  0.600333  0.600333  0.600333  1
  Be  Be3  1  0.498243  0.498243  0.003820  1
  Be  Be4  1  0.498243  0.003820  0.498243  1
  Be  Be5  1  0.003820  0.498243  0.498243  1
  Be  Be6  1  0.497911  0.780613  0.215903  1
  Be  Be7  1  0.780613  0.215903  0.497911  1
  Be  Be8  1  0.215903  0.497911  0.780613  1
  Be  Be9  1  0.497911  0.215903  0.780613  1
  Be  Be10  1  0.215903  0.780613  0.497911  1
  Be  Be11  1  0.780613  0.497911  0.215903  1
  Be  Be12  1  0.654994  0.158298  0.158298  1
  Be  Be13  1  0.158298  0.158298  0.654994  1
  Be  Be14  1  0.158298  0.654994  0.158298  1
  Be  Be15  1  0.844545  0.341698  0.844545  1
  Be  Be16  1  0.341698  0.844545  0.844545  1
  Be  Be17  1  0.844545  0.844545  0.341698  1
  Co  Co18  1  0.403355  0.403355  0.403355  1
