# generated using pymatgen
data_MgPa4GaRh4
_symmetry_space_group_name_H-M   'P 1'
_cell_length_a   7.56948800
_cell_length_b   7.56948800
_cell_length_c   3.63787600
_cell_angle_alpha   90.00000000
_cell_angle_beta   90.00000000
_cell_angle_gamma   90.00000000
_symmetry_Int_Tables_number   1
_chemical_formula_structural   MgPa4GaRh4
_chemical_formula_sum   'Mg1 Pa4 Ga1 Rh4'
_cell_volume   208.43992170
_cell_formula_units_Z   1
loop_
 _symmetry_equiv_pos_site_id
 _symmetry_equiv_pos_as_xyz
  1  'x, y, z'
loop_
 _atom_site_type_symbol
 _atom_site_label
 _atom_site_symmetry_multiplicity
 _atom_site_fract_x
 _atom_site_fract_y
 _atom_site_fract_z
 _atom_site_occupancy
  Mg  Mg0  1  0.500000  0.500000  0.000000  1
  Pa  Pa1  1  0.677643  0.164630  0.500000  1
  Pa  Pa2  1  0.164630  0.322357  0.500000  1
  Pa  Pa3  1  0.835371  0.677643  0.500000  1
  Pa  Pa4  1  0.322357  0.835371  0.500000  1
  Ga  Ga5  1  0.000000  0.000000  0.000000  1
  Rh  Rh6  1  0.359588  0.132651  0.000000  1
  Rh  Rh7  1  0.867349  0.359588  0.000000  1
  Rh  Rh8  1  0.132651  0.640413  0.000000  1
  Rh  Rh9  1  0.640413  0.867349  0.000000  1
