# generated using pymatgen
data_Dy5Y5InSb5
_symmetry_space_group_name_H-M   'P 1'
_cell_length_a   6.39576500
_cell_length_b   8.99773423
_cell_length_c   8.97903414
_cell_angle_alpha   120.06496934
_cell_angle_beta   90.00001792
_cell_angle_gamma   89.99997193
_symmetry_Int_Tables_number   1
_chemical_formula_structural   Dy5Y5InSb5
_chemical_formula_sum   'Dy5 Y5 In1 Sb5'
_cell_volume   447.19940801
_cell_formula_units_Z   1
loop_
 _symmetry_equiv_pos_site_id
 _symmetry_equiv_pos_as_xyz
  1  'x, y, z'
loop_
 _atom_site_type_symbol
 _atom_site_label
 _atom_site_symmetry_multiplicity
 _atom_site_fract_x
 _atom_site_fract_y
 _atom_site_fract_z
 _atom_site_occupancy
  Dy  Dy0  1  0.498896  0.334915  0.668837  1
  Dy  Dy1  1  0.498920  0.666122  0.331181  1
  Dy  Dy2  1  0.001079  0.666123  0.331181  1
  Dy  Dy3  1  0.001103  0.334916  0.668837  1
  Dy  Dy4  1  0.250001  0.001552  0.755149  1
  Y  Y5  1  0.750001  0.244411  0.999918  1
  Y  Y6  1  0.750001  0.754096  0.757195  1
  Y  Y7  1  0.750001  0.996843  0.242835  1
  Y  Y8  1  0.249999  0.756569  0.999966  1
  Y  Y9  1  0.250001  0.246377  0.244781  1
  In  In10  1  0.749999  0.606619  0.000045  1
  Sb  Sb11  1  0.750001  0.388863  0.389588  1
  Sb  Sb12  1  0.750001  0.999269  0.610456  1
  Sb  Sb13  1  0.250000  0.390563  0.999956  1
  Sb  Sb14  1  0.250000  0.611611  0.610360  1
  Sb  Sb15  1  0.250000  0.001150  0.389714  1
