# generated using pymatgen
data_U4TaTc3C8
_symmetry_space_group_name_H-M   'P 1'
_cell_length_a   3.20841900
_cell_length_b   5.62042385
_cell_length_c   11.07578668
_cell_angle_alpha   90.06318880
_cell_angle_beta   90.00000000
_cell_angle_gamma   90.00000000
_symmetry_Int_Tables_number   1
_chemical_formula_structural   U4TaTc3C8
_chemical_formula_sum   'U4 Ta1 Tc3 C8'
_cell_volume   199.72593667
_cell_formula_units_Z   1
loop_
 _symmetry_equiv_pos_site_id
 _symmetry_equiv_pos_as_xyz
  1  'x, y, z'
loop_
 _atom_site_type_symbol
 _atom_site_label
 _atom_site_symmetry_multiplicity
 _atom_site_fract_x
 _atom_site_fract_y
 _atom_site_fract_z
 _atom_site_occupancy
  U  U0  1  0.250000  0.077578  0.855702  1
  U  U1  1  0.250000  0.585114  0.643153  1
  U  U2  1  0.750000  0.917116  0.141639  1
  U  U3  1  0.750000  0.417154  0.361083  1
  Ta  Ta4  1  0.250000  0.420892  0.101192  1
  Tc  Tc5  1  0.250000  0.915669  0.398448  1
  Tc  Tc6  1  0.750000  0.575339  0.896477  1
  Tc  Tc7  1  0.750000  0.086550  0.601971  1
  C  C8  1  0.250000  0.158232  0.246698  1
  C  C9  1  0.250000  0.664062  0.258971  1
  C  C10  1  0.750000  0.841562  0.753655  1
  C  C11  1  0.750000  0.342045  0.743431  1
  C  C12  1  0.250000  0.750074  0.991228  1
  C  C13  1  0.250000  0.245864  0.508476  1
  C  C14  1  0.750000  0.244982  0.003771  1
  C  C15  1  0.750000  0.757766  0.494104  1
