# generated using pymatgen
data_YbLuPt2O7
_symmetry_space_group_name_H-M   'P 1'
_cell_length_a   7.18238486
_cell_length_b   7.21382351
_cell_length_c   7.21382280
_cell_angle_alpha   60.09608053
_cell_angle_beta   60.14406517
_cell_angle_gamma   60.14406271
_symmetry_Int_Tables_number   1
_chemical_formula_structural   YbLuPt2O7
_chemical_formula_sum   'Yb2 Lu2 Pt4 O14'
_cell_volume   265.05905829
_cell_formula_units_Z   2
loop_
 _symmetry_equiv_pos_site_id
 _symmetry_equiv_pos_as_xyz
  1  'x, y, z'
loop_
 _atom_site_type_symbol
 _atom_site_label
 _atom_site_symmetry_multiplicity
 _atom_site_fract_x
 _atom_site_fract_y
 _atom_site_fract_z
 _atom_site_occupancy
  Yb  Yb0  1  0.625000  0.625000  0.125000  1
  Yb  Yb1  1  0.625000  0.125000  0.625000  1
  Lu  Lu2  1  0.625000  0.625000  0.625000  1
  Lu  Lu3  1  0.125000  0.625000  0.625000  1
  Pt  Pt4  1  0.125000  0.125000  0.125000  1
  Pt  Pt5  1  0.625000  0.125000  0.125000  1
  Pt  Pt6  1  0.125000  0.125000  0.625000  1
  Pt  Pt7  1  0.125000  0.625000  0.125000  1
  O  O8  1  0.035007  0.464993  0.464993  1
  O  O9  1  0.787796  0.787261  0.221008  1
  O  O10  1  0.789589  0.210411  0.210411  1
  O  O11  1  0.462204  0.028992  0.462739  1
  O  O12  1  0.758877  0.741123  0.741123  1
  O  O13  1  0.046065  0.462739  0.028992  1
  O  O14  1  0.046065  0.028992  0.462739  1
  O  O15  1  0.203935  0.787261  0.221008  1
  O  O16  1  0.203935  0.221008  0.787261  1
  O  O17  1  0.787796  0.221008  0.787261  1
  O  O18  1  0.491123  0.508877  0.508877  1
  O  O19  1  0.460411  0.039589  0.039589  1
  O  O20  1  0.462204  0.462739  0.028992  1
  O  O21  1  0.214993  0.785007  0.785007  1
