# generated using pymatgen
data_Mg(GaFe)6
_symmetry_space_group_name_H-M   'P 1'
_cell_length_a   6.53431358
_cell_length_b   6.53431336
_cell_length_c   6.53431227
_cell_angle_alpha   134.96695166
_cell_angle_beta   99.83044123
_cell_angle_gamma   97.04035606
_symmetry_Int_Tables_number   1
_chemical_formula_structural   Mg(GaFe)6
_chemical_formula_sum   'Mg1 Ga6 Fe6'
_cell_volume   182.27434671
_cell_formula_units_Z   1
loop_
 _symmetry_equiv_pos_site_id
 _symmetry_equiv_pos_as_xyz
  1  'x, y, z'
loop_
 _atom_site_type_symbol
 _atom_site_label
 _atom_site_symmetry_multiplicity
 _atom_site_fract_x
 _atom_site_fract_y
 _atom_site_fract_z
 _atom_site_occupancy
  Mg  Mg0  1  0.000000  0.000000  0.000000  1
  Ga  Ga1  1  0.319409  0.000000  0.319409  1
  Ga  Ga2  1  0.340020  0.340020  0.000000  1
  Ga  Ga3  1  0.659980  0.659980  0.000000  1
  Ga  Ga4  1  0.824526  0.324526  0.500000  1
  Ga  Ga5  1  0.175474  0.675474  0.500000  1
  Ga  Ga6  1  0.680591  0.000000  0.680591  1
  Fe  Fe7  1  0.754030  0.500000  0.254030  1
  Fe  Fe8  1  0.000000  0.000000  0.500000  1
  Fe  Fe9  1  0.000000  0.500000  0.000000  1
  Fe  Fe10  1  0.500000  0.000000  0.000000  1
  Fe  Fe11  1  0.500000  0.500000  0.500000  1
  Fe  Fe12  1  0.245970  0.500000  0.745970  1
