# generated using pymatgen
data_Pr5Sm3Sc12Si15Ag
_symmetry_space_group_name_H-M   'P 1'
_cell_length_a   7.25835506
_cell_length_b   7.49100605
_cell_length_c   14.27825351
_cell_angle_alpha   89.89959650
_cell_angle_beta   89.68079805
_cell_angle_gamma   90.22368465
_symmetry_Int_Tables_number   1
_chemical_formula_structural   Pr5Sm3Sc12Si15Ag
_chemical_formula_sum   'Pr5 Sm3 Sc12 Si15 Ag1'
_cell_volume   776.32346367
_cell_formula_units_Z   1
loop_
 _symmetry_equiv_pos_site_id
 _symmetry_equiv_pos_as_xyz
  1  'x, y, z'
loop_
 _atom_site_type_symbol
 _atom_site_label
 _atom_site_symmetry_multiplicity
 _atom_site_fract_x
 _atom_site_fract_y
 _atom_site_fract_z
 _atom_site_occupancy
  Pr  Pr0  1  0.011798  0.172780  0.098199  1
  Pr  Pr1  1  0.988240  0.828934  0.903139  1
  Pr  Pr2  1  0.487857  0.673105  0.903512  1
  Pr  Pr3  1  0.989875  0.832763  0.596619  1
  Pr  Pr4  1  0.511546  0.327280  0.097012  1
  Sm  Sm5  1  0.008800  0.171700  0.398229  1
  Sm  Sm6  1  0.512771  0.323967  0.399344  1
  Sm  Sm7  1  0.493852  0.676706  0.600775  1
  Sc  Sc8  1  0.162629  0.498160  0.753280  1
  Sc  Sc9  1  0.838053  0.501096  0.251412  1
  Sc  Sc10  1  0.338540  0.997206  0.249109  1
  Sc  Sc11  1  0.664937  0.999870  0.751552  1
  Sc  Sc12  1  0.343423  0.172719  0.627512  1
  Sc  Sc13  1  0.665232  0.823355  0.374050  1
  Sc  Sc14  1  0.166585  0.675430  0.371688  1
  Sc  Sc15  1  0.670208  0.825061  0.125176  1
  Sc  Sc16  1  0.823792  0.325687  0.624756  1
  Sc  Sc17  1  0.328875  0.174122  0.875430  1
  Sc  Sc18  1  0.830453  0.323589  0.875571  1
  Sc  Sc19  1  0.168882  0.675699  0.125766  1
  Si  Si20  1  0.037052  0.129025  0.749379  1
  Si  Si21  1  0.964024  0.877090  0.250040  1
  Si  Si22  1  0.465227  0.622091  0.249179  1
  Si  Si23  1  0.536001  0.379321  0.751498  1
  Si  Si24  1  0.288525  0.880793  0.749902  1
  Si  Si25  1  0.710366  0.120244  0.250115  1
  Si  Si26  1  0.212679  0.378599  0.250722  1
  Si  Si27  1  0.789440  0.619535  0.750788  1
  Si  Si28  1  0.836881  0.537954  0.457845  1
  Si  Si29  1  0.342771  0.961137  0.460691  1
  Si  Si30  1  0.848701  0.537421  0.039492  1
  Si  Si31  1  0.653154  0.037688  0.537477  1
  Si  Si32  1  0.150275  0.462989  0.961320  1
  Si  Si33  1  0.651768  0.037244  0.960226  1
  Si  Si34  1  0.347339  0.962509  0.040137  1
  Ag  Ag35  1  0.159448  0.457132  0.539056  1
