# generated using pymatgen
data_Ba3(TmS3)2
_symmetry_space_group_name_H-M   'P 1'
_cell_length_a   8.48459820
_cell_length_b   8.48459809
_cell_length_c   8.48459860
_cell_angle_alpha   92.74770591
_cell_angle_beta   92.74770665
_cell_angle_gamma   92.74770876
_symmetry_Int_Tables_number   1
_chemical_formula_structural   Ba3(TmS3)2
_chemical_formula_sum   'Ba6 Tm4 S12'
_cell_volume   608.61609620
_cell_formula_units_Z   2
loop_
 _symmetry_equiv_pos_site_id
 _symmetry_equiv_pos_as_xyz
  1  'x, y, z'
loop_
 _atom_site_type_symbol
 _atom_site_label
 _atom_site_symmetry_multiplicity
 _atom_site_fract_x
 _atom_site_fract_y
 _atom_site_fract_z
 _atom_site_occupancy
  Ba  Ba0  1  0.373120  0.750001  0.126876  1
  Ba  Ba1  1  0.126876  0.373120  0.750001  1
  Ba  Ba2  1  0.750001  0.126876  0.373120  1
  Ba  Ba3  1  0.626880  0.249999  0.873123  1
  Ba  Ba4  1  0.873124  0.626879  0.249999  1
  Ba  Ba5  1  0.249999  0.873124  0.626880  1
  Tm  Tm6  1  0.500000  0.500000  0.500000  1
  Tm  Tm7  1  0.000000  0.000000  0.000000  1
  Tm  Tm8  1  0.250001  0.250001  0.250001  1
  Tm  Tm9  1  0.749998  0.749998  0.749999  1
  S  S10  1  0.404103  0.200165  0.536480  1
  S  S11  1  0.536479  0.404103  0.200165  1
  S  S12  1  0.200165  0.536479  0.404103  1
  S  S13  1  0.299835  0.095896  0.963520  1
  S  S14  1  0.095895  0.963519  0.299836  1
  S  S15  1  0.963520  0.299835  0.095896  1
  S  S16  1  0.595897  0.799835  0.463520  1
  S  S17  1  0.463520  0.595896  0.799835  1
  S  S18  1  0.799835  0.463520  0.595897  1
  S  S19  1  0.700165  0.904104  0.036480  1
  S  S20  1  0.904104  0.036480  0.700164  1
  S  S21  1  0.036480  0.700165  0.904103  1
