# generated using pymatgen
data_Zr3AlAu2N
_symmetry_space_group_name_H-M   'P 1'
_cell_length_a   8.78409439
_cell_length_b   8.78409437
_cell_length_c   8.78409500
_cell_angle_alpha   60.00000139
_cell_angle_beta   60.00000146
_cell_angle_gamma   59.99999873
_symmetry_Int_Tables_number   1
_chemical_formula_structural   Zr3AlAu2N
_chemical_formula_sum   'Zr12 Al4 Au8 N4'
_cell_volume   479.26533514
_cell_formula_units_Z   4
loop_
 _symmetry_equiv_pos_site_id
 _symmetry_equiv_pos_as_xyz
  1  'x, y, z'
loop_
 _atom_site_type_symbol
 _atom_site_label
 _atom_site_symmetry_multiplicity
 _atom_site_fract_x
 _atom_site_fract_y
 _atom_site_fract_z
 _atom_site_occupancy
  Zr  Zr0  1  0.814898  0.814898  0.185102  1
  Zr  Zr1  1  0.185102  0.185102  0.814898  1
  Zr  Zr2  1  0.814898  0.185102  0.814898  1
  Zr  Zr3  1  0.185102  0.814898  0.185102  1
  Zr  Zr4  1  0.185102  0.814898  0.814898  1
  Zr  Zr5  1  0.814898  0.185102  0.185102  1
  Zr  Zr6  1  0.435102  0.435102  0.064898  1
  Zr  Zr7  1  0.064898  0.064898  0.435102  1
  Zr  Zr8  1  0.435102  0.064898  0.435102  1
  Zr  Zr9  1  0.064898  0.435102  0.064898  1
  Zr  Zr10  1  0.064898  0.435102  0.435102  1
  Zr  Zr11  1  0.435102  0.064898  0.064898  1
  Al  Al12  1  0.125000  0.625000  0.625000  1
  Al  Al13  1  0.625000  0.125000  0.625000  1
  Al  Al14  1  0.625000  0.625000  0.125000  1
  Al  Al15  1  0.625000  0.625000  0.625000  1
  Au  Au16  1  0.760646  0.413118  0.413118  1
  Au  Au17  1  0.413118  0.760646  0.413118  1
  Au  Au18  1  0.413118  0.413118  0.760646  1
  Au  Au19  1  0.413118  0.413118  0.413118  1
  Au  Au20  1  0.489354  0.836882  0.836882  1
  Au  Au21  1  0.836882  0.489354  0.836882  1
  Au  Au22  1  0.836882  0.836882  0.489354  1
  Au  Au23  1  0.836882  0.836882  0.836882  1
  N  N24  1  0.625000  0.125000  0.125000  1
  N  N25  1  0.125000  0.625000  0.125000  1
  N  N26  1  0.125000  0.125000  0.625000  1
  N  N27  1  0.125000  0.125000  0.125000  1
