# generated using pymatgen
data_Dy12Co4RuPb
_symmetry_space_group_name_H-M   'P 1'
_cell_length_a   8.31789313
_cell_length_b   8.31789358
_cell_length_c   8.31789385
_cell_angle_alpha   111.35337373
_cell_angle_beta   110.63088458
_cell_angle_gamma   106.47129085
_symmetry_Int_Tables_number   1
_chemical_formula_structural   Dy12Co4RuPb
_chemical_formula_sum   'Dy12 Co4 Ru1 Pb1'
_cell_volume   442.09132504
_cell_formula_units_Z   1
loop_
 _symmetry_equiv_pos_site_id
 _symmetry_equiv_pos_as_xyz
  1  'x, y, z'
loop_
 _atom_site_type_symbol
 _atom_site_label
 _atom_site_symmetry_multiplicity
 _atom_site_fract_x
 _atom_site_fract_y
 _atom_site_fract_z
 _atom_site_occupancy
  Dy  Dy0  1  0.816503  0.713007  0.529510  1
  Dy  Dy1  1  0.183497  0.286993  0.470490  1
  Dy  Dy2  1  0.183497  0.713007  0.896503  1
  Dy  Dy3  1  0.816503  0.286993  0.103497  1
  Dy  Dy4  1  0.687212  0.380057  0.692845  1
  Dy  Dy5  1  0.312788  0.619943  0.307155  1
  Dy  Dy6  1  0.687212  0.994366  0.307155  1
  Dy  Dy7  1  0.312788  0.005634  0.692845  1
  Dy  Dy8  1  0.593171  0.787297  0.805875  1
  Dy  Dy9  1  0.406829  0.212703  0.194125  1
  Dy  Dy10  1  0.981422  0.787297  0.194125  1
  Dy  Dy11  1  0.018578  0.212703  0.805875  1
  Co  Co12  1  0.620836  0.000000  0.620836  1
  Co  Co13  1  0.379164  0.000000  0.379164  1
  Co  Co14  1  0.111273  0.611273  0.500000  1
  Co  Co15  1  0.888727  0.388727  0.500000  1
  Ru  Ru16  1  0.000000  0.000000  0.000000  1
  Pb  Pb17  1  0.500000  0.500000  0.000000  1
