# generated using pymatgen
data_K2Ag3Pd
_symmetry_space_group_name_H-M   'P 1'
_cell_length_a   5.85321320
_cell_length_b   5.87446282
_cell_length_c   5.87446200
_cell_angle_alpha   60.00001590
_cell_angle_beta   59.87984979
_cell_angle_gamma   59.87984964
_symmetry_Int_Tables_number   1
_chemical_formula_structural   K2Ag3Pd
_chemical_formula_sum   'K2 Ag3 Pd1'
_cell_volume   142.56881978
_cell_formula_units_Z   1
loop_
 _symmetry_equiv_pos_site_id
 _symmetry_equiv_pos_as_xyz
  1  'x, y, z'
loop_
 _atom_site_type_symbol
 _atom_site_label
 _atom_site_symmetry_multiplicity
 _atom_site_fract_x
 _atom_site_fract_y
 _atom_site_fract_z
 _atom_site_occupancy
  K  K0  1  0.503541  0.498820  0.498820  1
  K  K1  1  0.746459  0.751180  0.751180  1
  Ag  Ag2  1  0.125000  0.125000  0.125000  1
  Ag  Ag3  1  0.125000  0.125000  0.625000  1
  Ag  Ag4  1  0.125000  0.625000  0.125000  1
  Pd  Pd5  1  0.625000  0.125000  0.125000  1
