# generated using pymatgen
data_Y2ScCu2Sb3
_symmetry_space_group_name_H-M   'P 1'
_cell_length_a   4.32255100
_cell_length_b   4.32255127
_cell_length_c   22.88558500
_cell_angle_alpha   90.00000000
_cell_angle_beta   90.00000000
_cell_angle_gamma   120.00000557
_symmetry_Int_Tables_number   1
_chemical_formula_structural   Y2ScCu2Sb3
_chemical_formula_sum   'Y4 Sc2 Cu4 Sb6'
_cell_volume   370.31636515
_cell_formula_units_Z   2
loop_
 _symmetry_equiv_pos_site_id
 _symmetry_equiv_pos_as_xyz
  1  'x, y, z'
loop_
 _atom_site_type_symbol
 _atom_site_label
 _atom_site_symmetry_multiplicity
 _atom_site_fract_x
 _atom_site_fract_y
 _atom_site_fract_z
 _atom_site_occupancy
  Y  Y0  1  0.666667  0.333333  0.921475  1
  Y  Y1  1  0.333333  0.666667  0.078525  1
  Y  Y2  1  0.333333  0.666667  0.421475  1
  Y  Y3  1  0.666667  0.333333  0.578525  1
  Sc  Sc4  1  0.333333  0.666667  0.250000  1
  Sc  Sc5  1  0.666667  0.333333  0.750000  1
  Cu  Cu6  1  0.000000  0.000000  0.805379  1
  Cu  Cu7  1  0.000000  0.000000  0.194621  1
  Cu  Cu8  1  0.000000  0.000000  0.305379  1
  Cu  Cu9  1  0.000000  0.000000  0.694621  1
  Sb  Sb10  1  0.333333  0.666667  0.661212  1
  Sb  Sb11  1  0.000000  0.000000  0.500000  1
  Sb  Sb12  1  0.666667  0.333333  0.338788  1
  Sb  Sb13  1  0.333333  0.666667  0.838788  1
  Sb  Sb14  1  0.666667  0.333333  0.161212  1
  Sb  Sb15  1  0.000000  0.000000  0.000000  1
