# generated using pymatgen
data_YPa2(AlNi)3
_symmetry_space_group_name_H-M   'P 1'
_cell_length_a   6.85895725
_cell_length_b   6.85895695
_cell_length_c   4.01096500
_cell_angle_alpha   90.00000000
_cell_angle_beta   90.00000000
_cell_angle_gamma   120.99439269
_symmetry_Int_Tables_number   1
_chemical_formula_structural   YPa2(AlNi)3
_chemical_formula_sum   'Y1 Pa2 Al3 Ni3'
_cell_volume   161.75442714
_cell_formula_units_Z   1
loop_
 _symmetry_equiv_pos_site_id
 _symmetry_equiv_pos_as_xyz
  1  'x, y, z'
loop_
 _atom_site_type_symbol
 _atom_site_label
 _atom_site_symmetry_multiplicity
 _atom_site_fract_x
 _atom_site_fract_y
 _atom_site_fract_z
 _atom_site_occupancy
  Y  Y0  1  0.419563  0.419563  0.000000  1
  Pa  Pa1  1  0.001024  0.577328  0.000000  1
  Pa  Pa2  1  0.577328  0.001024  0.000000  1
  Al  Al3  1  0.234613  0.003795  0.500000  1
  Al  Al4  1  0.760543  0.760543  0.500000  1
  Al  Al5  1  0.003795  0.234613  0.500000  1
  Ni  Ni6  1  0.684651  0.330791  0.500000  1
  Ni  Ni7  1  0.987691  0.987691  0.000000  1
  Ni  Ni8  1  0.330791  0.684651  0.500000  1
