# generated using pymatgen
data_Na10AlVAs6
_symmetry_space_group_name_H-M   'P 1'
_cell_length_a   7.49342600
_cell_length_b   8.30856300
_cell_length_c   15.80107659
_cell_angle_alpha   59.04843019
_cell_angle_beta   90.00000000
_cell_angle_gamma   90.00000000
_symmetry_Int_Tables_number   1
_chemical_formula_structural   Na10AlVAs6
_chemical_formula_sum   'Na20 Al2 V2 As12'
_cell_volume   843.68237267
_cell_formula_units_Z   2
loop_
 _symmetry_equiv_pos_site_id
 _symmetry_equiv_pos_as_xyz
  1  'x, y, z'
loop_
 _atom_site_type_symbol
 _atom_site_label
 _atom_site_symmetry_multiplicity
 _atom_site_fract_x
 _atom_site_fract_y
 _atom_site_fract_z
 _atom_site_occupancy
  Na  Na0  1  0.738175  0.942771  0.244859  1
  Na  Na1  1  0.261825  0.942771  0.744859  1
  Na  Na2  1  0.769349  0.054219  0.758002  1
  Na  Na3  1  0.230651  0.054219  0.258002  1
  Na  Na4  1  0.268742  0.246105  0.419673  1
  Na  Na5  1  0.731258  0.246105  0.919673  1
  Na  Na6  1  0.220547  0.753747  0.579342  1
  Na  Na7  1  0.779453  0.753747  0.079342  1
  Na  Na8  1  0.089208  0.345341  0.582506  1
  Na  Na9  1  0.910792  0.345341  0.082506  1
  Na  Na10  1  0.407364  0.655146  0.418903  1
  Na  Na11  1  0.592636  0.655146  0.918903  1
  Na  Na12  1  0.594827  0.335359  0.242551  1
  Na  Na13  1  0.405173  0.335359  0.742551  1
  Na  Na14  1  0.908118  0.664473  0.759512  1
  Na  Na15  1  0.091882  0.664473  0.259512  1
  Na  Na16  1  0.768964  0.418467  0.409291  1
  Na  Na17  1  0.231036  0.418467  0.909291  1
  Na  Na18  1  0.739374  0.582453  0.589428  1
  Na  Na19  1  0.260626  0.582453  0.089428  1
  Al  Al20  1  0.887866  0.012764  0.417499  1
  Al  Al21  1  0.112134  0.012764  0.917499  1
  V  V22  1  0.616635  0.988618  0.578481  1
  V  V23  1  0.383365  0.988618  0.078481  1
  As  As24  1  0.982852  0.317695  0.271586  1
  As  As25  1  0.017148  0.317695  0.771586  1
  As  As26  1  0.522170  0.701290  0.720695  1
  As  As27  1  0.477830  0.701290  0.220695  1
  As  As28  1  0.938050  0.020146  0.574174  1
  As  As29  1  0.061950  0.020146  0.074174  1
  As  As30  1  0.545508  0.978341  0.432787  1
  As  As31  1  0.454492  0.978341  0.932787  1
  As  As32  1  0.003815  0.726022  0.421370  1
  As  As33  1  0.996185  0.726022  0.921370  1
  As  As34  1  0.495345  0.257041  0.579340  1
  As  As35  1  0.504655  0.257041  0.079340  1
