# generated using pymatgen
data_HoEr(B4Ir)2
_symmetry_space_group_name_H-M   'P 1'
_cell_length_a   3.56463500
_cell_length_b   5.95842224
_cell_length_c   11.55963905
_cell_angle_alpha   90.02548362
_cell_angle_beta   90.00000000
_cell_angle_gamma   90.00000000
_symmetry_Int_Tables_number   1
_chemical_formula_structural   HoEr(B4Ir)2
_chemical_formula_sum   'Ho2 Er2 B16 Ir4'
_cell_volume   245.52209033
_cell_formula_units_Z   2
loop_
 _symmetry_equiv_pos_site_id
 _symmetry_equiv_pos_as_xyz
  1  'x, y, z'
loop_
 _atom_site_type_symbol
 _atom_site_label
 _atom_site_symmetry_multiplicity
 _atom_site_fract_x
 _atom_site_fract_y
 _atom_site_fract_z
 _atom_site_occupancy
  Ho  Ho0  1  0.500000  0.631316  0.148794  1
  Ho  Ho1  1  0.500000  0.368684  0.851206  1
  Er  Er2  1  0.500000  0.131094  0.351564  1
  Er  Er3  1  0.500000  0.868906  0.648436  1
  B  B4  1  0.000000  0.975534  0.192980  1
  B  B5  1  0.000000  0.024466  0.807020  1
  B  B6  1  0.000000  0.474689  0.307730  1
  B  B7  1  0.000000  0.525311  0.692270  1
  B  B8  1  0.000000  0.791886  0.312444  1
  B  B9  1  0.000000  0.208114  0.687556  1
  B  B10  1  0.000000  0.290957  0.188235  1
  B  B11  1  0.000000  0.709043  0.811765  1
  B  B12  1  0.000000  0.864402  0.469776  1
  B  B13  1  0.000000  0.135598  0.530224  1
  B  B14  1  0.000000  0.363812  0.030090  1
  B  B15  1  0.000000  0.636188  0.969910  1
  B  B16  1  0.000000  0.887469  0.046705  1
  B  B17  1  0.000000  0.112531  0.953295  1
  B  B18  1  0.000000  0.386965  0.453433  1
  B  B19  1  0.000000  0.613035  0.546567  1
  Ir  Ir20  1  0.500000  0.644094  0.403347  1
  Ir  Ir21  1  0.500000  0.355906  0.596653  1
  Ir  Ir22  1  0.500000  0.143641  0.097082  1
  Ir  Ir23  1  0.500000  0.856359  0.902918  1
