# generated using pymatgen
data_Ba2La3HoS8
_symmetry_space_group_name_H-M   'P 1'
_cell_length_a   4.19064400
_cell_length_b   12.50699600
_cell_length_c   14.97214100
_cell_angle_alpha   90.00000000
_cell_angle_beta   90.00000000
_cell_angle_gamma   90.00000000
_symmetry_Int_Tables_number   1
_chemical_formula_structural   Ba2La3HoS8
_chemical_formula_sum   'Ba4 La6 Ho2 S16'
_cell_volume   784.72536003
_cell_formula_units_Z   2
loop_
 _symmetry_equiv_pos_site_id
 _symmetry_equiv_pos_as_xyz
  1  'x, y, z'
loop_
 _atom_site_type_symbol
 _atom_site_label
 _atom_site_symmetry_multiplicity
 _atom_site_fract_x
 _atom_site_fract_y
 _atom_site_fract_z
 _atom_site_occupancy
  Ba  Ba0  1  0.250000  0.755556  0.338674  1
  Ba  Ba1  1  0.250000  0.255556  0.161326  1
  Ba  Ba2  1  0.750000  0.242455  0.655923  1
  Ba  Ba3  1  0.750000  0.742455  0.844077  1
  La  La4  1  0.250000  0.424805  0.389177  1
  La  La5  1  0.250000  0.924805  0.110823  1
  La  La6  1  0.750000  0.573782  0.609022  1
  La  La7  1  0.750000  0.073782  0.890978  1
  La  La8  1  0.250000  0.422541  0.899702  1
  La  La9  1  0.250000  0.922541  0.600298  1
  Ho  Ho10  1  0.750000  0.577976  0.105160  1
  Ho  Ho11  1  0.750000  0.077976  0.394840  1
  S  S12  1  0.250000  0.210123  0.823020  1
  S  S13  1  0.250000  0.710123  0.676980  1
  S  S14  1  0.750000  0.783321  0.173540  1
  S  S15  1  0.750000  0.283321  0.326460  1
  S  S16  1  0.250000  0.130524  0.515238  1
  S  S17  1  0.250000  0.630524  0.984762  1
  S  S18  1  0.750000  0.876149  0.470255  1
  S  S19  1  0.750000  0.376149  0.029745  1
  S  S20  1  0.250000  0.022423  0.288009  1
  S  S21  1  0.250000  0.522423  0.211991  1
  S  S22  1  0.750000  0.981288  0.715973  1
  S  S23  1  0.750000  0.481288  0.784027  1
  S  S24  1  0.250000  0.418353  0.579158  1
  S  S25  1  0.250000  0.918353  0.920842  1
  S  S26  1  0.750000  0.580705  0.418781  1
  S  S27  1  0.750000  0.080705  0.081219  1
