# generated using pymatgen
data_Y7HoRe(B8Ru)3
_symmetry_space_group_name_H-M   'P 1'
_cell_length_a   3.67025600
_cell_length_b   9.15412219
_cell_length_c   11.54095804
_cell_angle_alpha   90.13668066
_cell_angle_beta   90.00000000
_cell_angle_gamma   90.00000000
_symmetry_Int_Tables_number   1
_chemical_formula_structural   Y7HoRe(B8Ru)3
_chemical_formula_sum   'Y7 Ho1 Re1 B24 Ru3'
_cell_volume   387.75168069
_cell_formula_units_Z   1
loop_
 _symmetry_equiv_pos_site_id
 _symmetry_equiv_pos_as_xyz
  1  'x, y, z'
loop_
 _atom_site_type_symbol
 _atom_site_label
 _atom_site_symmetry_multiplicity
 _atom_site_fract_x
 _atom_site_fract_y
 _atom_site_fract_z
 _atom_site_occupancy
  Y  Y0  1  0.000000  0.323223  0.415018  1
  Y  Y1  1  0.000000  0.679778  0.588052  1
  Y  Y2  1  0.000000  0.822653  0.083404  1
  Y  Y3  1  0.000000  0.176292  0.913450  1
  Y  Y4  1  0.000000  0.943051  0.371157  1
  Y  Y5  1  0.000000  0.056506  0.627741  1
  Y  Y6  1  0.000000  0.442655  0.128244  1
  Ho  Ho7  1  0.000000  0.556205  0.872204  1
  Re  Re8  1  0.000000  0.861623  0.821512  1
  B  B9  1  0.500000  0.554173  0.433088  1
  B  B10  1  0.500000  0.446202  0.567400  1
  B  B11  1  0.500000  0.053825  0.067652  1
  B  B12  1  0.500000  0.946902  0.932993  1
  B  B13  1  0.500000  0.747987  0.419225  1
  B  B14  1  0.500000  0.252478  0.580584  1
  B  B15  1  0.500000  0.247727  0.080943  1
  B  B16  1  0.500000  0.751208  0.918982  1
  B  B17  1  0.500000  0.789908  0.265890  1
  B  B18  1  0.500000  0.209801  0.733174  1
  B  B19  1  0.500000  0.290415  0.234158  1
  B  B20  1  0.500000  0.708368  0.766177  1
  B  B21  1  0.500000  0.631033  0.185507  1
  B  B22  1  0.500000  0.368678  0.814218  1
  B  B23  1  0.500000  0.131872  0.314607  1
  B  B24  1  0.500000  0.868598  0.685748  1
  B  B25  1  0.500000  0.983827  0.212294  1
  B  B26  1  0.500000  0.017452  0.787489  1
  B  B27  1  0.500000  0.483612  0.288190  1
  B  B28  1  0.500000  0.516470  0.712861  1
  B  B29  1  0.500000  0.605636  0.029738  1
  B  B30  1  0.500000  0.392499  0.970491  1
  B  B31  1  0.500000  0.107891  0.469671  1
  B  B32  1  0.500000  0.893059  0.528888  1
  Ru  Ru33  1  0.000000  0.637665  0.321258  1
  Ru  Ru34  1  0.000000  0.362920  0.678801  1
  Ru  Ru35  1  0.000000  0.137807  0.179188  1
