# generated using pymatgen
data_Nb2NCl7
_symmetry_space_group_name_H-M   'P 1'
_cell_length_a   9.56473925
_cell_length_b   10.25698816
_cell_length_c   13.89679700
_cell_angle_alpha   101.82283552
_cell_angle_beta   107.34394230
_cell_angle_gamma   103.03510634
_symmetry_Int_Tables_number   1
_chemical_formula_structural   Nb2NCl7
_chemical_formula_sum   'Nb8 N4 Cl28'
_cell_volume   1212.33259566
_cell_formula_units_Z   4
loop_
 _symmetry_equiv_pos_site_id
 _symmetry_equiv_pos_as_xyz
  1  'x, y, z'
loop_
 _atom_site_type_symbol
 _atom_site_label
 _atom_site_symmetry_multiplicity
 _atom_site_fract_x
 _atom_site_fract_y
 _atom_site_fract_z
 _atom_site_occupancy
  Nb  Nb0  1  0.036322  0.939271  0.730037  1
  Nb  Nb1  1  0.963678  0.060729  0.269963  1
  Nb  Nb2  1  0.858525  0.572047  0.666293  1
  Nb  Nb3  1  0.141475  0.427953  0.333707  1
  Nb  Nb4  1  0.638564  0.437095  0.824904  1
  Nb  Nb5  1  0.361436  0.562905  0.175096  1
  Nb  Nb6  1  0.450418  0.073466  0.766426  1
  Nb  Nb7  1  0.549582  0.926534  0.233574  1
  N  N8  1  0.244334  0.005066  0.750565  1
  N  N9  1  0.755666  0.994934  0.249435  1
  N  N10  1  0.749920  0.505855  0.746710  1
  N  N11  1  0.250080  0.494145  0.253290  1
  Cl  Cl12  1  0.933490  0.054125  0.615301  1
  Cl  Cl13  1  0.066510  0.945875  0.384699  1
  Cl  Cl14  1  0.036540  0.075671  0.883871  1
  Cl  Cl15  1  0.963460  0.924329  0.116129  1
  Cl  Cl16  1  0.014913  0.736621  0.583261  1
  Cl  Cl17  1  0.985087  0.263379  0.416739  1
  Cl  Cl18  1  0.074007  0.756508  0.828799  1
  Cl  Cl19  1  0.925993  0.243492  0.171201  1
  Cl  Cl20  1  0.749874  0.773690  0.680129  1
  Cl  Cl21  1  0.250126  0.226310  0.319871  1
  Cl  Cl22  1  0.023969  0.438955  0.679929  1
  Cl  Cl23  1  0.976031  0.561045  0.320071  1
  Cl  Cl24  1  0.685840  0.454372  0.498945  1
  Cl  Cl25  1  0.314160  0.545628  0.501055  1
  Cl  Cl26  1  0.486574  0.582408  0.819017  1
  Cl  Cl27  1  0.513426  0.417592  0.180983  1
  Cl  Cl28  1  0.813925  0.537649  0.993620  1
  Cl  Cl29  1  0.186075  0.462351  0.006380  1
  Cl  Cl30  1  0.736230  0.230254  0.802615  1
  Cl  Cl31  1  0.263770  0.769746  0.197385  1
  Cl  Cl32  1  0.413146  0.256585  0.666211  1
  Cl  Cl33  1  0.586854  0.743415  0.333789  1
  Cl  Cl34  1  0.474966  0.279039  0.909878  1
  Cl  Cl35  1  0.525034  0.720961  0.090122  1
  Cl  Cl36  1  0.441347  0.931324  0.611789  1
  Cl  Cl37  1  0.558653  0.068676  0.388211  1
  Cl  Cl38  1  0.565967  0.969173  0.885075  1
  Cl  Cl39  1  0.434033  0.030827  0.114925  1
