# generated using pymatgen
data_Tm3In4IrAu
_symmetry_space_group_name_H-M   'P 1'
_cell_length_a   7.86571500
_cell_length_b   7.86571524
_cell_length_c   3.86473800
_cell_angle_alpha   90.00000000
_cell_angle_beta   90.00000000
_cell_angle_gamma   120.00000319
_symmetry_Int_Tables_number   1
_chemical_formula_structural   Tm3In4IrAu
_chemical_formula_sum   'Tm3 In4 Ir1 Au1'
_cell_volume   207.07472890
_cell_formula_units_Z   1
loop_
 _symmetry_equiv_pos_site_id
 _symmetry_equiv_pos_as_xyz
  1  'x, y, z'
loop_
 _atom_site_type_symbol
 _atom_site_label
 _atom_site_symmetry_multiplicity
 _atom_site_fract_x
 _atom_site_fract_y
 _atom_site_fract_z
 _atom_site_occupancy
  Tm  Tm0  1  0.293728  0.248412  0.500000  1
  Tm  Tm1  1  0.751588  0.045317  0.500000  1
  Tm  Tm2  1  0.954683  0.706272  0.500000  1
  In  In3  1  0.066520  0.400491  0.000000  1
  In  In4  1  0.599509  0.666029  0.000000  1
  In  In5  1  0.333971  0.933480  0.000000  1
  In  In6  1  0.666667  0.333333  0.000000  1
  Ir  Ir7  1  0.000000  0.000000  0.000000  1
  Au  Au8  1  0.333333  0.666667  0.500000  1
