# generated using pymatgen
data_CePu(PaB8)2
_symmetry_space_group_name_H-M   'P 1'
_cell_length_a   7.11608186
_cell_length_b   7.11608243
_cell_length_c   4.01800800
_cell_angle_alpha   90.00000000
_cell_angle_beta   90.00000000
_cell_angle_gamma   89.79175160
_symmetry_Int_Tables_number   1
_chemical_formula_structural   CePu(PaB8)2
_chemical_formula_sum   'Ce1 Pu1 Pa2 B16'
_cell_volume   203.46505697
_cell_formula_units_Z   1
loop_
 _symmetry_equiv_pos_site_id
 _symmetry_equiv_pos_as_xyz
  1  'x, y, z'
loop_
 _atom_site_type_symbol
 _atom_site_label
 _atom_site_symmetry_multiplicity
 _atom_site_fract_x
 _atom_site_fract_y
 _atom_site_fract_z
 _atom_site_occupancy
  Ce  Ce0  1  0.187533  0.687533  0.000000  1
  Pu  Pu1  1  0.811723  0.311723  0.000000  1
  Pa  Pa2  1  0.689895  0.810164  0.000000  1
  Pa  Pa3  1  0.310164  0.189895  0.000000  1
  B  B4  1  0.324527  0.459276  0.500000  1
  B  B5  1  0.679082  0.538011  0.500000  1
  B  B6  1  0.539186  0.320759  0.500000  1
  B  B7  1  0.464107  0.676341  0.500000  1
  B  B8  1  0.998607  0.001728  0.200453  1
  B  B9  1  0.501728  0.498607  0.799547  1
  B  B10  1  0.998607  0.001728  0.799547  1
  B  B11  1  0.501728  0.498607  0.200453  1
  B  B12  1  0.585996  0.085996  0.500000  1
  B  B13  1  0.088764  0.411926  0.500000  1
  B  B14  1  0.911926  0.588764  0.500000  1
  B  B15  1  0.412041  0.912041  0.500000  1
  B  B16  1  0.038011  0.179082  0.500000  1
  B  B17  1  0.176341  0.964107  0.500000  1
  B  B18  1  0.820759  0.039186  0.500000  1
  B  B19  1  0.959276  0.824527  0.500000  1
