# generated using pymatgen
data_Y8Hf3Si16W9
_symmetry_space_group_name_H-M   'P 1'
_cell_length_a   6.97310483
_cell_length_b   6.97310473
_cell_length_c   12.92403701
_cell_angle_alpha   89.97480029
_cell_angle_beta   90.02519788
_cell_angle_gamma   89.91045054
_symmetry_Int_Tables_number   1
_chemical_formula_structural   Y8Hf3Si16W9
_chemical_formula_sum   'Y8 Hf3 Si16 W9'
_cell_volume   628.41994515
_cell_formula_units_Z   1
loop_
 _symmetry_equiv_pos_site_id
 _symmetry_equiv_pos_as_xyz
  1  'x, y, z'
loop_
 _atom_site_type_symbol
 _atom_site_label
 _atom_site_symmetry_multiplicity
 _atom_site_fract_x
 _atom_site_fract_y
 _atom_site_fract_z
 _atom_site_occupancy
  Y  Y0  1  0.001229  0.336503  0.216939  1
  Y  Y1  1  0.003330  0.662651  0.720507  1
  Y  Y2  1  0.162089  0.498367  0.468658  1
  Y  Y3  1  0.499732  0.839338  0.030825  1
  Y  Y4  1  0.839338  0.499732  0.969175  1
  Y  Y5  1  0.498367  0.162089  0.531342  1
  Y  Y6  1  0.336503  0.001229  0.783061  1
  Y  Y7  1  0.662651  0.003330  0.279493  1
  Hf  Hf8  1  0.832630  0.832630  0.500000  1
  Hf  Hf9  1  0.330936  0.667435  0.247730  1
  Hf  Hf10  1  0.667435  0.330936  0.752270  1
  Si  Si11  1  0.372694  0.294828  0.317597  1
  Si  Si12  1  0.625693  0.706985  0.817779  1
  Si  Si13  1  0.205149  0.873396  0.568217  1
  Si  Si14  1  0.124810  0.802084  0.933584  1
  Si  Si15  1  0.802084  0.124810  0.066416  1
  Si  Si16  1  0.873396  0.205149  0.431783  1
  Si  Si17  1  0.294828  0.372694  0.682403  1
  Si  Si18  1  0.706985  0.625693  0.182221  1
  Si  Si19  1  0.289570  0.043705  0.184195  1
  Si  Si20  1  0.707967  0.959636  0.688632  1
  Si  Si21  1  0.458458  0.791249  0.437583  1
  Si  Si22  1  0.209981  0.532106  0.059161  1
  Si  Si23  1  0.532106  0.209981  0.940839  1
  Si  Si24  1  0.791249  0.458458  0.562417  1
  Si  Si25  1  0.043705  0.289570  0.815805  1
  Si  Si26  1  0.959636  0.707967  0.311368  1
  W  W27  1  0.166324  0.166324  0.000000  1
  W  W28  1  0.162058  0.994911  0.375049  1
  W  W29  1  0.833232  0.005462  0.876867  1
  W  W30  1  0.506005  0.661861  0.626684  1
  W  W31  1  0.340303  0.497297  0.873654  1
  W  W32  1  0.497297  0.340303  0.126346  1
  W  W33  1  0.661861  0.506005  0.373316  1
  W  W34  1  0.994911  0.162058  0.624951  1
  W  W35  1  0.005462  0.833232  0.123133  1
