# generated using pymatgen
data_Lu2Ga4CoCu
_symmetry_space_group_name_H-M   'P 1'
_cell_length_a   5.38159568
_cell_length_b   5.38159549
_cell_length_c   6.64175500
_cell_angle_alpha   90.00000000
_cell_angle_beta   90.00000000
_cell_angle_gamma   135.19769837
_symmetry_Int_Tables_number   1
_chemical_formula_structural   Lu2Ga4CoCu
_chemical_formula_sum   'Lu2 Ga4 Co1 Cu1'
_cell_volume   135.54586096
_cell_formula_units_Z   1
loop_
 _symmetry_equiv_pos_site_id
 _symmetry_equiv_pos_as_xyz
  1  'x, y, z'
loop_
 _atom_site_type_symbol
 _atom_site_label
 _atom_site_symmetry_multiplicity
 _atom_site_fract_x
 _atom_site_fract_y
 _atom_site_fract_z
 _atom_site_occupancy
  Lu  Lu0  1  0.574438  0.425562  0.250000  1
  Lu  Lu1  1  0.428242  0.571758  0.749999  1
  Ga  Ga2  1  0.860421  0.139580  0.049379  1
  Ga  Ga3  1  0.860421  0.139580  0.450621  1
  Ga  Ga4  1  0.138719  0.861282  0.555996  1
  Ga  Ga5  1  0.138719  0.861282  0.944004  1
  Co  Co6  1  0.710005  0.289996  0.749999  1
  Cu  Cu7  1  0.289038  0.710963  0.250000  1
