# generated using pymatgen
data_Ce2Cd16HgRu4
_symmetry_space_group_name_H-M   'P 1'
_cell_length_a   8.70345874
_cell_length_b   8.70345811
_cell_length_c   8.70345860
_cell_angle_alpha   106.96846384
_cell_angle_beta   110.73691514
_cell_angle_gamma   110.73690137
_symmetry_Int_Tables_number   1
_chemical_formula_structural   Ce2Cd16HgRu4
_chemical_formula_sum   'Ce2 Cd16 Hg1 Ru4'
_cell_volume   506.79831745
_cell_formula_units_Z   1
loop_
 _symmetry_equiv_pos_site_id
 _symmetry_equiv_pos_as_xyz
  1  'x, y, z'
loop_
 _atom_site_type_symbol
 _atom_site_label
 _atom_site_symmetry_multiplicity
 _atom_site_fract_x
 _atom_site_fract_y
 _atom_site_fract_z
 _atom_site_occupancy
  Ce  Ce0  1  0.000000  0.341061  0.341061  1
  Ce  Ce1  1  0.000000  0.658939  0.658939  1
  Cd  Cd2  1  0.330506  0.500000  0.830506  1
  Cd  Cd3  1  0.669494  0.500000  0.169494  1
  Cd  Cd4  1  0.669494  0.169494  0.500000  1
  Cd  Cd5  1  0.330506  0.830506  0.500000  1
  Cd  Cd6  1  0.431493  0.148719  0.148719  1
  Cd  Cd7  1  0.568507  0.717225  0.717225  1
  Cd  Cd8  1  0.000000  0.851281  0.282775  1
  Cd  Cd9  1  0.000000  0.282775  0.851281  1
  Cd  Cd10  1  0.350560  0.239336  0.491216  1
  Cd  Cd11  1  0.649440  0.140656  0.888777  1
  Cd  Cd12  1  0.251878  0.760664  0.111223  1
  Cd  Cd13  1  0.748122  0.859344  0.508784  1
  Cd  Cd14  1  0.748122  0.508784  0.859344  1
  Cd  Cd15  1  0.251878  0.111223  0.760664  1
  Cd  Cd16  1  0.350560  0.491216  0.239336  1
  Cd  Cd17  1  0.649440  0.888777  0.140656  1
  Hg  Hg18  1  0.000000  0.000000  0.000000  1
  Ru  Ru19  1  0.669142  0.501895  0.501895  1
  Ru  Ru20  1  0.330858  0.832753  0.832753  1
  Ru  Ru21  1  0.000000  0.498105  0.167247  1
  Ru  Ru22  1  0.000000  0.167247  0.498105  1
