# generated using pymatgen
data_Hf9NbRe3Rh
_symmetry_space_group_name_H-M   'P 1'
_cell_length_a   8.72378300
_cell_length_b   8.72378128
_cell_length_c   8.50960500
_cell_angle_alpha   90.00000000
_cell_angle_beta   90.00000000
_cell_angle_gamma   120.00000272
_symmetry_Int_Tables_number   1
_chemical_formula_structural   Hf9NbRe3Rh
_chemical_formula_sum   'Hf18 Nb2 Re6 Rh2'
_cell_volume   560.85377065
_cell_formula_units_Z   2
loop_
 _symmetry_equiv_pos_site_id
 _symmetry_equiv_pos_as_xyz
  1  'x, y, z'
loop_
 _atom_site_type_symbol
 _atom_site_label
 _atom_site_symmetry_multiplicity
 _atom_site_fract_x
 _atom_site_fract_y
 _atom_site_fract_z
 _atom_site_occupancy
  Hf  Hf0  1  0.198080  0.801920  0.444860  1
  Hf  Hf1  1  0.198080  0.396162  0.444860  1
  Hf  Hf2  1  0.603838  0.801920  0.444860  1
  Hf  Hf3  1  0.801920  0.198080  0.555140  1
  Hf  Hf4  1  0.801920  0.603838  0.555140  1
  Hf  Hf5  1  0.396162  0.198080  0.555140  1
  Hf  Hf6  1  0.801920  0.198080  0.944860  1
  Hf  Hf7  1  0.801920  0.603838  0.944860  1
  Hf  Hf8  1  0.396162  0.198080  0.944860  1
  Hf  Hf9  1  0.198080  0.801920  0.055140  1
  Hf  Hf10  1  0.198080  0.396162  0.055140  1
  Hf  Hf11  1  0.603838  0.801920  0.055140  1
  Hf  Hf12  1  0.543175  0.456825  0.250000  1
  Hf  Hf13  1  0.543175  0.086351  0.250000  1
  Hf  Hf14  1  0.913649  0.456825  0.250000  1
  Hf  Hf15  1  0.456825  0.543175  0.750000  1
  Hf  Hf16  1  0.456825  0.913649  0.750000  1
  Hf  Hf17  1  0.086351  0.543175  0.750000  1
  Nb  Nb18  1  0.000000  0.000000  0.500000  1
  Nb  Nb19  1  0.000000  0.000000  0.000000  1
  Re  Re20  1  0.885877  0.114123  0.250000  1
  Re  Re21  1  0.885877  0.771754  0.250000  1
  Re  Re22  1  0.228246  0.114123  0.250000  1
  Re  Re23  1  0.114123  0.885877  0.750000  1
  Re  Re24  1  0.114123  0.228246  0.750000  1
  Re  Re25  1  0.771754  0.885877  0.750000  1
  Rh  Rh26  1  0.333333  0.666667  0.250000  1
  Rh  Rh27  1  0.666667  0.333333  0.750000  1
