# generated using pymatgen
data_CaYbErZn11
_symmetry_space_group_name_H-M   'P 1'
_cell_length_a   4.39531195
_cell_length_b   8.23986190
_cell_length_c   8.23986220
_cell_angle_alpha   65.67168921
_cell_angle_beta   74.53138971
_cell_angle_gamma   74.53139929
_symmetry_Int_Tables_number   1
_chemical_formula_structural   CaYbErZn11
_chemical_formula_sum   'Ca1 Yb1 Er1 Zn11'
_cell_volume   257.85832315
_cell_formula_units_Z   1
loop_
 _symmetry_equiv_pos_site_id
 _symmetry_equiv_pos_as_xyz
  1  'x, y, z'
loop_
 _atom_site_type_symbol
 _atom_site_label
 _atom_site_symmetry_multiplicity
 _atom_site_fract_x
 _atom_site_fract_y
 _atom_site_fract_z
 _atom_site_occupancy
  Ca  Ca0  1  0.999598  0.000402  0.000402  1
  Yb  Yb1  1  0.296122  0.703878  0.703878  1
  Er  Er2  1  0.704495  0.295505  0.295505  1
  Zn  Zn3  1  0.000687  0.499313  0.499313  1
  Zn  Zn4  1  0.499830  0.686364  0.313977  1
  Zn  Zn5  1  0.499830  0.313977  0.686364  1
  Zn  Zn6  1  0.663144  0.694061  0.979653  1
  Zn  Zn7  1  0.336077  0.307249  0.020596  1
  Zn  Zn8  1  0.663144  0.979653  0.694061  1
  Zn  Zn9  1  0.336077  0.020596  0.307249  1
  Zn  Zn10  1  0.865293  0.420157  0.849256  1
  Zn  Zn11  1  0.135206  0.575809  0.153780  1
  Zn  Zn12  1  0.865293  0.849256  0.420157  1
  Zn  Zn13  1  0.135206  0.153780  0.575809  1
