# generated using pymatgen
data_Sr2Li3YPt3
_symmetry_space_group_name_H-M   'P 1'
_cell_length_a   7.45960893
_cell_length_b   7.45898349
_cell_length_c   4.17477700
_cell_angle_alpha   90.00000000
_cell_angle_beta   90.00000000
_cell_angle_gamma   119.99719934
_symmetry_Int_Tables_number   1
_chemical_formula_structural   Sr2Li3YPt3
_chemical_formula_sum   'Sr2 Li3 Y1 Pt3'
_cell_volume   201.17401135
_cell_formula_units_Z   1
loop_
 _symmetry_equiv_pos_site_id
 _symmetry_equiv_pos_as_xyz
  1  'x, y, z'
loop_
 _atom_site_type_symbol
 _atom_site_label
 _atom_site_symmetry_multiplicity
 _atom_site_fract_x
 _atom_site_fract_y
 _atom_site_fract_z
 _atom_site_occupancy
  Sr  Sr0  1  0.414437  0.416425  0.000000  1
  Sr  Sr1  1  0.585563  0.001987  0.000000  1
  Li  Li2  1  0.776050  0.765278  0.500000  1
  Li  Li3  1  0.223950  0.989228  0.500000  1
  Li  Li4  1  0.000000  0.233288  0.500000  1
  Y  Y5  1  0.000000  0.596071  0.000000  1
  Pt  Pt6  1  0.000000  0.977513  0.000000  1
  Pt  Pt7  1  0.705734  0.362971  0.500000  1
  Pt  Pt8  1  0.294266  0.657238  0.500000  1
