# generated using pymatgen
data_Dy5Zr3(Ni4P3)4
_symmetry_space_group_name_H-M   'P 1'
_cell_length_a   12.36492100
_cell_length_b   12.36492201
_cell_length_c   3.80972200
_cell_angle_alpha   90.00000000
_cell_angle_beta   90.00000000
_cell_angle_gamma   120.00000533
_symmetry_Int_Tables_number   1
_chemical_formula_structural   Dy5Zr3(Ni4P3)4
_chemical_formula_sum   'Dy5 Zr3 Ni16 P12'
_cell_volume   504.43663693
_cell_formula_units_Z   1
loop_
 _symmetry_equiv_pos_site_id
 _symmetry_equiv_pos_as_xyz
  1  'x, y, z'
loop_
 _atom_site_type_symbol
 _atom_site_label
 _atom_site_symmetry_multiplicity
 _atom_site_fract_x
 _atom_site_fract_y
 _atom_site_fract_z
 _atom_site_occupancy
  Dy  Dy0  1  0.183862  0.183862  0.500000  1
  Dy  Dy1  1  0.816138  0.000000  0.500000  1
  Dy  Dy2  1  0.000000  0.816138  0.500000  1
  Dy  Dy3  1  0.333333  0.666667  0.000000  1
  Dy  Dy4  1  0.666667  0.333333  0.000000  1
  Zr  Zr5  1  0.560707  0.560707  0.000000  1
  Zr  Zr6  1  0.439293  0.000000  0.000000  1
  Zr  Zr7  1  0.000000  0.439293  0.000000  1
  Ni  Ni8  1  0.726248  0.726248  0.500000  1
  Ni  Ni9  1  0.273752  0.000000  0.500000  1
  Ni  Ni10  1  0.000000  0.273752  0.500000  1
  Ni  Ni11  1  0.184959  0.376312  0.000000  1
  Ni  Ni12  1  0.623688  0.808647  0.000000  1
  Ni  Ni13  1  0.191353  0.815041  0.000000  1
  Ni  Ni14  1  0.808647  0.623688  0.000000  1
  Ni  Ni15  1  0.815041  0.191353  0.000000  1
  Ni  Ni16  1  0.376312  0.184959  0.000000  1
  Ni  Ni17  1  0.359352  0.483613  0.500000  1
  Ni  Ni18  1  0.516387  0.875740  0.500000  1
  Ni  Ni19  1  0.124260  0.640648  0.500000  1
  Ni  Ni20  1  0.875740  0.516387  0.500000  1
  Ni  Ni21  1  0.640648  0.124260  0.500000  1
  Ni  Ni22  1  0.483613  0.359352  0.500000  1
  Ni  Ni23  1  0.000000  0.000000  0.000000  1
  P  P24  1  0.821919  0.821919  0.000000  1
  P  P25  1  0.178081  0.000000  0.000000  1
  P  P26  1  0.000000  0.178081  0.000000  1
  P  P27  1  0.170616  0.476241  0.500000  1
  P  P28  1  0.523759  0.694375  0.500000  1
  P  P29  1  0.305625  0.829384  0.500000  1
  P  P30  1  0.694375  0.523759  0.500000  1
  P  P31  1  0.829384  0.305625  0.500000  1
  P  P32  1  0.476241  0.170616  0.500000  1
  P  P33  1  0.355436  0.355436  0.000000  1
  P  P34  1  0.644564  0.000000  0.000000  1
  P  P35  1  0.000000  0.644564  0.000000  1
