# generated using pymatgen
data_Yb3Er(MgRh)4
_symmetry_space_group_name_H-M   'P 1'
_cell_length_a   4.10320300
_cell_length_b   7.08679425
_cell_length_c   8.49614700
_cell_angle_alpha   89.98474386
_cell_angle_beta   90.00000000
_cell_angle_gamma   90.00000000
_symmetry_Int_Tables_number   1
_chemical_formula_structural   Yb3Er(MgRh)4
_chemical_formula_sum   'Yb3 Er1 Mg4 Rh4'
_cell_volume   247.05567274
_cell_formula_units_Z   1
loop_
 _symmetry_equiv_pos_site_id
 _symmetry_equiv_pos_as_xyz
  1  'x, y, z'
loop_
 _atom_site_type_symbol
 _atom_site_label
 _atom_site_symmetry_multiplicity
 _atom_site_fract_x
 _atom_site_fract_y
 _atom_site_fract_z
 _atom_site_occupancy
  Yb  Yb0  1  0.750000  0.466783  0.826367  1
  Yb  Yb1  1  0.250000  0.034649  0.326182  1
  Yb  Yb2  1  0.750000  0.967506  0.673759  1
  Er  Er3  1  0.250000  0.536799  0.172323  1
  Mg  Mg4  1  0.250000  0.139188  0.941558  1
  Mg  Mg5  1  0.750000  0.864429  0.057303  1
  Mg  Mg6  1  0.250000  0.635307  0.559282  1
  Mg  Mg7  1  0.750000  0.361077  0.443854  1
  Rh  Rh8  1  0.750000  0.730305  0.358789  1
  Rh  Rh9  1  0.250000  0.256240  0.633237  1
  Rh  Rh10  1  0.750000  0.251116  0.134562  1
  Rh  Rh11  1  0.250000  0.756602  0.872784  1
