# generated using pymatgen
data_PrY5Ir18
_symmetry_space_group_name_H-M   'P 1'
_cell_length_a   5.32618100
_cell_length_b   5.32589925
_cell_length_c   17.51322800
_cell_angle_alpha   90.00000000
_cell_angle_beta   90.00000000
_cell_angle_gamma   120.00174378
_symmetry_Int_Tables_number   1
_chemical_formula_structural   PrY5Ir18
_chemical_formula_sum   'Pr1 Y5 Ir18'
_cell_volume   430.22740354
_cell_formula_units_Z   1
loop_
 _symmetry_equiv_pos_site_id
 _symmetry_equiv_pos_as_xyz
  1  'x, y, z'
loop_
 _atom_site_type_symbol
 _atom_site_label
 _atom_site_symmetry_multiplicity
 _atom_site_fract_x
 _atom_site_fract_y
 _atom_site_fract_z
 _atom_site_occupancy
  Pr  Pr0  1  0.333329  0.666659  0.750000  1
  Y  Y1  1  0.666672  0.333345  0.041208  1
  Y  Y2  1  0.666678  0.333357  0.250000  1
  Y  Y3  1  0.666672  0.333345  0.458792  1
  Y  Y4  1  0.333331  0.666662  0.539998  1
  Y  Y5  1  0.333331  0.666662  0.960002  1
  Ir  Ir6  1  0.999979  0.999959  0.000249  1
  Ir  Ir7  1  0.167028  0.334056  0.126561  1
  Ir  Ir8  1  0.665966  0.833002  0.126626  1
  Ir  Ir9  1  0.167037  0.833002  0.126626  1
  Ir  Ir10  1  0.000168  0.000337  0.250000  1
  Ir  Ir11  1  0.333194  0.666389  0.250000  1
  Ir  Ir12  1  0.665966  0.833002  0.373374  1
  Ir  Ir13  1  0.167037  0.833002  0.373374  1
  Ir  Ir14  1  0.167028  0.334056  0.373439  1
  Ir  Ir15  1  0.999979  0.999959  0.499751  1
  Ir  Ir16  1  0.833000  0.666000  0.625944  1
  Ir  Ir17  1  0.832996  0.166969  0.625958  1
  Ir  Ir18  1  0.333974  0.166969  0.625958  1
  Ir  Ir19  1  0.999964  0.999929  0.750000  1
  Ir  Ir20  1  0.666699  0.333400  0.750000  1
  Ir  Ir21  1  0.832996  0.166969  0.874042  1
  Ir  Ir22  1  0.333974  0.166969  0.874042  1
  Ir  Ir23  1  0.833000  0.666000  0.874056  1
