# generated using pymatgen
data_Mg2Zn2P7N12
_symmetry_space_group_name_H-M   'P 1'
_cell_length_a   7.22619268
_cell_length_b   7.20685555
_cell_length_c   7.22619260
_cell_angle_alpha   109.94126286
_cell_angle_beta   108.64551979
_cell_angle_gamma   109.94125774
_symmetry_Int_Tables_number   1
_chemical_formula_structural   Mg2Zn2P7N12
_chemical_formula_sum   'Mg2 Zn2 P7 N12'
_cell_volume   289.24983968
_cell_formula_units_Z   1
loop_
 _symmetry_equiv_pos_site_id
 _symmetry_equiv_pos_as_xyz
  1  'x, y, z'
loop_
 _atom_site_type_symbol
 _atom_site_label
 _atom_site_symmetry_multiplicity
 _atom_site_fract_x
 _atom_site_fract_y
 _atom_site_fract_z
 _atom_site_occupancy
  Mg  Mg0  1  0.990969  0.342515  0.990969  1
  Mg  Mg1  1  0.648454  0.657485  0.648454  1
  Zn  Zn2  1  0.338843  0.000000  0.002280  1
  Zn  Zn3  1  0.002280  0.000000  0.338843  1
  P  P4  1  0.749769  0.250027  0.497670  1
  P  P5  1  0.247643  0.749973  0.499742  1
  P  P6  1  0.499742  0.749973  0.247643  1
  P  P7  1  0.497670  0.250027  0.749769  1
  P  P8  1  0.750132  0.500000  0.250132  1
  P  P9  1  0.250132  0.500000  0.750132  1
  P  P10  1  0.024759  0.000000  0.024759  1
  N  N11  1  0.559699  0.272500  0.999438  1
  N  N12  1  0.443505  0.444307  0.718962  1
  N  N13  1  0.999438  0.272500  0.559699  1
  N  N14  1  0.270857  0.000000  0.559721  1
  N  N15  1  0.718962  0.444307  0.443505  1
  N  N16  1  0.999198  0.555693  0.274655  1
  N  N17  1  0.559721  0.000000  0.270857  1
  N  N18  1  0.437147  0.714860  0.437147  1
  N  N19  1  0.274655  0.555693  0.999198  1
  N  N20  1  0.722287  0.285140  0.722287  1
  N  N21  1  0.726938  0.727500  0.287199  1
  N  N22  1  0.287199  0.727500  0.726938  1
