# generated using pymatgen
data_Yb2In3SnRh2
_symmetry_space_group_name_H-M   'P 1'
_cell_length_a   5.55563020
_cell_length_b   5.55563144
_cell_length_c   8.18156109
_cell_angle_alpha   89.81957787
_cell_angle_beta   90.18042218
_cell_angle_gamma   135.21712618
_symmetry_Int_Tables_number   1
_chemical_formula_structural   Yb2In3SnRh2
_chemical_formula_sum   'Yb2 In3 Sn1 Rh2'
_cell_volume   177.88256294
_cell_formula_units_Z   1
loop_
 _symmetry_equiv_pos_site_id
 _symmetry_equiv_pos_as_xyz
  1  'x, y, z'
loop_
 _atom_site_type_symbol
 _atom_site_label
 _atom_site_symmetry_multiplicity
 _atom_site_fract_x
 _atom_site_fract_y
 _atom_site_fract_z
 _atom_site_occupancy
  Yb  Yb0  1  0.066930  0.933070  0.249885  1
  Yb  Yb1  1  0.933365  0.066635  0.750512  1
  In  In2  1  0.356674  0.643326  0.446667  1
  In  In3  1  0.645714  0.354286  0.951950  1
  In  In4  1  0.354497  0.645503  0.049702  1
  Sn  Sn5  1  0.647294  0.352706  0.552458  1
  Rh  Rh6  1  0.216135  0.783865  0.743819  1
  Rh  Rh7  1  0.779393  0.220607  0.255007  1
