# generated using pymatgen
data_ErU9(Re3C8)2
_symmetry_space_group_name_H-M   'P 1'
_cell_length_a   11.36722005
_cell_length_b   11.36722005
_cell_length_c   3.26137700
_cell_angle_alpha   90.00000000
_cell_angle_beta   90.00000000
_cell_angle_gamma   89.90330421
_symmetry_Int_Tables_number   1
_chemical_formula_structural   ErU9(Re3C8)2
_chemical_formula_sum   'Er1 U9 Re6 C16'
_cell_volume   421.41396172
_cell_formula_units_Z   1
loop_
 _symmetry_equiv_pos_site_id
 _symmetry_equiv_pos_as_xyz
  1  'x, y, z'
loop_
 _atom_site_type_symbol
 _atom_site_label
 _atom_site_symmetry_multiplicity
 _atom_site_fract_x
 _atom_site_fract_y
 _atom_site_fract_z
 _atom_site_occupancy
  Er  Er0  1  0.000000  0.500000  0.000000  1
  U  U1  1  0.270461  0.542098  0.500000  1
  U  U2  1  0.729539  0.457902  0.500000  1
  U  U3  1  0.542514  0.727850  0.500000  1
  U  U4  1  0.772150  0.957486  0.500000  1
  U  U5  1  0.227850  0.042514  0.500000  1
  U  U6  1  0.957902  0.229539  0.500000  1
  U  U7  1  0.457486  0.272150  0.500000  1
  U  U8  1  0.500000  0.000000  0.000000  1
  U  U9  1  0.042098  0.770461  0.500000  1
  Re  Re10  1  0.203898  0.296102  0.000000  1
  Re  Re11  1  0.703104  0.203104  0.000000  1
  Re  Re12  1  0.296896  0.796896  0.000000  1
  Re  Re13  1  0.500000  0.500000  0.000000  1
  Re  Re14  1  0.796102  0.703898  0.000000  1
  Re  Re15  1  0.000000  0.000000  0.000000  1
  C  C16  1  0.346911  0.403205  0.000000  1
  C  C17  1  0.616863  0.116863  0.500000  1
  C  C18  1  0.903205  0.846911  0.000000  1
  C  C19  1  0.654162  0.845838  0.000000  1
  C  C20  1  0.345838  0.154162  0.000000  1
  C  C21  1  0.118153  0.381847  0.500000  1
  C  C22  1  0.152032  0.901921  0.000000  1
  C  C23  1  0.845295  0.345295  0.000000  1
  C  C24  1  0.653089  0.596795  0.000000  1
  C  C25  1  0.598079  0.347968  0.000000  1
  C  C26  1  0.881847  0.618153  0.500000  1
  C  C27  1  0.847968  0.098079  0.000000  1
  C  C28  1  0.383137  0.883137  0.500000  1
  C  C29  1  0.154705  0.654705  0.000000  1
  C  C30  1  0.096795  0.153089  0.000000  1
  C  C31  1  0.401921  0.652032  0.000000  1
