# generated using pymatgen
data_Dy3In4AgRh
_symmetry_space_group_name_H-M   'P 1'
_cell_length_a   7.95614600
_cell_length_b   7.95614652
_cell_length_c   3.85906200
_cell_angle_alpha   90.00000000
_cell_angle_beta   90.00000000
_cell_angle_gamma   120.00001446
_symmetry_Int_Tables_number   1
_chemical_formula_structural   Dy3In4AgRh
_chemical_formula_sum   'Dy3 In4 Ag1 Rh1'
_cell_volume   211.55234372
_cell_formula_units_Z   1
loop_
 _symmetry_equiv_pos_site_id
 _symmetry_equiv_pos_as_xyz
  1  'x, y, z'
loop_
 _atom_site_type_symbol
 _atom_site_label
 _atom_site_symmetry_multiplicity
 _atom_site_fract_x
 _atom_site_fract_y
 _atom_site_fract_z
 _atom_site_occupancy
  Dy  Dy0  1  0.049414  0.295882  0.500000  1
  Dy  Dy1  1  0.704118  0.753531  0.500000  1
  Dy  Dy2  1  0.246469  0.950586  0.500000  1
  In  In3  1  0.665873  0.067237  0.000000  1
  In  In4  1  0.932763  0.598637  0.000000  1
  In  In5  1  0.401363  0.334127  0.000000  1
  In  In6  1  0.333333  0.666667  0.000000  1
  Ag  Ag7  1  0.666667  0.333333  0.500000  1
  Rh  Rh8  1  0.000000  0.000000  0.000000  1
