# generated using pymatgen
data_Hf20Cu4As7P5
_symmetry_space_group_name_H-M   'P 1'
_cell_length_a   3.65282100
_cell_length_b   10.29398059
_cell_length_c   17.43242871
_cell_angle_alpha   89.93621697
_cell_angle_beta   90.00000000
_cell_angle_gamma   90.00000000
_symmetry_Int_Tables_number   1
_chemical_formula_structural   Hf20Cu4As7P5
_chemical_formula_sum   'Hf20 Cu4 As7 P5'
_cell_volume   655.49497177
_cell_formula_units_Z   1
loop_
 _symmetry_equiv_pos_site_id
 _symmetry_equiv_pos_as_xyz
  1  'x, y, z'
loop_
 _atom_site_type_symbol
 _atom_site_label
 _atom_site_symmetry_multiplicity
 _atom_site_fract_x
 _atom_site_fract_y
 _atom_site_fract_z
 _atom_site_occupancy
  Hf  Hf0  1  0.250000  0.124268  0.478649  1
  Hf  Hf1  1  0.750000  0.876031  0.520814  1
  Hf  Hf2  1  0.750000  0.620602  0.024613  1
  Hf  Hf3  1  0.250000  0.377270  0.980733  1
  Hf  Hf4  1  0.250000  0.068351  0.078209  1
  Hf  Hf5  1  0.750000  0.931157  0.922528  1
  Hf  Hf6  1  0.750000  0.568358  0.421148  1
  Hf  Hf7  1  0.250000  0.431663  0.578138  1
  Hf  Hf8  1  0.250000  0.486243  0.268913  1
  Hf  Hf9  1  0.750000  0.513271  0.727774  1
  Hf  Hf10  1  0.750000  0.986456  0.226841  1
  Hf  Hf11  1  0.250000  0.013404  0.773027  1
  Hf  Hf12  1  0.250000  0.813662  0.370755  1
  Hf  Hf13  1  0.750000  0.186439  0.628829  1
  Hf  Hf14  1  0.750000  0.320998  0.128775  1
  Hf  Hf15  1  0.250000  0.685984  0.871988  1
  Hf  Hf16  1  0.250000  0.751573  0.166863  1
  Hf  Hf17  1  0.750000  0.243476  0.832575  1
  Hf  Hf18  1  0.750000  0.257467  0.331238  1
  Hf  Hf19  1  0.250000  0.743112  0.668153  1
  Cu  Cu20  1  0.250000  0.374422  0.416059  1
  Cu  Cu21  1  0.750000  0.626031  0.583021  1
  Cu  Cu22  1  0.750000  0.873418  0.083385  1
  Cu  Cu23  1  0.250000  0.126291  0.917508  1
  As  As24  1  0.750000  0.490211  0.884055  1
  As  As25  1  0.750000  0.010133  0.382506  1
  As  As26  1  0.250000  0.990035  0.617027  1
  As  As27  1  0.250000  0.192458  0.220372  1
  As  As28  1  0.750000  0.808482  0.779176  1
  As  As29  1  0.750000  0.690981  0.278369  1
  As  As30  1  0.250000  0.308663  0.721594  1
  P  P31  1  0.250000  0.810950  0.008350  1
  P  P32  1  0.750000  0.188779  0.992981  1
  P  P33  1  0.750000  0.312658  0.491650  1
  P  P34  1  0.250000  0.687372  0.507581  1
  P  P35  1  0.250000  0.509332  0.115803  1
