# generated using pymatgen
data_Ba6Y2Al2Ga2O15
_symmetry_space_group_name_H-M   'P 1'
_cell_length_a   6.00654600
_cell_length_b   8.03814539
_cell_length_c   18.55983699
_cell_angle_alpha   88.44497347
_cell_angle_beta   90.00000000
_cell_angle_gamma   90.00000000
_symmetry_Int_Tables_number   1
_chemical_formula_structural   Ba6Y2Al2Ga2O15
_chemical_formula_sum   'Ba12 Y4 Al4 Ga4 O30'
_cell_volume   895.76657345
_cell_formula_units_Z   2
loop_
 _symmetry_equiv_pos_site_id
 _symmetry_equiv_pos_as_xyz
  1  'x, y, z'
loop_
 _atom_site_type_symbol
 _atom_site_label
 _atom_site_symmetry_multiplicity
 _atom_site_fract_x
 _atom_site_fract_y
 _atom_site_fract_z
 _atom_site_occupancy
  Ba  Ba0  1  0.756266  0.499900  0.082542  1
  Ba  Ba1  1  0.243734  0.500100  0.917458  1
  Ba  Ba2  1  0.756266  0.500100  0.417458  1
  Ba  Ba3  1  0.243734  0.499900  0.582542  1
  Ba  Ba4  1  0.747973  0.971033  0.089293  1
  Ba  Ba5  1  0.252027  0.028967  0.910707  1
  Ba  Ba6  1  0.747973  0.028967  0.410707  1
  Ba  Ba7  1  0.252027  0.971033  0.589293  1
  Ba  Ba8  1  0.728272  0.000000  0.750000  1
  Ba  Ba9  1  0.271728  0.000000  0.250000  1
  Ba  Ba10  1  0.672125  0.500000  0.750000  1
  Ba  Ba11  1  0.327875  0.500000  0.250000  1
  Y  Y12  1  0.747725  0.753166  0.908798  1
  Y  Y13  1  0.252275  0.246834  0.091202  1
  Y  Y14  1  0.747725  0.246834  0.591202  1
  Y  Y15  1  0.252275  0.753166  0.408798  1
  Al  Al16  1  0.769607  0.780988  0.266929  1
  Al  Al17  1  0.230393  0.219012  0.733071  1
  Al  Al18  1  0.769607  0.219012  0.233071  1
  Al  Al19  1  0.230393  0.780988  0.766929  1
  Ga  Ga20  1  0.747558  0.752524  0.558637  1
  Ga  Ga21  1  0.252442  0.247476  0.441363  1
  Ga  Ga22  1  0.747558  0.247476  0.941363  1
  Ga  Ga23  1  0.252442  0.752524  0.058637  1
  O  O24  1  0.210503  0.000000  0.750000  1
  O  O25  1  0.789497  0.000000  0.250000  1
  O  O26  1  0.508777  0.765392  0.000667  1
  O  O27  1  0.491223  0.234608  0.999333  1
  O  O28  1  0.508777  0.234608  0.499333  1
  O  O29  1  0.491223  0.765392  0.500667  1
  O  O30  1  0.763220  0.952311  0.608416  1
  O  O31  1  0.236780  0.047689  0.391584  1
  O  O32  1  0.763220  0.047689  0.891584  1
  O  O33  1  0.236780  0.952311  0.108416  1
  O  O34  1  0.009710  0.763506  0.993459  1
  O  O35  1  0.990290  0.236494  0.006541  1
  O  O36  1  0.009710  0.236494  0.506541  1
  O  O37  1  0.990290  0.763506  0.493459  1
  O  O38  1  0.315231  0.693819  0.685970  1
  O  O39  1  0.684769  0.306181  0.314030  1
  O  O40  1  0.315231  0.306181  0.814030  1
  O  O41  1  0.684769  0.693819  0.185970  1
  O  O42  1  0.449670  0.754378  0.832403  1
  O  O43  1  0.550330  0.245622  0.167597  1
  O  O44  1  0.449670  0.245622  0.667597  1
  O  O45  1  0.550330  0.754378  0.332403  1
  O  O46  1  0.972346  0.730538  0.809421  1
  O  O47  1  0.027654  0.269462  0.190579  1
  O  O48  1  0.972346  0.269462  0.690579  1
  O  O49  1  0.027654  0.730538  0.309421  1
  O  O50  1  0.752744  0.532680  0.594718  1
  O  O51  1  0.247256  0.467320  0.405282  1
  O  O52  1  0.752744  0.467320  0.905282  1
  O  O53  1  0.247256  0.532680  0.094718  1
