# generated using pymatgen
data_Ti2Co3SiGe
_symmetry_space_group_name_H-M   'P 1'
_cell_length_a   6.98937383
_cell_length_b   6.98937369
_cell_length_c   6.98937260
_cell_angle_alpha   33.29571419
_cell_angle_beta   33.29571379
_cell_angle_gamma   33.29571940
_symmetry_Int_Tables_number   1
_chemical_formula_structural   Ti2Co3SiGe
_chemical_formula_sum   'Ti2 Co3 Si1 Ge1'
_cell_volume   91.61221843
_cell_formula_units_Z   1
loop_
 _symmetry_equiv_pos_site_id
 _symmetry_equiv_pos_as_xyz
  1  'x, y, z'
loop_
 _atom_site_type_symbol
 _atom_site_label
 _atom_site_symmetry_multiplicity
 _atom_site_fract_x
 _atom_site_fract_y
 _atom_site_fract_z
 _atom_site_occupancy
  Ti  Ti0  1  0.755646  0.755646  0.755646  1
  Ti  Ti1  1  0.245768  0.245768  0.245768  1
  Co  Co2  1  0.121279  0.121279  0.121279  1
  Co  Co3  1  0.629928  0.629928  0.629928  1
  Co  Co4  1  0.371136  0.371136  0.371136  1
  Si  Si5  1  0.997964  0.997964  0.997964  1
  Ge  Ge6  1  0.503278  0.503278  0.503278  1
