# generated using pymatgen
data_La16Yb4GaSn11
_symmetry_space_group_name_H-M   'P 1'
_cell_length_a   8.29660936
_cell_length_b   8.29660963
_cell_length_c   14.63365000
_cell_angle_alpha   89.98305976
_cell_angle_beta   90.01694024
_cell_angle_gamma   90.31107019
_symmetry_Int_Tables_number   1
_chemical_formula_structural   La16Yb4GaSn11
_chemical_formula_sum   'La16 Yb4 Ga1 Sn11'
_cell_volume   1007.27376785
_cell_formula_units_Z   1
loop_
 _symmetry_equiv_pos_site_id
 _symmetry_equiv_pos_as_xyz
  1  'x, y, z'
loop_
 _atom_site_type_symbol
 _atom_site_label
 _atom_site_symmetry_multiplicity
 _atom_site_fract_x
 _atom_site_fract_y
 _atom_site_fract_z
 _atom_site_occupancy
  La  La0  1  0.827769  0.830131  0.599446  1
  La  La1  1  0.171411  0.836995  0.101409  1
  La  La2  1  0.169464  0.834344  0.398615  1
  La  La3  1  0.836863  0.171528  0.398457  1
  La  La4  1  0.673265  0.671033  0.399417  1
  La  La5  1  0.668386  0.328152  0.598468  1
  La  La6  1  0.330121  0.670699  0.598561  1
  La  La7  1  0.670921  0.673152  0.100400  1
  La  La8  1  0.670574  0.330223  0.901597  1
  La  La9  1  0.830204  0.827863  0.900713  1
  La  La10  1  0.320565  0.322999  0.395584  1
  La  La11  1  0.172703  0.170493  0.599060  1
  La  La12  1  0.834453  0.169358  0.101249  1
  La  La13  1  0.328294  0.668274  0.901689  1
  La  La14  1  0.323085  0.320639  0.104240  1
  La  La15  1  0.170403  0.172620  0.901120  1
  Yb  Yb16  1  0.999888  0.499953  0.746549  1
  Yb  Yb17  1  0.000742  0.496762  0.246492  1
  Yb  Yb18  1  0.496767  0.000740  0.253491  1
  Yb  Yb19  1  0.499956  0.999889  0.753484  1
  Ga  Ga20  1  0.124923  0.124922  0.250029  1
  Sn  Sn21  1  0.628526  0.371053  0.250038  1
  Sn  Sn22  1  0.129614  0.870863  0.749987  1
  Sn  Sn23  1  0.371766  0.371763  0.749949  1
  Sn  Sn24  1  0.371054  0.628524  0.249991  1
  Sn  Sn25  1  0.876609  0.876606  0.250053  1
  Sn  Sn26  1  0.628410  0.628409  0.749949  1
  Sn  Sn27  1  0.000084  0.501202  0.500826  1
  Sn  Sn28  1  0.870861  0.129614  0.749932  1
  Sn  Sn29  1  0.501128  0.000014  0.498236  1
  Sn  Sn30  1  0.501152  0.000080  0.999171  1
  Sn  Sn31  1  0.000035  0.501103  0.001799  1
