# generated using pymatgen
data_Ti5BeSn2Sb
_symmetry_space_group_name_H-M   'P 1'
_cell_length_a   8.16084400
_cell_length_b   8.14959153
_cell_length_c   5.44740900
_cell_angle_alpha   90.00000000
_cell_angle_beta   90.00000000
_cell_angle_gamma   120.04568503
_symmetry_Int_Tables_number   1
_chemical_formula_structural   Ti5BeSn2Sb
_chemical_formula_sum   'Ti10 Be2 Sn4 Sb2'
_cell_volume   313.61109658
_cell_formula_units_Z   2
loop_
 _symmetry_equiv_pos_site_id
 _symmetry_equiv_pos_as_xyz
  1  'x, y, z'
loop_
 _atom_site_type_symbol
 _atom_site_label
 _atom_site_symmetry_multiplicity
 _atom_site_fract_x
 _atom_site_fract_y
 _atom_site_fract_z
 _atom_site_occupancy
  Ti  Ti0  1  0.254260  0.000000  0.750000  1
  Ti  Ti1  1  0.745740  0.000000  0.250000  1
  Ti  Ti2  1  0.999072  0.250664  0.750000  1
  Ti  Ti3  1  0.000928  0.749336  0.250000  1
  Ti  Ti4  1  0.748408  0.749336  0.750000  1
  Ti  Ti5  1  0.251592  0.250664  0.250000  1
  Ti  Ti6  1  0.335045  0.670092  0.500000  1
  Ti  Ti7  1  0.664955  0.329908  0.500000  1
  Ti  Ti8  1  0.664955  0.329908  0.000000  1
  Ti  Ti9  1  0.335045  0.670092  0.000000  1
  Be  Be10  1  0.000000  0.000000  0.500000  1
  Be  Be11  1  0.000000  0.000000  0.000000  1
  Sn  Sn12  1  0.998468  0.610602  0.750000  1
  Sn  Sn13  1  0.001532  0.389398  0.250000  1
  Sn  Sn14  1  0.387866  0.389398  0.750000  1
  Sn  Sn15  1  0.612134  0.610602  0.250000  1
  Sb  Sb16  1  0.613514  0.000000  0.750000  1
  Sb  Sb17  1  0.386486  0.000000  0.250000  1
