# generated using pymatgen
data_Cs2BaY(SbAu)4
_symmetry_space_group_name_H-M   'P 1'
_cell_length_a   4.71662100
_cell_length_b   4.71662073
_cell_length_c   20.89015000
_cell_angle_alpha   90.00000000
_cell_angle_beta   90.00000000
_cell_angle_gamma   120.00000894
_symmetry_Int_Tables_number   1
_chemical_formula_structural   Cs2BaY(SbAu)4
_chemical_formula_sum   'Cs2 Ba1 Y1 Sb4 Au4'
_cell_volume   402.47053057
_cell_formula_units_Z   1
loop_
 _symmetry_equiv_pos_site_id
 _symmetry_equiv_pos_as_xyz
  1  'x, y, z'
loop_
 _atom_site_type_symbol
 _atom_site_label
 _atom_site_symmetry_multiplicity
 _atom_site_fract_x
 _atom_site_fract_y
 _atom_site_fract_z
 _atom_site_occupancy
  Cs  Cs0  1  0.000000  0.000000  0.237922  1
  Cs  Cs1  1  0.000000  0.000000  0.762078  1
  Ba  Ba2  1  0.000000  0.000000  0.500000  1
  Y  Y3  1  0.000000  0.000000  0.000000  1
  Sb  Sb4  1  0.333333  0.666667  0.379814  1
  Sb  Sb5  1  0.666667  0.333333  0.620186  1
  Sb  Sb6  1  0.666667  0.333333  0.900809  1
  Sb  Sb7  1  0.333333  0.666667  0.099191  1
  Au  Au8  1  0.666667  0.333333  0.382451  1
  Au  Au9  1  0.333333  0.666667  0.617549  1
  Au  Au10  1  0.333333  0.666667  0.925707  1
  Au  Au11  1  0.666667  0.333333  0.074293  1
