# generated using pymatgen
data_HoEr2In3Pd2Rh
_symmetry_space_group_name_H-M   'P 1'
_cell_length_a   7.71830216
_cell_length_b   7.71501401
_cell_length_c   3.76927400
_cell_angle_alpha   90.00000000
_cell_angle_beta   90.00000000
_cell_angle_gamma   119.99082013
_symmetry_Int_Tables_number   1
_chemical_formula_structural   HoEr2In3Pd2Rh
_chemical_formula_sum   'Ho1 Er2 In3 Pd2 Rh1'
_cell_volume   194.39585575
_cell_formula_units_Z   1
loop_
 _symmetry_equiv_pos_site_id
 _symmetry_equiv_pos_as_xyz
  1  'x, y, z'
loop_
 _atom_site_type_symbol
 _atom_site_label
 _atom_site_symmetry_multiplicity
 _atom_site_fract_x
 _atom_site_fract_y
 _atom_site_fract_z
 _atom_site_occupancy
  Ho  Ho0  1  0.012313  0.598913  0.500000  1
  Er  Er1  1  0.400995  0.413428  0.500000  1
  Er  Er2  1  0.586613  0.987606  0.500000  1
  In  In3  1  0.263998  0.000619  0.000000  1
  In  In4  1  0.736272  0.736306  0.000000  1
  In  In5  1  0.999779  0.263199  0.000000  1
  Pd  Pd6  1  0.666357  0.333085  0.000000  1
  Pd  Pd7  1  0.999998  0.000095  0.500000  1
  Rh  Rh8  1  0.333674  0.666749  0.000000  1
