# generated using pymatgen
data_Nd3LuHg5
_symmetry_space_group_name_H-M   'P 1'
_cell_length_a   8.39595280
_cell_length_b   8.39595386
_cell_length_c   8.39595400
_cell_angle_alpha   66.60453103
_cell_angle_beta   66.60452788
_cell_angle_gamma   66.60451014
_symmetry_Int_Tables_number   1
_chemical_formula_structural   Nd3LuHg5
_chemical_formula_sum   'Nd6 Lu2 Hg10'
_cell_volume   477.97209051
_cell_formula_units_Z   2
loop_
 _symmetry_equiv_pos_site_id
 _symmetry_equiv_pos_as_xyz
  1  'x, y, z'
loop_
 _atom_site_type_symbol
 _atom_site_label
 _atom_site_symmetry_multiplicity
 _atom_site_fract_x
 _atom_site_fract_y
 _atom_site_fract_z
 _atom_site_occupancy
  Nd  Nd0  1  0.890048  0.186803  0.622157  1
  Nd  Nd1  1  0.622157  0.890048  0.186803  1
  Nd  Nd2  1  0.186803  0.622157  0.890048  1
  Nd  Nd3  1  0.109952  0.813197  0.377843  1
  Nd  Nd4  1  0.377843  0.109952  0.813197  1
  Nd  Nd5  1  0.813197  0.377843  0.109952  1
  Lu  Lu6  1  0.658828  0.658828  0.658828  1
  Lu  Lu7  1  0.341172  0.341172  0.341172  1
  Hg  Hg8  1  0.000000  0.000000  0.000000  1
  Hg  Hg9  1  0.500000  0.500000  0.500000  1
  Hg  Hg10  1  0.809621  0.809621  0.809621  1
  Hg  Hg11  1  0.190379  0.190379  0.190379  1
  Hg  Hg12  1  0.943941  0.556592  0.314822  1
  Hg  Hg13  1  0.314822  0.943941  0.556592  1
  Hg  Hg14  1  0.556592  0.314822  0.943941  1
  Hg  Hg15  1  0.056059  0.443408  0.685178  1
  Hg  Hg16  1  0.685178  0.056059  0.443408  1
  Hg  Hg17  1  0.443408  0.685178  0.056059  1
