# generated using pymatgen
data_KHf4(ZrTe2)8
_symmetry_space_group_name_H-M   'P 1'
_cell_length_a   7.90437750
_cell_length_b   11.14756705
_cell_length_c   11.76337077
_cell_angle_alpha   118.04182149
_cell_angle_beta   109.57800632
_cell_angle_gamma   90.04102817
_symmetry_Int_Tables_number   1
_chemical_formula_structural   KHf4(ZrTe2)8
_chemical_formula_sum   'K1 Hf4 Zr8 Te16'
_cell_volume   846.19995164
_cell_formula_units_Z   1
loop_
 _symmetry_equiv_pos_site_id
 _symmetry_equiv_pos_as_xyz
  1  'x, y, z'
loop_
 _atom_site_type_symbol
 _atom_site_label
 _atom_site_symmetry_multiplicity
 _atom_site_fract_x
 _atom_site_fract_y
 _atom_site_fract_z
 _atom_site_occupancy
  K  K0  1  0.500009  0.999975  0.999572  1
  Hf  Hf1  1  0.187840  0.633075  0.126716  1
  Hf  Hf2  1  0.689115  0.632636  0.125820  1
  Hf  Hf3  1  0.306284  0.492278  0.366848  1
  Hf  Hf4  1  0.810779  0.492513  0.368349  1
  Zr  Zr5  1  0.122168  0.124519  0.490463  1
  Zr  Zr6  1  0.618512  0.123891  0.490785  1
  Zr  Zr7  1  0.311346  0.367324  0.874834  1
  Zr  Zr8  1  0.812471  0.366985  0.874034  1
  Zr  Zr9  1  0.189710  0.507143  0.632506  1
  Zr  Zr10  1  0.693920  0.507330  0.633792  1
  Zr  Zr11  1  0.381021  0.875550  0.508143  1
  Zr  Zr12  1  0.877345  0.874986  0.508504  1
  Te  Te13  1  0.730921  0.056532  0.712351  1
  Te  Te14  1  0.229070  0.055980  0.710782  1
  Te  Te15  1  0.849780  0.657293  0.948296  1
  Te  Te16  1  0.348143  0.656572  0.948245  1
  Te  Te17  1  0.545211  0.291379  0.342715  1
  Te  Te18  1  0.046154  0.289608  0.341222  1
  Te  Te19  1  0.769648  0.941943  0.287056  1
  Te  Te20  1  0.267805  0.941450  0.285600  1
  Te  Te21  1  0.655448  0.347871  0.058695  1
  Te  Te22  1  0.153581  0.347189  0.058545  1
  Te  Te23  1  0.952067  0.711239  0.655145  1
  Te  Te24  1  0.452974  0.709545  0.653646  1
  Te  Te25  1  0.957745  0.331516  0.665148  1
  Te  Te26  1  0.458033  0.333638  0.666382  1
  Te  Te27  1  0.541345  0.663957  0.332299  1
  Te  Te28  1  0.041556  0.666084  0.333507  1
