# generated using pymatgen
data_Rb4HfPaSe6
_symmetry_space_group_name_H-M   'P 1'
_cell_length_a   13.71385900
_cell_length_b   6.63969816
_cell_length_c   9.20937600
_cell_angle_alpha   71.88879420
_cell_angle_beta   90.00000000
_cell_angle_gamma   90.00000000
_symmetry_Int_Tables_number   1
_chemical_formula_structural   Rb4HfPaSe6
_chemical_formula_sum   'Rb8 Hf2 Pa2 Se12'
_cell_volume   797.02099100
_cell_formula_units_Z   2
loop_
 _symmetry_equiv_pos_site_id
 _symmetry_equiv_pos_as_xyz
  1  'x, y, z'
loop_
 _atom_site_type_symbol
 _atom_site_label
 _atom_site_symmetry_multiplicity
 _atom_site_fract_x
 _atom_site_fract_y
 _atom_site_fract_z
 _atom_site_occupancy
  Rb  Rb0  1  0.954061  0.670784  0.662416  1
  Rb  Rb1  1  0.454061  0.829216  0.337584  1
  Rb  Rb2  1  0.046245  0.330109  0.338268  1
  Rb  Rb3  1  0.546245  0.169891  0.661732  1
  Rb  Rb4  1  0.870763  0.085289  0.899463  1
  Rb  Rb5  1  0.370763  0.414711  0.100537  1
  Rb  Rb6  1  0.129193  0.924404  0.102577  1
  Rb  Rb7  1  0.629193  0.575596  0.897423  1
  Hf  Hf8  1  0.249650  0.344733  0.705198  1
  Hf  Hf9  1  0.749650  0.155267  0.294802  1
  Pa  Pa10  1  0.750190  0.654630  0.296333  1
  Pa  Pa11  1  0.250190  0.845370  0.703667  1
  Se  Se12  1  0.910816  0.922010  0.282836  1
  Se  Se13  1  0.410816  0.577990  0.717164  1
  Se  Se14  1  0.089071  0.100930  0.718299  1
  Se  Se15  1  0.589071  0.399070  0.281701  1
  Se  Se16  1  0.819975  0.296324  0.521004  1
  Se  Se17  1  0.319975  0.203676  0.478996  1
  Se  Se18  1  0.180251  0.680196  0.478623  1
  Se  Se19  1  0.680251  0.819804  0.521377  1
  Se  Se20  1  0.841566  0.488421  0.081719  1
  Se  Se21  1  0.341566  0.011579  0.918281  1
  Se  Se22  1  0.158217  0.492556  0.917735  1
  Se  Se23  1  0.658217  0.007444  0.082265  1
