# generated using pymatgen
data_Er3ZnIn3CoCu
_symmetry_space_group_name_H-M   'P 1'
_cell_length_a   7.53476800
_cell_length_b   7.53476843
_cell_length_c   3.83649200
_cell_angle_alpha   90.00000000
_cell_angle_beta   90.00000000
_cell_angle_gamma   119.99999810
_symmetry_Int_Tables_number   1
_chemical_formula_structural   Er3ZnIn3CoCu
_chemical_formula_sum   'Er3 Zn1 In3 Co1 Cu1'
_cell_volume   188.62737946
_cell_formula_units_Z   1
loop_
 _symmetry_equiv_pos_site_id
 _symmetry_equiv_pos_as_xyz
  1  'x, y, z'
loop_
 _atom_site_type_symbol
 _atom_site_label
 _atom_site_symmetry_multiplicity
 _atom_site_fract_x
 _atom_site_fract_y
 _atom_site_fract_z
 _atom_site_occupancy
  Er  Er0  1  0.027155  0.603020  0.500000  1
  Er  Er1  1  0.396980  0.424135  0.500000  1
  Er  Er2  1  0.575865  0.972845  0.500000  1
  Zn  Zn3  1  0.666667  0.333333  0.000000  1
  In  In4  1  0.743534  0.744710  0.000000  1
  In  In5  1  0.001176  0.256466  0.000000  1
  In  In6  1  0.255290  0.998824  0.000000  1
  Co  Co7  1  0.333333  0.666667  0.000000  1
  Cu  Cu8  1  0.000000  0.000000  0.500000  1
