# generated using pymatgen
data_KBa3Fe4(CoAs2)4
_symmetry_space_group_name_H-M   'P 1'
_cell_length_a   7.07617133
_cell_length_b   8.73641940
_cell_length_c   7.81104755
_cell_angle_alpha   63.37264208
_cell_angle_beta   73.99462002
_cell_angle_gamma   97.05208367
_symmetry_Int_Tables_number   1
_chemical_formula_structural   KBa3Fe4(CoAs2)4
_chemical_formula_sum   'K1 Ba3 Fe4 Co4 As8'
_cell_volume   397.51703220
_cell_formula_units_Z   1
loop_
 _symmetry_equiv_pos_site_id
 _symmetry_equiv_pos_as_xyz
  1  'x, y, z'
loop_
 _atom_site_type_symbol
 _atom_site_label
 _atom_site_symmetry_multiplicity
 _atom_site_fract_x
 _atom_site_fract_y
 _atom_site_fract_z
 _atom_site_occupancy
  K  K0  1  0.000108  0.000024  0.999964  1
  Ba  Ba1  1  0.000418  0.492666  0.753498  1
  Ba  Ba2  1  0.000322  0.000021  0.499895  1
  Ba  Ba3  1  0.000392  0.507596  0.246158  1
  Fe  Fe4  1  0.499685  0.375149  0.687196  1
  Fe  Fe5  1  0.500010  0.375259  0.186863  1
  Fe  Fe6  1  0.500350  0.874752  0.437934  1
  Fe  Fe7  1  0.500559  0.874733  0.937288  1
  Co  Co8  1  0.500138  0.624791  0.312911  1
  Co  Co9  1  0.500042  0.624966  0.813083  1
  Co  Co10  1  0.499429  0.125274  0.062649  1
  Co  Co11  1  0.499896  0.125139  0.562081  1
  As  As12  1  0.306697  0.326799  0.509366  1
  As  As13  1  0.306335  0.326621  0.009794  1
  As  As14  1  0.307483  0.827021  0.259834  1
  As  As15  1  0.306469  0.826869  0.760165  1
  As  As16  1  0.693279  0.673090  0.490777  1
  As  As17  1  0.693534  0.673510  0.990141  1
  As  As18  1  0.692842  0.172902  0.240111  1
  As  As19  1  0.692013  0.172818  0.740290  1
