# generated using pymatgen
data_La12Ga8IrRh7
_symmetry_space_group_name_H-M   'P 1'
_cell_length_a   5.81246104
_cell_length_b   8.36135007
_cell_length_c   13.67579705
_cell_angle_alpha   90.00774652
_cell_angle_beta   89.99361930
_cell_angle_gamma   90.01197034
_symmetry_Int_Tables_number   1
_chemical_formula_structural   La12Ga8IrRh7
_chemical_formula_sum   'La12 Ga8 Ir1 Rh7'
_cell_volume   664.64400610
_cell_formula_units_Z   1
loop_
 _symmetry_equiv_pos_site_id
 _symmetry_equiv_pos_as_xyz
  1  'x, y, z'
loop_
 _atom_site_type_symbol
 _atom_site_label
 _atom_site_symmetry_multiplicity
 _atom_site_fract_x
 _atom_site_fract_y
 _atom_site_fract_z
 _atom_site_occupancy
  La  La0  1  0.634652  0.257946  0.249205  1
  La  La1  1  0.363130  0.740808  0.749963  1
  La  La2  1  0.363868  0.759897  0.249109  1
  La  La3  1  0.637419  0.241176  0.749722  1
  La  La4  1  0.151227  0.397503  0.095199  1
  La  La5  1  0.848751  0.599731  0.905062  1
  La  La6  1  0.848685  0.600024  0.594820  1
  La  La7  1  0.848304  0.899745  0.405192  1
  La  La8  1  0.150962  0.400078  0.405066  1
  La  La9  1  0.151317  0.099679  0.594796  1
  La  La10  1  0.151613  0.100121  0.903681  1
  La  La11  1  0.851335  0.901623  0.095529  1
  Ga  Ga12  1  0.138156  0.109694  0.250870  1
  Ga  Ga13  1  0.859842  0.889779  0.750140  1
  Ga  Ga14  1  0.860981  0.609270  0.249803  1
  Ga  Ga15  1  0.140045  0.390536  0.749711  1
  Ga  Ga16  1  0.632561  0.250301  0.000047  1
  Ga  Ga17  1  0.367320  0.750636  0.000807  1
  Ga  Ga18  1  0.365131  0.749739  0.499751  1
  Ga  Ga19  1  0.635081  0.249937  0.499917  1
  Ir  Ir20  1  0.362113  0.031991  0.092404  1
  Rh  Rh21  1  0.636493  0.968695  0.909038  1
  Rh  Rh22  1  0.636600  0.968064  0.591200  1
  Rh  Rh23  1  0.637477  0.531734  0.408765  1
  Rh  Rh24  1  0.362743  0.031516  0.409383  1
  Rh  Rh25  1  0.364065  0.468591  0.591012  1
  Rh  Rh26  1  0.361510  0.469806  0.909130  1
  Rh  Rh27  1  0.638618  0.531378  0.090678  1
