# generated using pymatgen
data_Hf13Zr7(CuAs3)4
_symmetry_space_group_name_H-M   'P 1'
_cell_length_a   3.71712500
_cell_length_b   10.38636227
_cell_length_c   17.69853622
_cell_angle_alpha   90.02208151
_cell_angle_beta   90.00000000
_cell_angle_gamma   90.00000000
_symmetry_Int_Tables_number   1
_chemical_formula_structural   Hf13Zr7(CuAs3)4
_chemical_formula_sum   'Hf13 Zr7 Cu4 As12'
_cell_volume   683.29453779
_cell_formula_units_Z   1
loop_
 _symmetry_equiv_pos_site_id
 _symmetry_equiv_pos_as_xyz
  1  'x, y, z'
loop_
 _atom_site_type_symbol
 _atom_site_label
 _atom_site_symmetry_multiplicity
 _atom_site_fract_x
 _atom_site_fract_y
 _atom_site_fract_z
 _atom_site_occupancy
  Hf  Hf0  1  0.250000  0.621013  0.978395  1
  Hf  Hf1  1  0.250000  0.932635  0.083486  1
  Hf  Hf2  1  0.750000  0.066247  0.916510  1
  Hf  Hf3  1  0.750000  0.433051  0.416426  1
  Hf  Hf4  1  0.250000  0.567012  0.583534  1
  Hf  Hf5  1  0.250000  0.242841  0.168924  1
  Hf  Hf6  1  0.750000  0.757525  0.830819  1
  Hf  Hf7  1  0.750000  0.742498  0.330662  1
  Hf  Hf8  1  0.250000  0.257554  0.669384  1
  Hf  Hf9  1  0.250000  0.511065  0.271760  1
  Hf  Hf10  1  0.750000  0.489045  0.728405  1
  Hf  Hf11  1  0.750000  0.011013  0.227856  1
  Hf  Hf12  1  0.250000  0.989194  0.772117  1
  Zr  Zr13  1  0.250000  0.184393  0.367547  1
  Zr  Zr14  1  0.750000  0.815804  0.632492  1
  Zr  Zr15  1  0.750000  0.684251  0.131832  1
  Zr  Zr16  1  0.250000  0.316370  0.868154  1
  Zr  Zr17  1  0.250000  0.879224  0.478344  1
  Zr  Zr18  1  0.750000  0.120867  0.521708  1
  Zr  Zr19  1  0.750000  0.379519  0.021443  1
  Cu  Cu20  1  0.250000  0.624748  0.411836  1
  Cu  Cu21  1  0.750000  0.375378  0.588181  1
  Cu  Cu22  1  0.750000  0.124338  0.087832  1
  Cu  Cu23  1  0.250000  0.873927  0.912204  1
  As  As24  1  0.250000  0.489351  0.117147  1
  As  As25  1  0.750000  0.512404  0.882999  1
  As  As26  1  0.750000  0.988936  0.382100  1
  As  As27  1  0.250000  0.011106  0.617934  1
  As  As28  1  0.250000  0.808149  0.223093  1
  As  As29  1  0.750000  0.192148  0.777050  1
  As  As30  1  0.750000  0.308263  0.276583  1
  As  As31  1  0.250000  0.691563  0.723333  1
  As  As32  1  0.250000  0.183102  0.006781  1
  As  As33  1  0.750000  0.815325  0.993080  1
  As  As34  1  0.750000  0.683381  0.493178  1
  As  As35  1  0.250000  0.316759  0.506868  1
