# generated using pymatgen
data_Tb7ThCdNi2Hg
_symmetry_space_group_name_H-M   'P 1'
_cell_length_a   9.61467682
_cell_length_b   9.61467598
_cell_length_c   9.63455800
_cell_angle_alpha   59.93156449
_cell_angle_beta   59.93156742
_cell_angle_gamma   59.89307100
_symmetry_Int_Tables_number   1
_chemical_formula_structural   Tb7ThCdNi2Hg
_chemical_formula_sum   'Tb14 Th2 Cd2 Ni4 Hg2'
_cell_volume   628.61490944
_cell_formula_units_Z   2
loop_
 _symmetry_equiv_pos_site_id
 _symmetry_equiv_pos_as_xyz
  1  'x, y, z'
loop_
 _atom_site_type_symbol
 _atom_site_label
 _atom_site_symmetry_multiplicity
 _atom_site_fract_x
 _atom_site_fract_y
 _atom_site_fract_z
 _atom_site_occupancy
  Tb  Tb0  1  0.349721  0.948482  0.350899  1
  Tb  Tb1  1  0.948482  0.349721  0.350899  1
  Tb  Tb2  1  0.811476  0.189574  0.188713  1
  Tb  Tb3  1  0.189574  0.811476  0.810237  1
  Tb  Tb4  1  0.189574  0.811476  0.188713  1
  Tb  Tb5  1  0.811476  0.189574  0.810237  1
  Tb  Tb6  1  0.189261  0.189261  0.810739  1
  Tb  Tb7  1  0.810630  0.810630  0.189370  1
  Tb  Tb8  1  0.936522  0.563852  0.565781  1
  Tb  Tb9  1  0.563852  0.936522  0.933844  1
  Tb  Tb10  1  0.563852  0.936522  0.565781  1
  Tb  Tb11  1  0.936522  0.563852  0.933844  1
  Tb  Tb12  1  0.563390  0.563390  0.936610  1
  Tb  Tb13  1  0.935341  0.935341  0.564659  1
  Th  Th14  1  0.343655  0.343655  0.350329  1
  Th  Th15  1  0.343655  0.343655  0.962360  1
  Cd  Cd16  1  0.582114  0.256201  0.580842  1
  Cd  Cd17  1  0.256201  0.582114  0.580842  1
  Ni  Ni18  1  0.143881  0.143881  0.141029  1
  Ni  Ni19  1  0.143881  0.143881  0.571209  1
  Ni  Ni20  1  0.147082  0.568899  0.142010  1
  Ni  Ni21  1  0.568899  0.147082  0.142010  1
  Hg  Hg22  1  0.585478  0.585478  0.584553  1
  Hg  Hg23  1  0.585478  0.585478  0.244488  1
