# generated using pymatgen
data_NaTmV3Co9As7
_symmetry_space_group_name_H-M   'P 1'
_cell_length_a   3.75077900
_cell_length_b   9.42038003
_cell_length_c   9.42038100
_cell_angle_alpha   119.99999289
_cell_angle_beta   90.00000000
_cell_angle_gamma   90.00000000
_symmetry_Int_Tables_number   1
_chemical_formula_structural   NaTmV3Co9As7
_chemical_formula_sum   'Na1 Tm1 V3 Co9 As7'
_cell_volume   288.26308449
_cell_formula_units_Z   1
loop_
 _symmetry_equiv_pos_site_id
 _symmetry_equiv_pos_as_xyz
  1  'x, y, z'
loop_
 _atom_site_type_symbol
 _atom_site_label
 _atom_site_symmetry_multiplicity
 _atom_site_fract_x
 _atom_site_fract_y
 _atom_site_fract_z
 _atom_site_occupancy
  Na  Na0  1  0.500000  0.333333  0.666667  1
  Tm  Tm1  1  0.000000  0.666667  0.333333  1
  V  V2  1  0.500000  0.783140  0.898020  1
  V  V3  1  0.500000  0.114881  0.216860  1
  V  V4  1  0.500000  0.101980  0.885119  1
  Co  Co5  1  0.000000  0.572265  0.948081  1
  Co  Co6  1  0.000000  0.375814  0.427735  1
  Co  Co7  1  0.000000  0.051919  0.624186  1
  Co  Co8  1  0.000000  0.881973  0.160695  1
  Co  Co9  1  0.000000  0.278722  0.118027  1
  Co  Co10  1  0.000000  0.839305  0.721278  1
  Co  Co11  1  0.500000  0.948648  0.381085  1
  Co  Co12  1  0.500000  0.432436  0.051352  1
  Co  Co13  1  0.500000  0.618915  0.567564  1
  As  As14  1  0.000000  0.000000  0.000000  1
  As  As15  1  0.500000  0.707975  0.118168  1
  As  As16  1  0.500000  0.410194  0.292025  1
  As  As17  1  0.500000  0.881832  0.589806  1
  As  As18  1  0.000000  0.581059  0.703161  1
  As  As19  1  0.000000  0.122103  0.418941  1
  As  As20  1  0.000000  0.296839  0.877897  1
