# generated using pymatgen
data_Li4HoNi9As5P2
_symmetry_space_group_name_H-M   'P 1'
_cell_length_a   9.37196358
_cell_length_b   9.35591335
_cell_length_c   3.74697700
_cell_angle_alpha   90.00000000
_cell_angle_beta   90.00000000
_cell_angle_gamma   120.05167010
_symmetry_Int_Tables_number   1
_chemical_formula_structural   Li4HoNi9As5P2
_chemical_formula_sum   'Li4 Ho1 Ni9 As5 P2'
_cell_volume   284.38198797
_cell_formula_units_Z   1
loop_
 _symmetry_equiv_pos_site_id
 _symmetry_equiv_pos_as_xyz
  1  'x, y, z'
loop_
 _atom_site_type_symbol
 _atom_site_label
 _atom_site_symmetry_multiplicity
 _atom_site_fract_x
 _atom_site_fract_y
 _atom_site_fract_z
 _atom_site_occupancy
  Li  Li0  1  0.770380  0.551515  0.500000  1
  Li  Li1  1  0.450663  0.220095  0.500000  1
  Li  Li2  1  0.770130  0.222820  0.500000  1
  Li  Li3  1  0.999796  0.002670  0.500000  1
  Ho  Ho4  1  0.338237  0.669747  0.000000  1
  Ni  Ni5  1  0.284505  0.386324  0.500000  1
  Ni  Ni6  1  0.608570  0.885348  0.500000  1
  Ni  Ni7  1  0.113209  0.732077  0.500000  1
  Ni  Ni8  1  0.500653  0.460507  0.000000  1
  Ni  Ni9  1  0.541613  0.038825  0.000000  1
  Ni  Ni10  1  0.955698  0.505330  0.000000  1
  Ni  Ni11  1  0.711024  0.756802  0.000000  1
  Ni  Ni12  1  0.246463  0.955592  0.000000  1
  Ni  Ni13  1  0.042721  0.280375  0.000000  1
  As  As14  1  0.966608  0.760066  0.000000  1
  As  As15  1  0.246903  0.209518  0.000000  1
  As  As16  1  0.788220  0.032692  0.000000  1
  As  As17  1  0.665778  0.333194  0.000000  1
  As  As18  1  0.074246  0.454862  0.500000  1
  P  P19  1  0.542538  0.618264  0.500000  1
  P  P20  1  0.382047  0.923375  0.500000  1
