# generated using pymatgen
data_HoEr3Co5Si10Ir
_symmetry_space_group_name_H-M   'P 1'
_cell_length_a   7.90446479
_cell_length_b   7.90469753
_cell_length_c   7.90408587
_cell_angle_alpha   138.84037268
_cell_angle_beta   105.36913293
_cell_angle_gamma   88.98338068
_symmetry_Int_Tables_number   1
_chemical_formula_structural   HoEr3Co5Si10Ir
_chemical_formula_sum   'Ho1 Er3 Co5 Si10 Ir1'
_cell_volume   300.28322737
_cell_formula_units_Z   1
loop_
 _symmetry_equiv_pos_site_id
 _symmetry_equiv_pos_as_xyz
  1  'x, y, z'
loop_
 _atom_site_type_symbol
 _atom_site_label
 _atom_site_symmetry_multiplicity
 _atom_site_fract_x
 _atom_site_fract_y
 _atom_site_fract_z
 _atom_site_occupancy
  Ho  Ho0  1  0.401604  0.139803  0.273198  1
  Er  Er1  1  0.598397  0.871630  0.738145  1
  Er  Er2  1  0.133347  0.360066  0.761813  1
  Er  Er3  1  0.866669  0.628576  0.226886  1
  Co  Co4  1  0.999923  0.749989  0.749974  1
  Co  Co5  1  0.253798  0.859267  0.388911  1
  Co  Co6  1  0.529713  0.640688  0.894657  1
  Co  Co7  1  0.470436  0.365095  0.110913  1
  Co  Co8  1  0.746288  0.135090  0.605630  1
  Si  Si9  1  0.770786  0.020686  0.250013  1
  Si  Si10  1  0.228975  0.978937  0.749882  1
  Si  Si11  1  0.771127  0.521063  0.750157  1
  Si  Si12  1  0.941047  0.091221  0.824277  1
  Si  Si13  1  0.058706  0.883055  0.150089  1
  Si  Si14  1  0.500129  0.250171  0.750235  1
  Si  Si15  1  0.500142  0.749881  0.249951  1
  Si  Si16  1  0.733071  0.408923  0.349833  1
  Si  Si17  1  0.266787  0.616575  0.675490  1
  Si  Si18  1  0.229245  0.479397  0.250091  1
  Ir  Ir19  1  0.999810  0.249889  0.249855  1
