# generated using pymatgen
data_Ce3PaCo3
_symmetry_space_group_name_H-M   'P 1'
_cell_length_a   5.98626600
_cell_length_b   5.98626644
_cell_length_c   14.14222400
_cell_angle_alpha   90.00000000
_cell_angle_beta   90.00000000
_cell_angle_gamma   145.45260290
_symmetry_Int_Tables_number   1
_chemical_formula_structural   Ce3PaCo3
_chemical_formula_sum   'Ce6 Pa2 Co6'
_cell_volume   287.39556462
_cell_formula_units_Z   2
loop_
 _symmetry_equiv_pos_site_id
 _symmetry_equiv_pos_as_xyz
  1  'x, y, z'
loop_
 _atom_site_type_symbol
 _atom_site_label
 _atom_site_symmetry_multiplicity
 _atom_site_fract_x
 _atom_site_fract_y
 _atom_site_fract_z
 _atom_site_occupancy
  Ce  Ce0  1  0.284827  0.715171  0.120549  1
  Ce  Ce1  1  0.996078  0.003920  0.250000  1
  Ce  Ce2  1  0.284827  0.715171  0.379452  1
  Ce  Ce3  1  0.715171  0.284827  0.620549  1
  Ce  Ce4  1  0.003920  0.996078  0.750000  1
  Ce  Ce5  1  0.715171  0.284827  0.879452  1
  Pa  Pa6  1  0.000000  0.000000  0.000000  1
  Pa  Pa7  1  0.000000  0.000000  0.500000  1
  Co  Co8  1  0.587088  0.412910  0.099781  1
  Co  Co9  1  0.710951  0.289047  0.250000  1
  Co  Co10  1  0.587088  0.412910  0.400219  1
  Co  Co11  1  0.412910  0.587088  0.599781  1
  Co  Co12  1  0.289047  0.710951  0.750000  1
  Co  Co13  1  0.412910  0.587088  0.900219  1
