# generated using pymatgen
data_YHoPa2(CoB4)4
_symmetry_space_group_name_H-M   'P 1'
_cell_length_a   3.40023400
_cell_length_b   5.91614581
_cell_length_c   11.47514531
_cell_angle_alpha   89.92163649
_cell_angle_beta   90.00000000
_cell_angle_gamma   90.00000000
_symmetry_Int_Tables_number   1
_chemical_formula_structural   YHoPa2(CoB4)4
_chemical_formula_sum   'Y1 Ho1 Pa2 Co4 B16'
_cell_volume   230.83702179
_cell_formula_units_Z   1
loop_
 _symmetry_equiv_pos_site_id
 _symmetry_equiv_pos_as_xyz
  1  'x, y, z'
loop_
 _atom_site_type_symbol
 _atom_site_label
 _atom_site_symmetry_multiplicity
 _atom_site_fract_x
 _atom_site_fract_y
 _atom_site_fract_z
 _atom_site_occupancy
  Y  Y0  1  0.500000  0.872325  0.351956  1
  Ho  Ho1  1  0.500000  0.127798  0.648004  1
  Pa  Pa2  1  0.500000  0.372579  0.151594  1
  Pa  Pa3  1  0.500000  0.627405  0.848363  1
  Co  Co4  1  0.500000  0.366303  0.409762  1
  Co  Co5  1  0.500000  0.633668  0.590409  1
  Co  Co6  1  0.500000  0.134642  0.909981  1
  Co  Co7  1  0.500000  0.865346  0.089858  1
  B  B8  1  0.000000  0.111181  0.046065  1
  B  B9  1  0.000000  0.888817  0.953930  1
  B  B10  1  0.000000  0.386766  0.545222  1
  B  B11  1  0.000000  0.612680  0.455000  1
  B  B12  1  0.000000  0.138433  0.467261  1
  B  B13  1  0.000000  0.861962  0.533179  1
  B  B14  1  0.000000  0.361670  0.965645  1
  B  B15  1  0.000000  0.638330  0.034342  1
  B  B16  1  0.000000  0.021019  0.190702  1
  B  B17  1  0.000000  0.979210  0.809040  1
  B  B18  1  0.000000  0.476098  0.688701  1
  B  B19  1  0.000000  0.523429  0.311261  1
  B  B20  1  0.000000  0.217282  0.316189  1
  B  B21  1  0.000000  0.783238  0.683771  1
  B  B22  1  0.000000  0.281778  0.814290  1
  B  B23  1  0.000000  0.718040  0.185476  1
