# generated using pymatgen
data_Tb2Nd5Sn23Ir6
_symmetry_space_group_name_H-M   'P 1'
_cell_length_a   9.96294304
_cell_length_b   9.97093711
_cell_length_c   10.18744368
_cell_angle_alpha   89.99999924
_cell_angle_beta   90.07202643
_cell_angle_gamma   120.02655489
_symmetry_Int_Tables_number   1
_chemical_formula_structural   Tb2Nd5Sn23Ir6
_chemical_formula_sum   'Tb2 Nd5 Sn23 Ir6'
_cell_volume   876.19898607
_cell_formula_units_Z   1
loop_
 _symmetry_equiv_pos_site_id
 _symmetry_equiv_pos_as_xyz
  1  'x, y, z'
loop_
 _atom_site_type_symbol
 _atom_site_label
 _atom_site_symmetry_multiplicity
 _atom_site_fract_x
 _atom_site_fract_y
 _atom_site_fract_z
 _atom_site_occupancy
  Tb  Tb0  1  0.040339  0.520169  0.307175  1
  Tb  Tb1  1  0.959661  0.479831  0.692825  1
  Nd  Nd2  1  0.000000  0.000000  0.000000  1
  Nd  Nd3  1  0.478825  0.521703  0.308034  1
  Nd  Nd4  1  0.521175  0.478297  0.691966  1
  Nd  Nd5  1  0.478825  0.957121  0.308034  1
  Nd  Nd6  1  0.521175  0.042879  0.691966  1
  Sn  Sn7  1  0.352529  0.999536  0.999731  1
  Sn  Sn8  1  0.647471  0.000464  0.000269  1
  Sn  Sn9  1  0.000000  0.353014  0.000000  1
  Sn  Sn10  1  0.000000  0.646986  0.000000  1
  Sn  Sn11  1  0.647471  0.647007  0.000269  1
  Sn  Sn12  1  0.352529  0.352993  0.999731  1
  Sn  Sn13  1  0.332930  0.666465  0.826013  1
  Sn  Sn14  1  0.667070  0.333535  0.173987  1
  Sn  Sn15  1  0.000000  0.000000  0.500000  1
  Sn  Sn16  1  0.782854  0.223794  0.455215  1
  Sn  Sn17  1  0.217146  0.776206  0.544785  1
  Sn  Sn18  1  0.782854  0.559060  0.455215  1
  Sn  Sn19  1  0.217146  0.440940  0.544785  1
  Sn  Sn20  1  0.440353  0.220177  0.454692  1
  Sn  Sn21  1  0.559647  0.779823  0.545308  1
  Sn  Sn22  1  0.330209  0.665105  0.113365  1
  Sn  Sn23  1  0.669791  0.334895  0.886635  1
  Sn  Sn24  1  0.116963  0.881691  0.284075  1
  Sn  Sn25  1  0.883037  0.118309  0.715925  1
  Sn  Sn26  1  0.116963  0.235273  0.284075  1
  Sn  Sn27  1  0.883037  0.764727  0.715925  1
  Sn  Sn28  1  0.767134  0.883568  0.283844  1
  Sn  Sn29  1  0.232866  0.116432  0.716156  1
  Ir  Ir30  1  0.832633  0.170509  0.198826  1
  Ir  Ir31  1  0.167367  0.829491  0.801174  1
  Ir  Ir32  1  0.832633  0.662123  0.198826  1
  Ir  Ir33  1  0.167367  0.337877  0.801174  1
  Ir  Ir34  1  0.335653  0.167826  0.197683  1
  Ir  Ir35  1  0.664347  0.832174  0.802317  1
