# generated using pymatgen
data_Tb3Y(Pd2O7)2
_symmetry_space_group_name_H-M   'P 1'
_cell_length_a   7.26968059
_cell_length_b   7.26968099
_cell_length_c   7.26968101
_cell_angle_alpha   60.04023995
_cell_angle_beta   60.04023821
_cell_angle_gamma   60.04024090
_symmetry_Int_Tables_number   1
_chemical_formula_structural   Tb3Y(Pd2O7)2
_chemical_formula_sum   'Tb3 Y1 Pd4 O14'
_cell_volume   271.91112729
_cell_formula_units_Z   1
loop_
 _symmetry_equiv_pos_site_id
 _symmetry_equiv_pos_as_xyz
  1  'x, y, z'
loop_
 _atom_site_type_symbol
 _atom_site_label
 _atom_site_symmetry_multiplicity
 _atom_site_fract_x
 _atom_site_fract_y
 _atom_site_fract_z
 _atom_site_occupancy
  Tb  Tb0  1  0.625000  0.125000  0.125000  1
  Tb  Tb1  1  0.125000  0.625000  0.125000  1
  Tb  Tb2  1  0.125000  0.125000  0.625000  1
  Y  Y3  1  0.125000  0.125000  0.125000  1
  Pd  Pd4  1  0.625000  0.625000  0.625000  1
  Pd  Pd5  1  0.125000  0.625000  0.625000  1
  Pd  Pd6  1  0.625000  0.125000  0.625000  1
  Pd  Pd7  1  0.625000  0.625000  0.125000  1
  O  O8  1  0.249586  0.249586  0.249586  1
  O  O9  1  0.000414  0.000414  0.000414  1
  O  O10  1  0.535447  0.964520  0.535447  1
  O  O11  1  0.285541  0.714595  0.285541  1
  O  O12  1  0.535447  0.535447  0.964520  1
  O  O13  1  0.964520  0.535447  0.535447  1
  O  O14  1  0.535405  0.964459  0.964459  1
  O  O15  1  0.964459  0.964459  0.535405  1
  O  O16  1  0.964459  0.535405  0.964459  1
  O  O17  1  0.714595  0.285541  0.285541  1
  O  O18  1  0.285480  0.714553  0.714553  1
  O  O19  1  0.714553  0.714553  0.285480  1
  O  O20  1  0.285541  0.285541  0.714595  1
  O  O21  1  0.714553  0.285480  0.714553  1
