# generated using pymatgen
data_Ho2Lu2BCl6
_symmetry_space_group_name_H-M   'P 1'
_cell_length_a   3.79502600
_cell_length_b   12.47471500
_cell_length_c   12.92071100
_cell_angle_alpha   90.00000000
_cell_angle_beta   90.00000000
_cell_angle_gamma   90.00000000
_symmetry_Int_Tables_number   1
_chemical_formula_structural   Ho2Lu2BCl6
_chemical_formula_sum   'Ho4 Lu4 B2 Cl12'
_cell_volume   611.69059163
_cell_formula_units_Z   2
loop_
 _symmetry_equiv_pos_site_id
 _symmetry_equiv_pos_as_xyz
  1  'x, y, z'
loop_
 _atom_site_type_symbol
 _atom_site_label
 _atom_site_symmetry_multiplicity
 _atom_site_fract_x
 _atom_site_fract_y
 _atom_site_fract_z
 _atom_site_occupancy
  Ho  Ho0  1  0.500000  0.126856  0.850844  1
  Ho  Ho1  1  0.500000  0.873144  0.149156  1
  Ho  Ho2  1  0.500000  0.626856  0.649156  1
  Ho  Ho3  1  0.500000  0.373144  0.350844  1
  Lu  Lu4  1  0.000000  0.103876  0.082396  1
  Lu  Lu5  1  0.000000  0.896124  0.917604  1
  Lu  Lu6  1  0.000000  0.603876  0.417604  1
  Lu  Lu7  1  0.000000  0.396124  0.582396  1
  B  B8  1  0.500000  0.000000  0.000000  1
  B  B9  1  0.500000  0.500000  0.500000  1
  Cl  Cl10  1  0.500000  0.271244  0.680815  1
  Cl  Cl11  1  0.500000  0.728756  0.319185  1
  Cl  Cl12  1  0.500000  0.771244  0.819185  1
  Cl  Cl13  1  0.500000  0.228756  0.180815  1
  Cl  Cl14  1  0.000000  0.258524  0.932959  1
  Cl  Cl15  1  0.000000  0.741476  0.067041  1
  Cl  Cl16  1  0.000000  0.481709  0.242024  1
  Cl  Cl17  1  0.000000  0.518291  0.757976  1
  Cl  Cl18  1  0.000000  0.981709  0.257976  1
  Cl  Cl19  1  0.000000  0.018291  0.742024  1
  Cl  Cl20  1  0.000000  0.241476  0.432959  1
  Cl  Cl21  1  0.000000  0.758524  0.567041  1
