# generated using pymatgen
data_LiZn5(Ru2W)6
_symmetry_space_group_name_H-M   'P 1'
_cell_length_a   4.32605800
_cell_length_b   6.13008700
_cell_length_c   12.97494600
_cell_angle_alpha   90.00029527
_cell_angle_beta   89.99888292
_cell_angle_gamma   90.00016359
_symmetry_Int_Tables_number   1
_chemical_formula_structural   LiZn5(Ru2W)6
_chemical_formula_sum   'Li1 Zn5 Ru12 W6'
_cell_volume   344.08404493
_cell_formula_units_Z   1
loop_
 _symmetry_equiv_pos_site_id
 _symmetry_equiv_pos_as_xyz
  1  'x, y, z'
loop_
 _atom_site_type_symbol
 _atom_site_label
 _atom_site_symmetry_multiplicity
 _atom_site_fract_x
 _atom_site_fract_y
 _atom_site_fract_z
 _atom_site_occupancy
  Li  Li0  1  0.500206  0.999994  0.833348  1
  Zn  Zn1  1  0.000009  0.500001  0.998925  1
  Zn  Zn2  1  0.499785  0.999999  0.166269  1
  Zn  Zn3  1  0.999769  0.500000  0.333330  1
  Zn  Zn4  1  0.499990  0.000000  0.500399  1
  Zn  Zn5  1  0.000226  0.500000  0.667741  1
  Ru  Ru6  1  0.500021  0.247474  0.998144  1
  Ru  Ru7  1  0.500020  0.752526  0.998144  1
  Ru  Ru8  1  0.999780  0.251076  0.166923  1
  Ru  Ru9  1  0.999781  0.748922  0.166924  1
  Ru  Ru10  1  0.499784  0.250836  0.333297  1
  Ru  Ru11  1  0.499784  0.749165  0.333297  1
  Ru  Ru12  1  0.000006  0.251016  0.499787  1
  Ru  Ru13  1  0.000007  0.748984  0.499787  1
  Ru  Ru14  1  0.500211  0.247489  0.668519  1
  Ru  Ru15  1  0.500209  0.752509  0.668520  1
  Ru  Ru16  1  0.000194  0.244957  0.833323  1
  Ru  Ru17  1  0.000198  0.755043  0.833324  1
  W  W18  1  0.000015  0.000001  0.998926  1
  W  W19  1  0.499772  0.500000  0.164107  1
  W  W20  1  0.999754  0.999999  0.333335  1
  W  W21  1  0.499993  0.500000  0.502557  1
  W  W22  1  0.000208  0.999999  0.667740  1
  W  W23  1  0.500282  0.499999  0.833334  1
