# generated using pymatgen
data_Cs4Rb7Na(SbSe3)4
_symmetry_space_group_name_H-M   'P 1'
_cell_length_a   10.47213674
_cell_length_b   10.47213663
_cell_length_c   10.47213600
_cell_angle_alpha   90.13883335
_cell_angle_beta   90.13883335
_cell_angle_gamma   90.13883028
_symmetry_Int_Tables_number   1
_chemical_formula_structural   Cs4Rb7Na(SbSe3)4
_chemical_formula_sum   'Cs4 Rb7 Na1 Sb4 Se12'
_cell_volume   1148.42343749
_cell_formula_units_Z   1
loop_
 _symmetry_equiv_pos_site_id
 _symmetry_equiv_pos_as_xyz
  1  'x, y, z'
loop_
 _atom_site_type_symbol
 _atom_site_label
 _atom_site_symmetry_multiplicity
 _atom_site_fract_x
 _atom_site_fract_y
 _atom_site_fract_z
 _atom_site_occupancy
  Cs  Cs0  1  0.924801  0.429380  0.071224  1
  Cs  Cs1  1  0.429380  0.071224  0.924801  1
  Cs  Cs2  1  0.071224  0.924801  0.429380  1
  Cs  Cs3  1  0.576696  0.576696  0.576696  1
  Rb  Rb4  1  0.189017  0.687202  0.812211  1
  Rb  Rb5  1  0.687202  0.812211  0.189017  1
  Rb  Rb6  1  0.812211  0.189017  0.687202  1
  Rb  Rb7  1  0.313881  0.313881  0.313881  1
  Rb  Rb8  1  0.691337  0.189047  0.308735  1
  Rb  Rb9  1  0.189047  0.308735  0.691337  1
  Rb  Rb10  1  0.308735  0.691337  0.189047  1
  Na  Na11  1  0.810732  0.810732  0.810732  1
  Sb  Sb12  1  0.478491  0.975594  0.528394  1
  Sb  Sb13  1  0.975594  0.528394  0.478491  1
  Sb  Sb14  1  0.528394  0.478491  0.975594  1
  Sb  Sb15  1  0.015241  0.015241  0.015241  1
  Se  Se16  1  0.998155  0.777321  0.080878  1
  Se  Se17  1  0.903315  0.523011  0.716279  1
  Se  Se18  1  0.288565  0.414406  0.993244  1
  Se  Se19  1  0.523011  0.716279  0.903315  1
  Se  Se20  1  0.414406  0.993244  0.288565  1
  Se  Se21  1  0.777321  0.080878  0.998155  1
  Se  Se22  1  0.993244  0.288565  0.414406  1
  Se  Se23  1  0.080878  0.998155  0.777321  1
  Se  Se24  1  0.716279  0.903315  0.523011  1
  Se  Se25  1  0.495363  0.214517  0.592964  1
  Se  Se26  1  0.592964  0.495363  0.214517  1
  Se  Se27  1  0.214517  0.592964  0.495363  1
