# generated using pymatgen
data_Pr2Be4CuIr5
_symmetry_space_group_name_H-M   'P 1'
_cell_length_a   6.43550508
_cell_length_b   6.43550524
_cell_length_c   6.42690603
_cell_angle_alpha   129.30780987
_cell_angle_beta   113.55353261
_cell_angle_gamma   88.18275823
_symmetry_Int_Tables_number   1
_chemical_formula_structural   Pr2Be4CuIr5
_chemical_formula_sum   'Pr2 Be4 Cu1 Ir5'
_cell_volume   179.35926520
_cell_formula_units_Z   1
loop_
 _symmetry_equiv_pos_site_id
 _symmetry_equiv_pos_as_xyz
  1  'x, y, z'
loop_
 _atom_site_type_symbol
 _atom_site_label
 _atom_site_symmetry_multiplicity
 _atom_site_fract_x
 _atom_site_fract_y
 _atom_site_fract_z
 _atom_site_occupancy
  Pr  Pr0  1  0.249991  0.993687  0.743678  1
  Pr  Pr1  1  0.750009  0.006313  0.256322  1
  Be  Be2  1  0.080224  0.310223  0.235262  1
  Be  Be3  1  0.919776  0.689777  0.764738  1
  Be  Be4  1  0.425038  0.655038  0.235262  1
  Be  Be5  1  0.574962  0.344962  0.764738  1
  Cu  Cu6  1  0.000000  0.500000  0.000000  1
  Ir  Ir7  1  0.500000  0.500000  0.500000  1
  Ir  Ir8  1  0.256382  0.991401  0.252832  1
  Ir  Ir9  1  0.743618  0.008599  0.747168  1
  Ir  Ir10  1  0.238569  0.503550  0.747168  1
  Ir  Ir11  1  0.761431  0.496450  0.252832  1
