# generated using pymatgen
data_LiY3In4Ir
_symmetry_space_group_name_H-M   'P 1'
_cell_length_a   8.12956900
_cell_length_b   8.12956951
_cell_length_c   3.67760200
_cell_angle_alpha   90.00000000
_cell_angle_beta   90.00000000
_cell_angle_gamma   120.00001013
_symmetry_Int_Tables_number   1
_chemical_formula_structural   LiY3In4Ir
_chemical_formula_sum   'Li1 Y3 In4 Ir1'
_cell_volume   210.48947486
_cell_formula_units_Z   1
loop_
 _symmetry_equiv_pos_site_id
 _symmetry_equiv_pos_as_xyz
  1  'x, y, z'
loop_
 _atom_site_type_symbol
 _atom_site_label
 _atom_site_symmetry_multiplicity
 _atom_site_fract_x
 _atom_site_fract_y
 _atom_site_fract_z
 _atom_site_occupancy
  Li  Li0  1  0.666667  0.333333  0.500000  1
  Y  Y1  1  0.048392  0.293802  0.500000  1
  Y  Y2  1  0.706198  0.754589  0.500000  1
  Y  Y3  1  0.245411  0.951608  0.500000  1
  In  In4  1  0.662855  0.068860  0.000000  1
  In  In5  1  0.931140  0.593995  0.000000  1
  In  In6  1  0.406005  0.337145  0.000000  1
  In  In7  1  0.333333  0.666667  0.000000  1
  Ir  Ir8  1  0.000000  0.000000  0.000000  1
