# generated using pymatgen
data_Tb2LuAl12Os3Pt
_symmetry_space_group_name_H-M   'P 1'
_cell_length_a   8.77629100
_cell_length_b   8.80865316
_cell_length_c   9.55989100
_cell_angle_alpha   90.00000000
_cell_angle_beta   90.00000000
_cell_angle_gamma   119.87853865
_symmetry_Int_Tables_number   1
_chemical_formula_structural   Tb2LuAl12Os3Pt
_chemical_formula_sum   'Tb4 Lu2 Al24 Os6 Pt2'
_cell_volume   640.81746750
_cell_formula_units_Z   2
loop_
 _symmetry_equiv_pos_site_id
 _symmetry_equiv_pos_as_xyz
  1  'x, y, z'
loop_
 _atom_site_type_symbol
 _atom_site_label
 _atom_site_symmetry_multiplicity
 _atom_site_fract_x
 _atom_site_fract_y
 _atom_site_fract_z
 _atom_site_occupancy
  Tb  Tb0  1  0.617278  0.803414  0.250000  1
  Tb  Tb1  1  0.382722  0.196586  0.750000  1
  Tb  Tb2  1  0.186138  0.803414  0.250000  1
  Tb  Tb3  1  0.813862  0.196586  0.750000  1
  Lu  Lu4  1  0.198328  0.396657  0.250000  1
  Lu  Lu5  1  0.801672  0.603343  0.750000  1
  Al  Al6  1  0.331685  0.663371  0.023421  1
  Al  Al7  1  0.668315  0.336629  0.976579  1
  Al  Al8  1  0.668315  0.336629  0.523421  1
  Al  Al9  1  0.331685  0.663371  0.476579  1
  Al  Al10  1  0.164181  0.328362  0.574328  1
  Al  Al11  1  0.835819  0.671638  0.425672  1
  Al  Al12  1  0.675060  0.832045  0.578182  1
  Al  Al13  1  0.835819  0.671638  0.074328  1
  Al  Al14  1  0.324940  0.167955  0.421818  1
  Al  Al15  1  0.164181  0.328362  0.925672  1
  Al  Al16  1  0.156986  0.832045  0.578182  1
  Al  Al17  1  0.324940  0.167955  0.078182  1
  Al  Al18  1  0.843014  0.167955  0.421818  1
  Al  Al19  1  0.675060  0.832045  0.921818  1
  Al  Al20  1  0.843014  0.167955  0.078182  1
  Al  Al21  1  0.156986  0.832045  0.921818  1
  Al  Al22  1  0.563078  0.126155  0.250000  1
  Al  Al23  1  0.436922  0.873845  0.750000  1
  Al  Al24  1  0.876107  0.437729  0.250000  1
  Al  Al25  1  0.123893  0.562271  0.750000  1
  Al  Al26  1  0.561621  0.437729  0.250000  1
  Al  Al27  1  0.438379  0.562271  0.750000  1
  Al  Al28  1  0.003069  0.006138  0.250000  1
  Al  Al29  1  0.996931  0.993862  0.750000  1
  Os  Os30  1  0.000000  0.500000  0.000000  1
  Os  Os31  1  0.500000  0.500000  0.000000  1
  Os  Os32  1  0.000000  0.500000  0.500000  1
  Os  Os33  1  0.500000  0.500000  0.500000  1
  Os  Os34  1  0.000000  0.000000  0.000000  1
  Os  Os35  1  0.000000  0.000000  0.500000  1
  Pt  Pt36  1  0.500000  0.000000  0.000000  1
  Pt  Pt37  1  0.500000  0.000000  0.500000  1
