# generated using pymatgen
data_La6HoErSb20
_symmetry_space_group_name_H-M   'P 1'
_cell_length_a   4.32593800
_cell_length_b   13.66066248
_cell_length_c   15.26812400
_cell_angle_alpha   78.12918314
_cell_angle_beta   90.00000000
_cell_angle_gamma   90.00000000
_symmetry_Int_Tables_number   1
_chemical_formula_structural   La6HoErSb20
_chemical_formula_sum   'La6 Ho1 Er1 Sb20'
_cell_volume   882.97641704
_cell_formula_units_Z   1
loop_
 _symmetry_equiv_pos_site_id
 _symmetry_equiv_pos_as_xyz
  1  'x, y, z'
loop_
 _atom_site_type_symbol
 _atom_site_label
 _atom_site_symmetry_multiplicity
 _atom_site_fract_x
 _atom_site_fract_y
 _atom_site_fract_z
 _atom_site_occupancy
  La  La0  1  0.750000  0.333932  0.142122  1
  La  La1  1  0.250000  0.947146  0.364510  1
  La  La2  1  0.250000  0.666168  0.857929  1
  La  La3  1  0.250000  0.666328  0.577480  1
  La  La4  1  0.750000  0.052844  0.635532  1
  La  La5  1  0.750000  0.333686  0.422498  1
  Ho  Ho6  1  0.250000  0.397561  0.772109  1
  Er  Er7  1  0.750000  0.602333  0.227878  1
  Sb  Sb8  1  0.750000  0.856114  0.817202  1
  Sb  Sb9  1  0.250000  0.863000  0.675441  1
  Sb  Sb10  1  0.250000  0.145589  0.475075  1
  Sb  Sb11  1  0.750000  0.287769  0.932071  1
  Sb  Sb12  1  0.250000  0.149751  0.781267  1
  Sb  Sb13  1  0.750000  0.575830  0.438609  1
  Sb  Sb14  1  0.750000  0.137032  0.324532  1
  Sb  Sb15  1  0.250000  0.703181  0.350987  1
  Sb  Sb16  1  0.750000  0.296750  0.648853  1
  Sb  Sb17  1  0.750000  0.849992  0.218726  1
  Sb  Sb18  1  0.250000  0.419814  0.970542  1
  Sb  Sb19  1  0.250000  0.424121  0.561105  1
  Sb  Sb20  1  0.750000  0.569501  0.738622  1
  Sb  Sb21  1  0.250000  0.430982  0.261282  1
  Sb  Sb22  1  0.750000  0.854404  0.524934  1
  Sb  Sb23  1  0.750000  0.036411  0.886710  1
  Sb  Sb24  1  0.250000  0.712144  0.068146  1
  Sb  Sb25  1  0.250000  0.963551  0.113307  1
  Sb  Sb26  1  0.250000  0.143923  0.182795  1
  Sb  Sb27  1  0.750000  0.580146  0.029734  1
