# generated using pymatgen
data_Er12Th8Sn13Sb3
_symmetry_space_group_name_H-M   'P 1'
_cell_length_a   8.11180474
_cell_length_b   8.18538432
_cell_length_c   15.38939457
_cell_angle_alpha   90.09496625
_cell_angle_beta   89.93779428
_cell_angle_gamma   89.95854728
_symmetry_Int_Tables_number   1
_chemical_formula_structural   Er12Th8Sn13Sb3
_chemical_formula_sum   'Er12 Th8 Sn13 Sb3'
_cell_volume   1021.82643002
_cell_formula_units_Z   1
loop_
 _symmetry_equiv_pos_site_id
 _symmetry_equiv_pos_as_xyz
  1  'x, y, z'
loop_
 _atom_site_type_symbol
 _atom_site_label
 _atom_site_symmetry_multiplicity
 _atom_site_fract_x
 _atom_site_fract_y
 _atom_site_fract_z
 _atom_site_occupancy
  Er  Er0  1  0.358117  0.838795  0.875803  1
  Er  Er1  1  0.859580  0.659987  0.623945  1
  Er  Er2  1  0.640412  0.159174  0.375767  1
  Er  Er3  1  0.141333  0.338827  0.125089  1
  Er  Er4  1  0.642616  0.162754  0.124155  1
  Er  Er5  1  0.142098  0.338520  0.375967  1
  Er  Er6  1  0.358454  0.838691  0.623900  1
  Er  Er7  1  0.858235  0.662762  0.874892  1
  Er  Er8  1  0.187779  0.496839  0.749572  1
  Er  Er9  1  0.687607  0.003434  0.751354  1
  Er  Er10  1  0.812075  0.503835  0.249084  1
  Er  Er11  1  0.312295  0.996358  0.251234  1
  Th  Th12  1  0.516169  0.323001  0.905243  1
  Th  Th13  1  0.018347  0.178227  0.595058  1
  Th  Th14  1  0.481624  0.678108  0.404982  1
  Th  Th15  1  0.982212  0.821388  0.095260  1
  Th  Th16  1  0.484479  0.678367  0.094280  1
  Th  Th17  1  0.984133  0.820250  0.405673  1
  Th  Th18  1  0.515957  0.320963  0.594430  1
  Th  Th19  1  0.015875  0.179414  0.904701  1
  Sn  Sn20  1  0.197756  0.542311  0.957974  1
  Sn  Sn21  1  0.700626  0.959734  0.957133  1
  Sn  Sn22  1  0.200788  0.540651  0.543101  1
  Sn  Sn23  1  0.299203  0.040617  0.456912  1
  Sn  Sn24  1  0.802701  0.459397  0.042282  1
  Sn  Sn25  1  0.553179  0.622326  0.749415  1
  Sn  Sn26  1  0.053208  0.878112  0.749223  1
  Sn  Sn27  1  0.447271  0.377428  0.250433  1
  Sn  Sn28  1  0.946739  0.121882  0.250487  1
  Sn  Sn29  1  0.323420  0.143855  0.750113  1
  Sn  Sn30  1  0.822784  0.356241  0.749527  1
  Sn  Sn31  1  0.676408  0.856224  0.250061  1
  Sn  Sn32  1  0.176863  0.644181  0.249927  1
  Sb  Sb33  1  0.299875  0.041945  0.043071  1
  Sb  Sb34  1  0.799109  0.457404  0.456801  1
  Sb  Sb35  1  0.700674  0.957996  0.543150  1
