# generated using pymatgen
data_Li3Nd8Zn5PdRh7
_symmetry_space_group_name_H-M   'P 1'
_cell_length_a   4.07113300
_cell_length_b   7.28384529
_cell_length_c   16.54030308
_cell_angle_alpha   90.03962137
_cell_angle_beta   90.00000000
_cell_angle_gamma   90.00000000
_symmetry_Int_Tables_number   1
_chemical_formula_structural   Li3Nd8Zn5PdRh7
_chemical_formula_sum   'Li3 Nd8 Zn5 Pd1 Rh7'
_cell_volume   490.47780843
_cell_formula_units_Z   1
loop_
 _symmetry_equiv_pos_site_id
 _symmetry_equiv_pos_as_xyz
  1  'x, y, z'
loop_
 _atom_site_type_symbol
 _atom_site_label
 _atom_site_symmetry_multiplicity
 _atom_site_fract_x
 _atom_site_fract_y
 _atom_site_fract_z
 _atom_site_occupancy
  Li  Li0  1  0.750000  0.008746  0.563503  1
  Li  Li1  1  0.250000  0.631754  0.349569  1
  Li  Li2  1  0.250000  0.491087  0.060011  1
  Nd  Nd3  1  0.250000  0.165395  0.939017  1
  Nd  Nd4  1  0.250000  0.659516  0.565719  1
  Nd  Nd5  1  0.750000  0.328504  0.439659  1
  Nd  Nd6  1  0.750000  0.962163  0.278492  1
  Nd  Nd7  1  0.750000  0.832818  0.059677  1
  Nd  Nd8  1  0.750000  0.452083  0.214463  1
  Nd  Nd9  1  0.250000  0.047348  0.718469  1
  Nd  Nd10  1  0.250000  0.545639  0.783898  1
  Zn  Zn11  1  0.750000  0.368880  0.650756  1
  Zn  Zn12  1  0.750000  0.500291  0.941136  1
  Zn  Zn13  1  0.250000  0.998121  0.439387  1
  Zn  Zn14  1  0.250000  0.129031  0.147163  1
  Zn  Zn15  1  0.750000  0.874926  0.850613  1
  Pd  Pd16  1  0.750000  0.758699  0.437654  1
  Rh  Rh17  1  0.250000  0.243229  0.311756  1
  Rh  Rh18  1  0.750000  0.251526  0.813255  1
  Rh  Rh19  1  0.750000  0.749958  0.689105  1
  Rh  Rh20  1  0.250000  0.252065  0.562903  1
  Rh  Rh21  1  0.250000  0.752835  0.186112  1
  Rh  Rh22  1  0.750000  0.249460  0.063133  1
  Rh  Rh23  1  0.250000  0.745926  0.934549  1
