# generated using pymatgen
data_YTm2Th3Si4
_symmetry_space_group_name_H-M   'P 1'
_cell_length_a   7.57665448
_cell_length_b   7.57665448
_cell_length_c   4.25235000
_cell_angle_alpha   90.00000000
_cell_angle_beta   90.00000000
_cell_angle_gamma   90.53791266
_symmetry_Int_Tables_number   1
_chemical_formula_structural   YTm2Th3Si4
_chemical_formula_sum   'Y1 Tm2 Th3 Si4'
_cell_volume   244.09834094
_cell_formula_units_Z   1
loop_
 _symmetry_equiv_pos_site_id
 _symmetry_equiv_pos_as_xyz
  1  'x, y, z'
loop_
 _atom_site_type_symbol
 _atom_site_label
 _atom_site_symmetry_multiplicity
 _atom_site_fract_x
 _atom_site_fract_y
 _atom_site_fract_z
 _atom_site_occupancy
  Y  Y0  1  0.675621  0.175621  0.500000  1
  Tm  Tm1  1  0.500804  0.501418  0.000000  1
  Tm  Tm2  1  0.001418  0.000804  0.000000  1
  Th  Th3  1  0.324103  0.824103  0.500000  1
  Th  Th4  1  0.177512  0.320311  0.500000  1
  Th  Th5  1  0.820311  0.677512  0.500000  1
  Si  Si6  1  0.117738  0.617738  0.000000  1
  Si  Si7  1  0.878878  0.378878  0.000000  1
  Si  Si8  1  0.618766  0.884849  0.000000  1
  Si  Si9  1  0.384849  0.118766  0.000000  1
