# generated using pymatgen
data_La5Hf2ThBi3Sb7
_symmetry_space_group_name_H-M   'P 1'
_cell_length_a   9.66679117
_cell_length_b   9.67384084
_cell_length_c   6.45983420
_cell_angle_alpha   90.02365601
_cell_angle_beta   90.00190953
_cell_angle_gamma   119.99715219
_symmetry_Int_Tables_number   1
_chemical_formula_structural   La5Hf2ThBi3Sb7
_chemical_formula_sum   'La5 Hf2 Th1 Bi3 Sb7'
_cell_volume   523.17343758
_cell_formula_units_Z   1
loop_
 _symmetry_equiv_pos_site_id
 _symmetry_equiv_pos_as_xyz
  1  'x, y, z'
loop_
 _atom_site_type_symbol
 _atom_site_label
 _atom_site_symmetry_multiplicity
 _atom_site_fract_x
 _atom_site_fract_y
 _atom_site_fract_z
 _atom_site_occupancy
  La  La0  1  0.617414  0.618839  0.752105  1
  La  La1  1  0.378059  0.997467  0.751915  1
  La  La2  1  0.377687  0.380229  0.247896  1
  La  La3  1  0.002480  0.622229  0.247959  1
  La  La4  1  0.003801  0.383724  0.752061  1
  Hf  Hf5  1  0.000869  0.000051  0.998142  1
  Hf  Hf6  1  0.000834  0.000029  0.501781  1
  Th  Th7  1  0.618892  0.997134  0.247477  1
  Bi  Bi8  1  0.336165  0.669472  0.498474  1
  Bi  Bi9  1  0.666688  0.330324  0.001437  1
  Bi  Bi10  1  0.666660  0.330229  0.498498  1
  Sb  Sb11  1  0.337188  0.670600  0.002373  1
  Sb  Sb12  1  0.739657  0.000554  0.749673  1
  Sb  Sb13  1  0.740636  0.743329  0.250265  1
  Sb  Sb14  1  0.995780  0.255802  0.250322  1
  Sb  Sb15  1  0.998448  0.740786  0.749671  1
  Sb  Sb16  1  0.260423  0.000651  0.250255  1
  Sb  Sb17  1  0.258321  0.258550  0.749697  1
