# generated using pymatgen
data_Tm2Mo(SeO4)3
_symmetry_space_group_name_H-M   'P 1'
_cell_length_a   6.53758681
_cell_length_b   7.10936127
_cell_length_c   10.77566125
_cell_angle_alpha   84.84799771
_cell_angle_beta   73.34433555
_cell_angle_gamma   86.65220451
_symmetry_Int_Tables_number   1
_chemical_formula_structural   Tm2Mo(SeO4)3
_chemical_formula_sum   'Tm4 Mo2 Se6 O24'
_cell_volume   477.60079445
_cell_formula_units_Z   2
loop_
 _symmetry_equiv_pos_site_id
 _symmetry_equiv_pos_as_xyz
  1  'x, y, z'
loop_
 _atom_site_type_symbol
 _atom_site_label
 _atom_site_symmetry_multiplicity
 _atom_site_fract_x
 _atom_site_fract_y
 _atom_site_fract_z
 _atom_site_occupancy
  Tm  Tm0  1  0.732915  0.637235  0.508297  1
  Tm  Tm1  1  0.267085  0.362765  0.491703  1
  Tm  Tm2  1  0.205424  0.182808  0.169277  1
  Tm  Tm3  1  0.794576  0.817192  0.830723  1
  Mo  Mo4  1  0.723021  0.893065  0.205356  1
  Mo  Mo5  1  0.276979  0.106935  0.794644  1
  Se  Se6  1  0.204055  0.659005  0.216228  1
  Se  Se7  1  0.795945  0.340995  0.783772  1
  Se  Se8  1  0.657704  0.365862  0.142603  1
  Se  Se9  1  0.342296  0.634138  0.857397  1
  Se  Se10  1  0.789170  0.140744  0.494395  1
  Se  Se11  1  0.210830  0.859256  0.505605  1
  O  O12  1  0.694226  0.670639  0.299690  1
  O  O13  1  0.305774  0.329361  0.700310  1
  O  O14  1  0.717929  0.957042  0.418360  1
  O  O15  1  0.282071  0.042958  0.581640  1
  O  O16  1  0.449221  0.975585  0.232006  1
  O  O17  1  0.550779  0.024415  0.767994  1
  O  O18  1  0.826625  0.172895  0.179162  1
  O  O19  1  0.173375  0.827105  0.820838  1
  O  O20  1  0.784395  0.832326  0.042282  1
  O  O21  1  0.215605  0.167674  0.957718  1
  O  O22  1  0.061427  0.874935  0.193689  1
  O  O23  1  0.938573  0.125065  0.806311  1
  O  O24  1  0.100699  0.495220  0.147551  1
  O  O25  1  0.899301  0.504780  0.852449  1
  O  O26  1  0.079789  0.600297  0.384623  1
  O  O27  1  0.920211  0.399703  0.615377  1
  O  O28  1  0.546537  0.272797  0.038201  1
  O  O29  1  0.453463  0.727203  0.961799  1
  O  O30  1  0.421952  0.347085  0.272132  1
  O  O31  1  0.578048  0.652915  0.727868  1
  O  O32  1  0.044892  0.191917  0.391158  1
  O  O33  1  0.955108  0.808083  0.608842  1
  O  O34  1  0.638683  0.340792  0.460816  1
  O  O35  1  0.361317  0.659208  0.539184  1
