# generated using pymatgen
data_Cs2Hf(PO4)2
_symmetry_space_group_name_H-M   'P 1'
_cell_length_a   5.44778200
_cell_length_b   5.44778097
_cell_length_c   9.63813800
_cell_angle_alpha   90.00000000
_cell_angle_beta   90.00000000
_cell_angle_gamma   119.99999408
_symmetry_Int_Tables_number   1
_chemical_formula_structural   Cs2Hf(PO4)2
_chemical_formula_sum   'Cs2 Hf1 P2 O8'
_cell_volume   247.72118964
_cell_formula_units_Z   1
loop_
 _symmetry_equiv_pos_site_id
 _symmetry_equiv_pos_as_xyz
  1  'x, y, z'
loop_
 _atom_site_type_symbol
 _atom_site_label
 _atom_site_symmetry_multiplicity
 _atom_site_fract_x
 _atom_site_fract_y
 _atom_site_fract_z
 _atom_site_occupancy
  Cs  Cs0  1  0.333333  0.666667  0.658698  1
  Cs  Cs1  1  0.666667  0.333333  0.341302  1
  Hf  Hf2  1  0.000000  0.000000  0.000000  1
  P  P3  1  0.333333  0.666667  0.178557  1
  P  P4  1  0.666667  0.333333  0.821443  1
  O  O5  1  0.333333  0.666667  0.336918  1
  O  O6  1  0.666667  0.333333  0.663082  1
  O  O7  1  0.205943  0.848079  0.123111  1
  O  O8  1  0.151921  0.357862  0.123111  1
  O  O9  1  0.642138  0.794057  0.123111  1
  O  O10  1  0.794057  0.151921  0.876889  1
  O  O11  1  0.848079  0.642138  0.876889  1
  O  O12  1  0.357862  0.205943  0.876889  1
