# generated using pymatgen
data_Dy3Lu2Sb3
_symmetry_space_group_name_H-M   'P 1'
_cell_length_a   6.24519700
_cell_length_b   8.92725663
_cell_length_c   8.92679904
_cell_angle_alpha   120.00285653
_cell_angle_beta   90.00055109
_cell_angle_gamma   90.00217707
_symmetry_Int_Tables_number   1
_chemical_formula_structural   Dy3Lu2Sb3
_chemical_formula_sum   'Dy6 Lu4 Sb6'
_cell_volume   431.00077361
_cell_formula_units_Z   2
loop_
 _symmetry_equiv_pos_site_id
 _symmetry_equiv_pos_as_xyz
  1  'x, y, z'
loop_
 _atom_site_type_symbol
 _atom_site_label
 _atom_site_symmetry_multiplicity
 _atom_site_fract_x
 _atom_site_fract_y
 _atom_site_fract_z
 _atom_site_occupancy
  Dy  Dy0  1  0.749979  0.247238  0.999985  1
  Dy  Dy1  1  0.750035  0.752700  0.752719  1
  Dy  Dy2  1  0.749998  0.999983  0.247246  1
  Dy  Dy3  1  0.250027  0.752770  0.999997  1
  Dy  Dy4  1  0.249988  0.247274  0.247288  1
  Dy  Dy5  1  0.249957  0.000004  0.752731  1
  Lu  Lu6  1  0.499998  0.333343  0.666676  1
  Lu  Lu7  1  0.500013  0.666695  0.333312  1
  Lu  Lu8  1  0.000011  0.666656  0.333307  1
  Lu  Lu9  1  0.999998  0.333338  0.666699  1
  Sb  Sb10  1  0.749998  0.609146  0.000005  1
  Sb  Sb11  1  0.750001  0.390868  0.390863  1
  Sb  Sb12  1  0.750003  0.999990  0.609156  1
  Sb  Sb13  1  0.249998  0.390856  0.000006  1
  Sb  Sb14  1  0.250003  0.609145  0.609150  1
  Sb  Sb15  1  0.249997  0.999992  0.390859  1
