# generated using pymatgen
data_V7B4P2W3
_symmetry_space_group_name_H-M   'P 1'
_cell_length_a   6.78132455
_cell_length_b   6.80724832
_cell_length_c   6.78577829
_cell_angle_alpha   129.37008235
_cell_angle_beta   129.26623125
_cell_angle_gamma   74.59352733
_symmetry_Int_Tables_number   1
_chemical_formula_structural   V7B4P2W3
_chemical_formula_sum   'V7 B4 P2 W3'
_cell_volume   182.59237940
_cell_formula_units_Z   1
loop_
 _symmetry_equiv_pos_site_id
 _symmetry_equiv_pos_as_xyz
  1  'x, y, z'
loop_
 _atom_site_type_symbol
 _atom_site_label
 _atom_site_symmetry_multiplicity
 _atom_site_fract_x
 _atom_site_fract_y
 _atom_site_fract_z
 _atom_site_occupancy
  V  V0  1  0.972077  0.469708  0.165465  1
  V  V1  1  0.189395  0.032548  0.500001  1
  V  V2  1  0.471596  0.306494  0.500001  1
  V  V3  1  0.806420  0.971513  0.499999  1
  V  V4  1  0.306612  0.804242  0.834534  1
  V  V5  1  0.006723  0.006481  0.002542  1
  V  V6  1  0.504182  0.503939  0.997458  1
  B  B7  1  0.616566  0.120304  0.732640  1
  B  B8  1  0.123503  0.381938  0.500001  1
  B  B9  1  0.883846  0.623856  0.499999  1
  B  B10  1  0.383926  0.887663  0.267360  1
  P  P11  1  0.240482  0.236904  0.991569  1
  P  P12  1  0.748914  0.745335  0.008431  1
  W  W13  1  0.526774  0.690358  0.499999  1
  W  W14  1  0.029917  0.529783  0.840849  1
  W  W15  1  0.689067  0.188934  0.159151  1
