# generated using pymatgen
data_Ba2RhC2
_symmetry_space_group_name_H-M   'P 1'
_cell_length_a   5.11981800
_cell_length_b   5.11981848
_cell_length_c   5.35454000
_cell_angle_alpha   90.00000000
_cell_angle_beta   90.00000000
_cell_angle_gamma   119.99999693
_symmetry_Int_Tables_number   1
_chemical_formula_structural   Ba2RhC2
_chemical_formula_sum   'Ba2 Rh1 C2'
_cell_volume   121.55194107
_cell_formula_units_Z   1
loop_
 _symmetry_equiv_pos_site_id
 _symmetry_equiv_pos_as_xyz
  1  'x, y, z'
loop_
 _atom_site_type_symbol
 _atom_site_label
 _atom_site_symmetry_multiplicity
 _atom_site_fract_x
 _atom_site_fract_y
 _atom_site_fract_z
 _atom_site_occupancy
  Ba  Ba0  1  0.333333  0.666667  0.271153  1
  Ba  Ba1  1  0.666667  0.333333  0.728847  1
  Rh  Rh2  1  0.000000  0.000000  0.000000  1
  C  C3  1  0.000000  0.000000  0.377968  1
  C  C4  1  0.000000  0.000000  0.622032  1
