# generated using pymatgen
data_Hf5ZrNb4(Ga2Ge)2
_symmetry_space_group_name_H-M   'P 1'
_cell_length_a   7.95101613
_cell_length_b   7.94698010
_cell_length_c   5.44124300
_cell_angle_alpha   90.00000000
_cell_angle_beta   90.00000000
_cell_angle_gamma   120.07102844
_symmetry_Int_Tables_number   1
_chemical_formula_structural   Hf5ZrNb4(Ga2Ge)2
_chemical_formula_sum   'Hf5 Zr1 Nb4 Ga4 Ge2'
_cell_volume   297.53785688
_cell_formula_units_Z   1
loop_
 _symmetry_equiv_pos_site_id
 _symmetry_equiv_pos_as_xyz
  1  'x, y, z'
loop_
 _atom_site_type_symbol
 _atom_site_label
 _atom_site_symmetry_multiplicity
 _atom_site_fract_x
 _atom_site_fract_y
 _atom_site_fract_z
 _atom_site_occupancy
  Hf  Hf0  1  0.748807  0.001023  0.750000  1
  Hf  Hf1  1  0.000117  0.250210  0.250000  1
  Hf  Hf2  1  0.248794  0.249450  0.750000  1
  Hf  Hf3  1  0.249885  0.999367  0.250000  1
  Hf  Hf4  1  0.000571  0.750250  0.750000  1
  Zr  Zr5  1  0.749595  0.749256  0.250000  1
  Nb  Nb6  1  0.665662  0.332636  0.999777  1
  Nb  Nb7  1  0.665662  0.332636  0.500223  1
  Nb  Nb8  1  0.335297  0.667671  0.500223  1
  Nb  Nb9  1  0.335297  0.667671  0.999777  1
  Ga  Ga10  1  0.000597  0.397089  0.750000  1
  Ga  Ga11  1  0.001002  0.603097  0.250000  1
  Ga  Ga12  1  0.393654  0.393663  0.250000  1
  Ga  Ga13  1  0.394255  0.999946  0.750000  1
  Ge  Ge14  1  0.605224  0.001382  0.250000  1
  Ge  Ge15  1  0.605579  0.604650  0.750000  1
