# generated using pymatgen
data_TbEr3(Pd2Pb)2
_symmetry_space_group_name_H-M   'P 1'
_cell_length_a   7.88591121
_cell_length_b   7.88591121
_cell_length_c   3.62160400
_cell_angle_alpha   90.00000000
_cell_angle_beta   90.00000000
_cell_angle_gamma   89.72803427
_symmetry_Int_Tables_number   1
_chemical_formula_structural   TbEr3(Pd2Pb)2
_chemical_formula_sum   'Tb1 Er3 Pd4 Pb2'
_cell_volume   225.21630779
_cell_formula_units_Z   1
loop_
 _symmetry_equiv_pos_site_id
 _symmetry_equiv_pos_as_xyz
  1  'x, y, z'
loop_
 _atom_site_type_symbol
 _atom_site_label
 _atom_site_symmetry_multiplicity
 _atom_site_fract_x
 _atom_site_fract_y
 _atom_site_fract_z
 _atom_site_occupancy
  Tb  Tb0  1  0.670829  0.170829  0.500000  1
  Er  Er1  1  0.170353  0.329853  0.500000  1
  Er  Er2  1  0.829853  0.670353  0.500000  1
  Er  Er3  1  0.329344  0.829344  0.500000  1
  Pd  Pd4  1  0.372551  0.124739  0.000000  1
  Pd  Pd5  1  0.125824  0.625824  0.000000  1
  Pd  Pd6  1  0.624739  0.872551  0.000000  1
  Pd  Pd7  1  0.876434  0.376434  0.000000  1
  Pb  Pb8  1  0.000584  0.999490  0.000000  1
  Pb  Pb9  1  0.499490  0.500584  0.000000  1
