# generated using pymatgen
data_Rb2HgCl6
_symmetry_space_group_name_H-M   'P 1'
_cell_length_a   8.33806300
_cell_length_b   10.87748900
_cell_length_c   13.40418900
_cell_angle_alpha   90.00000000
_cell_angle_beta   90.00000000
_cell_angle_gamma   90.00000000
_symmetry_Int_Tables_number   1
_chemical_formula_structural   Rb2HgCl6
_chemical_formula_sum   'Rb8 Hg4 Cl24'
_cell_volume   1215.72225728
_cell_formula_units_Z   4
loop_
 _symmetry_equiv_pos_site_id
 _symmetry_equiv_pos_as_xyz
  1  'x, y, z'
loop_
 _atom_site_type_symbol
 _atom_site_label
 _atom_site_symmetry_multiplicity
 _atom_site_fract_x
 _atom_site_fract_y
 _atom_site_fract_z
 _atom_site_occupancy
  Rb  Rb0  1  0.326306  0.016922  0.859485  1
  Rb  Rb1  1  0.826306  0.483078  0.640515  1
  Rb  Rb2  1  0.673694  0.516922  0.140515  1
  Rb  Rb3  1  0.173694  0.983078  0.359485  1
  Rb  Rb4  1  0.673694  0.983078  0.140515  1
  Rb  Rb5  1  0.173694  0.516922  0.359485  1
  Rb  Rb6  1  0.326306  0.483078  0.859485  1
  Rb  Rb7  1  0.826306  0.016922  0.640515  1
  Hg  Hg8  1  0.269280  0.250000  0.612334  1
  Hg  Hg9  1  0.769280  0.250000  0.887666  1
  Hg  Hg10  1  0.730720  0.750000  0.387666  1
  Hg  Hg11  1  0.230720  0.750000  0.112334  1
  Cl  Cl12  1  0.425721  0.250000  0.371574  1
  Cl  Cl13  1  0.925721  0.250000  0.128426  1
  Cl  Cl14  1  0.574279  0.750000  0.628426  1
  Cl  Cl15  1  0.074279  0.750000  0.871574  1
  Cl  Cl16  1  0.449455  0.250000  0.206680  1
  Cl  Cl17  1  0.949455  0.250000  0.293320  1
  Cl  Cl18  1  0.550545  0.750000  0.793320  1
  Cl  Cl19  1  0.050545  0.750000  0.706680  1
  Cl  Cl20  1  0.473791  0.250000  0.026140  1
  Cl  Cl21  1  0.973791  0.250000  0.473860  1
  Cl  Cl22  1  0.526209  0.750000  0.973860  1
  Cl  Cl23  1  0.026209  0.750000  0.526140  1
  Cl  Cl24  1  0.072001  0.250000  0.784171  1
  Cl  Cl25  1  0.572001  0.250000  0.715829  1
  Cl  Cl26  1  0.927999  0.750000  0.215829  1
  Cl  Cl27  1  0.427999  0.750000  0.284171  1
  Cl  Cl28  1  0.268730  0.030101  0.600552  1
  Cl  Cl29  1  0.768730  0.469899  0.899448  1
  Cl  Cl30  1  0.731270  0.530101  0.399448  1
  Cl  Cl31  1  0.231270  0.969899  0.100552  1
  Cl  Cl32  1  0.731270  0.969899  0.399448  1
  Cl  Cl33  1  0.231270  0.530101  0.100552  1
  Cl  Cl34  1  0.268730  0.469899  0.600552  1
  Cl  Cl35  1  0.768730  0.030101  0.899448  1
