# generated using pymatgen
data_Pr5V3(As3Rh4)4
_symmetry_space_group_name_H-M   'P 1'
_cell_length_a   13.42317300
_cell_length_b   13.42317341
_cell_length_c   4.07808400
_cell_angle_alpha   90.00000000
_cell_angle_beta   90.00000000
_cell_angle_gamma   120.00000146
_symmetry_Int_Tables_number   1
_chemical_formula_structural   Pr5V3(As3Rh4)4
_chemical_formula_sum   'Pr5 V3 As12 Rh16'
_cell_volume   636.35165885
_cell_formula_units_Z   1
loop_
 _symmetry_equiv_pos_site_id
 _symmetry_equiv_pos_as_xyz
  1  'x, y, z'
loop_
 _atom_site_type_symbol
 _atom_site_label
 _atom_site_symmetry_multiplicity
 _atom_site_fract_x
 _atom_site_fract_y
 _atom_site_fract_z
 _atom_site_occupancy
  Pr  Pr0  1  0.191211  0.191211  0.500000  1
  Pr  Pr1  1  0.808789  0.000000  0.500000  1
  Pr  Pr2  1  0.000000  0.808789  0.500000  1
  Pr  Pr3  1  0.333333  0.666667  0.000000  1
  Pr  Pr4  1  0.666667  0.333333  0.000000  1
  V  V5  1  0.554911  0.554911  0.000000  1
  V  V6  1  0.445089  0.000000  0.000000  1
  V  V7  1  0.000000  0.445089  0.000000  1
  As  As8  1  0.821087  0.821087  0.000000  1
  As  As9  1  0.178913  0.000000  0.000000  1
  As  As10  1  0.000000  0.178913  0.000000  1
  As  As11  1  0.162548  0.482553  0.500000  1
  As  As12  1  0.517447  0.679996  0.500000  1
  As  As13  1  0.320004  0.837452  0.500000  1
  As  As14  1  0.679996  0.517447  0.500000  1
  As  As15  1  0.837452  0.320004  0.500000  1
  As  As16  1  0.482553  0.162548  0.500000  1
  As  As17  1  0.370381  0.370381  0.000000  1
  As  As18  1  0.629619  0.000000  0.000000  1
  As  As19  1  0.000000  0.629619  0.000000  1
  Rh  Rh20  1  0.716703  0.716703  0.500000  1
  Rh  Rh21  1  0.283297  0.000000  0.500000  1
  Rh  Rh22  1  0.000000  0.283297  0.500000  1
  Rh  Rh23  1  0.175486  0.378287  0.000000  1
  Rh  Rh24  1  0.621713  0.797199  0.000000  1
  Rh  Rh25  1  0.202801  0.824514  0.000000  1
  Rh  Rh26  1  0.797199  0.621713  0.000000  1
  Rh  Rh27  1  0.824514  0.202801  0.000000  1
  Rh  Rh28  1  0.378287  0.175486  0.000000  1
  Rh  Rh29  1  0.354547  0.482698  0.500000  1
  Rh  Rh30  1  0.517302  0.871850  0.500000  1
  Rh  Rh31  1  0.128150  0.645453  0.500000  1
  Rh  Rh32  1  0.871850  0.517302  0.500000  1
  Rh  Rh33  1  0.645453  0.128150  0.500000  1
  Rh  Rh34  1  0.482698  0.354547  0.500000  1
  Rh  Rh35  1  0.000000  0.000000  0.000000  1
