# generated using pymatgen
data_Nd8NiHg2Rh
_symmetry_space_group_name_H-M   'P 1'
_cell_length_a   9.87572256
_cell_length_b   9.87572239
_cell_length_c   9.91272800
_cell_angle_alpha   59.87596163
_cell_angle_beta   59.87596223
_cell_angle_gamma   59.68261420
_symmetry_Int_Tables_number   1
_chemical_formula_structural   Nd8NiHg2Rh
_chemical_formula_sum   'Nd16 Ni2 Hg4 Rh2'
_cell_volume   680.69178767
_cell_formula_units_Z   2
loop_
 _symmetry_equiv_pos_site_id
 _symmetry_equiv_pos_as_xyz
  1  'x, y, z'
loop_
 _atom_site_type_symbol
 _atom_site_label
 _atom_site_symmetry_multiplicity
 _atom_site_fract_x
 _atom_site_fract_y
 _atom_site_fract_z
 _atom_site_occupancy
  Nd  Nd0  1  0.600694  0.600694  0.596471  1
  Nd  Nd1  1  0.600694  0.600694  0.202143  1
  Nd  Nd2  1  0.602919  0.199863  0.598609  1
  Nd  Nd3  1  0.199863  0.602919  0.598609  1
  Nd  Nd4  1  0.058802  0.438149  0.442431  1
  Nd  Nd5  1  0.438149  0.058802  0.060617  1
  Nd  Nd6  1  0.438149  0.058802  0.442431  1
  Nd  Nd7  1  0.058802  0.438149  0.060617  1
  Nd  Nd8  1  0.439933  0.439933  0.060067  1
  Nd  Nd9  1  0.058631  0.058631  0.441369  1
  Nd  Nd10  1  0.188368  0.810742  0.815203  1
  Nd  Nd11  1  0.810742  0.188368  0.185687  1
  Nd  Nd12  1  0.810742  0.188368  0.815203  1
  Nd  Nd13  1  0.188368  0.810742  0.185687  1
  Nd  Nd14  1  0.814194  0.814194  0.185806  1
  Nd  Nd15  1  0.188812  0.188812  0.811188  1
  Ni  Ni16  1  0.393653  0.822591  0.391879  1
  Ni  Ni17  1  0.822591  0.393653  0.391879  1
  Hg  Hg18  1  0.833686  0.833686  0.834292  1
  Hg  Hg19  1  0.833686  0.833686  0.498337  1
  Hg  Hg20  1  0.834098  0.498065  0.833919  1
  Hg  Hg21  1  0.498065  0.834098  0.833919  1
  Rh  Rh22  1  0.393181  0.393181  0.391218  1
  Rh  Rh23  1  0.393181  0.393181  0.822422  1
