# generated using pymatgen
data_Sc8Ta4Ti3Si16W5
_symmetry_space_group_name_H-M   'P 1'
_cell_length_a   6.60087084
_cell_length_b   6.80413170
_cell_length_c   12.94838958
_cell_angle_alpha   89.95068620
_cell_angle_beta   90.08518618
_cell_angle_gamma   89.97598839
_symmetry_Int_Tables_number   1
_chemical_formula_structural   Sc8Ta4Ti3Si16W5
_chemical_formula_sum   'Sc8 Ta4 Ti3 Si16 W5'
_cell_volume   581.55263060
_cell_formula_units_Z   1
loop_
 _symmetry_equiv_pos_site_id
 _symmetry_equiv_pos_as_xyz
  1  'x, y, z'
loop_
 _atom_site_type_symbol
 _atom_site_label
 _atom_site_symmetry_multiplicity
 _atom_site_fract_x
 _atom_site_fract_y
 _atom_site_fract_z
 _atom_site_occupancy
  Sc  Sc0  1  0.497813  0.672936  0.593582  1
  Sc  Sc1  1  0.998509  0.826964  0.905632  1
  Sc  Sc2  1  0.501609  0.326225  0.093442  1
  Sc  Sc3  1  0.001720  0.174080  0.407421  1
  Sc  Sc4  1  0.503004  0.326206  0.406486  1
  Sc  Sc5  1  0.000472  0.174855  0.092768  1
  Sc  Sc6  1  0.498895  0.674194  0.906089  1
  Sc  Sc7  1  0.999366  0.824393  0.592995  1
  Ta  Ta8  1  0.834433  0.668619  0.375448  1
  Ta  Ta9  1  0.333431  0.830348  0.375816  1
  Ta  Ta10  1  0.833652  0.669008  0.125547  1
  Ta  Ta11  1  0.665922  0.170179  0.872607  1
  Ti  Ti12  1  0.664359  0.168886  0.625843  1
  Ti  Ti13  1  0.166510  0.329833  0.873315  1
  Ti  Ti14  1  0.333159  0.829948  0.125961  1
  Si  Si15  1  0.670745  0.967210  0.461019  1
  Si  Si16  1  0.171888  0.535661  0.039709  1
  Si  Si17  1  0.328275  0.035751  0.959498  1
  Si  Si18  1  0.831239  0.460689  0.543092  1
  Si  Si19  1  0.330095  0.038953  0.543373  1
  Si  Si20  1  0.833579  0.464960  0.957977  1
  Si  Si21  1  0.666204  0.965356  0.041315  1
  Si  Si22  1  0.170582  0.533545  0.461308  1
  Si  Si23  1  0.463604  0.388276  0.748631  1
  Si  Si24  1  0.967734  0.113729  0.748287  1
  Si  Si25  1  0.532109  0.611059  0.248913  1
  Si  Si26  1  0.035069  0.890367  0.249218  1
  Si  Si27  1  0.704983  0.857566  0.747965  1
  Si  Si28  1  0.202841  0.641411  0.751159  1
  Si  Si29  1  0.296064  0.142506  0.249374  1
  Si  Si30  1  0.795974  0.355185  0.250038  1
  W  W31  1  0.167220  0.332779  0.626086  1
  W  W32  1  0.839405  0.491969  0.748965  1
  W  W33  1  0.340919  0.007426  0.749929  1
  W  W34  1  0.159725  0.506871  0.250415  1
  W  W35  1  0.658893  0.992057  0.250777  1
