# generated using pymatgen
data_Y2TaNb2Ni9As7
_symmetry_space_group_name_H-M   'P 1'
_cell_length_a   3.85194300
_cell_length_b   9.62811923
_cell_length_c   9.65080881
_cell_angle_alpha   120.07356494
_cell_angle_beta   90.00000000
_cell_angle_gamma   90.00000000
_symmetry_Int_Tables_number   1
_chemical_formula_structural   Y2TaNb2Ni9As7
_chemical_formula_sum   'Y2 Ta1 Nb2 Ni9 As7'
_cell_volume   309.73710884
_cell_formula_units_Z   1
loop_
 _symmetry_equiv_pos_site_id
 _symmetry_equiv_pos_as_xyz
  1  'x, y, z'
loop_
 _atom_site_type_symbol
 _atom_site_label
 _atom_site_symmetry_multiplicity
 _atom_site_fract_x
 _atom_site_fract_y
 _atom_site_fract_z
 _atom_site_occupancy
  Y  Y0  1  0.000000  0.666660  0.333479  1
  Y  Y1  1  0.500000  0.332939  0.666638  1
  Ta  Ta2  1  0.500000  0.776999  0.892958  1
  Nb  Nb3  1  0.500000  0.116021  0.222672  1
  Nb  Nb4  1  0.500000  0.106130  0.883443  1
  Ni  Ni5  1  0.000000  0.573296  0.934796  1
  Ni  Ni6  1  0.000000  0.363016  0.428058  1
  Ni  Ni7  1  0.000000  0.064509  0.637043  1
  Ni  Ni8  1  0.000000  0.869965  0.152857  1
  Ni  Ni9  1  0.000000  0.284639  0.129816  1
  Ni  Ni10  1  0.000000  0.845278  0.716670  1
  Ni  Ni11  1  0.500000  0.940884  0.379241  1
  Ni  Ni12  1  0.500000  0.438054  0.059407  1
  Ni  Ni13  1  0.500000  0.621981  0.563141  1
  As  As14  1  0.000000  0.000157  0.999788  1
  As  As15  1  0.500000  0.705279  0.117648  1
  As  As16  1  0.500000  0.412390  0.294972  1
  As  As17  1  0.500000  0.882416  0.587437  1
  As  As18  1  0.000000  0.581666  0.692695  1
  As  As19  1  0.000000  0.110126  0.417590  1
  As  As20  1  0.000000  0.307596  0.889650  1
