# generated using pymatgen
data_LiPr7Nd9Mg(AgIr2)2
_symmetry_space_group_name_H-M   'P 1'
_cell_length_a   9.97103471
_cell_length_b   9.97103461
_cell_length_c   9.95489900
_cell_angle_alpha   60.05305592
_cell_angle_beta   60.05307612
_cell_angle_gamma   60.53414811
_symmetry_Int_Tables_number   1
_chemical_formula_structural   LiPr7Nd9Mg(AgIr2)2
_chemical_formula_sum   'Li1 Pr7 Nd9 Mg1 Ag2 Ir4'
_cell_volume   703.19468521
_cell_formula_units_Z   1
loop_
 _symmetry_equiv_pos_site_id
 _symmetry_equiv_pos_as_xyz
  1  'x, y, z'
loop_
 _atom_site_type_symbol
 _atom_site_label
 _atom_site_symmetry_multiplicity
 _atom_site_fract_x
 _atom_site_fract_y
 _atom_site_fract_z
 _atom_site_occupancy
  Li  Li0  1  0.578754  0.283055  0.569074  1
  Pr  Pr1  1  0.805594  0.804131  0.195028  1
  Pr  Pr2  1  0.937345  0.560546  0.562122  1
  Pr  Pr3  1  0.560363  0.936771  0.940821  1
  Pr  Pr4  1  0.560192  0.936779  0.562082  1
  Pr  Pr5  1  0.937148  0.560433  0.940307  1
  Pr  Pr6  1  0.560432  0.560210  0.939785  1
  Pr  Pr7  1  0.939244  0.937239  0.561890  1
  Nd  Nd8  1  0.346822  0.347085  0.346728  1
  Nd  Nd9  1  0.346676  0.347233  0.959305  1
  Nd  Nd10  1  0.347054  0.956221  0.348294  1
  Nd  Nd11  1  0.954701  0.347631  0.348817  1
  Nd  Nd12  1  0.810837  0.187112  0.188782  1
  Nd  Nd13  1  0.188669  0.810218  0.812091  1
  Nd  Nd14  1  0.188701  0.810229  0.188986  1
  Nd  Nd15  1  0.810832  0.187042  0.813336  1
  Nd  Nd16  1  0.186786  0.187498  0.812875  1
  Mg  Mg17  1  0.280564  0.577747  0.570848  1
  Ag  Ag18  1  0.580175  0.582258  0.584456  1
  Ag  Ag19  1  0.580252  0.582203  0.253056  1
  Ir  Ir20  1  0.141024  0.141346  0.141488  1
  Ir  Ir21  1  0.141105  0.141219  0.576141  1
  Ir  Ir22  1  0.142520  0.573668  0.141909  1
  Ir  Ir23  1  0.574210  0.142127  0.141779  1
