# generated using pymatgen
data_Tm6B14RuW
_symmetry_space_group_name_H-M   'P 1'
_cell_length_a   7.99847892
_cell_length_b   7.99847918
_cell_length_c   9.30171000
_cell_angle_alpha   90.00000000
_cell_angle_beta   90.00000000
_cell_angle_gamma   155.03971935
_symmetry_Int_Tables_number   1
_chemical_formula_structural   Tm6B14RuW
_chemical_formula_sum   'Tm6 B14 Ru1 W1'
_cell_volume   251.11904562
_cell_formula_units_Z   1
loop_
 _symmetry_equiv_pos_site_id
 _symmetry_equiv_pos_as_xyz
  1  'x, y, z'
loop_
 _atom_site_type_symbol
 _atom_site_label
 _atom_site_symmetry_multiplicity
 _atom_site_fract_x
 _atom_site_fract_y
 _atom_site_fract_z
 _atom_site_occupancy
  Tm  Tm0  1  0.893764  0.106236  0.438136  1
  Tm  Tm1  1  0.107367  0.892633  0.557897  1
  Tm  Tm2  1  0.893764  0.106236  0.061864  1
  Tm  Tm3  1  0.107367  0.892633  0.942103  1
  Tm  Tm4  1  0.243630  0.756370  0.250000  1
  Tm  Tm5  1  0.754565  0.245435  0.750000  1
  B  B6  1  0.726774  0.273226  0.464750  1
  B  B7  1  0.271536  0.728464  0.532116  1
  B  B8  1  0.726774  0.273226  0.035250  1
  B  B9  1  0.271536  0.728464  0.967884  1
  B  B10  1  0.631828  0.368172  0.150985  1
  B  B11  1  0.365008  0.634992  0.853064  1
  B  B12  1  0.631828  0.368172  0.349015  1
  B  B13  1  0.365008  0.634992  0.646936  1
  B  B14  1  0.520411  0.479589  0.096260  1
  B  B15  1  0.481337  0.518663  0.909832  1
  B  B16  1  0.520411  0.479589  0.403740  1
  B  B17  1  0.481337  0.518663  0.590168  1
  B  B18  1  0.455765  0.544235  0.250000  1
  B  B19  1  0.548434  0.451566  0.750000  1
  Ru  Ru20  1  0.053662  0.946338  0.250000  1
  W  W21  1  0.947894  0.052106  0.750000  1
