# generated using pymatgen
data_Tb4Y8Fe2I17
_symmetry_space_group_name_H-M   'P 1'
_cell_length_a   9.76675968
_cell_length_b   11.71042322
_cell_length_c   11.73893949
_cell_angle_alpha   93.55874473
_cell_angle_beta   104.76521422
_cell_angle_gamma   114.13265793
_symmetry_Int_Tables_number   1
_chemical_formula_structural   Tb4Y8Fe2I17
_chemical_formula_sum   'Tb4 Y8 Fe2 I17'
_cell_volume   1163.59194056
_cell_formula_units_Z   1
loop_
 _symmetry_equiv_pos_site_id
 _symmetry_equiv_pos_as_xyz
  1  'x, y, z'
loop_
 _atom_site_type_symbol
 _atom_site_label
 _atom_site_symmetry_multiplicity
 _atom_site_fract_x
 _atom_site_fract_y
 _atom_site_fract_z
 _atom_site_occupancy
  Tb  Tb0  1  0.052725  0.503169  0.319839  1
  Tb  Tb1  1  0.992726  0.808558  0.589158  1
  Tb  Tb2  1  0.656324  0.241464  0.280385  1
  Tb  Tb3  1  0.008233  0.190821  0.412247  1
  Y  Y4  1  0.218676  0.671311  0.982239  1
  Y  Y5  1  0.254898  0.977981  0.888946  1
  Y  Y6  1  0.345084  0.758471  0.719064  1
  Y  Y7  1  0.947657  0.497198  0.680180  1
  Y  Y8  1  0.744911  0.021617  0.110906  1
  Y  Y9  1  0.139987  0.286731  0.154059  1
  Y  Y10  1  0.780432  0.328900  0.016139  1
  Y  Y11  1  0.858372  0.713020  0.846143  1
  Fe  Fe12  1  0.103925  0.737876  0.785551  1
  Fe  Fe13  1  0.895664  0.262211  0.214639  1
  I  I14  1  0.784187  0.528310  0.417729  1
  I  I15  1  0.644391  0.419072  0.762337  1
  I  I16  1  0.843418  0.895946  0.326067  1
  I  I17  1  0.326909  0.214020  0.367811  1
  I  I18  1  0.156459  0.103968  0.673924  1
  I  I19  1  0.586201  0.053061  0.843229  1
  I  I20  1  0.758623  0.188818  0.539177  1
  I  I21  1  0.551779  0.711313  0.954183  1
  I  I22  1  0.355540  0.580393  0.237013  1
  I  I23  1  0.215974  0.471592  0.582848  1
  I  I24  1  0.056254  0.367632  0.897205  1
  I  I25  1  0.448194  0.288716  0.045208  1
  I  I26  1  0.000192  0.000298  0.000177  1
  I  I27  1  0.242705  0.812435  0.462105  1
  I  I28  1  0.414177  0.946878  0.156563  1
  I  I29  1  0.671828  0.785922  0.632205  1
  I  I30  1  0.943553  0.632298  0.102724  1
