# generated using pymatgen
data_Lu6Mn6Co16W
_symmetry_space_group_name_H-M   'P 1'
_cell_length_a   8.35243981
_cell_length_b   8.35244032
_cell_length_c   8.35244000
_cell_angle_alpha   60.00000126
_cell_angle_beta   59.99999923
_cell_angle_gamma   59.99999923
_symmetry_Int_Tables_number   1
_chemical_formula_structural   Lu6Mn6Co16W
_chemical_formula_sum   'Lu6 Mn6 Co16 W1'
_cell_volume   412.02645468
_cell_formula_units_Z   1
loop_
 _symmetry_equiv_pos_site_id
 _symmetry_equiv_pos_as_xyz
  1  'x, y, z'
loop_
 _atom_site_type_symbol
 _atom_site_label
 _atom_site_symmetry_multiplicity
 _atom_site_fract_x
 _atom_site_fract_y
 _atom_site_fract_z
 _atom_site_occupancy
  Lu  Lu0  1  0.211118  0.788882  0.788882  1
  Lu  Lu1  1  0.788882  0.788882  0.211118  1
  Lu  Lu2  1  0.788882  0.211118  0.211118  1
  Lu  Lu3  1  0.211118  0.211118  0.788882  1
  Lu  Lu4  1  0.788882  0.211118  0.788882  1
  Lu  Lu5  1  0.211118  0.788882  0.211118  1
  Mn  Mn6  1  0.500000  0.000000  0.500000  1
  Mn  Mn7  1  0.500000  0.500000  0.000000  1
  Mn  Mn8  1  0.000000  0.000000  0.500000  1
  Mn  Mn9  1  0.000000  0.500000  0.000000  1
  Mn  Mn10  1  0.000000  0.500000  0.500000  1
  Mn  Mn11  1  0.500000  0.000000  0.000000  1
  Co  Co12  1  0.622670  0.622670  0.131991  1
  Co  Co13  1  0.176563  0.470309  0.176563  1
  Co  Co14  1  0.868009  0.377330  0.377330  1
  Co  Co15  1  0.529691  0.823437  0.823437  1
  Co  Co16  1  0.470309  0.176563  0.176563  1
  Co  Co17  1  0.823437  0.823437  0.529691  1
  Co  Co18  1  0.176563  0.176563  0.470309  1
  Co  Co19  1  0.131991  0.622670  0.622670  1
  Co  Co20  1  0.176563  0.176563  0.176563  1
  Co  Co21  1  0.377330  0.377330  0.868009  1
  Co  Co22  1  0.622670  0.622670  0.622670  1
  Co  Co23  1  0.377330  0.868009  0.377330  1
  Co  Co24  1  0.377330  0.377330  0.377330  1
  Co  Co25  1  0.823437  0.823437  0.823437  1
  Co  Co26  1  0.622670  0.131991  0.622670  1
  Co  Co27  1  0.823437  0.529691  0.823437  1
  W  W28  1  0.500000  0.500000  0.500000  1
