# generated using pymatgen
data_Ce3Th(PRu)8
_symmetry_space_group_name_H-M   'P 1'
_cell_length_a   4.15010400
_cell_length_b   7.52671302
_cell_length_c   10.44681902
_cell_angle_alpha   89.99271746
_cell_angle_beta   90.00000000
_cell_angle_gamma   90.00000000
_symmetry_Int_Tables_number   1
_chemical_formula_structural   Ce3Th(PRu)8
_chemical_formula_sum   'Ce3 Th1 P8 Ru8'
_cell_volume   326.32354098
_cell_formula_units_Z   1
loop_
 _symmetry_equiv_pos_site_id
 _symmetry_equiv_pos_as_xyz
  1  'x, y, z'
loop_
 _atom_site_type_symbol
 _atom_site_label
 _atom_site_symmetry_multiplicity
 _atom_site_fract_x
 _atom_site_fract_y
 _atom_site_fract_z
 _atom_site_occupancy
  Ce  Ce0  1  0.250000  0.268116  0.669310  1
  Ce  Ce1  1  0.750000  0.731438  0.331181  1
  Ce  Ce2  1  0.250000  0.767547  0.830350  1
  Th  Th3  1  0.750000  0.232688  0.169366  1
  P  P4  1  0.250000  0.093271  0.967518  1
  P  P5  1  0.750000  0.904968  0.029335  1
  P  P6  1  0.250000  0.594515  0.530896  1
  P  P7  1  0.750000  0.405931  0.470599  1
  P  P8  1  0.250000  0.531809  0.160798  1
  P  P9  1  0.750000  0.471536  0.838841  1
  P  P10  1  0.250000  0.027188  0.340521  1
  P  P11  1  0.750000  0.970809  0.660968  1
  Ru  Ru12  1  0.750000  0.108847  0.451402  1
  Ru  Ru13  1  0.250000  0.890707  0.549905  1
  Ru  Ru14  1  0.750000  0.609970  0.048711  1
  Ru  Ru15  1  0.250000  0.390674  0.949841  1
  Ru  Ru16  1  0.250000  0.866876  0.133080  1
  Ru  Ru17  1  0.750000  0.132422  0.866183  1
  Ru  Ru18  1  0.250000  0.367711  0.367856  1
  Ru  Ru19  1  0.750000  0.632976  0.633339  1
