# generated using pymatgen
data_BaSr7Mn4(PO4)8
_symmetry_space_group_name_H-M   'P 1'
_cell_length_a   5.29804975
_cell_length_b   8.78478825
_cell_length_c   15.91474082
_cell_angle_alpha   89.79278807
_cell_angle_beta   90.05816150
_cell_angle_gamma   89.88241540
_symmetry_Int_Tables_number   1
_chemical_formula_structural   BaSr7Mn4(PO4)8
_chemical_formula_sum   'Ba1 Sr7 Mn4 P8 O32'
_cell_volume   740.70097794
_cell_formula_units_Z   1
loop_
 _symmetry_equiv_pos_site_id
 _symmetry_equiv_pos_as_xyz
  1  'x, y, z'
loop_
 _atom_site_type_symbol
 _atom_site_label
 _atom_site_symmetry_multiplicity
 _atom_site_fract_x
 _atom_site_fract_y
 _atom_site_fract_z
 _atom_site_occupancy
  Ba  Ba0  1  0.283992  0.302035  0.977380  1
  Sr  Sr1  1  0.701367  0.702700  0.020893  1
  Sr  Sr2  1  0.759843  0.337117  0.233683  1
  Sr  Sr3  1  0.737211  0.839600  0.269401  1
  Sr  Sr4  1  0.805243  0.201207  0.478836  1
  Sr  Sr5  1  0.194179  0.799293  0.520904  1
  Sr  Sr6  1  0.262765  0.161417  0.730083  1
  Sr  Sr7  1  0.237668  0.663576  0.765680  1
  Mn  Mn8  1  0.231090  0.983587  0.140227  1
  Mn  Mn9  1  0.266293  0.485356  0.361765  1
  Mn  Mn10  1  0.732797  0.514868  0.637808  1
  Mn  Mn11  1  0.764795  0.014233  0.861228  1
  P  P12  1  0.759536  0.097507  0.081665  1
  P  P13  1  0.245858  0.602342  0.161532  1
  P  P14  1  0.254169  0.098657  0.341573  1
  P  P15  1  0.739945  0.601170  0.421488  1
  P  P16  1  0.259228  0.399097  0.578057  1
  P  P17  1  0.743324  0.901930  0.658846  1
  P  P18  1  0.757998  0.402997  0.837480  1
  P  P19  1  0.241250  0.895007  0.919970  1
  O  O20  1  0.295184  0.901590  0.014451  1
  O  O21  1  0.329452  0.545490  0.073652  1
  O  O22  1  0.984313  0.199724  0.109516  1
  O  O23  1  0.819257  0.932992  0.114073  1
  O  O24  1  0.519601  0.158180  0.127516  1
  O  O25  1  0.951418  0.608410  0.167734  1
  O  O26  1  0.369089  0.761539  0.175680  1
  O  O27  1  0.352850  0.493736  0.230992  1
  O  O28  1  0.146741  0.993161  0.271502  1
  O  O29  1  0.126707  0.258033  0.329411  1
  O  O30  1  0.548496  0.108184  0.333942  1
  O  O31  1  0.974989  0.663698  0.373161  1
  O  O32  1  0.680350  0.437436  0.388573  1
  O  O33  1  0.508058  0.702641  0.398771  1
  O  O34  1  0.177018  0.035576  0.429191  1
  O  O35  1  0.203368  0.394434  0.483755  1
  O  O36  1  0.797448  0.606058  0.515727  1
  O  O37  1  0.823050  0.965720  0.571729  1
  O  O38  1  0.491120  0.297742  0.601169  1
  O  O39  1  0.318544  0.562848  0.611040  1
  O  O40  1  0.023395  0.336143  0.625670  1
  O  O41  1  0.448921  0.891385  0.665677  1
  O  O42  1  0.871920  0.742893  0.671003  1
  O  O43  1  0.845831  0.007721  0.729838  1
  O  O44  1  0.638643  0.507159  0.768296  1
  O  O45  1  0.627723  0.243776  0.829565  1
  O  O46  1  0.049428  0.392279  0.822980  1
  O  O47  1  0.481125  0.831668  0.874616  1
  O  O48  1  0.178535  0.054145  0.880446  1
  O  O49  1  0.013433  0.790184  0.899391  1
  O  O50  1  0.702826  0.467958  0.926229  1
  O  O51  1  0.722614  0.103805  0.986203  1
