# generated using pymatgen
data_Yb3(GaPt)2
_symmetry_space_group_name_H-M   'P 1'
_cell_length_a   5.69786200
_cell_length_b   7.83281500
_cell_length_c   13.82215700
_cell_angle_alpha   90.00000000
_cell_angle_beta   90.00000000
_cell_angle_gamma   90.00000000
_symmetry_Int_Tables_number   1
_chemical_formula_structural   Yb3(GaPt)2
_chemical_formula_sum   'Yb12 Ga8 Pt8'
_cell_volume   616.88699893
_cell_formula_units_Z   4
loop_
 _symmetry_equiv_pos_site_id
 _symmetry_equiv_pos_as_xyz
  1  'x, y, z'
loop_
 _atom_site_type_symbol
 _atom_site_label
 _atom_site_symmetry_multiplicity
 _atom_site_fract_x
 _atom_site_fract_y
 _atom_site_fract_z
 _atom_site_occupancy
  Yb  Yb0  1  0.148219  0.605592  0.096031  1
  Yb  Yb1  1  0.148219  0.894408  0.903969  1
  Yb  Yb2  1  0.851781  0.105592  0.403969  1
  Yb  Yb3  1  0.851781  0.394408  0.596031  1
  Yb  Yb4  1  0.851781  0.394408  0.903969  1
  Yb  Yb5  1  0.851781  0.105592  0.096031  1
  Yb  Yb6  1  0.148219  0.894408  0.596031  1
  Yb  Yb7  1  0.148219  0.605592  0.403969  1
  Yb  Yb8  1  0.373987  0.253285  0.250000  1
  Yb  Yb9  1  0.373987  0.246715  0.750000  1
  Yb  Yb10  1  0.626013  0.753285  0.250000  1
  Yb  Yb11  1  0.626013  0.746715  0.750000  1
  Ga  Ga12  1  0.371001  0.250000  0.000000  1
  Ga  Ga13  1  0.628999  0.750000  0.500000  1
  Ga  Ga14  1  0.628999  0.750000  0.000000  1
  Ga  Ga15  1  0.371001  0.250000  0.500000  1
  Ga  Ga16  1  0.871855  0.405043  0.250000  1
  Ga  Ga17  1  0.871855  0.094957  0.750000  1
  Ga  Ga18  1  0.128145  0.905043  0.250000  1
  Ga  Ga19  1  0.128145  0.594957  0.750000  1
  Pt  Pt20  1  0.642520  0.466818  0.095701  1
  Pt  Pt21  1  0.642520  0.033182  0.904299  1
  Pt  Pt22  1  0.357480  0.966818  0.404299  1
  Pt  Pt23  1  0.357480  0.533182  0.595701  1
  Pt  Pt24  1  0.357480  0.533182  0.904299  1
  Pt  Pt25  1  0.357480  0.966818  0.095701  1
  Pt  Pt26  1  0.642520  0.033182  0.595701  1
  Pt  Pt27  1  0.642520  0.466818  0.404299  1
