# generated using pymatgen
data_KNd6IrI12
_symmetry_space_group_name_H-M   'P 1'
_cell_length_a   10.05312346
_cell_length_b   10.05312292
_cell_length_c   10.05312248
_cell_angle_alpha   105.33650559
_cell_angle_beta   105.33650093
_cell_angle_gamma   105.33649187
_symmetry_Int_Tables_number   1
_chemical_formula_structural   KNd6IrI12
_chemical_formula_sum   'K1 Nd6 Ir1 I12'
_cell_volume   881.73794065
_cell_formula_units_Z   1
loop_
 _symmetry_equiv_pos_site_id
 _symmetry_equiv_pos_as_xyz
  1  'x, y, z'
loop_
 _atom_site_type_symbol
 _atom_site_label
 _atom_site_symmetry_multiplicity
 _atom_site_fract_x
 _atom_site_fract_y
 _atom_site_fract_z
 _atom_site_occupancy
  K  K0  1  0.500000  0.500000  0.500000  1
  Nd  Nd1  1  0.095049  0.299885  0.016336  1
  Nd  Nd2  1  0.299885  0.016337  0.095048  1
  Nd  Nd3  1  0.016337  0.095048  0.299886  1
  Nd  Nd4  1  0.983664  0.904952  0.700115  1
  Nd  Nd5  1  0.700115  0.983664  0.904952  1
  Nd  Nd6  1  0.904951  0.700115  0.983664  1
  Ir  Ir7  1  0.000000  0.000000  0.000000  1
  I  I8  1  0.223987  0.674410  0.078042  1
  I  I9  1  0.436447  0.350640  0.118709  1
  I  I10  1  0.674411  0.078042  0.223987  1
  I  I11  1  0.921959  0.776013  0.325590  1
  I  I12  1  0.118709  0.436447  0.350640  1
  I  I13  1  0.350640  0.118709  0.436447  1
  I  I14  1  0.649360  0.881291  0.563554  1
  I  I15  1  0.881292  0.563553  0.649360  1
  I  I16  1  0.078042  0.223987  0.674411  1
  I  I17  1  0.325590  0.921959  0.776013  1
  I  I18  1  0.563553  0.649360  0.881292  1
  I  I19  1  0.776013  0.325590  0.921958  1
