# generated using pymatgen
data_CeHo(MnAl5)4
_symmetry_space_group_name_H-M   'P 1'
_cell_length_a   6.81109818
_cell_length_b   6.81109897
_cell_length_c   9.05748401
_cell_angle_alpha   89.99520578
_cell_angle_beta   90.00479518
_cell_angle_gamma   97.47322912
_symmetry_Int_Tables_number   1
_chemical_formula_structural   CeHo(MnAl5)4
_chemical_formula_sum   'Ce1 Ho1 Mn4 Al20'
_cell_volume   416.61714424
_cell_formula_units_Z   1
loop_
 _symmetry_equiv_pos_site_id
 _symmetry_equiv_pos_as_xyz
  1  'x, y, z'
loop_
 _atom_site_type_symbol
 _atom_site_label
 _atom_site_symmetry_multiplicity
 _atom_site_fract_x
 _atom_site_fract_y
 _atom_site_fract_z
 _atom_site_occupancy
  Ce  Ce0  1  0.874438  0.125562  0.749965  1
  Ho  Ho1  1  0.126244  0.873756  0.249978  1
  Mn  Mn2  1  0.999660  0.499043  0.499783  1
  Mn  Mn3  1  0.999678  0.499052  0.000235  1
  Mn  Mn4  1  0.500948  0.000322  0.000235  1
  Mn  Mn5  1  0.500957  0.000340  0.499783  1
  Al  Al6  1  0.625571  0.374429  0.545789  1
  Al  Al7  1  0.373961  0.626039  0.454780  1
  Al  Al8  1  0.373968  0.626032  0.045268  1
  Al  Al9  1  0.625587  0.374413  0.954155  1
  Al  Al10  1  0.229204  0.228974  0.498888  1
  Al  Al11  1  0.771026  0.770796  0.498888  1
  Al  Al12  1  0.770973  0.770747  0.001116  1
  Al  Al13  1  0.229253  0.229027  0.001116  1
  Al  Al14  1  0.842987  0.157013  0.097466  1
  Al  Al15  1  0.157920  0.842080  0.903281  1
  Al  Al16  1  0.157863  0.842137  0.596637  1
  Al  Al17  1  0.843037  0.156963  0.402598  1
  Al  Al18  1  0.867392  0.590168  0.750004  1
  Al  Al19  1  0.132269  0.412437  0.250011  1
  Al  Al20  1  0.409832  0.132608  0.750004  1
  Al  Al21  1  0.587563  0.867731  0.250011  1
  Al  Al22  1  0.218715  0.476742  0.749955  1
  Al  Al23  1  0.782508  0.524814  0.250048  1
  Al  Al24  1  0.523258  0.781285  0.749955  1
  Al  Al25  1  0.475186  0.217492  0.250048  1
