# generated using pymatgen
data_Dy4Er7TmRh4
_symmetry_space_group_name_H-M   'P 1'
_cell_length_a   6.28574018
_cell_length_b   7.15569051
_cell_length_c   9.33765302
_cell_angle_alpha   90.00790684
_cell_angle_beta   89.95129454
_cell_angle_gamma   90.01376406
_symmetry_Int_Tables_number   1
_chemical_formula_structural   Dy4Er7TmRh4
_chemical_formula_sum   'Dy4 Er7 Tm1 Rh4'
_cell_volume   419.99636603
_cell_formula_units_Z   1
loop_
 _symmetry_equiv_pos_site_id
 _symmetry_equiv_pos_as_xyz
  1  'x, y, z'
loop_
 _atom_site_type_symbol
 _atom_site_label
 _atom_site_symmetry_multiplicity
 _atom_site_fract_x
 _atom_site_fract_y
 _atom_site_fract_z
 _atom_site_occupancy
  Dy  Dy0  1  0.867214  0.965845  0.749932  1
  Dy  Dy1  1  0.367213  0.534241  0.250105  1
  Dy  Dy2  1  0.632711  0.465933  0.749821  1
  Dy  Dy3  1  0.132810  0.034090  0.250080  1
  Er  Er4  1  0.171534  0.322134  0.936818  1
  Er  Er5  1  0.828199  0.677775  0.436800  1
  Er  Er6  1  0.328358  0.822084  0.562967  1
  Er  Er7  1  0.328443  0.822085  0.936765  1
  Er  Er8  1  0.828458  0.677944  0.063162  1
  Er  Er9  1  0.171367  0.322241  0.563070  1
  Er  Er10  1  0.671438  0.177831  0.436989  1
  Tm  Tm11  1  0.671801  0.177863  0.063078  1
  Rh  Rh12  1  0.055982  0.616636  0.750240  1
  Rh  Rh13  1  0.556168  0.883375  0.250463  1
  Rh  Rh14  1  0.443990  0.116630  0.749398  1
  Rh  Rh15  1  0.944316  0.383294  0.250311  1
