# generated using pymatgen
data_PrTm(ZnSi)2
_symmetry_space_group_name_H-M   'P 1'
_cell_length_a   4.18818300
_cell_length_b   4.18818286
_cell_length_c   16.00468600
_cell_angle_alpha   90.00000000
_cell_angle_beta   90.00000000
_cell_angle_gamma   119.99999321
_symmetry_Int_Tables_number   1
_chemical_formula_structural   PrTm(ZnSi)2
_chemical_formula_sum   'Pr2 Tm2 Zn4 Si4'
_cell_volume   243.12471196
_cell_formula_units_Z   2
loop_
 _symmetry_equiv_pos_site_id
 _symmetry_equiv_pos_as_xyz
  1  'x, y, z'
loop_
 _atom_site_type_symbol
 _atom_site_label
 _atom_site_symmetry_multiplicity
 _atom_site_fract_x
 _atom_site_fract_y
 _atom_site_fract_z
 _atom_site_occupancy
  Pr  Pr0  1  0.000000  0.000000  0.000000  1
  Pr  Pr1  1  0.000000  0.000000  0.500000  1
  Tm  Tm2  1  0.000000  0.000000  0.250000  1
  Tm  Tm3  1  0.000000  0.000000  0.750000  1
  Zn  Zn4  1  0.333333  0.666667  0.148932  1
  Zn  Zn5  1  0.666667  0.333333  0.851068  1
  Zn  Zn6  1  0.666667  0.333333  0.648932  1
  Zn  Zn7  1  0.333333  0.666667  0.351068  1
  Si  Si8  1  0.333333  0.666667  0.623991  1
  Si  Si9  1  0.666667  0.333333  0.376009  1
  Si  Si10  1  0.666667  0.333333  0.123991  1
  Si  Si11  1  0.333333  0.666667  0.876009  1
