# generated using pymatgen
data_ErTaFe4P3
_symmetry_space_group_name_H-M   'P 1'
_cell_length_a   3.66786000
_cell_length_b   10.42936200
_cell_length_c   12.32873900
_cell_angle_alpha   90.00000000
_cell_angle_beta   90.00000000
_cell_angle_gamma   90.00000000
_symmetry_Int_Tables_number   1
_chemical_formula_structural   ErTaFe4P3
_chemical_formula_sum   'Er4 Ta4 Fe16 P12'
_cell_volume   471.61667398
_cell_formula_units_Z   4
loop_
 _symmetry_equiv_pos_site_id
 _symmetry_equiv_pos_as_xyz
  1  'x, y, z'
loop_
 _atom_site_type_symbol
 _atom_site_label
 _atom_site_symmetry_multiplicity
 _atom_site_fract_x
 _atom_site_fract_y
 _atom_site_fract_z
 _atom_site_occupancy
  Er  Er0  1  0.250000  0.583340  0.713263  1
  Er  Er1  1  0.250000  0.916660  0.213263  1
  Er  Er2  1  0.750000  0.416660  0.286737  1
  Er  Er3  1  0.750000  0.083340  0.786737  1
  Ta  Ta4  1  0.250000  0.703772  0.992179  1
  Ta  Ta5  1  0.250000  0.796228  0.492179  1
  Ta  Ta6  1  0.750000  0.296228  0.007821  1
  Ta  Ta7  1  0.750000  0.203772  0.507821  1
  Fe  Fe8  1  0.250000  0.416487  0.491458  1
  Fe  Fe9  1  0.250000  0.083514  0.991458  1
  Fe  Fe10  1  0.750000  0.583513  0.508542  1
  Fe  Fe11  1  0.750000  0.916487  0.008542  1
  Fe  Fe12  1  0.250000  0.216221  0.170929  1
  Fe  Fe13  1  0.250000  0.283779  0.670929  1
  Fe  Fe14  1  0.750000  0.783779  0.829071  1
  Fe  Fe15  1  0.750000  0.716221  0.329071  1
  Fe  Fe16  1  0.250000  0.879199  0.697528  1
  Fe  Fe17  1  0.250000  0.620801  0.197528  1
  Fe  Fe18  1  0.750000  0.120801  0.302472  1
  Fe  Fe19  1  0.750000  0.379199  0.802472  1
  Fe  Fe20  1  0.250000  0.463840  0.933853  1
  Fe  Fe21  1  0.250000  0.036160  0.433853  1
  Fe  Fe22  1  0.750000  0.536160  0.066147  1
  Fe  Fe23  1  0.750000  0.963840  0.566147  1
  P  P24  1  0.250000  0.424746  0.113720  1
  P  P25  1  0.250000  0.075254  0.613720  1
  P  P26  1  0.750000  0.575254  0.886280  1
  P  P27  1  0.750000  0.924746  0.386280  1
  P  P28  1  0.250000  0.272723  0.854829  1
  P  P29  1  0.250000  0.227277  0.354829  1
  P  P30  1  0.750000  0.727277  0.145171  1
  P  P31  1  0.750000  0.772723  0.645171  1
  P  P32  1  0.250000  0.596109  0.376005  1
  P  P33  1  0.250000  0.903891  0.876005  1
  P  P34  1  0.750000  0.403891  0.623995  1
  P  P35  1  0.750000  0.096109  0.123995  1
