# generated using pymatgen
data_Ce2Dy14Mg3Co4Hg
_symmetry_space_group_name_H-M   'P 1'
_cell_length_a   9.37638534
_cell_length_b   9.60716420
_cell_length_c   9.60716431
_cell_angle_alpha   58.86476531
_cell_angle_beta   61.30899055
_cell_angle_gamma   61.30898348
_symmetry_Int_Tables_number   1
_chemical_formula_structural   Ce2Dy14Mg3Co4Hg
_chemical_formula_sum   'Ce2 Dy14 Mg3 Co4 Hg1'
_cell_volume   618.05057947
_cell_formula_units_Z   1
loop_
 _symmetry_equiv_pos_site_id
 _symmetry_equiv_pos_as_xyz
  1  'x, y, z'
loop_
 _atom_site_type_symbol
 _atom_site_label
 _atom_site_symmetry_multiplicity
 _atom_site_fract_x
 _atom_site_fract_y
 _atom_site_fract_z
 _atom_site_occupancy
  Ce  Ce0  1  0.817453  0.182458  0.182458  1
  Ce  Ce1  1  0.181171  0.817131  0.817131  1
  Dy  Dy2  1  0.187808  0.812033  0.188192  1
  Dy  Dy3  1  0.809462  0.190499  0.810037  1
  Dy  Dy4  1  0.187808  0.188192  0.812033  1
  Dy  Dy5  1  0.809462  0.810037  0.190499  1
  Dy  Dy6  1  0.924547  0.574211  0.574211  1
  Dy  Dy7  1  0.575745  0.924325  0.924325  1
  Dy  Dy8  1  0.558635  0.938042  0.557567  1
  Dy  Dy9  1  0.939659  0.559182  0.942508  1
  Dy  Dy10  1  0.558635  0.557567  0.938042  1
  Dy  Dy11  1  0.939659  0.942508  0.559182  1
  Dy  Dy12  1  0.333467  0.347891  0.347891  1
  Dy  Dy13  1  0.350416  0.334022  0.967269  1
  Dy  Dy14  1  0.350416  0.967269  0.334022  1
  Dy  Dy15  1  0.969567  0.348869  0.348869  1
  Mg  Mg16  1  0.578607  0.581908  0.264694  1
  Mg  Mg17  1  0.578607  0.264694  0.581908  1
  Mg  Mg18  1  0.266825  0.578362  0.578362  1
  Co  Co19  1  0.093477  0.155559  0.155559  1
  Co  Co20  1  0.153238  0.094231  0.595375  1
  Co  Co21  1  0.153238  0.595375  0.094231  1
  Co  Co22  1  0.595974  0.154800  0.154800  1
  Hg  Hg23  1  0.586125  0.580833  0.580833  1
