# generated using pymatgen
data_ErZr3(BRu)16
_symmetry_space_group_name_H-M   'P 1'
_cell_length_a   9.14165987
_cell_length_b   7.43149411
_cell_length_c   7.43149492
_cell_angle_alpha   89.91758418
_cell_angle_beta   114.01951005
_cell_angle_gamma   114.01950811
_symmetry_Int_Tables_number   1
_chemical_formula_structural   ErZr3(BRu)16
_chemical_formula_sum   'Er1 Zr3 B16 Ru16'
_cell_volume   412.97385744
_cell_formula_units_Z   1
loop_
 _symmetry_equiv_pos_site_id
 _symmetry_equiv_pos_as_xyz
  1  'x, y, z'
loop_
 _atom_site_type_symbol
 _atom_site_label
 _atom_site_symmetry_multiplicity
 _atom_site_fract_x
 _atom_site_fract_y
 _atom_site_fract_z
 _atom_site_occupancy
  Er  Er0  1  0.250000  0.125000  0.875001  1
  Zr  Zr1  1  0.750000  0.875000  0.125000  1
  Zr  Zr2  1  0.250000  0.625000  0.375000  1
  Zr  Zr3  1  0.750000  0.375000  0.625000  1
  B  B4  1  0.914587  0.288276  0.067995  1
  B  B5  1  0.413607  0.567875  0.124855  1
  B  B6  1  0.086393  0.211248  0.154268  1
  B  B7  1  0.585749  0.153343  0.211511  1
  B  B8  1  0.413872  0.067190  0.288461  1
  B  B9  1  0.914587  0.626311  0.346592  1
  B  B10  1  0.585413  0.653408  0.373689  1
  B  B11  1  0.086393  0.875144  0.432124  1
  B  B12  1  0.914251  0.125762  0.567593  1
  B  B13  1  0.413872  0.346682  0.625412  1
  B  B14  1  0.086128  0.374589  0.653317  1
  B  B15  1  0.585413  0.932006  0.711725  1
  B  B16  1  0.413607  0.845732  0.788752  1
  B  B17  1  0.914251  0.788489  0.846657  1
  B  B18  1  0.585749  0.432407  0.874238  1
  B  B19  1  0.086128  0.711540  0.932811  1
  Ru  Ru20  1  0.872908  0.550487  0.033648  1
  Ru  Ru21  1  0.374229  0.835492  0.052300  1
  Ru  Ru22  1  0.125771  0.947700  0.164509  1
  Ru  Ru23  1  0.628845  0.467496  0.178943  1
  Ru  Ru24  1  0.374790  0.339586  0.324405  1
  Ru  Ru25  1  0.872908  0.322420  0.339260  1
  Ru  Ru26  1  0.627092  0.966352  0.449513  1
  Ru  Ru27  1  0.125771  0.178071  0.461263  1
  Ru  Ru28  1  0.871155  0.821058  0.532504  1
  Ru  Ru29  1  0.374790  0.035204  0.550385  1
  Ru  Ru30  1  0.125210  0.675594  0.660413  1
  Ru  Ru31  1  0.627092  0.660740  0.677580  1
  Ru  Ru32  1  0.374229  0.538738  0.821930  1
  Ru  Ru33  1  0.871155  0.050097  0.838653  1
  Ru  Ru34  1  0.628845  0.161348  0.949903  1
  Ru  Ru35  1  0.125210  0.449616  0.964797  1
