# generated using pymatgen
data_Tb16In4Os3Pt
_symmetry_space_group_name_H-M   'P 1'
_cell_length_a   9.68704219
_cell_length_b   9.73924963
_cell_length_c   9.73924800
_cell_angle_alpha   59.99999873
_cell_angle_beta   59.82155777
_cell_angle_gamma   59.82156039
_symmetry_Int_Tables_number   1
_chemical_formula_structural   Tb16In4Os3Pt
_chemical_formula_sum   'Tb16 In4 Os3 Pt1'
_cell_volume   647.96340726
_cell_formula_units_Z   1
loop_
 _symmetry_equiv_pos_site_id
 _symmetry_equiv_pos_as_xyz
  1  'x, y, z'
loop_
 _atom_site_type_symbol
 _atom_site_label
 _atom_site_symmetry_multiplicity
 _atom_site_fract_x
 _atom_site_fract_y
 _atom_site_fract_z
 _atom_site_occupancy
  Tb  Tb0  1  0.810790  0.807122  0.191044  1
  Tb  Tb1  1  0.810790  0.191044  0.807122  1
  Tb  Tb2  1  0.186696  0.196472  0.808417  1
  Tb  Tb3  1  0.653405  0.047680  0.649458  1
  Tb  Tb4  1  0.059739  0.057582  0.441340  1
  Tb  Tb5  1  0.443776  0.435165  0.060529  1
  Tb  Tb6  1  0.653405  0.649458  0.649458  1
  Tb  Tb7  1  0.810790  0.191044  0.191044  1
  Tb  Tb8  1  0.186696  0.808417  0.808417  1
  Tb  Tb9  1  0.041271  0.652910  0.652910  1
  Tb  Tb10  1  0.443776  0.060529  0.060529  1
  Tb  Tb11  1  0.443776  0.060529  0.435165  1
  Tb  Tb12  1  0.059739  0.441340  0.057582  1
  Tb  Tb13  1  0.653405  0.649458  0.047680  1
  Tb  Tb14  1  0.186696  0.808417  0.196472  1
  Tb  Tb15  1  0.059739  0.441340  0.441340  1
  In  In16  1  0.418190  0.417898  0.417898  1
  In  In17  1  0.418190  0.417898  0.746012  1
  In  In18  1  0.418190  0.746012  0.417898  1
  In  In19  1  0.747991  0.417336  0.417336  1
  Os  Os20  1  0.856713  0.421076  0.861106  1
  Os  Os21  1  0.856713  0.861106  0.861106  1
  Os  Os22  1  0.856713  0.861106  0.421076  1
  Pt  Pt23  1  0.422815  0.859062  0.859062  1
