# generated using pymatgen
data_KLiNp(P3Pd10)2
_symmetry_space_group_name_H-M   'P 1'
_cell_length_a   8.68686039
_cell_length_b   8.68774011
_cell_length_c   8.68367621
_cell_angle_alpha   60.03344819
_cell_angle_beta   60.03614108
_cell_angle_gamma   60.01932698
_symmetry_Int_Tables_number   1
_chemical_formula_structural   KLiNp(P3Pd10)2
_chemical_formula_sum   'K1 Li1 Np1 P6 Pd20'
_cell_volume   463.71372628
_cell_formula_units_Z   1
loop_
 _symmetry_equiv_pos_site_id
 _symmetry_equiv_pos_as_xyz
  1  'x, y, z'
loop_
 _atom_site_type_symbol
 _atom_site_label
 _atom_site_symmetry_multiplicity
 _atom_site_fract_x
 _atom_site_fract_y
 _atom_site_fract_z
 _atom_site_occupancy
  K  K0  1  0.249995  0.249896  0.250053  1
  Li  Li1  1  0.000067  0.999944  0.999980  1
  Np  Np2  1  0.749951  0.750203  0.749986  1
  P  P3  1  0.738991  0.260951  0.261018  1
  P  P4  1  0.260882  0.738999  0.739062  1
  P  P5  1  0.261117  0.738837  0.261166  1
  P  P6  1  0.738835  0.261119  0.738827  1
  P  P7  1  0.260847  0.260779  0.739175  1
  P  P8  1  0.739074  0.739046  0.260942  1
  Pd  Pd9  1  0.390462  0.390197  0.390960  1
  Pd  Pd10  1  0.616777  0.616660  0.616668  1
  Pd  Pd11  1  0.389980  0.390624  0.828512  1
  Pd  Pd12  1  0.390738  0.828791  0.390486  1
  Pd  Pd13  1  0.616721  0.616719  0.149844  1
  Pd  Pd14  1  0.616773  0.149784  0.616728  1
  Pd  Pd15  1  0.828832  0.390744  0.389925  1
  Pd  Pd16  1  0.149509  0.616959  0.616793  1
  Pd  Pd17  1  0.349299  0.994504  0.994777  1
  Pd  Pd18  1  0.661666  0.994534  0.994462  1
  Pd  Pd19  1  0.994506  0.349325  0.661480  1
  Pd  Pd20  1  0.994587  0.661539  0.349381  1
  Pd  Pd21  1  0.994782  0.349161  0.994466  1
  Pd  Pd22  1  0.661729  0.994281  0.349272  1
  Pd  Pd23  1  0.994259  0.661641  0.994738  1
  Pd  Pd24  1  0.349398  0.994591  0.661559  1
  Pd  Pd25  1  0.994463  0.994807  0.349158  1
  Pd  Pd26  1  0.994841  0.994434  0.661584  1
  Pd  Pd27  1  0.661362  0.349617  0.994675  1
  Pd  Pd28  1  0.349558  0.661318  0.994325  1
