# generated using pymatgen
data_CsAsP2S7
_symmetry_space_group_name_H-M   'P 1'
_cell_length_a   6.76844635
_cell_length_b   6.76844563
_cell_length_c   7.15502208
_cell_angle_alpha   85.01688940
_cell_angle_beta   85.01688810
_cell_angle_gamma   98.53884010
_symmetry_Int_Tables_number   1
_chemical_formula_structural   CsAsP2S7
_chemical_formula_sum   'Cs1 As1 P2 S7'
_cell_volume   321.26649317
_cell_formula_units_Z   1
loop_
 _symmetry_equiv_pos_site_id
 _symmetry_equiv_pos_as_xyz
  1  'x, y, z'
loop_
 _atom_site_type_symbol
 _atom_site_label
 _atom_site_symmetry_multiplicity
 _atom_site_fract_x
 _atom_site_fract_y
 _atom_site_fract_z
 _atom_site_occupancy
  Cs  Cs0  1  0.104581  0.895419  0.000000  1
  As  As1  1  0.499508  0.500492  0.500000  1
  P  P2  1  0.659182  0.945998  0.581531  1
  P  P3  1  0.054002  0.340818  0.418469  1
  S  S4  1  0.646397  0.693585  0.763106  1
  S  S5  1  0.306415  0.353603  0.236894  1
  S  S6  1  0.527054  0.852935  0.349323  1
  S  S7  1  0.147065  0.472946  0.650677  1
  S  S8  1  0.551124  0.161257  0.715542  1
  S  S9  1  0.838743  0.448876  0.284458  1
  S  S10  1  0.978110  0.021890  0.500000  1
