# generated using pymatgen
data_BaHoFeO4
_symmetry_space_group_name_H-M   'P 1'
_cell_length_a   5.75935900
_cell_length_b   10.38314100
_cell_length_c   13.35618300
_cell_angle_alpha   90.00000000
_cell_angle_beta   90.00000000
_cell_angle_gamma   90.00000000
_symmetry_Int_Tables_number   1
_chemical_formula_structural   BaHoFeO4
_chemical_formula_sum   'Ba8 Ho8 Fe8 O32'
_cell_volume   798.70290303
_cell_formula_units_Z   8
loop_
 _symmetry_equiv_pos_site_id
 _symmetry_equiv_pos_as_xyz
  1  'x, y, z'
loop_
 _atom_site_type_symbol
 _atom_site_label
 _atom_site_symmetry_multiplicity
 _atom_site_fract_x
 _atom_site_fract_y
 _atom_site_fract_z
 _atom_site_occupancy
  Ba  Ba0  1  0.250000  0.826608  0.712462  1
  Ba  Ba1  1  0.250000  0.673392  0.212462  1
  Ba  Ba2  1  0.750000  0.173392  0.287538  1
  Ba  Ba3  1  0.750000  0.326608  0.787538  1
  Ba  Ba4  1  0.250000  0.103161  0.915452  1
  Ba  Ba5  1  0.250000  0.396839  0.415452  1
  Ba  Ba6  1  0.750000  0.896839  0.084548  1
  Ba  Ba7  1  0.750000  0.603161  0.584548  1
  Ho  Ho8  1  0.250000  0.486017  0.915753  1
  Ho  Ho9  1  0.250000  0.013983  0.415753  1
  Ho  Ho10  1  0.750000  0.513983  0.084247  1
  Ho  Ho11  1  0.750000  0.986017  0.584247  1
  Ho  Ho12  1  0.250000  0.190251  0.643017  1
  Ho  Ho13  1  0.250000  0.309749  0.143017  1
  Ho  Ho14  1  0.750000  0.809749  0.356983  1
  Ho  Ho15  1  0.750000  0.690251  0.856983  1
  Fe  Fe16  1  0.250000  0.782599  0.969057  1
  Fe  Fe17  1  0.250000  0.717401  0.469057  1
  Fe  Fe18  1  0.750000  0.217401  0.030943  1
  Fe  Fe19  1  0.750000  0.282599  0.530943  1
  Fe  Fe20  1  0.250000  0.476752  0.693042  1
  Fe  Fe21  1  0.250000  0.023248  0.193042  1
  Fe  Fe22  1  0.750000  0.523248  0.306958  1
  Fe  Fe23  1  0.750000  0.976752  0.806958  1
  O  O24  1  0.250000  0.881292  0.088687  1
  O  O25  1  0.250000  0.618708  0.588687  1
  O  O26  1  0.750000  0.118708  0.911313  1
  O  O27  1  0.750000  0.381292  0.411313  1
  O  O28  1  0.250000  0.318840  0.790357  1
  O  O29  1  0.250000  0.181160  0.290357  1
  O  O30  1  0.750000  0.681160  0.209643  1
  O  O31  1  0.750000  0.818840  0.709643  1
  O  O32  1  0.508623  0.138515  0.507614  1
  O  O33  1  0.991377  0.361485  0.007614  1
  O  O34  1  0.008623  0.861485  0.492386  1
  O  O35  1  0.491377  0.638515  0.992386  1
  O  O36  1  0.491377  0.861485  0.492386  1
  O  O37  1  0.008623  0.638515  0.992386  1
  O  O38  1  0.991377  0.138515  0.507614  1
  O  O39  1  0.508623  0.361485  0.007614  1
  O  O40  1  0.509647  0.058007  0.716166  1
  O  O41  1  0.990353  0.441993  0.216166  1
  O  O42  1  0.009647  0.941993  0.283834  1
  O  O43  1  0.490353  0.558007  0.783834  1
  O  O44  1  0.490353  0.941993  0.283834  1
  O  O45  1  0.009647  0.558007  0.783834  1
  O  O46  1  0.990353  0.058007  0.716166  1
  O  O47  1  0.509647  0.441993  0.216166  1
  O  O48  1  0.000003  0.366911  0.611361  1
  O  O49  1  0.499997  0.133089  0.111361  1
  O  O50  1  0.500003  0.633089  0.388639  1
  O  O51  1  0.999997  0.866911  0.888639  1
  O  O52  1  0.999997  0.633089  0.388639  1
  O  O53  1  0.500003  0.866911  0.888639  1
  O  O54  1  0.499997  0.366911  0.611361  1
  O  O55  1  0.000003  0.133089  0.111361  1
