# generated using pymatgen
data_Er4Lu4Tc3B24Rh
_symmetry_space_group_name_H-M   'P 1'
_cell_length_a   3.62750700
_cell_length_b   9.06806034
_cell_length_c   11.44337506
_cell_angle_alpha   90.10920467
_cell_angle_beta   90.00000000
_cell_angle_gamma   90.00000000
_symmetry_Int_Tables_number   1
_chemical_formula_structural   Er4Lu4Tc3B24Rh
_chemical_formula_sum   'Er4 Lu4 Tc3 B24 Rh1'
_cell_volume   376.42287232
_cell_formula_units_Z   1
loop_
 _symmetry_equiv_pos_site_id
 _symmetry_equiv_pos_as_xyz
  1  'x, y, z'
loop_
 _atom_site_type_symbol
 _atom_site_label
 _atom_site_symmetry_multiplicity
 _atom_site_fract_x
 _atom_site_fract_y
 _atom_site_fract_z
 _atom_site_occupancy
  Er  Er0  1  0.500000  0.317330  0.415836  1
  Er  Er1  1  0.500000  0.678903  0.591141  1
  Er  Er2  1  0.500000  0.178021  0.912751  1
  Er  Er3  1  0.500000  0.826620  0.081080  1
  Lu  Lu4  1  0.500000  0.440442  0.128573  1
  Lu  Lu5  1  0.500000  0.557229  0.871054  1
  Lu  Lu6  1  0.500000  0.056290  0.629461  1
  Lu  Lu7  1  0.500000  0.943829  0.370052  1
  Tc  Tc8  1  0.500000  0.138567  0.180681  1
  Tc  Tc9  1  0.500000  0.861523  0.820294  1
  Tc  Tc10  1  0.500000  0.362401  0.678256  1
  B  B11  1  0.000000  0.099913  0.471862  1
  B  B12  1  0.000000  0.896945  0.527711  1
  B  B13  1  0.000000  0.398880  0.972373  1
  B  B14  1  0.000000  0.602268  0.028761  1
  B  B15  1  0.000000  0.129819  0.315737  1
  B  B16  1  0.000000  0.869534  0.684742  1
  B  B17  1  0.000000  0.370345  0.814935  1
  B  B18  1  0.000000  0.630653  0.183374  1
  B  B19  1  0.000000  0.053580  0.066353  1
  B  B20  1  0.000000  0.947427  0.932764  1
  B  B21  1  0.000000  0.446436  0.566298  1
  B  B22  1  0.000000  0.553924  0.434125  1
  B  B23  1  0.000000  0.481936  0.287668  1
  B  B24  1  0.000000  0.519111  0.712557  1
  B  B25  1  0.000000  0.018764  0.786856  1
  B  B26  1  0.000000  0.981527  0.212245  1
  B  B27  1  0.000000  0.250204  0.081038  1
  B  B28  1  0.000000  0.750801  0.919059  1
  B  B29  1  0.000000  0.249260  0.580805  1
  B  B30  1  0.000000  0.749842  0.420474  1
  B  B31  1  0.000000  0.292279  0.235798  1
  B  B32  1  0.000000  0.707936  0.765429  1
  B  B33  1  0.000000  0.208085  0.734650  1
  B  B34  1  0.000000  0.791453  0.264520  1
  Rh  Rh35  1  0.500000  0.637923  0.320692  1
