# generated using pymatgen
data_Cr(AsSe2)3
_symmetry_space_group_name_H-M   'P 1'
_cell_length_a   7.24507127
_cell_length_b   7.24506964
_cell_length_c   9.46557165
_cell_angle_alpha   84.34186269
_cell_angle_beta   84.34186314
_cell_angle_gamma   30.09445857
_symmetry_Int_Tables_number   1
_chemical_formula_structural   Cr(AsSe2)3
_chemical_formula_sum   'Cr1 As3 Se6'
_cell_volume   247.83613678
_cell_formula_units_Z   1
loop_
 _symmetry_equiv_pos_site_id
 _symmetry_equiv_pos_as_xyz
  1  'x, y, z'
loop_
 _atom_site_type_symbol
 _atom_site_label
 _atom_site_symmetry_multiplicity
 _atom_site_fract_x
 _atom_site_fract_y
 _atom_site_fract_z
 _atom_site_occupancy
  Cr  Cr0  1  0.202343  0.202343  0.850689  1
  As  As1  1  0.791927  0.791927  0.129734  1
  As  As2  1  0.622057  0.622057  0.555575  1
  As  As3  1  0.381188  0.381188  0.439374  1
  Se  Se4  1  0.050624  0.050624  0.720880  1
  Se  Se5  1  0.963356  0.963356  0.296948  1
  Se  Se6  1  0.767273  0.767273  0.679053  1
  Se  Se7  1  0.222834  0.222834  0.349283  1
  Se  Se8  1  0.360194  0.360194  0.963299  1
  Se  Se9  1  0.638205  0.638205  0.015166  1
