# generated using pymatgen
data_Ba2YGaS5
_symmetry_space_group_name_H-M   'P 1'
_cell_length_a   7.15641217
_cell_length_b   8.47750966
_cell_length_c   9.19363533
_cell_angle_alpha   103.57075917
_cell_angle_beta   103.15619743
_cell_angle_gamma   107.43927197
_symmetry_Int_Tables_number   1
_chemical_formula_structural   Ba2YGaS5
_chemical_formula_sum   'Ba4 Y2 Ga2 S10'
_cell_volume   489.85192909
_cell_formula_units_Z   2
loop_
 _symmetry_equiv_pos_site_id
 _symmetry_equiv_pos_as_xyz
  1  'x, y, z'
loop_
 _atom_site_type_symbol
 _atom_site_label
 _atom_site_symmetry_multiplicity
 _atom_site_fract_x
 _atom_site_fract_y
 _atom_site_fract_z
 _atom_site_occupancy
  Ba  Ba0  1  0.632715  0.977087  0.288545  1
  Ba  Ba1  1  0.367285  0.022913  0.711455  1
  Ba  Ba2  1  0.338854  0.509875  0.705732  1
  Ba  Ba3  1  0.661146  0.490125  0.294268  1
  Y  Y4  1  0.997383  0.729115  0.998158  1
  Y  Y5  1  0.002617  0.270885  0.001842  1
  Ga  Ga6  1  0.806742  0.872401  0.689249  1
  Ga  Ga7  1  0.193258  0.127599  0.310751  1
  S  S8  1  0.988288  0.690145  0.689360  1
  S  S9  1  0.011712  0.309855  0.310640  1
  S  S10  1  0.984852  0.148663  0.692390  1
  S  S11  1  0.015148  0.851337  0.307610  1
  S  S12  1  0.717834  0.908669  0.923166  1
  S  S13  1  0.282166  0.091331  0.076834  1
  S  S14  1  0.713074  0.413150  0.947845  1
  S  S15  1  0.286926  0.586850  0.052155  1
  S  S16  1  0.499062  0.745188  0.496624  1
  S  S17  1  0.500938  0.254812  0.503376  1
