# generated using pymatgen
data_BeNi3P2Pd3
_symmetry_space_group_name_H-M   'P 1'
_cell_length_a   6.06943400
_cell_length_b   6.06943434
_cell_length_c   3.42156200
_cell_angle_alpha   90.00000000
_cell_angle_beta   90.00000000
_cell_angle_gamma   119.99998725
_symmetry_Int_Tables_number   1
_chemical_formula_structural   BeNi3P2Pd3
_chemical_formula_sum   'Be1 Ni3 P2 Pd3'
_cell_volume   109.15698011
_cell_formula_units_Z   1
loop_
 _symmetry_equiv_pos_site_id
 _symmetry_equiv_pos_as_xyz
  1  'x, y, z'
loop_
 _atom_site_type_symbol
 _atom_site_label
 _atom_site_symmetry_multiplicity
 _atom_site_fract_x
 _atom_site_fract_y
 _atom_site_fract_z
 _atom_site_occupancy
  Be  Be0  1  0.666667  0.333333  0.000000  1
  Ni  Ni1  1  0.737307  0.758134  0.000000  1
  Ni  Ni2  1  0.241866  0.979173  0.000000  1
  Ni  Ni3  1  0.020827  0.262693  0.000000  1
  P  P4  1  0.333333  0.666667  0.000000  1
  P  P5  1  0.000000  0.000000  0.500000  1
  Pd  Pd6  1  0.417648  0.391279  0.500000  1
  Pd  Pd7  1  0.608721  0.026369  0.500000  1
  Pd  Pd8  1  0.973631  0.582352  0.500000  1
