# generated using pymatgen
data_Pr4Er4Tc3B24Os
_symmetry_space_group_name_H-M   'P 1'
_cell_length_a   3.72939800
_cell_length_b   9.23178693
_cell_length_c   11.70336207
_cell_angle_alpha   89.96075611
_cell_angle_beta   90.00000000
_cell_angle_gamma   90.00000000
_symmetry_Int_Tables_number   1
_chemical_formula_structural   Pr4Er4Tc3B24Os
_chemical_formula_sum   'Pr4 Er4 Tc3 B24 Os1'
_cell_volume   402.93504841
_cell_formula_units_Z   1
loop_
 _symmetry_equiv_pos_site_id
 _symmetry_equiv_pos_as_xyz
  1  'x, y, z'
loop_
 _atom_site_type_symbol
 _atom_site_label
 _atom_site_symmetry_multiplicity
 _atom_site_fract_x
 _atom_site_fract_y
 _atom_site_fract_z
 _atom_site_occupancy
  Pr  Pr0  1  0.000000  0.322887  0.414188  1
  Pr  Pr1  1  0.000000  0.675992  0.584177  1
  Pr  Pr2  1  0.000000  0.822636  0.086831  1
  Pr  Pr3  1  0.000000  0.178210  0.915149  1
  Er  Er4  1  0.000000  0.942530  0.368871  1
  Er  Er5  1  0.000000  0.058430  0.630984  1
  Er  Er6  1  0.000000  0.442886  0.131387  1
  Er  Er7  1  0.000000  0.556902  0.868465  1
  Tc  Tc8  1  0.000000  0.639801  0.318665  1
  Tc  Tc9  1  0.000000  0.360242  0.681847  1
  Tc  Tc10  1  0.000000  0.139105  0.180596  1
  B  B11  1  0.500000  0.555545  0.429658  1
  B  B12  1  0.500000  0.444360  0.570064  1
  B  B13  1  0.500000  0.055618  0.070196  1
  B  B14  1  0.500000  0.943897  0.929732  1
  B  B15  1  0.500000  0.750094  0.415388  1
  B  B16  1  0.500000  0.249654  0.584729  1
  B  B17  1  0.500000  0.250681  0.084640  1
  B  B18  1  0.500000  0.750078  0.915018  1
  B  B19  1  0.500000  0.791132  0.266202  1
  B  B20  1  0.500000  0.209086  0.734260  1
  B  B21  1  0.500000  0.290971  0.233928  1
  B  B22  1  0.500000  0.709551  0.765838  1
  B  B23  1  0.500000  0.629330  0.186214  1
  B  B24  1  0.500000  0.370701  0.814230  1
  B  B25  1  0.500000  0.128979  0.313518  1
  B  B26  1  0.500000  0.870655  0.686380  1
  B  B27  1  0.500000  0.984017  0.213444  1
  B  B28  1  0.500000  0.014945  0.786870  1
  B  B29  1  0.500000  0.484409  0.286327  1
  B  B30  1  0.500000  0.515395  0.713345  1
  B  B31  1  0.500000  0.596394  0.026210  1
  B  B32  1  0.500000  0.404429  0.973532  1
  B  B33  1  0.500000  0.095986  0.473852  1
  B  B34  1  0.500000  0.904145  0.526700  1
  Os  Os35  1  0.000000  0.860328  0.818562  1
