# generated using pymatgen
data_Tb10InSn5Cl2
_symmetry_space_group_name_H-M   'P 1'
_cell_length_a   9.15683177
_cell_length_b   9.15683003
_cell_length_c   6.60327900
_cell_angle_alpha   90.00000000
_cell_angle_beta   90.00000000
_cell_angle_gamma   119.89598915
_symmetry_Int_Tables_number   1
_chemical_formula_structural   Tb10InSn5Cl2
_chemical_formula_sum   'Tb10 In1 Sn5 Cl2'
_cell_volume   479.99298499
_cell_formula_units_Z   1
loop_
 _symmetry_equiv_pos_site_id
 _symmetry_equiv_pos_as_xyz
  1  'x, y, z'
loop_
 _atom_site_type_symbol
 _atom_site_label
 _atom_site_symmetry_multiplicity
 _atom_site_fract_x
 _atom_site_fract_y
 _atom_site_fract_z
 _atom_site_occupancy
  Tb  Tb0  1  0.666499  0.333867  0.000717  1
  Tb  Tb1  1  0.333867  0.666499  0.499283  1
  Tb  Tb2  1  0.666499  0.333867  0.499283  1
  Tb  Tb3  1  0.333867  0.666499  0.000717  1
  Tb  Tb4  1  0.738498  0.999127  0.750000  1
  Tb  Tb5  1  0.739290  0.739290  0.250000  1
  Tb  Tb6  1  0.999980  0.260453  0.250000  1
  Tb  Tb7  1  0.999127  0.738498  0.750000  1
  Tb  Tb8  1  0.261170  0.261170  0.750000  1
  Tb  Tb9  1  0.260453  0.999980  0.250000  1
  In  In10  1  0.609730  0.609730  0.750000  1
  Sn  Sn11  1  0.000127  0.610501  0.250000  1
  Sn  Sn12  1  0.610501  0.000127  0.250000  1
  Sn  Sn13  1  0.389336  0.000063  0.750000  1
  Sn  Sn14  1  0.000063  0.389336  0.750000  1
  Sn  Sn15  1  0.390328  0.390328  0.250000  1
  Cl  Cl16  1  0.000332  0.000332  0.499704  1
  Cl  Cl17  1  0.000332  0.000332  0.000296  1
