# generated using pymatgen
data_Ta4Nb6Ir5
_symmetry_space_group_name_H-M   'P 1'
_cell_length_a   9.98626700
_cell_length_b   9.98626700
_cell_length_c   5.11002700
_cell_angle_alpha   90.00000000
_cell_angle_beta   90.00000000
_cell_angle_gamma   90.00000000
_symmetry_Int_Tables_number   1
_chemical_formula_structural   Ta4Nb6Ir5
_chemical_formula_sum   'Ta8 Nb12 Ir10'
_cell_volume   509.60014371
_cell_formula_units_Z   2
loop_
 _symmetry_equiv_pos_site_id
 _symmetry_equiv_pos_as_xyz
  1  'x, y, z'
loop_
 _atom_site_type_symbol
 _atom_site_label
 _atom_site_symmetry_multiplicity
 _atom_site_fract_x
 _atom_site_fract_y
 _atom_site_fract_z
 _atom_site_occupancy
  Ta  Ta0  1  0.129011  0.462457  0.000000  1
  Ta  Ta1  1  0.962457  0.370989  0.500000  1
  Ta  Ta2  1  0.037543  0.629011  0.500000  1
  Ta  Ta3  1  0.870989  0.537543  0.000000  1
  Ta  Ta4  1  0.370989  0.962457  0.500000  1
  Ta  Ta5  1  0.629011  0.037543  0.500000  1
  Ta  Ta6  1  0.462457  0.129011  0.000000  1
  Ta  Ta7  1  0.537543  0.870989  0.000000  1
  Nb  Nb8  1  0.394444  0.394444  0.000000  1
  Nb  Nb9  1  0.894444  0.105556  0.500000  1
  Nb  Nb10  1  0.105556  0.894444  0.500000  1
  Nb  Nb11  1  0.605556  0.605556  0.000000  1
  Nb  Nb12  1  0.178771  0.178771  0.251220  1
  Nb  Nb13  1  0.678771  0.321229  0.751220  1
  Nb  Nb14  1  0.321229  0.678771  0.751220  1
  Nb  Nb15  1  0.821229  0.821229  0.251220  1
  Nb  Nb16  1  0.321229  0.678771  0.248780  1
  Nb  Nb17  1  0.678771  0.321229  0.248780  1
  Nb  Nb18  1  0.178771  0.178771  0.748780  1
  Nb  Nb19  1  0.821229  0.821229  0.748780  1
  Ir  Ir20  1  0.000000  0.000000  0.000000  1
  Ir  Ir21  1  0.500000  0.500000  0.500000  1
  Ir  Ir22  1  0.262154  0.931036  0.000000  1
  Ir  Ir23  1  0.431036  0.237846  0.500000  1
  Ir  Ir24  1  0.568964  0.762154  0.500000  1
  Ir  Ir25  1  0.737846  0.068964  0.000000  1
  Ir  Ir26  1  0.237846  0.431036  0.500000  1
  Ir  Ir27  1  0.762154  0.568964  0.500000  1
  Ir  Ir28  1  0.931036  0.262154  0.000000  1
  Ir  Ir29  1  0.068964  0.737846  0.000000  1
