# generated using pymatgen
data_Th2Ga6CuPt
_symmetry_space_group_name_H-M   'P 1'
_cell_length_a   4.29262300
_cell_length_b   4.29262300
_cell_length_c   10.36780400
_cell_angle_alpha   90.00000000
_cell_angle_beta   90.00000000
_cell_angle_gamma   90.00000000
_symmetry_Int_Tables_number   1
_chemical_formula_structural   Th2Ga6CuPt
_chemical_formula_sum   'Th2 Ga6 Cu1 Pt1'
_cell_volume   191.04350388
_cell_formula_units_Z   1
loop_
 _symmetry_equiv_pos_site_id
 _symmetry_equiv_pos_as_xyz
  1  'x, y, z'
loop_
 _atom_site_type_symbol
 _atom_site_label
 _atom_site_symmetry_multiplicity
 _atom_site_fract_x
 _atom_site_fract_y
 _atom_site_fract_z
 _atom_site_occupancy
  Th  Th0  1  0.000000  0.000000  0.989323  1
  Th  Th1  1  0.500000  0.500000  0.488418  1
  Ga  Ga2  1  0.000000  0.500000  0.240678  1
  Ga  Ga3  1  0.500000  0.000000  0.749347  1
  Ga  Ga4  1  0.500000  0.000000  0.240678  1
  Ga  Ga5  1  0.000000  0.500000  0.749347  1
  Ga  Ga6  1  0.000000  0.000000  0.389635  1
  Ga  Ga7  1  0.500000  0.500000  0.900267  1
  Cu  Cu8  1  0.500000  0.500000  0.127189  1
  Pt  Pt9  1  0.000000  0.000000  0.625121  1
