# generated using pymatgen
data_Er5Si3Ge5P4Ir19
_symmetry_space_group_name_H-M   'P 1'
_cell_length_a   12.94898663
_cell_length_b   12.94126595
_cell_length_c   3.95829100
_cell_angle_alpha   90.00000000
_cell_angle_beta   90.00000000
_cell_angle_gamma   120.14280065
_symmetry_Int_Tables_number   1
_chemical_formula_structural   Er5Si3Ge5P4Ir19
_chemical_formula_sum   'Er5 Si3 Ge5 P4 Ir19'
_cell_volume   573.61984179
_cell_formula_units_Z   1
loop_
 _symmetry_equiv_pos_site_id
 _symmetry_equiv_pos_as_xyz
  1  'x, y, z'
loop_
 _atom_site_type_symbol
 _atom_site_label
 _atom_site_symmetry_multiplicity
 _atom_site_fract_x
 _atom_site_fract_y
 _atom_site_fract_z
 _atom_site_occupancy
  Er  Er0  1  0.668554  0.332532  0.000000  1
  Er  Er1  1  0.330492  0.663385  0.000000  1
  Er  Er2  1  0.813372  0.813412  0.500000  1
  Er  Er3  1  0.185948  0.001659  0.500000  1
  Er  Er4  1  0.001037  0.184611  0.500000  1
  Si  Si5  1  0.634826  0.634826  0.000000  1
  Si  Si6  1  0.364405  0.000340  0.000000  1
  Si  Si7  1  0.001404  0.363906  0.000000  1
  Ge  Ge8  1  0.682991  0.163059  0.500000  1
  Ge  Ge9  1  0.835582  0.518050  0.500000  1
  Ge  Ge10  1  0.484705  0.318382  0.500000  1
  Ge  Ge11  1  0.165227  0.684228  0.500000  1
  Ge  Ge12  1  0.514735  0.830440  0.500000  1
  P  P13  1  0.308298  0.481552  0.500000  1
  P  P14  1  0.178496  0.179298  0.000000  1
  P  P15  1  0.821582  0.995823  0.000000  1
  P  P16  1  0.999947  0.825076  0.000000  1
  Ir  Ir17  1  0.815684  0.176648  0.000000  1
  Ir  Ir18  1  0.821887  0.635983  0.000000  1
  Ir  Ir19  1  0.364145  0.187246  0.000000  1
  Ir  Ir20  1  0.178258  0.814494  0.000000  1
  Ir  Ir21  1  0.628909  0.815757  0.000000  1
  Ir  Ir22  1  0.200460  0.378598  0.000000  1
  Ir  Ir23  1  0.453255  0.447257  0.000000  1
  Ir  Ir24  1  0.550920  0.002430  0.000000  1
  Ir  Ir25  1  0.002205  0.549331  0.000000  1
  Ir  Ir26  1  0.276274  0.281921  0.500000  1
  Ir  Ir27  1  0.726676  0.996170  0.500000  1
  Ir  Ir28  1  0.000140  0.729770  0.500000  1
  Ir  Ir29  1  0.876120  0.355188  0.500000  1
  Ir  Ir30  1  0.644975  0.522275  0.500000  1
  Ir  Ir31  1  0.480218  0.125106  0.500000  1
  Ir  Ir32  1  0.356895  0.876809  0.500000  1
  Ir  Ir33  1  0.503211  0.630642  0.500000  1
  Ir  Ir34  1  0.126415  0.480850  0.500000  1
  Ir  Ir35  1  0.001750  0.002946  0.000000  1
