# generated using pymatgen
data_Gd6AlSn5Pd6
_symmetry_space_group_name_H-M   'P 1'
_cell_length_a   7.59694700
_cell_length_b   7.65891770
_cell_length_c   7.66107300
_cell_angle_alpha   89.98491846
_cell_angle_beta   90.00000000
_cell_angle_gamma   119.73268763
_symmetry_Int_Tables_number   1
_chemical_formula_structural   Gd6AlSn5Pd6
_chemical_formula_sum   'Gd6 Al1 Sn5 Pd6'
_cell_volume   387.07065154
_cell_formula_units_Z   1
loop_
 _symmetry_equiv_pos_site_id
 _symmetry_equiv_pos_as_xyz
  1  'x, y, z'
loop_
 _atom_site_type_symbol
 _atom_site_label
 _atom_site_symmetry_multiplicity
 _atom_site_fract_x
 _atom_site_fract_y
 _atom_site_fract_z
 _atom_site_occupancy
  Gd  Gd0  1  0.408465  0.001960  0.245885  1
  Gd  Gd1  1  0.597070  0.598411  0.248074  1
  Gd  Gd2  1  0.994999  0.399845  0.247809  1
  Gd  Gd3  1  0.406504  0.998040  0.754115  1
  Gd  Gd4  1  0.595153  0.600155  0.752191  1
  Gd  Gd5  1  0.998659  0.401589  0.751926  1
  Al  Al6  1  0.743674  0.000000  0.000000  1
  Sn  Sn7  1  0.261074  0.259508  0.500043  1
  Sn  Sn8  1  0.001564  0.740492  0.499957  1
  Sn  Sn9  1  0.996280  0.738397  0.999962  1
  Sn  Sn10  1  0.257883  0.261603  0.000038  1
  Sn  Sn11  1  0.736799  0.000000  0.500000  1
  Pd  Pd12  1  0.346166  0.677011  0.002891  1
  Pd  Pd13  1  0.332758  0.664739  0.496674  1
  Pd  Pd14  1  0.669158  0.322989  0.997109  1
  Pd  Pd15  1  0.668021  0.335261  0.503326  1
  Pd  Pd16  1  0.992911  0.000049  0.246059  1
  Pd  Pd17  1  0.992862  0.999951  0.753941  1
