# generated using pymatgen
data_Sm2Er2LuSn4
_symmetry_space_group_name_H-M   'P 1'
_cell_length_a   8.02865800
_cell_length_b   8.18455000
_cell_length_c   15.48035900
_cell_angle_alpha   90.00000000
_cell_angle_beta   90.00000000
_cell_angle_gamma   90.00000000
_symmetry_Int_Tables_number   1
_chemical_formula_structural   Sm2Er2LuSn4
_chemical_formula_sum   'Sm8 Er8 Lu4 Sn16'
_cell_volume   1017.22914010
_cell_formula_units_Z   4
loop_
 _symmetry_equiv_pos_site_id
 _symmetry_equiv_pos_as_xyz
  1  'x, y, z'
loop_
 _atom_site_type_symbol
 _atom_site_label
 _atom_site_symmetry_multiplicity
 _atom_site_fract_x
 _atom_site_fract_y
 _atom_site_fract_z
 _atom_site_occupancy
  Sm  Sm0  1  0.518101  0.321418  0.903239  1
  Sm  Sm1  1  0.018101  0.178582  0.596761  1
  Sm  Sm2  1  0.481899  0.678582  0.403239  1
  Sm  Sm3  1  0.981899  0.821418  0.096761  1
  Sm  Sm4  1  0.481899  0.678582  0.096761  1
  Sm  Sm5  1  0.981899  0.821418  0.403239  1
  Sm  Sm6  1  0.518101  0.321418  0.596761  1
  Sm  Sm7  1  0.018101  0.178582  0.903239  1
  Er  Er8  1  0.363639  0.836675  0.877002  1
  Er  Er9  1  0.863639  0.663325  0.622998  1
  Er  Er10  1  0.636361  0.163325  0.377002  1
  Er  Er11  1  0.136361  0.336675  0.122998  1
  Er  Er12  1  0.636361  0.163325  0.122998  1
  Er  Er13  1  0.136361  0.336675  0.377002  1
  Er  Er14  1  0.363639  0.836675  0.622998  1
  Er  Er15  1  0.863639  0.663325  0.877002  1
  Lu  Lu16  1  0.195952  0.504010  0.750000  1
  Lu  Lu17  1  0.695952  0.995990  0.750000  1
  Lu  Lu18  1  0.804048  0.495990  0.250000  1
  Lu  Lu19  1  0.304048  0.004010  0.250000  1
  Sn  Sn20  1  0.299479  0.039474  0.042277  1
  Sn  Sn21  1  0.799479  0.460526  0.457723  1
  Sn  Sn22  1  0.700521  0.960526  0.542277  1
  Sn  Sn23  1  0.200521  0.539474  0.957723  1
  Sn  Sn24  1  0.700521  0.960526  0.957723  1
  Sn  Sn25  1  0.200521  0.539474  0.542277  1
  Sn  Sn26  1  0.299479  0.039474  0.457723  1
  Sn  Sn27  1  0.799479  0.460526  0.042277  1
  Sn  Sn28  1  0.560820  0.621801  0.750000  1
  Sn  Sn29  1  0.060820  0.878199  0.750000  1
  Sn  Sn30  1  0.439180  0.378199  0.250000  1
  Sn  Sn31  1  0.939180  0.121801  0.250000  1
  Sn  Sn32  1  0.326775  0.146578  0.750000  1
  Sn  Sn33  1  0.826775  0.353422  0.750000  1
  Sn  Sn34  1  0.673225  0.853422  0.250000  1
  Sn  Sn35  1  0.173225  0.646578  0.250000  1
