# generated using pymatgen
data_Er19Th(Ir2Ru)4
_symmetry_space_group_name_H-M   'P 1'
_cell_length_a   10.76427107
_cell_length_b   10.73956264
_cell_length_c   6.38962244
_cell_angle_alpha   90.16653696
_cell_angle_beta   89.73032458
_cell_angle_gamma   90.02678707
_symmetry_Int_Tables_number   1
_chemical_formula_structural   Er19Th(Ir2Ru)4
_chemical_formula_sum   'Er19 Th1 Ir8 Ru4'
_cell_volume   738.65174514
_cell_formula_units_Z   1
loop_
 _symmetry_equiv_pos_site_id
 _symmetry_equiv_pos_as_xyz
  1  'x, y, z'
loop_
 _atom_site_type_symbol
 _atom_site_label
 _atom_site_symmetry_multiplicity
 _atom_site_fract_x
 _atom_site_fract_y
 _atom_site_fract_z
 _atom_site_occupancy
  Er  Er0  1  0.292952  0.911110  0.877464  1
  Er  Er1  1  0.707236  0.086872  0.877840  1
  Er  Er2  1  0.707465  0.912634  0.378133  1
  Er  Er3  1  0.587094  0.792642  0.877978  1
  Er  Er4  1  0.591531  0.209027  0.377565  1
  Er  Er5  1  0.415104  0.789014  0.376725  1
  Er  Er6  1  0.415227  0.208490  0.877304  1
  Er  Er7  1  0.206185  0.414691  0.622904  1
  Er  Er8  1  0.205905  0.586063  0.121805  1
  Er  Er9  1  0.793349  0.413978  0.122020  1
  Er  Er10  1  0.793419  0.586361  0.622565  1
  Er  Er11  1  0.913488  0.705890  0.121824  1
  Er  Er12  1  0.913235  0.293802  0.621308  1
  Er  Er13  1  0.086036  0.706002  0.623951  1
  Er  Er14  1  0.084005  0.295162  0.121487  1
  Er  Er15  1  0.996154  0.998732  0.501663  1
  Er  Er16  1  0.999764  0.999850  0.000579  1
  Er  Er17  1  0.500176  0.500558  0.000455  1
  Er  Er18  1  0.501095  0.500085  0.501080  1
  Th  Th19  1  0.294175  0.086501  0.377674  1
  Ir  Ir20  1  0.847226  0.152898  0.249377  1
  Ir  Ir21  1  0.847326  0.847678  0.750698  1
  Ir  Ir22  1  0.152993  0.151991  0.747078  1
  Ir  Ir23  1  0.153186  0.848714  0.251406  1
  Ir  Ir24  1  0.652629  0.347793  0.750433  1
  Ir  Ir25  1  0.652282  0.652723  0.249502  1
  Ir  Ir26  1  0.347163  0.346857  0.251202  1
  Ir  Ir27  1  0.347966  0.652122  0.750271  1
  Ru  Ru28  1  0.496963  0.000618  0.124684  1
  Ru  Ru29  1  0.499116  0.000481  0.620040  1
  Ru  Ru30  1  0.999712  0.500136  0.876530  1
  Ru  Ru31  1  0.999843  0.500526  0.376458  1
