# generated using pymatgen
data_Dy4HfZr(SnRh)6
_symmetry_space_group_name_H-M   'P 1'
_cell_length_a   7.54569337
_cell_length_b   7.48171494
_cell_length_c   7.59089900
_cell_angle_alpha   90.00000000
_cell_angle_beta   90.00000000
_cell_angle_gamma   119.93737575
_symmetry_Int_Tables_number   1
_chemical_formula_structural   Dy4HfZr(SnRh)6
_chemical_formula_sum   'Dy4 Hf1 Zr1 Sn6 Rh6'
_cell_volume   371.36234715
_cell_formula_units_Z   1
loop_
 _symmetry_equiv_pos_site_id
 _symmetry_equiv_pos_as_xyz
  1  'x, y, z'
loop_
 _atom_site_type_symbol
 _atom_site_label
 _atom_site_symmetry_multiplicity
 _atom_site_fract_x
 _atom_site_fract_y
 _atom_site_fract_z
 _atom_site_occupancy
  Dy  Dy0  1  0.001651  0.405072  0.750000  1
  Dy  Dy1  1  0.999898  0.403354  0.250000  1
  Dy  Dy2  1  0.589973  0.593774  0.250000  1
  Dy  Dy3  1  0.411094  0.003621  0.250000  1
  Hf  Hf4  1  0.395167  0.994976  0.750000  1
  Zr  Zr5  1  0.603949  0.600168  0.750000  1
  Sn  Sn6  1  0.263531  0.263365  0.507671  1
  Sn  Sn7  1  0.999534  0.735003  0.497066  1
  Sn  Sn8  1  0.999534  0.735003  0.002934  1
  Sn  Sn9  1  0.737708  0.000411  0.509365  1
  Sn  Sn10  1  0.737708  0.000411  0.990635  1
  Sn  Sn11  1  0.263531  0.263365  0.992329  1
  Rh  Rh12  1  0.341134  0.676488  0.524945  1
  Rh  Rh13  1  0.656074  0.328301  0.527591  1
  Rh  Rh14  1  0.341134  0.676488  0.975055  1
  Rh  Rh15  1  0.002483  0.988676  0.750000  1
  Rh  Rh16  1  0.999827  0.003223  0.250000  1
  Rh  Rh17  1  0.656074  0.328301  0.972409  1
