# generated using pymatgen
data_LaY7(CdNi)2
_symmetry_space_group_name_H-M   'P 1'
_cell_length_a   9.67972018
_cell_length_b   9.67971998
_cell_length_c   9.68263000
_cell_angle_alpha   59.99005472
_cell_angle_beta   59.99005540
_cell_angle_gamma   60.06438810
_symmetry_Int_Tables_number   1
_chemical_formula_structural   LaY7(CdNi)2
_chemical_formula_sum   'La2 Y14 Cd4 Ni4'
_cell_volume   641.72574272
_cell_formula_units_Z   2
loop_
 _symmetry_equiv_pos_site_id
 _symmetry_equiv_pos_as_xyz
  1  'x, y, z'
loop_
 _atom_site_type_symbol
 _atom_site_label
 _atom_site_symmetry_multiplicity
 _atom_site_fract_x
 _atom_site_fract_y
 _atom_site_fract_z
 _atom_site_occupancy
  La  La0  1  0.596558  0.596558  0.600930  1
  La  La1  1  0.596558  0.596558  0.205953  1
  Y  Y2  1  0.599829  0.197533  0.601319  1
  Y  Y3  1  0.197533  0.599829  0.601319  1
  Y  Y4  1  0.063965  0.438457  0.436422  1
  Y  Y5  1  0.438457  0.063965  0.061155  1
  Y  Y6  1  0.438457  0.063965  0.436422  1
  Y  Y7  1  0.063965  0.438457  0.061155  1
  Y  Y8  1  0.437203  0.437203  0.062797  1
  Y  Y9  1  0.062140  0.062140  0.437860  1
  Y  Y10  1  0.185864  0.814827  0.815182  1
  Y  Y11  1  0.814827  0.185864  0.184127  1
  Y  Y12  1  0.814827  0.185864  0.815182  1
  Y  Y13  1  0.185864  0.814827  0.184127  1
  Y  Y14  1  0.815160  0.815160  0.184840  1
  Y  Y15  1  0.185793  0.185793  0.814207  1
  Cd  Cd16  1  0.833260  0.833260  0.827948  1
  Cd  Cd17  1  0.833260  0.833260  0.505530  1
  Cd  Cd18  1  0.834838  0.504213  0.830474  1
  Cd  Cd19  1  0.504213  0.834838  0.830474  1
  Ni  Ni20  1  0.391211  0.391211  0.394980  1
  Ni  Ni21  1  0.391211  0.391211  0.822599  1
  Ni  Ni22  1  0.390040  0.824967  0.392497  1
  Ni  Ni23  1  0.824967  0.390040  0.392497  1
