# generated using pymatgen
data_ErMn4MoP3
_symmetry_space_group_name_H-M   'P 1'
_cell_length_a   3.65569300
_cell_length_b   10.75854200
_cell_length_c   12.27812600
_cell_angle_alpha   90.00000000
_cell_angle_beta   90.00000000
_cell_angle_gamma   90.00000000
_symmetry_Int_Tables_number   1
_chemical_formula_structural   ErMn4MoP3
_chemical_formula_sum   'Er4 Mn16 Mo4 P12'
_cell_volume   482.89779534
_cell_formula_units_Z   4
loop_
 _symmetry_equiv_pos_site_id
 _symmetry_equiv_pos_as_xyz
  1  'x, y, z'
loop_
 _atom_site_type_symbol
 _atom_site_label
 _atom_site_symmetry_multiplicity
 _atom_site_fract_x
 _atom_site_fract_y
 _atom_site_fract_z
 _atom_site_occupancy
  Er  Er0  1  0.250000  0.587639  0.706495  1
  Er  Er1  1  0.250000  0.912361  0.206495  1
  Er  Er2  1  0.750000  0.412361  0.293505  1
  Er  Er3  1  0.750000  0.087639  0.793505  1
  Mn  Mn4  1  0.250000  0.411131  0.493948  1
  Mn  Mn5  1  0.250000  0.088870  0.993948  1
  Mn  Mn6  1  0.750000  0.588869  0.506052  1
  Mn  Mn7  1  0.750000  0.911131  0.006052  1
  Mn  Mn8  1  0.250000  0.210915  0.182480  1
  Mn  Mn9  1  0.250000  0.289085  0.682480  1
  Mn  Mn10  1  0.750000  0.789085  0.817520  1
  Mn  Mn11  1  0.750000  0.710915  0.317520  1
  Mn  Mn12  1  0.250000  0.884274  0.692659  1
  Mn  Mn13  1  0.250000  0.615726  0.192659  1
  Mn  Mn14  1  0.750000  0.115726  0.307341  1
  Mn  Mn15  1  0.750000  0.384274  0.807341  1
  Mn  Mn16  1  0.250000  0.465791  0.934696  1
  Mn  Mn17  1  0.250000  0.034209  0.434696  1
  Mn  Mn18  1  0.750000  0.534209  0.065304  1
  Mn  Mn19  1  0.750000  0.965791  0.565304  1
  Mo  Mo20  1  0.250000  0.711551  0.981276  1
  Mo  Mo21  1  0.250000  0.788449  0.481276  1
  Mo  Mo22  1  0.750000  0.288449  0.018724  1
  Mo  Mo23  1  0.750000  0.211551  0.518724  1
  P  P24  1  0.250000  0.413898  0.118256  1
  P  P25  1  0.250000  0.086102  0.618256  1
  P  P26  1  0.750000  0.586102  0.881744  1
  P  P27  1  0.750000  0.913898  0.381744  1
  P  P28  1  0.250000  0.263887  0.872903  1
  P  P29  1  0.250000  0.236113  0.372903  1
  P  P30  1  0.750000  0.736113  0.127097  1
  P  P31  1  0.750000  0.763887  0.627097  1
  P  P32  1  0.250000  0.589148  0.382681  1
  P  P33  1  0.250000  0.910852  0.882681  1
  P  P34  1  0.750000  0.410852  0.617319  1
  P  P35  1  0.750000  0.089148  0.117319  1
