# generated using pymatgen
data_Tb3Ho3CoP12Ir17
_symmetry_space_group_name_H-M   'P 1'
_cell_length_a   3.95629500
_cell_length_b   11.15014137
_cell_length_c   12.78993043
_cell_angle_alpha   89.97039532
_cell_angle_beta   90.00000000
_cell_angle_gamma   90.00000000
_symmetry_Int_Tables_number   1
_chemical_formula_structural   Tb3Ho3CoP12Ir17
_chemical_formula_sum   'Tb3 Ho3 Co1 P12 Ir17'
_cell_volume   564.20530467
_cell_formula_units_Z   1
loop_
 _symmetry_equiv_pos_site_id
 _symmetry_equiv_pos_as_xyz
  1  'x, y, z'
loop_
 _atom_site_type_symbol
 _atom_site_label
 _atom_site_symmetry_multiplicity
 _atom_site_fract_x
 _atom_site_fract_y
 _atom_site_fract_z
 _atom_site_occupancy
  Tb  Tb0  1  0.000000  0.499779  0.522126  1
  Tb  Tb1  1  0.500000  0.999910  0.477085  1
  Tb  Tb2  1  0.000000  0.688606  0.798213  1
  Ho  Ho3  1  0.500000  0.818928  0.202255  1
  Ho  Ho4  1  0.500000  0.181386  0.202531  1
  Ho  Ho5  1  0.000000  0.311904  0.798263  1
  Co  Co6  1  0.500000  0.000293  0.025097  1
  P  P7  1  0.500000  0.314674  0.618651  1
  P  P8  1  0.500000  0.684890  0.617955  1
  P  P9  1  0.000000  0.184581  0.381274  1
  P  P10  1  0.000000  0.815143  0.380708  1
  P  P11  1  0.500000  0.499655  0.877138  1
  P  P12  1  0.000000  0.000302  0.121559  1
  P  P13  1  0.500000  0.855915  0.896496  1
  P  P14  1  0.500000  0.145852  0.896752  1
  P  P15  1  0.000000  0.658089  0.105826  1
  P  P16  1  0.000000  0.342338  0.106207  1
  P  P17  1  0.500000  0.499798  0.357375  1
  P  P18  1  0.000000  0.999533  0.640814  1
  Ir  Ir19  1  0.000000  0.499663  0.973308  1
  Ir  Ir20  1  0.500000  0.293627  0.429352  1
  Ir  Ir21  1  0.500000  0.705842  0.428778  1
  Ir  Ir22  1  0.000000  0.206911  0.570454  1
  Ir  Ir23  1  0.000000  0.792360  0.569625  1
  Ir  Ir24  1  0.500000  0.871442  0.712900  1
  Ir  Ir25  1  0.500000  0.129924  0.714633  1
  Ir  Ir26  1  0.000000  0.630328  0.284636  1
  Ir  Ir27  1  0.000000  0.369477  0.285212  1
  Ir  Ir28  1  0.500000  0.333064  0.001189  1
  Ir  Ir29  1  0.500000  0.666908  0.001242  1
  Ir  Ir30  1  0.000000  0.157545  0.001386  1
  Ir  Ir31  1  0.000000  0.842595  0.002318  1
  Ir  Ir32  1  0.500000  0.499662  0.178606  1
  Ir  Ir33  1  0.000000  0.999432  0.820412  1
  Ir  Ir34  1  0.500000  0.499591  0.700842  1
  Ir  Ir35  1  0.000000  0.000054  0.298781  1
