# generated using pymatgen
data_Tb2Er10TcNi4Sn
_symmetry_space_group_name_H-M   'P 1'
_cell_length_a   8.26127631
_cell_length_b   8.26127526
_cell_length_c   8.26127634
_cell_angle_alpha   107.12548802
_cell_angle_beta   109.70212471
_cell_angle_gamma   111.61724382
_symmetry_Int_Tables_number   1
_chemical_formula_structural   Tb2Er10TcNi4Sn
_chemical_formula_sum   'Tb2 Er10 Tc1 Ni4 Sn1'
_cell_volume   433.36038515
_cell_formula_units_Z   1
loop_
 _symmetry_equiv_pos_site_id
 _symmetry_equiv_pos_as_xyz
  1  'x, y, z'
loop_
 _atom_site_type_symbol
 _atom_site_label
 _atom_site_symmetry_multiplicity
 _atom_site_fract_x
 _atom_site_fract_y
 _atom_site_fract_z
 _atom_site_occupancy
  Tb  Tb0  1  0.034523  0.216310  0.818215  1
  Tb  Tb1  1  0.398095  0.216310  0.181785  1
  Er  Er2  1  0.691320  0.279868  0.970980  1
  Er  Er3  1  0.308888  0.720339  0.029020  1
  Er  Er4  1  0.691320  0.720339  0.411452  1
  Er  Er5  1  0.308888  0.279868  0.588548  1
  Er  Er6  1  0.805795  0.125006  0.319211  1
  Er  Er7  1  0.805795  0.486583  0.680789  1
  Er  Er8  1  0.194239  0.873231  0.678992  1
  Er  Er9  1  0.194239  0.515248  0.321008  1
  Er  Er10  1  0.602052  0.782353  0.819699  1
  Er  Er11  1  0.962656  0.782353  0.180301  1
  Tc  Tc12  1  0.503483  0.503483  0.000000  1
  Ni  Ni13  1  0.859711  0.499426  0.360285  1
  Ni  Ni14  1  0.139141  0.499426  0.639715  1
  Ni  Ni15  1  0.999726  0.120607  0.120881  1
  Ni  Ni16  1  0.999726  0.878844  0.879119  1
  Sn  Sn17  1  0.500406  0.000406  0.500000  1
