# generated using pymatgen
data_Y4Hg2Pd3Au
_symmetry_space_group_name_H-M   'P 1'
_cell_length_a   7.78519187
_cell_length_b   7.78519212
_cell_length_c   3.75027100
_cell_angle_alpha   90.00000000
_cell_angle_beta   90.00000000
_cell_angle_gamma   89.69240518
_symmetry_Int_Tables_number   1
_chemical_formula_structural   Y4Hg2Pd3Au
_chemical_formula_sum   'Y4 Hg2 Pd3 Au1'
_cell_volume   227.29770339
_cell_formula_units_Z   1
loop_
 _symmetry_equiv_pos_site_id
 _symmetry_equiv_pos_as_xyz
  1  'x, y, z'
loop_
 _atom_site_type_symbol
 _atom_site_label
 _atom_site_symmetry_multiplicity
 _atom_site_fract_x
 _atom_site_fract_y
 _atom_site_fract_z
 _atom_site_occupancy
  Y  Y0  1  0.667356  0.167356  0.500000  1
  Y  Y1  1  0.180627  0.328922  0.500000  1
  Y  Y2  1  0.828922  0.680627  0.500000  1
  Y  Y3  1  0.326060  0.826060  0.500000  1
  Hg  Hg4  1  0.001960  0.994904  0.000000  1
  Hg  Hg5  1  0.494904  0.501960  0.000000  1
  Pd  Pd6  1  0.371570  0.125674  0.000000  1
  Pd  Pd7  1  0.625674  0.871570  0.000000  1
  Pd  Pd8  1  0.128511  0.628511  0.000000  1
  Au  Au9  1  0.874415  0.374415  0.000000  1
