# generated using pymatgen
data_Be3Fe5Re3W
_symmetry_space_group_name_H-M   'P 1'
_cell_length_a   4.59853867
_cell_length_b   4.55492135
_cell_length_c   7.45503301
_cell_angle_alpha   89.99608200
_cell_angle_beta   89.93519052
_cell_angle_gamma   119.73719564
_symmetry_Int_Tables_number   1
_chemical_formula_structural   Be3Fe5Re3W
_chemical_formula_sum   'Be3 Fe5 Re3 W1'
_cell_volume   135.58902873
_cell_formula_units_Z   1
loop_
 _symmetry_equiv_pos_site_id
 _symmetry_equiv_pos_as_xyz
  1  'x, y, z'
loop_
 _atom_site_type_symbol
 _atom_site_label
 _atom_site_symmetry_multiplicity
 _atom_site_fract_x
 _atom_site_fract_y
 _atom_site_fract_z
 _atom_site_occupancy
  Be  Be0  1  0.000144  0.001498  0.500118  1
  Be  Be1  1  0.830652  0.165895  0.258410  1
  Be  Be2  1  0.169167  0.335148  0.741776  1
  Fe  Fe3  1  0.999597  0.013982  0.999713  1
  Fe  Fe4  1  0.830114  0.662251  0.252607  1
  Fe  Fe5  1  0.170175  0.832337  0.748236  1
  Fe  Fe6  1  0.662471  0.829505  0.744256  1
  Fe  Fe7  1  0.337936  0.166063  0.256248  1
  Re  Re8  1  0.674941  0.339445  0.564180  1
  Re  Re9  1  0.667805  0.328639  0.932074  1
  Re  Re10  1  0.324119  0.663022  0.437507  1
  W  W11  1  0.332879  0.662215  0.064873  1
