# generated using pymatgen
data_Ac2Nd(TlPd)3
_symmetry_space_group_name_H-M   'P 1'
_cell_length_a   7.95962900
_cell_length_b   7.95962878
_cell_length_c   4.17542900
_cell_angle_alpha   90.00000000
_cell_angle_beta   90.00000000
_cell_angle_gamma   120.49692598
_symmetry_Int_Tables_number   1
_chemical_formula_structural   Ac2Nd(TlPd)3
_chemical_formula_sum   'Ac2 Nd1 Tl3 Pd3'
_cell_volume   227.94016357
_cell_formula_units_Z   1
loop_
 _symmetry_equiv_pos_site_id
 _symmetry_equiv_pos_as_xyz
  1  'x, y, z'
loop_
 _atom_site_type_symbol
 _atom_site_label
 _atom_site_symmetry_multiplicity
 _atom_site_fract_x
 _atom_site_fract_y
 _atom_site_fract_z
 _atom_site_occupancy
  Ac  Ac0  1  0.591836  0.002156  0.000000  1
  Ac  Ac1  1  0.002156  0.591836  0.000000  1
  Nd  Nd2  1  0.407003  0.407003  0.000000  1
  Tl  Tl3  1  0.252565  0.008856  0.500000  1
  Tl  Tl4  1  0.008856  0.252565  0.500000  1
  Tl  Tl5  1  0.738999  0.738999  0.500000  1
  Pd  Pd6  1  0.335990  0.664550  0.500000  1
  Pd  Pd7  1  0.664550  0.335990  0.500000  1
  Pd  Pd8  1  0.998044  0.998044  0.000000  1
