# generated using pymatgen
data_Er12Fe4SnAu
_symmetry_space_group_name_H-M   'P 1'
_cell_length_a   8.28202745
_cell_length_b   8.28202764
_cell_length_c   8.28202772
_cell_angle_alpha   111.03849644
_cell_angle_beta   110.79558560
_cell_angle_gamma   106.61683971
_symmetry_Int_Tables_number   1
_chemical_formula_structural   Er12Fe4SnAu
_chemical_formula_sum   'Er12 Fe4 Sn1 Au1'
_cell_volume   436.49774334
_cell_formula_units_Z   1
loop_
 _symmetry_equiv_pos_site_id
 _symmetry_equiv_pos_as_xyz
  1  'x, y, z'
loop_
 _atom_site_type_symbol
 _atom_site_label
 _atom_site_symmetry_multiplicity
 _atom_site_fract_x
 _atom_site_fract_y
 _atom_site_fract_z
 _atom_site_occupancy
  Er  Er0  1  0.015821  0.722101  0.293719  1
  Er  Er1  1  0.984179  0.277899  0.706281  1
  Er  Er2  1  0.571618  0.277899  0.293719  1
  Er  Er3  1  0.428382  0.722101  0.706281  1
  Er  Er4  1  0.688773  0.886987  0.198214  1
  Er  Er5  1  0.311227  0.509439  0.198214  1
  Er  Er6  1  0.311227  0.113013  0.801786  1
  Er  Er7  1  0.688773  0.490561  0.801786  1
  Er  Er8  1  0.187485  0.211293  0.398779  1
  Er  Er9  1  0.812515  0.211293  0.023807  1
  Er  Er10  1  0.187485  0.788707  0.976193  1
  Er  Er11  1  0.812515  0.788707  0.601221  1
  Fe  Fe12  1  0.614871  0.500000  0.114871  1
  Fe  Fe13  1  0.385129  0.500000  0.885129  1
  Fe  Fe14  1  0.891845  0.891845  0.000000  1
  Fe  Fe15  1  0.108155  0.108155  0.000000  1
  Sn  Sn16  1  0.500000  0.000000  0.500000  1
  Au  Au17  1  0.000000  0.500000  0.500000  1
