# generated using pymatgen
data_CePr2Th5(Si3Pd)4
_symmetry_space_group_name_H-M   'P 1'
_cell_length_a   8.24161500
_cell_length_b   8.24581846
_cell_length_c   8.47782000
_cell_angle_alpha   90.00000000
_cell_angle_beta   90.00000000
_cell_angle_gamma   119.98314241
_symmetry_Int_Tables_number   1
_chemical_formula_structural   CePr2Th5(Si3Pd)4
_chemical_formula_sum   'Ce1 Pr2 Th5 Si12 Pd4'
_cell_volume   499.03920235
_cell_formula_units_Z   1
loop_
 _symmetry_equiv_pos_site_id
 _symmetry_equiv_pos_as_xyz
  1  'x, y, z'
loop_
 _atom_site_type_symbol
 _atom_site_label
 _atom_site_symmetry_multiplicity
 _atom_site_fract_x
 _atom_site_fract_y
 _atom_site_fract_z
 _atom_site_occupancy
  Ce  Ce0  1  0.999994  0.999989  0.750000  1
  Pr  Pr1  1  0.500200  0.000399  0.250000  1
  Pr  Pr2  1  0.000007  0.000014  0.250000  1
  Th  Th3  1  0.499827  0.500170  0.750000  1
  Th  Th4  1  0.500154  0.499847  0.250000  1
  Th  Th5  1  0.000343  0.500170  0.750000  1
  Th  Th6  1  0.999693  0.499847  0.250000  1
  Th  Th7  1  0.499818  0.999636  0.750000  1
  Si  Si8  1  0.835207  0.166042  0.997736  1
  Si  Si9  1  0.164809  0.833959  0.998024  1
  Si  Si10  1  0.330835  0.166042  0.997736  1
  Si  Si11  1  0.164809  0.833959  0.501976  1
  Si  Si12  1  0.669150  0.833959  0.998024  1
  Si  Si13  1  0.835207  0.166042  0.502264  1
  Si  Si14  1  0.834766  0.669531  0.998419  1
  Si  Si15  1  0.669150  0.833959  0.501976  1
  Si  Si16  1  0.165232  0.330464  0.998631  1
  Si  Si17  1  0.330835  0.166042  0.502264  1
  Si  Si18  1  0.165232  0.330464  0.501369  1
  Si  Si19  1  0.834766  0.669531  0.501581  1
  Pd  Pd20  1  0.666910  0.333818  0.997190  1
  Pd  Pd21  1  0.333074  0.666150  0.998443  1
  Pd  Pd22  1  0.333074  0.666150  0.501557  1
  Pd  Pd23  1  0.666910  0.333818  0.502810  1
