# generated using pymatgen
data_Tb2Sm4PtBr10
_symmetry_space_group_name_H-M   'P 1'
_cell_length_a   7.45876791
_cell_length_b   9.45844878
_cell_length_c   9.48816290
_cell_angle_alpha   108.44220147
_cell_angle_beta   95.74403296
_cell_angle_gamma   105.19096789
_symmetry_Int_Tables_number   1
_chemical_formula_structural   Tb2Sm4PtBr10
_chemical_formula_sum   'Tb2 Sm4 Pt1 Br10'
_cell_volume   600.44447657
_cell_formula_units_Z   1
loop_
 _symmetry_equiv_pos_site_id
 _symmetry_equiv_pos_as_xyz
  1  'x, y, z'
loop_
 _atom_site_type_symbol
 _atom_site_label
 _atom_site_symmetry_multiplicity
 _atom_site_fract_x
 _atom_site_fract_y
 _atom_site_fract_z
 _atom_site_occupancy
  Tb  Tb0  1  0.357301  0.131328  0.176211  1
  Tb  Tb1  1  0.642699  0.868672  0.823789  1
  Sm  Sm2  1  0.133071  0.048795  0.751845  1
  Sm  Sm3  1  0.866929  0.951205  0.248155  1
  Sm  Sm4  1  0.969279  0.302098  0.099457  1
  Sm  Sm5  1  0.030721  0.697902  0.900543  1
  Pt  Pt6  1  0.000000  0.000000  0.000000  1
  Br  Br7  1  0.549621  0.174981  0.918668  1
  Br  Br8  1  0.450379  0.825019  0.081332  1
  Br  Br9  1  0.354726  0.445206  0.269068  1
  Br  Br10  1  0.645274  0.554794  0.730932  1
  Br  Br11  1  0.246937  0.079187  0.447960  1
  Br  Br12  1  0.753063  0.920813  0.552040  1
  Br  Br13  1  0.769603  0.249927  0.345010  1
  Br  Br14  1  0.230397  0.750073  0.654990  1
  Br  Br15  1  0.086765  0.367609  0.830613  1
  Br  Br16  1  0.913235  0.632391  0.169387  1
