# generated using pymatgen
data_Gd2Si3Pt
_symmetry_space_group_name_H-M   'P 1'
_cell_length_a   8.14995974
_cell_length_b   8.13546463
_cell_length_c   5.75975900
_cell_angle_alpha   69.42263955
_cell_angle_beta   69.15288117
_cell_angle_gamma   41.42447604
_symmetry_Int_Tables_number   1
_chemical_formula_structural   Gd2Si3Pt
_chemical_formula_sum   'Gd4 Si6 Pt2'
_cell_volume   233.90925095
_cell_formula_units_Z   2
loop_
 _symmetry_equiv_pos_site_id
 _symmetry_equiv_pos_as_xyz
  1  'x, y, z'
loop_
 _atom_site_type_symbol
 _atom_site_label
 _atom_site_symmetry_multiplicity
 _atom_site_fract_x
 _atom_site_fract_y
 _atom_site_fract_z
 _atom_site_occupancy
  Gd  Gd0  1  0.250000  0.250000  0.250001  1
  Gd  Gd1  1  0.246658  0.753342  0.246659  1
  Gd  Gd2  1  0.753342  0.246659  0.753343  1
  Gd  Gd3  1  0.750001  0.749999  0.750000  1
  Si  Si4  1  0.834823  0.330950  0.165178  1
  Si  Si5  1  0.834351  0.834351  0.165650  1
  Si  Si6  1  0.669050  0.165178  0.330950  1
  Si  Si7  1  0.330950  0.834823  0.669051  1
  Si  Si8  1  0.165649  0.165650  0.834352  1
  Si  Si9  1  0.165177  0.669051  0.834823  1
  Pt  Pt10  1  0.666764  0.666765  0.333236  1
  Pt  Pt11  1  0.333235  0.333236  0.666765  1
