# generated using pymatgen
data_Tb15Th(CoHg)4
_symmetry_space_group_name_H-M   'P 1'
_cell_length_a   9.52396458
_cell_length_b   9.52396530
_cell_length_c   9.52396462
_cell_angle_alpha   60.10258045
_cell_angle_beta   60.10257444
_cell_angle_gamma   60.10258438
_symmetry_Int_Tables_number   1
_chemical_formula_structural   Tb15Th(CoHg)4
_chemical_formula_sum   'Tb15 Th1 Co4 Hg4'
_cell_volume   612.27507574
_cell_formula_units_Z   1
loop_
 _symmetry_equiv_pos_site_id
 _symmetry_equiv_pos_as_xyz
  1  'x, y, z'
loop_
 _atom_site_type_symbol
 _atom_site_label
 _atom_site_symmetry_multiplicity
 _atom_site_fract_x
 _atom_site_fract_y
 _atom_site_fract_z
 _atom_site_occupancy
  Tb  Tb0  1  0.349033  0.349033  0.951645  1
  Tb  Tb1  1  0.349033  0.951645  0.349033  1
  Tb  Tb2  1  0.951645  0.349033  0.349033  1
  Tb  Tb3  1  0.811210  0.189028  0.189028  1
  Tb  Tb4  1  0.187547  0.811569  0.811569  1
  Tb  Tb5  1  0.189028  0.811210  0.189028  1
  Tb  Tb6  1  0.811569  0.187547  0.811569  1
  Tb  Tb7  1  0.189028  0.189028  0.811210  1
  Tb  Tb8  1  0.811569  0.811569  0.187547  1
  Tb  Tb9  1  0.939789  0.562652  0.562652  1
  Tb  Tb10  1  0.561187  0.939413  0.939413  1
  Tb  Tb11  1  0.562652  0.939789  0.562652  1
  Tb  Tb12  1  0.939413  0.561187  0.939413  1
  Tb  Tb13  1  0.562652  0.562652  0.939789  1
  Tb  Tb14  1  0.939413  0.939413  0.561187  1
  Th  Th15  1  0.341977  0.341977  0.341977  1
  Co  Co16  1  0.141792  0.141792  0.141792  1
  Co  Co17  1  0.144892  0.144892  0.572814  1
  Co  Co18  1  0.144892  0.572814  0.144892  1
  Co  Co19  1  0.572814  0.144892  0.144892  1
  Hg  Hg20  1  0.582864  0.582864  0.582864  1
  Hg  Hg21  1  0.585014  0.585014  0.245973  1
  Hg  Hg22  1  0.585014  0.245973  0.585014  1
  Hg  Hg23  1  0.245973  0.585014  0.585014  1
