# generated using pymatgen
data_GdTmB6Ir
_symmetry_space_group_name_H-M   'P 1'
_cell_length_a   3.63839200
_cell_length_b   9.16191600
_cell_length_c   11.53278200
_cell_angle_alpha   90.00000000
_cell_angle_beta   90.00000000
_cell_angle_gamma   90.00000000
_symmetry_Int_Tables_number   1
_chemical_formula_structural   GdTmB6Ir
_chemical_formula_sum   'Gd4 Tm4 B24 Ir4'
_cell_volume   384.44115784
_cell_formula_units_Z   4
loop_
 _symmetry_equiv_pos_site_id
 _symmetry_equiv_pos_as_xyz
  1  'x, y, z'
loop_
 _atom_site_type_symbol
 _atom_site_label
 _atom_site_symmetry_multiplicity
 _atom_site_fract_x
 _atom_site_fract_y
 _atom_site_fract_z
 _atom_site_occupancy
  Gd  Gd0  1  0.000000  0.321422  0.413651  1
  Gd  Gd1  1  0.000000  0.678578  0.586349  1
  Gd  Gd2  1  0.000000  0.821422  0.086349  1
  Gd  Gd3  1  0.000000  0.178578  0.913651  1
  Tm  Tm4  1  0.000000  0.944175  0.374236  1
  Tm  Tm5  1  0.000000  0.055825  0.625764  1
  Tm  Tm6  1  0.000000  0.444175  0.125764  1
  Tm  Tm7  1  0.000000  0.555825  0.874236  1
  B  B8  1  0.500000  0.554207  0.433329  1
  B  B9  1  0.500000  0.445793  0.566671  1
  B  B10  1  0.500000  0.054207  0.066671  1
  B  B11  1  0.500000  0.945793  0.933329  1
  B  B12  1  0.500000  0.750677  0.419948  1
  B  B13  1  0.500000  0.249323  0.580052  1
  B  B14  1  0.500000  0.250677  0.080052  1
  B  B15  1  0.500000  0.749323  0.919948  1
  B  B16  1  0.500000  0.792983  0.265447  1
  B  B17  1  0.500000  0.207017  0.734553  1
  B  B18  1  0.500000  0.292983  0.234553  1
  B  B19  1  0.500000  0.707017  0.765447  1
  B  B20  1  0.500000  0.631178  0.183597  1
  B  B21  1  0.500000  0.368822  0.816403  1
  B  B22  1  0.500000  0.131178  0.316403  1
  B  B23  1  0.500000  0.868822  0.683597  1
  B  B24  1  0.500000  0.982461  0.213838  1
  B  B25  1  0.500000  0.017539  0.786162  1
  B  B26  1  0.500000  0.482461  0.286162  1
  B  B27  1  0.500000  0.517539  0.713838  1
  B  B28  1  0.500000  0.606027  0.028890  1
  B  B29  1  0.500000  0.393973  0.971110  1
  B  B30  1  0.500000  0.106027  0.471110  1
  B  B31  1  0.500000  0.893973  0.528890  1
  Ir  Ir32  1  0.000000  0.639088  0.320061  1
  Ir  Ir33  1  0.000000  0.360912  0.679939  1
  Ir  Ir34  1  0.000000  0.139088  0.179939  1
  Ir  Ir35  1  0.000000  0.860912  0.820061  1
