# generated using pymatgen
data_Ta9Si3Ru16
_symmetry_space_group_name_H-M   'P 1'
_cell_length_a   5.43572684
_cell_length_b   4.31058500
_cell_length_c   18.08651492
_cell_angle_alpha   90.00000000
_cell_angle_beta   89.21784502
_cell_angle_gamma   90.00000000
_symmetry_Int_Tables_number   1
_chemical_formula_structural   Ta9Si3Ru16
_chemical_formula_sum   'Ta9 Si3 Ru16'
_cell_volume   423.74858475
_cell_formula_units_Z   1
loop_
 _symmetry_equiv_pos_site_id
 _symmetry_equiv_pos_as_xyz
  1  'x, y, z'
loop_
 _atom_site_type_symbol
 _atom_site_label
 _atom_site_symmetry_multiplicity
 _atom_site_fract_x
 _atom_site_fract_y
 _atom_site_fract_z
 _atom_site_occupancy
  Ta  Ta0  1  0.002100  0.250000  0.398121  1
  Ta  Ta1  1  0.509210  0.749999  0.892113  1
  Ta  Ta2  1  0.500397  0.250000  0.109974  1
  Ta  Ta3  1  0.995897  0.749999  0.600919  1
  Ta  Ta4  1  0.341936  0.250000  0.684233  1
  Ta  Ta5  1  0.157987  0.749999  0.191329  1
  Ta  Ta6  1  0.843834  0.250000  0.807323  1
  Ta  Ta7  1  0.657407  0.749999  0.313862  1
  Ta  Ta8  1  0.157047  0.250000  0.967398  1
  Si  Si9  1  0.335479  0.749999  0.464940  1
  Si  Si10  1  0.663216  0.250000  0.534084  1
  Si  Si11  1  0.836191  0.749999  0.035199  1
  Ru  Ru12  1  0.991890  0.250000  0.103155  1
  Ru  Ru13  1  0.494685  0.749999  0.598143  1
  Ru  Ru14  1  0.503759  0.250000  0.401973  1
  Ru  Ru15  1  0.999249  0.749999  0.896686  1
  Ru  Ru16  1  0.185609  0.250000  0.533725  1
  Ru  Ru17  1  0.327928  0.749999  0.036497  1
  Ru  Ru18  1  0.668136  0.250000  0.966553  1
  Ru  Ru19  1  0.813519  0.749999  0.465814  1
  Ru  Ru20  1  0.393114  0.250000  0.245908  1
  Ru  Ru21  1  0.113602  0.749999  0.738535  1
  Ru  Ru22  1  0.892743  0.250000  0.260642  1
  Ru  Ru23  1  0.612721  0.749999  0.755338  1
  Ru  Ru24  1  0.325724  0.250000  0.830997  1
  Ru  Ru25  1  0.175288  0.749999  0.335908  1
  Ru  Ru26  1  0.823874  0.250000  0.663335  1
  Ru  Ru27  1  0.677466  0.749999  0.167297  1
