# generated using pymatgen
data_Nb3(InS3)2
_symmetry_space_group_name_H-M   'P 1'
_cell_length_a   8.67703886
_cell_length_b   8.67703921
_cell_length_c   8.67703901
_cell_angle_alpha   39.55520561
_cell_angle_beta   39.55520406
_cell_angle_gamma   39.55519746
_symmetry_Int_Tables_number   1
_chemical_formula_structural   Nb3(InS3)2
_chemical_formula_sum   'Nb3 In2 S6'
_cell_volume   238.51640601
_cell_formula_units_Z   1
loop_
 _symmetry_equiv_pos_site_id
 _symmetry_equiv_pos_as_xyz
  1  'x, y, z'
loop_
 _atom_site_type_symbol
 _atom_site_label
 _atom_site_symmetry_multiplicity
 _atom_site_fract_x
 _atom_site_fract_y
 _atom_site_fract_z
 _atom_site_occupancy
  Nb  Nb0  1  0.333542  0.333542  0.333542  1
  Nb  Nb1  1  0.666458  0.666458  0.666458  1
  Nb  Nb2  1  0.000000  0.000000  0.000000  1
  In  In3  1  0.166599  0.166599  0.166599  1
  In  In4  1  0.833401  0.833401  0.833401  1
  S  S5  1  0.398653  0.731434  0.064552  1
  S  S6  1  0.064552  0.398653  0.731434  1
  S  S7  1  0.731434  0.064552  0.398653  1
  S  S8  1  0.268566  0.601347  0.935448  1
  S  S9  1  0.935448  0.268566  0.601347  1
  S  S10  1  0.601347  0.935448  0.268566  1
