# generated using pymatgen
data_YbEr4In4IrPt
_symmetry_space_group_name_H-M   'P 1'
_cell_length_a   3.60572500
_cell_length_b   8.10197828
_cell_length_c   18.19075500
_cell_angle_alpha   89.94844638
_cell_angle_beta   90.00000000
_cell_angle_gamma   90.00000000
_symmetry_Int_Tables_number   1
_chemical_formula_structural   YbEr4In4IrPt
_chemical_formula_sum   'Yb2 Er8 In8 Ir2 Pt2'
_cell_volume   531.41550853
_cell_formula_units_Z   2
loop_
 _symmetry_equiv_pos_site_id
 _symmetry_equiv_pos_as_xyz
  1  'x, y, z'
loop_
 _atom_site_type_symbol
 _atom_site_label
 _atom_site_symmetry_multiplicity
 _atom_site_fract_x
 _atom_site_fract_y
 _atom_site_fract_z
 _atom_site_occupancy
  Yb  Yb0  1  0.000000  0.000000  0.000000  1
  Yb  Yb1  1  0.000000  0.500000  0.500000  1
  Er  Er2  1  0.000000  0.118883  0.411695  1
  Er  Er3  1  0.000000  0.881117  0.588305  1
  Er  Er4  1  0.000000  0.378982  0.912517  1
  Er  Er5  1  0.000000  0.621018  0.087483  1
  Er  Er6  1  0.000000  0.238208  0.222493  1
  Er  Er7  1  0.000000  0.761792  0.777507  1
  Er  Er8  1  0.000000  0.244906  0.721267  1
  Er  Er9  1  0.000000  0.755094  0.278733  1
  In  In10  1  0.500000  0.431238  0.351010  1
  In  In11  1  0.500000  0.568762  0.648990  1
  In  In12  1  0.500000  0.066782  0.850835  1
  In  In13  1  0.500000  0.933218  0.149165  1
  In  In14  1  0.500000  0.296445  0.066488  1
  In  In15  1  0.500000  0.703555  0.933512  1
  In  In16  1  0.500000  0.203696  0.568054  1
  In  In17  1  0.500000  0.796304  0.431946  1
  Ir  Ir18  1  0.500000  0.022225  0.304234  1
  Ir  Ir19  1  0.500000  0.977775  0.695766  1
  Pt  Pt20  1  0.500000  0.478315  0.803553  1
  Pt  Pt21  1  0.500000  0.521685  0.196447  1
