# generated using pymatgen
data_TbHo3Ga3Si
_symmetry_space_group_name_H-M   'P 1'
_cell_length_a   3.96675500
_cell_length_b   4.33856400
_cell_length_c   10.81552300
_cell_angle_alpha   90.00000000
_cell_angle_beta   90.00000000
_cell_angle_gamma   90.00000000
_symmetry_Int_Tables_number   1
_chemical_formula_structural   TbHo3Ga3Si
_chemical_formula_sum   'Tb1 Ho3 Ga3 Si1'
_cell_volume   186.13537190
_cell_formula_units_Z   1
loop_
 _symmetry_equiv_pos_site_id
 _symmetry_equiv_pos_as_xyz
  1  'x, y, z'
loop_
 _atom_site_type_symbol
 _atom_site_label
 _atom_site_symmetry_multiplicity
 _atom_site_fract_x
 _atom_site_fract_y
 _atom_site_fract_z
 _atom_site_occupancy
  Tb  Tb0  1  0.500000  0.500000  0.360549  1
  Ho  Ho1  1  0.000000  0.000000  0.143050  1
  Ho  Ho2  1  0.000000  0.500000  0.637833  1
  Ho  Ho3  1  0.500000  0.000000  0.858029  1
  Ga  Ga4  1  0.000000  0.500000  0.921057  1
  Ga  Ga5  1  0.500000  0.500000  0.079644  1
  Ga  Ga6  1  0.500000  0.000000  0.575047  1
  Si  Si7  1  0.000000  0.000000  0.424790  1
