# generated using pymatgen
data_NaPr6NiCl12
_symmetry_space_group_name_H-M   'P 1'
_cell_length_a   9.13588046
_cell_length_b   9.13014165
_cell_length_c   9.12770800
_cell_angle_alpha   107.28477327
_cell_angle_beta   107.04295408
_cell_angle_gamma   107.10210083
_symmetry_Int_Tables_number   1
_chemical_formula_structural   NaPr6NiCl12
_chemical_formula_sum   'Na1 Pr6 Ni1 Cl12'
_cell_volume   631.57037563
_cell_formula_units_Z   1
loop_
 _symmetry_equiv_pos_site_id
 _symmetry_equiv_pos_as_xyz
  1  'x, y, z'
loop_
 _atom_site_type_symbol
 _atom_site_label
 _atom_site_symmetry_multiplicity
 _atom_site_fract_x
 _atom_site_fract_y
 _atom_site_fract_z
 _atom_site_occupancy
  Na  Na0  1  0.500000  0.500000  0.500000  1
  Pr  Pr1  1  0.122405  0.332884  0.028154  1
  Pr  Pr2  1  0.334094  0.030158  0.122476  1
  Pr  Pr3  1  0.027162  0.114492  0.320171  1
  Pr  Pr4  1  0.972839  0.885508  0.679830  1
  Pr  Pr5  1  0.665906  0.969843  0.877524  1
  Pr  Pr6  1  0.877595  0.667116  0.971846  1
  Ni  Ni7  1  0.000000  0.000000  0.000000  1
  Cl  Cl8  1  0.215758  0.685255  0.071153  1
  Cl  Cl9  1  0.456968  0.370342  0.162151  1
  Cl  Cl10  1  0.685379  0.072827  0.214698  1
  Cl  Cl11  1  0.928099  0.783800  0.317092  1
  Cl  Cl12  1  0.160816  0.454231  0.367067  1
  Cl  Cl13  1  0.369556  0.161249  0.454858  1
  Cl  Cl14  1  0.630444  0.838751  0.545143  1
  Cl  Cl15  1  0.839185  0.545769  0.632933  1
  Cl  Cl16  1  0.071902  0.216200  0.682909  1
  Cl  Cl17  1  0.314622  0.927174  0.785302  1
  Cl  Cl18  1  0.543032  0.629658  0.837850  1
  Cl  Cl19  1  0.784242  0.314745  0.928847  1
