# generated using pymatgen
data_Sr5TiFe3RuO15
_symmetry_space_group_name_H-M   'P 1'
_cell_length_a   5.57714731
_cell_length_b   6.85332584
_cell_length_c   8.88779118
_cell_angle_alpha   105.24160703
_cell_angle_beta   71.72172130
_cell_angle_gamma   89.99715440
_symmetry_Int_Tables_number   1
_chemical_formula_structural   Sr5TiFe3RuO15
_chemical_formula_sum   'Sr5 Ti1 Fe3 Ru1 O15'
_cell_volume   309.95844226
_cell_formula_units_Z   1
loop_
 _symmetry_equiv_pos_site_id
 _symmetry_equiv_pos_as_xyz
  1  'x, y, z'
loop_
 _atom_site_type_symbol
 _atom_site_label
 _atom_site_symmetry_multiplicity
 _atom_site_fract_x
 _atom_site_fract_y
 _atom_site_fract_z
 _atom_site_occupancy
  Sr  Sr0  1  0.602171  0.600217  0.795732  1
  Sr  Sr1  1  0.203863  0.200072  0.592068  1
  Sr  Sr2  1  0.996760  0.006467  0.006581  1
  Sr  Sr3  1  0.395465  0.402576  0.208954  1
  Sr  Sr4  1  0.799786  0.800700  0.400483  1
  Ti  Ti5  1  0.997024  0.517902  0.006219  1
  Fe  Fe6  1  0.201370  0.690251  0.597282  1
  Fe  Fe7  1  0.396591  0.901735  0.206711  1
  Fe  Fe8  1  0.803642  0.300933  0.392764  1
  Ru  Ru9  1  0.599141  0.100544  0.801620  1
  O  O10  1  0.101686  0.590544  0.796337  1
  O  O11  1  0.094607  0.102921  0.302326  1
  O  O12  1  0.603120  0.102888  0.302228  1
  O  O13  1  0.697778  0.187733  0.604307  1
  O  O14  1  0.499203  0.010101  0.001600  1
  O  O15  1  0.906878  0.397725  0.186799  1
  O  O16  1  0.297140  0.800988  0.405287  1
  O  O17  1  0.508037  0.494996  0.497100  1
  O  O18  1  0.703641  0.699761  0.094997  1
  O  O19  1  0.994191  0.495204  0.497404  1
  O  O20  1  0.202221  0.699526  0.094685  1
  O  O21  1  0.892341  0.901508  0.709552  1
  O  O22  1  0.305618  0.296671  0.894627  1
  O  O23  1  0.398681  0.900970  0.709502  1
  O  O24  1  0.799044  0.297066  0.894837  1
