# generated using pymatgen
data_YbY3Cu3Sb8
_symmetry_space_group_name_H-M   'P 1'
_cell_length_a   10.66652466
_cell_length_b   10.66652485
_cell_length_c   10.68468122
_cell_angle_alpha   146.66434182
_cell_angle_beta   146.66434062
_cell_angle_gamma   47.85930622
_symmetry_Int_Tables_number   1
_chemical_formula_structural   YbY3Cu3Sb8
_chemical_formula_sum   'Yb1 Y3 Cu3 Sb8'
_cell_volume   365.64663857
_cell_formula_units_Z   1
loop_
 _symmetry_equiv_pos_site_id
 _symmetry_equiv_pos_as_xyz
  1  'x, y, z'
loop_
 _atom_site_type_symbol
 _atom_site_label
 _atom_site_symmetry_multiplicity
 _atom_site_fract_x
 _atom_site_fract_y
 _atom_site_fract_z
 _atom_site_occupancy
  Yb  Yb0  1  0.637518  0.637518  0.510100  1
  Y  Y1  1  0.124847  0.124847  0.489983  1
  Y  Y2  1  0.365772  0.873640  0.000025  1
  Y  Y3  1  0.873640  0.365772  0.000025  1
  Cu  Cu4  1  0.992426  0.992426  0.987722  1
  Cu  Cu5  1  0.997726  0.505155  0.503746  1
  Cu  Cu6  1  0.505155  0.997726  0.503746  1
  Sb  Sb7  1  0.328759  0.328759  0.510534  1
  Sb  Sb8  1  0.819026  0.819026  0.484790  1
  Sb  Sb9  1  0.669836  0.187183  0.003554  1
  Sb  Sb10  1  0.187183  0.669836  0.003554  1
  Sb  Sb11  1  0.249544  0.249544  0.999529  1
  Sb  Sb12  1  0.750274  0.750274  0.002166  1
  Sb  Sb13  1  0.749375  0.248919  0.500263  1
  Sb  Sb14  1  0.248919  0.749375  0.500263  1
