# generated using pymatgen
data_Nd2YHoEr2(RuO7)2
_symmetry_space_group_name_H-M   'P 1'
_cell_length_a   6.43213926
_cell_length_b   6.42656992
_cell_length_c   7.49721800
_cell_angle_alpha   90.00000000
_cell_angle_beta   90.00000000
_cell_angle_gamma   109.93743393
_symmetry_Int_Tables_number   1
_chemical_formula_structural   Nd2YHoEr2(RuO7)2
_chemical_formula_sum   'Nd2 Y1 Ho1 Er2 Ru2 O14'
_cell_volume   291.33519138
_cell_formula_units_Z   1
loop_
 _symmetry_equiv_pos_site_id
 _symmetry_equiv_pos_as_xyz
  1  'x, y, z'
loop_
 _atom_site_type_symbol
 _atom_site_label
 _atom_site_symmetry_multiplicity
 _atom_site_fract_x
 _atom_site_fract_y
 _atom_site_fract_z
 _atom_site_occupancy
  Nd  Nd0  1  0.000445  0.999661  0.499581  1
  Nd  Nd1  1  0.000445  0.999661  0.000419  1
  Y  Y2  1  0.931446  0.482354  0.750000  1
  Ho  Ho3  1  0.066688  0.516787  0.250000  1
  Er  Er4  1  0.484091  0.933633  0.750000  1
  Er  Er5  1  0.516393  0.066207  0.250000  1
  Ru  Ru6  1  0.499703  0.500383  0.499607  1
  Ru  Ru7  1  0.499703  0.500383  0.000393  1
  O  O8  1  0.585592  0.591104  0.750000  1
  O  O9  1  0.412400  0.409086  0.250000  1
  O  O10  1  0.837867  0.115733  0.750000  1
  O  O11  1  0.163248  0.882264  0.250000  1
  O  O12  1  0.121806  0.839709  0.750000  1
  O  O13  1  0.879224  0.161176  0.250000  1
  O  O14  1  0.443733  0.181676  0.963611  1
  O  O15  1  0.556794  0.818928  0.463466  1
  O  O16  1  0.179968  0.436324  0.965904  1
  O  O17  1  0.819978  0.564001  0.463025  1
  O  O18  1  0.443733  0.181676  0.536389  1
  O  O19  1  0.556794  0.818928  0.036534  1
  O  O20  1  0.819978  0.564001  0.036975  1
  O  O21  1  0.179968  0.436324  0.534096  1
