# generated using pymatgen
data_Ho15Er5(Ir5Pt)2
_symmetry_space_group_name_H-M   'P 1'
_cell_length_a   10.89138780
_cell_length_b   10.89009209
_cell_length_c   6.32085106
_cell_angle_alpha   90.01478350
_cell_angle_beta   89.95397719
_cell_angle_gamma   90.00101628
_symmetry_Int_Tables_number   1
_chemical_formula_structural   Ho15Er5(Ir5Pt)2
_chemical_formula_sum   'Ho15 Er5 Ir10 Pt2'
_cell_volume   749.70460145
_cell_formula_units_Z   1
loop_
 _symmetry_equiv_pos_site_id
 _symmetry_equiv_pos_as_xyz
  1  'x, y, z'
loop_
 _atom_site_type_symbol
 _atom_site_label
 _atom_site_symmetry_multiplicity
 _atom_site_fract_x
 _atom_site_fract_y
 _atom_site_fract_z
 _atom_site_occupancy
  Ho  Ho0  1  0.290997  0.088215  0.375585  1
  Ho  Ho1  1  0.291053  0.911947  0.875695  1
  Ho  Ho2  1  0.705669  0.089825  0.873910  1
  Ho  Ho3  1  0.705668  0.910213  0.373886  1
  Ho  Ho4  1  0.584423  0.790661  0.878015  1
  Ho  Ho5  1  0.584416  0.209301  0.378025  1
  Ho  Ho6  1  0.410999  0.791191  0.377064  1
  Ho  Ho7  1  0.411056  0.208780  0.877107  1
  Ho  Ho8  1  0.209080  0.411644  0.622583  1
  Ho  Ho9  1  0.209140  0.588082  0.122603  1
  Ho  Ho10  1  0.790779  0.414624  0.123184  1
  Ho  Ho11  1  0.790722  0.585275  0.623081  1
  Ho  Ho12  1  0.913725  0.707321  0.126806  1
  Ho  Ho13  1  0.913801  0.292645  0.626744  1
  Ho  Ho14  1  0.091226  0.707046  0.622824  1
  Er  Er15  1  0.091242  0.293229  0.122654  1
  Er  Er16  1  0.002940  0.999652  0.500004  1
  Er  Er17  1  0.002949  0.000542  0.999979  1
  Er  Er18  1  0.499829  0.499479  0.000016  1
  Er  Er19  1  0.499826  0.500461  0.500060  1
  Ir  Ir20  1  0.152468  0.153690  0.750500  1
  Ir  Ir21  1  0.152571  0.846446  0.250105  1
  Ir  Ir22  1  0.654591  0.346179  0.749566  1
  Ir  Ir23  1  0.654610  0.653898  0.249574  1
  Ir  Ir24  1  0.346659  0.346497  0.250163  1
  Ir  Ir25  1  0.346932  0.653504  0.750348  1
  Ir  Ir26  1  0.500692  0.999833  0.123281  1
  Ir  Ir27  1  0.500692  0.000171  0.623351  1
  Ir  Ir28  1  0.999679  0.499928  0.877073  1
  Ir  Ir29  1  0.999682  0.499646  0.376788  1
  Pt  Pt30  1  0.845994  0.153257  0.249648  1
  Pt  Pt31  1  0.845887  0.846819  0.749778  1
