# generated using pymatgen
data_TaNb4Si(B2Ru5)2
_symmetry_space_group_name_H-M   'P 1'
_cell_length_a   2.98670400
_cell_length_b   9.39854000
_cell_length_c   9.39854000
_cell_angle_alpha   90.00000000
_cell_angle_beta   90.00000000
_cell_angle_gamma   90.00000000
_symmetry_Int_Tables_number   1
_chemical_formula_structural   TaNb4Si(B2Ru5)2
_chemical_formula_sum   'Ta1 Nb4 Si1 B4 Ru10'
_cell_volume   263.82319276
_cell_formula_units_Z   1
loop_
 _symmetry_equiv_pos_site_id
 _symmetry_equiv_pos_as_xyz
  1  'x, y, z'
loop_
 _atom_site_type_symbol
 _atom_site_label
 _atom_site_symmetry_multiplicity
 _atom_site_fract_x
 _atom_site_fract_y
 _atom_site_fract_z
 _atom_site_occupancy
  Ta  Ta0  1  0.000000  0.000000  0.000000  1
  Nb  Nb1  1  0.000000  0.675098  0.820900  1
  Nb  Nb2  1  0.000000  0.324902  0.179100  1
  Nb  Nb3  1  0.000000  0.820900  0.324902  1
  Nb  Nb4  1  0.000000  0.179100  0.675098  1
  Si  Si5  1  0.000000  0.500000  0.500000  1
  B  B6  1  0.000000  0.870307  0.616122  1
  B  B7  1  0.000000  0.129693  0.383878  1
  B  B8  1  0.000000  0.616122  0.129693  1
  B  B9  1  0.000000  0.383878  0.870307  1
  Ru  Ru10  1  0.500000  0.709988  0.566332  1
  Ru  Ru11  1  0.500000  0.290012  0.433668  1
  Ru  Ru12  1  0.500000  0.779644  0.072786  1
  Ru  Ru13  1  0.500000  0.220356  0.927214  1
  Ru  Ru14  1  0.500000  0.566332  0.290012  1
  Ru  Ru15  1  0.500000  0.433668  0.709988  1
  Ru  Ru16  1  0.500000  0.072786  0.220356  1
  Ru  Ru17  1  0.500000  0.927214  0.779644  1
  Ru  Ru18  1  0.500000  0.000000  0.500000  1
  Ru  Ru19  1  0.500000  0.500000  0.000000  1
