# generated using pymatgen
data_Ta3Ti2BeRu6
_symmetry_space_group_name_H-M   'P 1'
_cell_length_a   4.37501200
_cell_length_b   6.20788700
_cell_length_c   13.15310600
_cell_angle_alpha   90.00000000
_cell_angle_beta   90.00061052
_cell_angle_gamma   90.00000000
_symmetry_Int_Tables_number   1
_chemical_formula_structural   Ta3Ti2BeRu6
_chemical_formula_sum   'Ta6 Ti4 Be2 Ru12'
_cell_volume   357.23283622
_cell_formula_units_Z   2
loop_
 _symmetry_equiv_pos_site_id
 _symmetry_equiv_pos_as_xyz
  1  'x, y, z'
loop_
 _atom_site_type_symbol
 _atom_site_label
 _atom_site_symmetry_multiplicity
 _atom_site_fract_x
 _atom_site_fract_y
 _atom_site_fract_z
 _atom_site_occupancy
  Ta  Ta0  1  0.000014  0.000000  0.006886  1
  Ta  Ta1  1  0.499922  0.500000  0.159765  1
  Ta  Ta2  1  0.999933  0.000000  0.324200  1
  Ta  Ta3  1  0.499987  0.500000  0.498404  1
  Ta  Ta4  1  0.000065  0.000000  0.668239  1
  Ta  Ta5  1  0.500080  0.500000  0.842478  1
  Ti  Ti6  1  0.999932  0.500000  0.330140  1
  Ti  Ti7  1  0.499988  0.000000  0.498427  1
  Ti  Ti8  1  0.000064  0.500000  0.668232  1
  Ti  Ti9  1  0.500079  0.000000  0.836523  1
  Be  Be10  1  0.000000  0.500000  0.002092  1
  Be  Be11  1  0.499976  0.000000  0.164559  1
  Ru  Ru12  1  0.499999  0.249172  0.001234  1
  Ru  Ru13  1  0.499999  0.750828  0.001234  1
  Ru  Ru14  1  0.999917  0.250898  0.165486  1
  Ru  Ru15  1  0.999917  0.749101  0.165486  1
  Ru  Ru16  1  0.499950  0.248941  0.330180  1
  Ru  Ru17  1  0.499950  0.751060  0.330180  1
  Ru  Ru18  1  0.999993  0.249864  0.498058  1
  Ru  Ru19  1  0.999993  0.750136  0.498058  1
  Ru  Ru20  1  0.500046  0.250133  0.668573  1
  Ru  Ru21  1  0.500046  0.749868  0.668573  1
  Ru  Ru22  1  0.000078  0.251074  0.836498  1
  Ru  Ru23  1  0.000078  0.748925  0.836498  1
