# generated using pymatgen
data_LiTb3Er13Tl3Rh4
_symmetry_space_group_name_H-M   'P 1'
_cell_length_a   9.59651974
_cell_length_b   9.60082001
_cell_length_c   9.60305500
_cell_angle_alpha   59.99229559
_cell_angle_beta   59.97746658
_cell_angle_gamma   60.14284280
_symmetry_Int_Tables_number   1
_chemical_formula_structural   LiTb3Er13Tl3Rh4
_chemical_formula_sum   'Li1 Tb3 Er13 Tl3 Rh4'
_cell_volume   626.15757296
_cell_formula_units_Z   1
loop_
 _symmetry_equiv_pos_site_id
 _symmetry_equiv_pos_as_xyz
  1  'x, y, z'
loop_
 _atom_site_type_symbol
 _atom_site_label
 _atom_site_symmetry_multiplicity
 _atom_site_fract_x
 _atom_site_fract_y
 _atom_site_fract_z
 _atom_site_occupancy
  Li  Li0  1  0.429353  0.711062  0.429791  1
  Tb  Tb1  1  0.188494  0.191907  0.809799  1
  Tb  Tb2  1  0.436752  0.060415  0.065692  1
  Tb  Tb3  1  0.436752  0.060415  0.437141  1
  Er  Er4  1  0.062829  0.437811  0.063749  1
  Er  Er5  1  0.648290  0.052472  0.649619  1
  Er  Er6  1  0.186128  0.814432  0.812939  1
  Er  Er7  1  0.059904  0.060765  0.439665  1
  Er  Er8  1  0.809929  0.191279  0.188881  1
  Er  Er9  1  0.815243  0.813561  0.185598  1
  Er  Er10  1  0.653350  0.650516  0.042792  1
  Er  Er11  1  0.653350  0.650516  0.653342  1
  Er  Er12  1  0.062829  0.437811  0.435612  1
  Er  Er13  1  0.045989  0.649555  0.652228  1
  Er  Er14  1  0.809929  0.191279  0.809910  1
  Er  Er15  1  0.436995  0.437395  0.062806  1
  Er  Er16  1  0.186128  0.814432  0.186500  1
  Tl  Tl17  1  0.413242  0.421692  0.752890  1
  Tl  Tl18  1  0.752821  0.422004  0.412587  1
  Tl  Tl19  1  0.413242  0.421692  0.412176  1
  Rh  Rh20  1  0.856109  0.428461  0.857714  1
  Rh  Rh21  1  0.857604  0.861089  0.426901  1
  Rh  Rh22  1  0.427133  0.858353  0.857257  1
  Rh  Rh23  1  0.857604  0.861089  0.854408  1
