# generated using pymatgen
data_SrUBr6
_symmetry_space_group_name_H-M   'P 1'
_cell_length_a   7.59909967
_cell_length_b   7.59910038
_cell_length_c   13.96973406
_cell_angle_alpha   84.00460331
_cell_angle_beta   84.00460175
_cell_angle_gamma   119.30653588
_symmetry_Int_Tables_number   1
_chemical_formula_structural   SrUBr6
_chemical_formula_sum   'Sr2 U2 Br12'
_cell_volume   688.25731042
_cell_formula_units_Z   2
loop_
 _symmetry_equiv_pos_site_id
 _symmetry_equiv_pos_as_xyz
  1  'x, y, z'
loop_
 _atom_site_type_symbol
 _atom_site_label
 _atom_site_symmetry_multiplicity
 _atom_site_fract_x
 _atom_site_fract_y
 _atom_site_fract_z
 _atom_site_occupancy
  Sr  Sr0  1  0.083964  0.916036  0.250000  1
  Sr  Sr1  1  0.916036  0.083964  0.750000  1
  U  U2  1  0.418965  0.581035  0.250000  1
  U  U3  1  0.581035  0.418965  0.750000  1
  Br  Br4  1  0.318807  0.457835  0.634677  1
  Br  Br5  1  0.457835  0.318807  0.134677  1
  Br  Br6  1  0.233918  0.078810  0.868131  1
  Br  Br7  1  0.078810  0.233918  0.368131  1
  Br  Br8  1  0.172263  0.639979  0.130141  1
  Br  Br9  1  0.639979  0.172263  0.630141  1
  Br  Br10  1  0.360021  0.827737  0.369859  1
  Br  Br11  1  0.827737  0.360021  0.869859  1
  Br  Br12  1  0.766082  0.921190  0.131869  1
  Br  Br13  1  0.921190  0.766082  0.631869  1
  Br  Br14  1  0.542165  0.681193  0.865323  1
  Br  Br15  1  0.681193  0.542165  0.365323  1
