# generated using pymatgen
data_Tb5Y7(IrPd)6
_symmetry_space_group_name_H-M   'P 1'
_cell_length_a   4.89911600
_cell_length_b   6.99299200
_cell_length_c   14.71758700
_cell_angle_alpha   90.00053080
_cell_angle_beta   90.00001948
_cell_angle_gamma   89.99993214
_symmetry_Int_Tables_number   1
_chemical_formula_structural   Tb5Y7(IrPd)6
_chemical_formula_sum   'Tb5 Y7 Ir6 Pd6'
_cell_volume   504.21686267
_cell_formula_units_Z   1
loop_
 _symmetry_equiv_pos_site_id
 _symmetry_equiv_pos_as_xyz
  1  'x, y, z'
loop_
 _atom_site_type_symbol
 _atom_site_label
 _atom_site_symmetry_multiplicity
 _atom_site_fract_x
 _atom_site_fract_y
 _atom_site_fract_z
 _atom_site_occupancy
  Tb  Tb0  1  0.500001  0.250183  0.999775  1
  Tb  Tb1  1  0.500000  0.749861  0.999808  1
  Tb  Tb2  1  0.999967  0.249832  0.166760  1
  Tb  Tb3  1  0.999967  0.750124  0.166808  1
  Tb  Tb4  1  0.499920  0.250164  0.333516  1
  Y  Y5  1  0.499919  0.749847  0.333506  1
  Y  Y6  1  0.999999  0.249831  0.500097  1
  Y  Y7  1  0.000000  0.750129  0.500038  1
  Y  Y8  1  0.500080  0.250180  0.666710  1
  Y  Y9  1  0.500081  0.749861  0.666681  1
  Y  Y10  1  0.000033  0.249852  0.833165  1
  Y  Y11  1  0.000033  0.750146  0.833163  1
  Ir  Ir12  1  0.000000  0.499996  0.000143  1
  Ir  Ir13  1  0.499943  0.000061  0.166568  1
  Ir  Ir14  1  0.999980  0.499888  0.333211  1
  Ir  Ir15  1  0.500000  0.000057  0.499964  1
  Ir  Ir16  1  0.000019  0.500001  0.666642  1
  Ir  Ir17  1  0.500056  0.999991  0.833460  1
  Pd  Pd18  1  0.000000  0.000007  0.000036  1
  Pd  Pd19  1  0.499821  0.499951  0.166627  1
  Pd  Pd20  1  0.999806  0.000081  0.333318  1
  Pd  Pd21  1  0.500000  0.499950  0.500042  1
  Pd  Pd22  1  0.000193  0.000004  0.666636  1
  Pd  Pd23  1  0.500177  0.500000  0.833329  1
