# generated using pymatgen
data_Pr10Bi6CN
_symmetry_space_group_name_H-M   'P 1'
_cell_length_a   9.51452600
_cell_length_b   9.51452754
_cell_length_c   6.69945100
_cell_angle_alpha   90.00000000
_cell_angle_beta   90.00000000
_cell_angle_gamma   119.99999464
_symmetry_Int_Tables_number   1
_chemical_formula_structural   Pr10Bi6CN
_chemical_formula_sum   'Pr10 Bi6 C1 N1'
_cell_volume   525.22362762
_cell_formula_units_Z   1
loop_
 _symmetry_equiv_pos_site_id
 _symmetry_equiv_pos_as_xyz
  1  'x, y, z'
loop_
 _atom_site_type_symbol
 _atom_site_label
 _atom_site_symmetry_multiplicity
 _atom_site_fract_x
 _atom_site_fract_y
 _atom_site_fract_z
 _atom_site_occupancy
  Pr  Pr0  1  0.666667  0.333333  0.000000  1
  Pr  Pr1  1  0.333333  0.666667  0.000000  1
  Pr  Pr2  1  0.333333  0.666667  0.500000  1
  Pr  Pr3  1  0.666667  0.333333  0.500000  1
  Pr  Pr4  1  0.786679  0.786679  0.750444  1
  Pr  Pr5  1  0.213321  0.000000  0.750444  1
  Pr  Pr6  1  0.000000  0.213321  0.750444  1
  Pr  Pr7  1  0.213321  0.213321  0.249556  1
  Pr  Pr8  1  0.786679  0.000000  0.249556  1
  Pr  Pr9  1  0.000000  0.786679  0.249556  1
  Bi  Bi10  1  0.401661  0.401661  0.749439  1
  Bi  Bi11  1  0.598339  0.000000  0.749439  1
  Bi  Bi12  1  0.000000  0.598339  0.749439  1
  Bi  Bi13  1  0.598339  0.598339  0.250561  1
  Bi  Bi14  1  0.401661  0.000000  0.250561  1
  Bi  Bi15  1  0.000000  0.401661  0.250561  1
  C  C16  1  0.000000  0.000000  0.500000  1
  N  N17  1  0.000000  0.000000  0.000000  1
