# generated using pymatgen
data_Ta2Be4Ru5
_symmetry_space_group_name_H-M   'P 1'
_cell_length_a   3.14830200
_cell_length_b   8.56571305
_cell_length_c   10.07219804
_cell_angle_alpha   90.00105715
_cell_angle_beta   90.00000000
_cell_angle_gamma   90.00000000
_symmetry_Int_Tables_number   1
_chemical_formula_structural   Ta2Be4Ru5
_chemical_formula_sum   'Ta4 Be8 Ru10'
_cell_volume   271.62151260
_cell_formula_units_Z   2
loop_
 _symmetry_equiv_pos_site_id
 _symmetry_equiv_pos_as_xyz
  1  'x, y, z'
loop_
 _atom_site_type_symbol
 _atom_site_label
 _atom_site_symmetry_multiplicity
 _atom_site_fract_x
 _atom_site_fract_y
 _atom_site_fract_z
 _atom_site_occupancy
  Ta  Ta0  1  0.500000  0.841580  0.180608  1
  Ta  Ta1  1  0.500000  0.158420  0.819392  1
  Ta  Ta2  1  0.500000  0.658440  0.680596  1
  Ta  Ta3  1  0.500000  0.341560  0.319404  1
  Be  Be4  1  0.500000  0.964152  0.594403  1
  Be  Be5  1  0.500000  0.035848  0.405597  1
  Be  Be6  1  0.500000  0.844692  0.903263  1
  Be  Be7  1  0.500000  0.155308  0.096737  1
  Be  Be8  1  0.500000  0.655318  0.403293  1
  Be  Be9  1  0.500000  0.344682  0.596707  1
  Be  Be10  1  0.500000  0.464211  0.905593  1
  Be  Be11  1  0.500000  0.535789  0.094407  1
  Ru  Ru12  1  0.000000  0.660874  0.952098  1
  Ru  Ru13  1  0.000000  0.339126  0.047902  1
  Ru  Ru14  1  0.000000  0.839128  0.452074  1
  Ru  Ru15  1  0.000000  0.160872  0.547926  1
  Ru  Ru16  1  0.000000  0.000000  0.000000  1
  Ru  Ru17  1  0.000000  0.402443  0.758765  1
  Ru  Ru18  1  0.000000  0.597557  0.241235  1
  Ru  Ru19  1  0.000000  0.500000  0.500000  1
  Ru  Ru20  1  0.000000  0.902402  0.741252  1
  Ru  Ru21  1  0.000000  0.097598  0.258748  1
