# generated using pymatgen
data_Hf3MnGa3Au2
_symmetry_space_group_name_H-M   'P 1'
_cell_length_a   7.37737100
_cell_length_b   7.37737014
_cell_length_c   6.68011900
_cell_angle_alpha   90.00000000
_cell_angle_beta   90.00000000
_cell_angle_gamma   119.99999935
_symmetry_Int_Tables_number   1
_chemical_formula_structural   Hf3MnGa3Au2
_chemical_formula_sum   'Hf6 Mn2 Ga6 Au4'
_cell_volume   314.86039190
_cell_formula_units_Z   2
loop_
 _symmetry_equiv_pos_site_id
 _symmetry_equiv_pos_as_xyz
  1  'x, y, z'
loop_
 _atom_site_type_symbol
 _atom_site_label
 _atom_site_symmetry_multiplicity
 _atom_site_fract_x
 _atom_site_fract_y
 _atom_site_fract_z
 _atom_site_occupancy
  Hf  Hf0  1  0.742466  0.042019  0.000000  1
  Hf  Hf1  1  0.299552  0.257534  0.000000  1
  Hf  Hf2  1  0.957981  0.700448  0.000000  1
  Hf  Hf3  1  0.303071  0.257895  0.500000  1
  Hf  Hf4  1  0.742105  0.045176  0.500000  1
  Hf  Hf5  1  0.954824  0.696929  0.500000  1
  Mn  Mn6  1  0.000000  0.000000  0.251416  1
  Mn  Mn7  1  0.000000  0.000000  0.748584  1
  Ga  Ga8  1  0.620370  0.669690  0.749627  1
  Ga  Ga9  1  0.049322  0.379630  0.749627  1
  Ga  Ga10  1  0.330310  0.950678  0.749627  1
  Ga  Ga11  1  0.620370  0.669690  0.250373  1
  Ga  Ga12  1  0.049322  0.379630  0.250373  1
  Ga  Ga13  1  0.330310  0.950678  0.250373  1
  Au  Au14  1  0.333333  0.666667  0.000000  1
  Au  Au15  1  0.333333  0.666667  0.500000  1
  Au  Au16  1  0.666667  0.333333  0.760224  1
  Au  Au17  1  0.666667  0.333333  0.239776  1
