# generated using pymatgen
data_LaPr3(BeAs)12
_symmetry_space_group_name_H-M   'P 1'
_cell_length_a   3.85825900
_cell_length_b   10.92104132
_cell_length_c   11.89305535
_cell_angle_alpha   89.97220236
_cell_angle_beta   90.00000000
_cell_angle_gamma   90.00000000
_symmetry_Int_Tables_number   1
_chemical_formula_structural   LaPr3(BeAs)12
_chemical_formula_sum   'La1 Pr3 Be12 As12'
_cell_volume   501.12817083
_cell_formula_units_Z   1
loop_
 _symmetry_equiv_pos_site_id
 _symmetry_equiv_pos_as_xyz
  1  'x, y, z'
loop_
 _atom_site_type_symbol
 _atom_site_label
 _atom_site_symmetry_multiplicity
 _atom_site_fract_x
 _atom_site_fract_y
 _atom_site_fract_z
 _atom_site_occupancy
  La  La0  1  0.250000  0.055505  0.662647  1
  Pr  Pr1  1  0.750000  0.944398  0.337184  1
  Pr  Pr2  1  0.250000  0.444580  0.162515  1
  Pr  Pr3  1  0.750000  0.555431  0.837354  1
  Be  Be4  1  0.750000  0.242321  0.455406  1
  Be  Be5  1  0.250000  0.742658  0.044915  1
  Be  Be6  1  0.750000  0.257552  0.955170  1
  Be  Be7  1  0.250000  0.756968  0.545306  1
  Be  Be8  1  0.750000  0.645710  0.286013  1
  Be  Be9  1  0.250000  0.146007  0.213950  1
  Be  Be10  1  0.750000  0.854205  0.786175  1
  Be  Be11  1  0.250000  0.355756  0.713149  1
  Be  Be12  1  0.750000  0.036989  0.063668  1
  Be  Be13  1  0.250000  0.537041  0.436675  1
  Be  Be14  1  0.750000  0.463313  0.563935  1
  Be  Be15  1  0.250000  0.963025  0.937161  1
  As  As16  1  0.750000  0.438203  0.371048  1
  As  As17  1  0.250000  0.938518  0.129314  1
  As  As18  1  0.750000  0.060638  0.871340  1
  As  As19  1  0.250000  0.561678  0.629220  1
  As  As20  1  0.750000  0.226908  0.145155  1
  As  As21  1  0.250000  0.726690  0.354597  1
  As  As22  1  0.750000  0.273960  0.645659  1
  As  As23  1  0.250000  0.773424  0.854350  1
  As  As24  1  0.750000  0.641786  0.091707  1
  As  As25  1  0.250000  0.141494  0.407436  1
  As  As26  1  0.750000  0.857310  0.591209  1
  As  As27  1  0.250000  0.357933  0.907740  1
