# generated using pymatgen
data_Sc2Cu2BRh4
_symmetry_space_group_name_H-M   'P 1'
_cell_length_a   5.67565491
_cell_length_b   5.67565404
_cell_length_c   5.49560900
_cell_angle_alpha   61.04395108
_cell_angle_beta   61.04395595
_cell_angle_gamma   59.70846965
_symmetry_Int_Tables_number   1
_chemical_formula_structural   Sc2Cu2BRh4
_chemical_formula_sum   'Sc2 Cu2 B1 Rh4'
_cell_volume   126.82753191
_cell_formula_units_Z   1
loop_
 _symmetry_equiv_pos_site_id
 _symmetry_equiv_pos_as_xyz
  1  'x, y, z'
loop_
 _atom_site_type_symbol
 _atom_site_label
 _atom_site_symmetry_multiplicity
 _atom_site_fract_x
 _atom_site_fract_y
 _atom_site_fract_z
 _atom_site_occupancy
  Sc  Sc0  1  0.246073  0.246073  0.254572  1
  Sc  Sc1  1  0.753927  0.753927  0.746717  1
  Cu  Cu2  1  0.730932  0.269069  0.257933  1
  Cu  Cu3  1  0.269069  0.730932  0.257933  1
  B  B4  1  0.000000  0.000000  0.998181  1
  Rh  Rh5  1  0.746347  0.746347  0.255265  1
  Rh  Rh6  1  0.253652  0.253652  0.747959  1
  Rh  Rh7  1  0.740356  0.259645  0.740720  1
  Rh  Rh8  1  0.259645  0.740356  0.740720  1
