# generated using pymatgen
data_NaSrFeCo3As4
_symmetry_space_group_name_H-M   'P 1'
_cell_length_a   6.69724336
_cell_length_b   6.72856549
_cell_length_c   5.42101400
_cell_angle_alpha   90.00000000
_cell_angle_beta   90.00000000
_cell_angle_gamma   132.41589800
_symmetry_Int_Tables_number   1
_chemical_formula_structural   NaSrFeCo3As4
_chemical_formula_sum   'Na1 Sr1 Fe1 Co3 As4'
_cell_volume   180.34880216
_cell_formula_units_Z   1
loop_
 _symmetry_equiv_pos_site_id
 _symmetry_equiv_pos_as_xyz
  1  'x, y, z'
loop_
 _atom_site_type_symbol
 _atom_site_label
 _atom_site_symmetry_multiplicity
 _atom_site_fract_x
 _atom_site_fract_y
 _atom_site_fract_z
 _atom_site_occupancy
  Na  Na0  1  0.000000  0.000000  0.999420  1
  Sr  Sr1  1  0.500000  0.500000  0.502658  1
  Fe  Fe2  1  0.500000  0.000000  0.248186  1
  Co  Co3  1  0.500000  0.000000  0.751569  1
  Co  Co4  1  0.000000  0.500000  0.249368  1
  Co  Co5  1  0.000000  0.500000  0.750422  1
  As  As6  1  0.639760  0.354119  0.002163  1
  As  As7  1  0.145752  0.857173  0.497026  1
  As  As8  1  0.854248  0.142827  0.497026  1
  As  As9  1  0.360240  0.645881  0.002163  1
