# generated using pymatgen
data_Er3AlCd2Pd3
_symmetry_space_group_name_H-M   'P 1'
_cell_length_a   7.57165186
_cell_length_b   7.57165235
_cell_length_c   3.81715800
_cell_angle_alpha   90.00000000
_cell_angle_beta   90.00000000
_cell_angle_gamma   120.08038836
_symmetry_Int_Tables_number   1
_chemical_formula_structural   Er3AlCd2Pd3
_chemical_formula_sum   'Er3 Al1 Cd2 Pd3'
_cell_volume   189.36499557
_cell_formula_units_Z   1
loop_
 _symmetry_equiv_pos_site_id
 _symmetry_equiv_pos_as_xyz
  1  'x, y, z'
loop_
 _atom_site_type_symbol
 _atom_site_label
 _atom_site_symmetry_multiplicity
 _atom_site_fract_x
 _atom_site_fract_y
 _atom_site_fract_z
 _atom_site_occupancy
  Er  Er0  1  0.406006  0.002547  0.500000  1
  Er  Er1  1  0.002547  0.406006  0.500000  1
  Er  Er2  1  0.581444  0.581444  0.500000  1
  Al  Al3  1  0.258540  0.258540  0.000000  1
  Cd  Cd4  1  0.742621  0.993799  0.000000  1
  Cd  Cd5  1  0.993799  0.742621  0.000000  1
  Pd  Pd6  1  0.326122  0.650155  0.000000  1
  Pd  Pd7  1  0.650155  0.326122  0.000000  1
  Pd  Pd8  1  0.038766  0.038766  0.500000  1
