# generated using pymatgen
data_Cs6MnCrSe6
_symmetry_space_group_name_H-M   'P 1'
_cell_length_a   10.87895500
_cell_length_b   10.87895469
_cell_length_c   14.03333000
_cell_angle_alpha   90.00000000
_cell_angle_beta   90.00000000
_cell_angle_gamma   138.78070457
_symmetry_Int_Tables_number   1
_chemical_formula_structural   Cs6MnCrSe6
_chemical_formula_sum   'Cs12 Mn2 Cr2 Se12'
_cell_volume   1094.41695200
_cell_formula_units_Z   2
loop_
 _symmetry_equiv_pos_site_id
 _symmetry_equiv_pos_as_xyz
  1  'x, y, z'
loop_
 _atom_site_type_symbol
 _atom_site_label
 _atom_site_symmetry_multiplicity
 _atom_site_fract_x
 _atom_site_fract_y
 _atom_site_fract_z
 _atom_site_occupancy
  Cs  Cs0  1  0.876657  0.870597  0.686988  1
  Cs  Cs1  1  0.129403  0.123343  0.313012  1
  Cs  Cs2  1  0.629403  0.623343  0.186988  1
  Cs  Cs3  1  0.376657  0.370597  0.813012  1
  Cs  Cs4  1  0.174842  0.533788  0.126442  1
  Cs  Cs5  1  0.466212  0.825158  0.873558  1
  Cs  Cs6  1  0.966212  0.325158  0.626442  1
  Cs  Cs7  1  0.674842  0.033788  0.373558  1
  Cs  Cs8  1  0.831267  0.478263  0.877159  1
  Cs  Cs9  1  0.521737  0.168733  0.122841  1
  Cs  Cs10  1  0.021737  0.668733  0.377159  1
  Cs  Cs11  1  0.331267  0.978263  0.622841  1
  Mn  Mn12  1  0.080987  0.919013  0.000000  1
  Mn  Mn13  1  0.580987  0.419013  0.500000  1
  Cr  Cr14  1  0.923129  0.076871  0.000000  1
  Cr  Cr15  1  0.423129  0.576871  0.500000  1
  Se  Se16  1  0.278034  0.289556  0.560109  1
  Se  Se17  1  0.710444  0.721966  0.439891  1
  Se  Se18  1  0.210444  0.221966  0.060109  1
  Se  Se19  1  0.778034  0.789556  0.939891  1
  Se  Se20  1  0.732440  0.018335  0.118961  1
  Se  Se21  1  0.981665  0.267560  0.881039  1
  Se  Se22  1  0.481665  0.767560  0.618961  1
  Se  Se23  1  0.232440  0.518335  0.381039  1
  Se  Se24  1  0.287551  0.994367  0.873663  1
  Se  Se25  1  0.005633  0.712449  0.126337  1
  Se  Se26  1  0.505633  0.212449  0.373663  1
  Se  Se27  1  0.787551  0.494367  0.626337  1
