# generated using pymatgen
data_SrGePd4
_symmetry_space_group_name_H-M   'P 1'
_cell_length_a   5.31347730
_cell_length_b   5.74203037
_cell_length_c   4.43094600
_cell_angle_alpha   90.00000000
_cell_angle_beta   90.00000000
_cell_angle_gamma   122.74978624
_symmetry_Int_Tables_number   1
_chemical_formula_structural   SrGePd4
_chemical_formula_sum   'Sr1 Ge1 Pd4'
_cell_volume   113.69934329
_cell_formula_units_Z   1
loop_
 _symmetry_equiv_pos_site_id
 _symmetry_equiv_pos_as_xyz
  1  'x, y, z'
loop_
 _atom_site_type_symbol
 _atom_site_label
 _atom_site_symmetry_multiplicity
 _atom_site_fract_x
 _atom_site_fract_y
 _atom_site_fract_z
 _atom_site_occupancy
  Sr  Sr0  1  0.000019  0.000017  0.000000  1
  Ge  Ge1  1  0.000014  0.500013  0.500000  1
  Pd  Pd2  1  0.687422  0.343858  0.000000  1
  Pd  Pd3  1  0.312644  0.656198  0.000000  1
  Pd  Pd4  1  0.500003  0.000010  0.500000  1
  Pd  Pd5  1  0.499998  0.500002  0.500000  1
