# generated using pymatgen
data_Ho4Ga6Ir4Pd3
_symmetry_space_group_name_H-M   'P 1'
_cell_length_a   7.34450806
_cell_length_b   7.35435194
_cell_length_c   7.35435249
_cell_angle_alpha   109.56545982
_cell_angle_beta   109.45119850
_cell_angle_gamma   109.45120492
_symmetry_Int_Tables_number   1
_chemical_formula_structural   Ho4Ga6Ir4Pd3
_chemical_formula_sum   'Ho4 Ga6 Ir4 Pd3'
_cell_volume   305.58947489
_cell_formula_units_Z   1
loop_
 _symmetry_equiv_pos_site_id
 _symmetry_equiv_pos_as_xyz
  1  'x, y, z'
loop_
 _atom_site_type_symbol
 _atom_site_label
 _atom_site_symmetry_multiplicity
 _atom_site_fract_x
 _atom_site_fract_y
 _atom_site_fract_z
 _atom_site_occupancy
  Ho  Ho0  1  0.006716  0.003358  0.503358  1
  Ho  Ho1  1  0.006716  0.503358  0.003358  1
  Ho  Ho2  1  0.493418  0.990308  0.990308  1
  Ho  Ho3  1  0.493418  0.503110  0.503110  1
  Ga  Ga4  1  0.677623  0.678575  0.999047  1
  Ga  Ga5  1  0.321238  0.999430  0.321808  1
  Ga  Ga6  1  0.001060  0.322102  0.322102  1
  Ga  Ga7  1  0.321238  0.321808  0.999430  1
  Ga  Ga8  1  0.677623  0.999047  0.678575  1
  Ga  Ga9  1  0.001060  0.678959  0.678959  1
  Ir  Ir10  1  0.502694  0.251347  0.751347  1
  Ir  Ir11  1  0.248300  0.499116  0.749184  1
  Ir  Ir12  1  0.248300  0.749184  0.499116  1
  Ir  Ir13  1  0.502694  0.751347  0.251347  1
  Pd  Pd14  1  0.748988  0.250527  0.498461  1
  Pd  Pd15  1  0.748988  0.498461  0.250527  1
  Pd  Pd16  1  0.999925  0.999962  0.999962  1
