# generated using pymatgen
data_Tb2DySi3Os2
_symmetry_space_group_name_H-M   'P 1'
_cell_length_a   5.78935609
_cell_length_b   5.78935562
_cell_length_c   13.73495200
_cell_angle_alpha   90.00000000
_cell_angle_beta   90.00000000
_cell_angle_gamma   137.47316777
_symmetry_Int_Tables_number   1
_chemical_formula_structural   Tb2DySi3Os2
_chemical_formula_sum   'Tb4 Dy2 Si6 Os4'
_cell_volume   311.16649920
_cell_formula_units_Z   2
loop_
 _symmetry_equiv_pos_site_id
 _symmetry_equiv_pos_as_xyz
  1  'x, y, z'
loop_
 _atom_site_type_symbol
 _atom_site_label
 _atom_site_symmetry_multiplicity
 _atom_site_fract_x
 _atom_site_fract_y
 _atom_site_fract_z
 _atom_site_occupancy
  Tb  Tb0  1  0.576102  0.423898  0.616013  1
  Tb  Tb1  1  0.423898  0.576102  0.383987  1
  Tb  Tb2  1  0.423898  0.576102  0.116013  1
  Tb  Tb3  1  0.576102  0.423898  0.883987  1
  Dy  Dy4  1  0.140145  0.859855  0.250000  1
  Dy  Dy5  1  0.859855  0.140145  0.750000  1
  Si  Si6  1  0.881798  0.118202  0.538014  1
  Si  Si7  1  0.118202  0.881798  0.461986  1
  Si  Si8  1  0.118202  0.881798  0.038014  1
  Si  Si9  1  0.881798  0.118202  0.961986  1
  Si  Si10  1  0.822994  0.177006  0.250000  1
  Si  Si11  1  0.177006  0.822994  0.750000  1
  Os  Os12  1  0.286517  0.713483  0.918290  1
  Os  Os13  1  0.713483  0.286517  0.081710  1
  Os  Os14  1  0.713483  0.286517  0.418290  1
  Os  Os15  1  0.286517  0.713483  0.581710  1
