# generated using pymatgen
data_Tm5GeTe4
_symmetry_space_group_name_H-M   'P 1'
_cell_length_a   7.44259499
_cell_length_b   7.44259445
_cell_length_c   10.50891742
_cell_angle_alpha   61.56936597
_cell_angle_beta   61.56936900
_cell_angle_gamma   33.15611135
_symmetry_Int_Tables_number   1
_chemical_formula_structural   Tm5GeTe4
_chemical_formula_sum   'Tm5 Ge1 Te4'
_cell_volume   276.31260502
_cell_formula_units_Z   1
loop_
 _symmetry_equiv_pos_site_id
 _symmetry_equiv_pos_as_xyz
  1  'x, y, z'
loop_
 _atom_site_type_symbol
 _atom_site_label
 _atom_site_symmetry_multiplicity
 _atom_site_fract_x
 _atom_site_fract_y
 _atom_site_fract_z
 _atom_site_occupancy
  Tm  Tm0  1  0.000000  0.000000  0.500000  1
  Tm  Tm1  1  0.583511  0.583511  0.089005  1
  Tm  Tm2  1  0.184686  0.184686  0.728567  1
  Tm  Tm3  1  0.815314  0.815314  0.271433  1
  Tm  Tm4  1  0.416489  0.416489  0.910995  1
  Ge  Ge5  1  0.000000  0.000000  0.000000  1
  Te  Te6  1  0.608584  0.608584  0.589535  1
  Te  Te7  1  0.194969  0.194969  0.194352  1
  Te  Te8  1  0.805031  0.805031  0.805648  1
  Te  Te9  1  0.391416  0.391416  0.410465  1
