# generated using pymatgen
data_SrTa4Cd2PbO14
_symmetry_space_group_name_H-M   'P 1'
_cell_length_a   7.52627749
_cell_length_b   7.52627789
_cell_length_c   7.59707737
_cell_angle_alpha   59.94336172
_cell_angle_beta   59.94336401
_cell_angle_gamma   59.48723524
_symmetry_Int_Tables_number   1
_chemical_formula_structural   SrTa4Cd2PbO14
_chemical_formula_sum   'Sr1 Ta4 Cd2 Pb1 O14'
_cell_volume   302.83863164
_cell_formula_units_Z   1
loop_
 _symmetry_equiv_pos_site_id
 _symmetry_equiv_pos_as_xyz
  1  'x, y, z'
loop_
 _atom_site_type_symbol
 _atom_site_label
 _atom_site_symmetry_multiplicity
 _atom_site_fract_x
 _atom_site_fract_y
 _atom_site_fract_z
 _atom_site_occupancy
  Sr  Sr0  1  0.125000  0.125000  0.625000  1
  Ta  Ta1  1  0.625000  0.625000  0.625000  1
  Ta  Ta2  1  0.125000  0.625000  0.625000  1
  Ta  Ta3  1  0.625000  0.625000  0.125000  1
  Ta  Ta4  1  0.625000  0.125000  0.625000  1
  Cd  Cd5  1  0.625000  0.125000  0.125000  1
  Cd  Cd6  1  0.125000  0.625000  0.125000  1
  Pb  Pb7  1  0.125000  0.125000  0.125000  1
  O  O8  1  0.565240  0.565240  0.934421  1
  O  O9  1  0.308434  0.308434  0.689711  1
  O  O10  1  0.939227  0.560586  0.936265  1
  O  O11  1  0.939789  0.557818  0.564863  1
  O  O12  1  0.560586  0.939227  0.936265  1
  O  O13  1  0.557818  0.939789  0.564863  1
  O  O14  1  0.310773  0.689414  0.313735  1
  O  O15  1  0.692182  0.310211  0.685137  1
  O  O16  1  0.274216  0.274216  0.226419  1
  O  O17  1  0.975784  0.975784  0.023581  1
  O  O18  1  0.941566  0.941566  0.560289  1
  O  O19  1  0.689414  0.310773  0.313735  1
  O  O20  1  0.310211  0.692182  0.685137  1
  O  O21  1  0.684760  0.684760  0.315579  1
