# generated using pymatgen
data_Sm5(Hg2Rh)2
_symmetry_space_group_name_H-M   'P 1'
_cell_length_a   8.08295700
_cell_length_b   18.14709900
_cell_length_c   3.75719700
_cell_angle_alpha   90.00000000
_cell_angle_beta   90.00000000
_cell_angle_gamma   90.00000000
_symmetry_Int_Tables_number   1
_chemical_formula_structural   Sm5(Hg2Rh)2
_chemical_formula_sum   'Sm10 Hg8 Rh4'
_cell_volume   551.11400029
_cell_formula_units_Z   2
loop_
 _symmetry_equiv_pos_site_id
 _symmetry_equiv_pos_as_xyz
  1  'x, y, z'
loop_
 _atom_site_type_symbol
 _atom_site_label
 _atom_site_symmetry_multiplicity
 _atom_site_fract_x
 _atom_site_fract_y
 _atom_site_fract_z
 _atom_site_occupancy
  Sm  Sm0  1  0.500000  0.500000  0.000000  1
  Sm  Sm1  1  0.000000  0.000000  0.000000  1
  Sm  Sm2  1  0.733405  0.284832  0.000000  1
  Sm  Sm3  1  0.266595  0.715168  0.000000  1
  Sm  Sm4  1  0.766595  0.784832  0.000000  1
  Sm  Sm5  1  0.233405  0.215168  0.000000  1
  Sm  Sm6  1  0.610779  0.088567  0.000000  1
  Sm  Sm7  1  0.389221  0.911433  0.000000  1
  Sm  Sm8  1  0.889221  0.588567  0.000000  1
  Sm  Sm9  1  0.110779  0.411433  0.000000  1
  Hg  Hg10  1  0.709285  0.936818  0.500000  1
  Hg  Hg11  1  0.290715  0.063182  0.500000  1
  Hg  Hg12  1  0.790715  0.436818  0.500000  1
  Hg  Hg13  1  0.209285  0.563182  0.500000  1
  Hg  Hg14  1  0.588719  0.649172  0.500000  1
  Hg  Hg15  1  0.411281  0.350828  0.500000  1
  Hg  Hg16  1  0.911281  0.149172  0.500000  1
  Hg  Hg17  1  0.088719  0.850828  0.500000  1
  Rh  Rh18  1  0.521059  0.196568  0.500000  1
  Rh  Rh19  1  0.478941  0.803432  0.500000  1
  Rh  Rh20  1  0.978941  0.696568  0.500000  1
  Rh  Rh21  1  0.021059  0.303432  0.500000  1
