# generated using pymatgen
data_Pr4Sm(BN3)2
_symmetry_space_group_name_H-M   'P 1'
_cell_length_a   6.45031788
_cell_length_b   6.45031728
_cell_length_c   8.89482882
_cell_angle_alpha   75.03593613
_cell_angle_beta   75.03593631
_cell_angle_gamma   32.76623853
_symmetry_Int_Tables_number   1
_chemical_formula_structural   Pr4Sm(BN3)2
_chemical_formula_sum   'Pr4 Sm1 B2 N6'
_cell_volume   192.90326937
_cell_formula_units_Z   1
loop_
 _symmetry_equiv_pos_site_id
 _symmetry_equiv_pos_as_xyz
  1  'x, y, z'
loop_
 _atom_site_type_symbol
 _atom_site_label
 _atom_site_symmetry_multiplicity
 _atom_site_fract_x
 _atom_site_fract_y
 _atom_site_fract_z
 _atom_site_occupancy
  Pr  Pr0  1  0.623934  0.623934  0.628522  1
  Pr  Pr1  1  0.307969  0.307969  0.820507  1
  Pr  Pr2  1  0.692031  0.692031  0.179493  1
  Pr  Pr3  1  0.376066  0.376066  0.371478  1
  Sm  Sm4  1  0.000000  0.000000  0.000000  1
  B  B5  1  0.054967  0.054967  0.409121  1
  B  B6  1  0.945033  0.945033  0.590879  1
  N  N7  1  0.025319  0.025319  0.259040  1
  N  N8  1  0.347298  0.347298  0.079396  1
  N  N9  1  0.827740  0.827740  0.584601  1
  N  N10  1  0.974681  0.974681  0.740960  1
  N  N11  1  0.652702  0.652702  0.920604  1
  N  N12  1  0.172260  0.172260  0.415399  1
