# generated using pymatgen
data_LiPr3In3Pd2
_symmetry_space_group_name_H-M   'P 1'
_cell_length_a   7.81603000
_cell_length_b   7.81602867
_cell_length_c   4.10136100
_cell_angle_alpha   90.00000000
_cell_angle_beta   90.00000000
_cell_angle_gamma   120.00000563
_symmetry_Int_Tables_number   1
_chemical_formula_structural   LiPr3In3Pd2
_chemical_formula_sum   'Li1 Pr3 In3 Pd2'
_cell_volume   216.98562620
_cell_formula_units_Z   1
loop_
 _symmetry_equiv_pos_site_id
 _symmetry_equiv_pos_as_xyz
  1  'x, y, z'
loop_
 _atom_site_type_symbol
 _atom_site_label
 _atom_site_symmetry_multiplicity
 _atom_site_fract_x
 _atom_site_fract_y
 _atom_site_fract_z
 _atom_site_occupancy
  Li  Li0  1  0.000000  0.000000  0.500000  1
  Pr  Pr1  1  0.418074  0.418074  0.500000  1
  Pr  Pr2  1  0.581926  0.000000  0.500000  1
  Pr  Pr3  1  0.000000  0.581926  0.500000  1
  In  In4  1  0.753102  0.753102  0.000000  1
  In  In5  1  0.246898  0.000000  0.000000  1
  In  In6  1  0.000000  0.246898  0.000000  1
  Pd  Pd7  1  0.666667  0.333333  0.000000  1
  Pd  Pd8  1  0.333333  0.666667  0.000000  1
