# generated using pymatgen
data_Ta6Be15FeCoCu6
_symmetry_space_group_name_H-M   'P 1'
_cell_length_a   7.61090151
_cell_length_b   7.63843307
_cell_length_c   7.62674487
_cell_angle_alpha   60.06642295
_cell_angle_beta   60.06893571
_cell_angle_gamma   60.11941489
_symmetry_Int_Tables_number   1
_chemical_formula_structural   Ta6Be15FeCoCu6
_chemical_formula_sum   'Ta6 Be15 Fe1 Co1 Cu6'
_cell_volume   314.12270281
_cell_formula_units_Z   1
loop_
 _symmetry_equiv_pos_site_id
 _symmetry_equiv_pos_as_xyz
  1  'x, y, z'
loop_
 _atom_site_type_symbol
 _atom_site_label
 _atom_site_symmetry_multiplicity
 _atom_site_fract_x
 _atom_site_fract_y
 _atom_site_fract_z
 _atom_site_occupancy
  Ta  Ta0  1  0.215335  0.194483  0.803374  1
  Ta  Ta1  1  0.200412  0.789270  0.809905  1
  Ta  Ta2  1  0.798520  0.190795  0.212165  1
  Ta  Ta3  1  0.190303  0.807207  0.191688  1
  Ta  Ta4  1  0.786807  0.194477  0.803372  1
  Ta  Ta5  1  0.810803  0.807198  0.191686  1
  Be  Be6  1  0.499739  0.493461  0.507079  1
  Be  Be7  1  0.500753  0.499047  0.998152  1
  Be  Be8  1  0.999959  0.499910  0.500193  1
  Be  Be9  1  0.500251  0.004975  0.994507  1
  Be  Be10  1  0.997368  0.002150  0.501261  1
  Be  Be11  1  0.002050  0.499055  0.998149  1
  Be  Be12  1  0.499202  0.002148  0.501270  1
  Be  Be13  1  0.827935  0.515577  0.828552  1
  Be  Be14  1  0.172164  0.171601  0.484075  1
  Be  Be15  1  0.478948  0.176295  0.168373  1
  Be  Be16  1  0.176380  0.176302  0.168368  1
  Be  Be17  1  0.520538  0.832441  0.823756  1
  Be  Be18  1  0.823252  0.832443  0.823755  1
  Be  Be19  1  0.822867  0.830009  0.524238  1
  Be  Be20  1  0.177035  0.474934  0.171014  1
  Fe  Fe21  1  0.622913  0.133712  0.620457  1
  Co  Co22  1  0.376245  0.379755  0.867757  1
  Cu  Cu23  1  0.868607  0.379304  0.376067  1
  Cu  Cu24  1  0.376044  0.379306  0.376075  1
  Cu  Cu25  1  0.131805  0.623174  0.621454  1
  Cu  Cu26  1  0.623576  0.623164  0.621451  1
  Cu  Cu27  1  0.621689  0.621998  0.134609  1
  Cu  Cu28  1  0.378499  0.865812  0.377197  1
