# generated using pymatgen
data_Er19Tm(CoBi2)4
_symmetry_space_group_name_H-M   'P 1'
_cell_length_a   7.93513248
_cell_length_b   8.87227030
_cell_length_c   12.34703569
_cell_angle_alpha   90.01922468
_cell_angle_beta   89.96695360
_cell_angle_gamma   89.97748996
_symmetry_Int_Tables_number   1
_chemical_formula_structural   Er19Tm(CoBi2)4
_chemical_formula_sum   'Er19 Tm1 Co4 Bi8'
_cell_volume   869.26365068
_cell_formula_units_Z   1
loop_
 _symmetry_equiv_pos_site_id
 _symmetry_equiv_pos_as_xyz
  1  'x, y, z'
loop_
 _atom_site_type_symbol
 _atom_site_label
 _atom_site_symmetry_multiplicity
 _atom_site_fract_x
 _atom_site_fract_y
 _atom_site_fract_z
 _atom_site_occupancy
  Er  Er0  1  0.346519  0.750022  0.699889  1
  Er  Er1  1  0.653491  0.249982  0.300136  1
  Er  Er2  1  0.846854  0.249847  0.800383  1
  Er  Er3  1  0.153394  0.750062  0.199558  1
  Er  Er4  1  0.885834  0.750142  0.811543  1
  Er  Er5  1  0.114623  0.249717  0.188376  1
  Er  Er6  1  0.385399  0.250006  0.688779  1
  Er  Er7  1  0.614389  0.750060  0.311339  1
  Er  Er8  1  0.674915  0.538388  0.563056  1
  Er  Er9  1  0.325149  0.461692  0.436950  1
  Er  Er10  1  0.174893  0.461700  0.936946  1
  Er  Er11  1  0.325138  0.038272  0.436902  1
  Er  Er12  1  0.825108  0.538268  0.062968  1
  Er  Er13  1  0.674919  0.961612  0.563050  1
  Er  Er14  1  0.825644  0.961600  0.062864  1
  Er  Er15  1  0.053798  0.750050  0.498059  1
  Er  Er16  1  0.946277  0.249954  0.501952  1
  Er  Er17  1  0.553526  0.249768  0.001984  1
  Er  Er18  1  0.445787  0.750288  0.998005  1
  Tm  Tm19  1  0.173280  0.038513  0.937220  1
  Co  Co20  1  0.066471  0.750376  0.991957  1
  Co  Co21  1  0.934704  0.249581  0.007790  1
  Co  Co22  1  0.566071  0.249990  0.508036  1
  Co  Co23  1  0.433882  0.749993  0.491984  1
  Bi  Bi24  1  0.571364  0.509634  0.826992  1
  Bi  Bi25  1  0.428729  0.490354  0.173030  1
  Bi  Bi26  1  0.071365  0.490368  0.673067  1
  Bi  Bi27  1  0.428867  0.009669  0.173045  1
  Bi  Bi28  1  0.928656  0.509626  0.326873  1
  Bi  Bi29  1  0.570839  0.990452  0.827100  1
  Bi  Bi30  1  0.928613  0.990381  0.326901  1
  Bi  Bi31  1  0.071502  0.009632  0.673264  1
