# generated using pymatgen
data_Ho3Al12IrRuRh2
_symmetry_space_group_name_H-M   'P 1'
_cell_length_a   8.79380800
_cell_length_b   8.82028513
_cell_length_c   9.50819600
_cell_angle_alpha   90.00000000
_cell_angle_beta   90.00000000
_cell_angle_gamma   119.90074934
_symmetry_Int_Tables_number   1
_chemical_formula_structural   Ho3Al12IrRuRh2
_chemical_formula_sum   'Ho6 Al24 Ir2 Ru2 Rh4'
_cell_volume   639.32522119
_cell_formula_units_Z   2
loop_
 _symmetry_equiv_pos_site_id
 _symmetry_equiv_pos_as_xyz
  1  'x, y, z'
loop_
 _atom_site_type_symbol
 _atom_site_label
 _atom_site_symmetry_multiplicity
 _atom_site_fract_x
 _atom_site_fract_y
 _atom_site_fract_z
 _atom_site_occupancy
  Ho  Ho0  1  0.190947  0.381895  0.250000  1
  Ho  Ho1  1  0.809053  0.618105  0.750000  1
  Ho  Ho2  1  0.616445  0.809963  0.250000  1
  Ho  Ho3  1  0.383555  0.190037  0.750000  1
  Ho  Ho4  1  0.193518  0.809963  0.250000  1
  Ho  Ho5  1  0.806482  0.190037  0.750000  1
  Al  Al6  1  0.333022  0.666046  0.030935  1
  Al  Al7  1  0.666978  0.333954  0.969065  1
  Al  Al8  1  0.666978  0.333954  0.530935  1
  Al  Al9  1  0.333022  0.666046  0.469065  1
  Al  Al10  1  0.163096  0.326193  0.577550  1
  Al  Al11  1  0.836904  0.673807  0.422450  1
  Al  Al12  1  0.673272  0.836388  0.576760  1
  Al  Al13  1  0.836904  0.673807  0.077550  1
  Al  Al14  1  0.326728  0.163612  0.423240  1
  Al  Al15  1  0.163096  0.326193  0.922450  1
  Al  Al16  1  0.163116  0.836388  0.576760  1
  Al  Al17  1  0.326728  0.163612  0.076760  1
  Al  Al18  1  0.836884  0.163612  0.423240  1
  Al  Al19  1  0.673272  0.836388  0.923240  1
  Al  Al20  1  0.836884  0.163612  0.076760  1
  Al  Al21  1  0.163116  0.836388  0.923240  1
  Al  Al22  1  0.562893  0.125788  0.250000  1
  Al  Al23  1  0.437107  0.874212  0.750000  1
  Al  Al24  1  0.876601  0.438405  0.250000  1
  Al  Al25  1  0.123399  0.561595  0.750000  1
  Al  Al26  1  0.561804  0.438405  0.250000  1
  Al  Al27  1  0.438196  0.561595  0.750000  1
  Al  Al28  1  0.000134  0.000268  0.250000  1
  Al  Al29  1  0.999866  0.999732  0.750000  1
  Ir  Ir30  1  0.500000  0.000000  0.000000  1
  Ir  Ir31  1  0.500000  0.000000  0.500000  1
  Ru  Ru32  1  0.000000  0.000000  0.000000  1
  Ru  Ru33  1  0.000000  0.000000  0.500000  1
  Rh  Rh34  1  0.000000  0.500000  0.000000  1
  Rh  Rh35  1  0.500000  0.500000  0.000000  1
  Rh  Rh36  1  0.000000  0.500000  0.500000  1
  Rh  Rh37  1  0.500000  0.500000  0.500000  1
