# generated using pymatgen
data_Tm4CdHgPd4
_symmetry_space_group_name_H-M   'P 1'
_cell_length_a   7.76991200
_cell_length_b   7.76991200
_cell_length_c   3.56735900
_cell_angle_alpha   90.00000000
_cell_angle_beta   90.00000000
_cell_angle_gamma   90.00000000
_symmetry_Int_Tables_number   1
_chemical_formula_structural   Tm4CdHgPd4
_chemical_formula_sum   'Tm4 Cd1 Hg1 Pd4'
_cell_volume   215.36692976
_cell_formula_units_Z   1
loop_
 _symmetry_equiv_pos_site_id
 _symmetry_equiv_pos_as_xyz
  1  'x, y, z'
loop_
 _atom_site_type_symbol
 _atom_site_label
 _atom_site_symmetry_multiplicity
 _atom_site_fract_x
 _atom_site_fract_y
 _atom_site_fract_z
 _atom_site_occupancy
  Tm  Tm0  1  0.675835  0.161926  0.500000  1
  Tm  Tm1  1  0.324165  0.838074  0.500000  1
  Tm  Tm2  1  0.161926  0.324165  0.500000  1
  Tm  Tm3  1  0.838074  0.675835  0.500000  1
  Cd  Cd4  1  0.500000  0.500000  0.000000  1
  Hg  Hg5  1  0.000000  0.000000  0.000000  1
  Pd  Pd6  1  0.135507  0.623489  0.000000  1
  Pd  Pd7  1  0.864493  0.376511  0.000000  1
  Pd  Pd8  1  0.623489  0.864493  0.000000  1
  Pd  Pd9  1  0.376511  0.135507  0.000000  1
