# generated using pymatgen
data_Sr5BiRh2
_symmetry_space_group_name_H-M   'P 1'
_cell_length_a   9.69912676
_cell_length_b   9.69912739
_cell_length_c   9.69912826
_cell_angle_alpha   129.44672087
_cell_angle_beta   129.44671248
_cell_angle_gamma   74.29284294
_symmetry_Int_Tables_number   1
_chemical_formula_structural   Sr5BiRh2
_chemical_formula_sum   'Sr10 Bi2 Rh4'
_cell_volume   530.39806667
_cell_formula_units_Z   2
loop_
 _symmetry_equiv_pos_site_id
 _symmetry_equiv_pos_as_xyz
  1  'x, y, z'
loop_
 _atom_site_type_symbol
 _atom_site_label
 _atom_site_symmetry_multiplicity
 _atom_site_fract_x
 _atom_site_fract_y
 _atom_site_fract_z
 _atom_site_occupancy
  Sr  Sr0  1  0.539465  0.040019  0.840865  1
  Sr  Sr1  1  0.199154  0.698600  0.159135  1
  Sr  Sr2  1  0.040019  0.199154  0.500555  1
  Sr  Sr3  1  0.698600  0.539465  0.499445  1
  Sr  Sr4  1  0.460535  0.959981  0.159135  1
  Sr  Sr5  1  0.800846  0.301400  0.840865  1
  Sr  Sr6  1  0.959981  0.800846  0.499445  1
  Sr  Sr7  1  0.301400  0.460535  0.500555  1
  Sr  Sr8  1  0.000000  0.000000  0.000000  1
  Sr  Sr9  1  0.500000  0.500000  0.000000  1
  Bi  Bi10  1  0.249363  0.249363  0.000000  1
  Bi  Bi11  1  0.750637  0.750637  0.000000  1
  Rh  Rh12  1  0.882594  0.383333  0.265928  1
  Rh  Rh13  1  0.117406  0.616667  0.734072  1
  Rh  Rh14  1  0.383333  0.117406  0.500739  1
  Rh  Rh15  1  0.616667  0.882594  0.499261  1
