# generated using pymatgen
data_Ni8Mo12As4C3N
_symmetry_space_group_name_H-M   'P 1'
_cell_length_a   7.91239469
_cell_length_b   7.91239446
_cell_length_c   7.90053545
_cell_angle_alpha   59.95032880
_cell_angle_beta   59.95033193
_cell_angle_gamma   59.99999855
_symmetry_Int_Tables_number   1
_chemical_formula_structural   Ni8Mo12As4C3N
_chemical_formula_sum   'Ni8 Mo12 As4 C3 N1'
_cell_volume   349.48693014
_cell_formula_units_Z   1
loop_
 _symmetry_equiv_pos_site_id
 _symmetry_equiv_pos_as_xyz
  1  'x, y, z'
loop_
 _atom_site_type_symbol
 _atom_site_label
 _atom_site_symmetry_multiplicity
 _atom_site_fract_x
 _atom_site_fract_y
 _atom_site_fract_z
 _atom_site_occupancy
  Ni  Ni0  1  0.917516  0.917516  0.247450  1
  Ni  Ni1  1  0.332856  0.332856  0.331917  1
  Ni  Ni2  1  0.247627  0.917144  0.918083  1
  Ni  Ni3  1  0.332856  0.002373  0.331917  1
  Ni  Ni4  1  0.002373  0.332856  0.331917  1
  Ni  Ni5  1  0.332484  0.332484  0.002550  1
  Ni  Ni6  1  0.917144  0.917144  0.918083  1
  Ni  Ni7  1  0.917144  0.247627  0.918083  1
  Mo  Mo8  1  0.687528  0.312380  0.312564  1
  Mo  Mo9  1  0.938755  0.938755  0.560551  1
  Mo  Mo10  1  0.687528  0.687528  0.312564  1
  Mo  Mo11  1  0.688061  0.311245  0.689449  1
  Mo  Mo12  1  0.312380  0.687528  0.312564  1
  Mo  Mo13  1  0.561939  0.938755  0.560551  1
  Mo  Mo14  1  0.562472  0.937620  0.937436  1
  Mo  Mo15  1  0.938755  0.561939  0.560551  1
  Mo  Mo16  1  0.937620  0.562472  0.937436  1
  Mo  Mo17  1  0.311245  0.311245  0.689449  1
  Mo  Mo18  1  0.562472  0.562472  0.937436  1
  Mo  Mo19  1  0.311245  0.688061  0.689449  1
  As  As20  1  0.125000  0.125000  0.125000  1
  As  As21  1  0.625000  0.125000  0.125000  1
  As  As22  1  0.125000  0.125000  0.625000  1
  As  As23  1  0.125000  0.625000  0.125000  1
  C  C24  1  0.625000  0.625000  0.625000  1
  C  C25  1  0.125000  0.625000  0.625000  1
  C  C26  1  0.625000  0.125000  0.625000  1
  N  N27  1  0.625000  0.625000  0.125000  1
