# generated using pymatgen
data_YbHoB4Ir5
_symmetry_space_group_name_H-M   'P 1'
_cell_length_a   7.50326917
_cell_length_b   6.33160648
_cell_length_c   5.60251623
_cell_angle_alpha   77.64648209
_cell_angle_beta   55.51839904
_cell_angle_gamma   46.83512240
_symmetry_Int_Tables_number   1
_chemical_formula_structural   YbHoB4Ir5
_chemical_formula_sum   'Yb1 Ho1 B4 Ir5'
_cell_volume   153.23180423
_cell_formula_units_Z   1
loop_
 _symmetry_equiv_pos_site_id
 _symmetry_equiv_pos_as_xyz
  1  'x, y, z'
loop_
 _atom_site_type_symbol
 _atom_site_label
 _atom_site_symmetry_multiplicity
 _atom_site_fract_x
 _atom_site_fract_y
 _atom_site_fract_z
 _atom_site_occupancy
  Yb  Yb0  1  0.358218  0.358219  0.641782  1
  Ho  Ho1  1  0.635440  0.635441  0.364560  1
  B  B2  1  0.290327  0.975635  0.024365  1
  B  B3  1  0.025298  0.712270  0.287730  1
  B  B4  1  0.975635  0.290327  0.709673  1
  B  B5  1  0.712270  0.025298  0.974702  1
  Ir  Ir6  1  0.002320  0.002320  0.997680  1
  Ir  Ir7  1  0.499768  0.499768  0.000232  1
  Ir  Ir8  1  0.250477  0.250477  0.249524  1
  Ir  Ir9  1  0.999768  0.999768  0.500232  1
  Ir  Ir10  1  0.750476  0.750477  0.749524  1
