# generated using pymatgen
data_Lu4PaSn3C
_symmetry_space_group_name_H-M   'P 1'
_cell_length_a   8.80880254
_cell_length_b   8.87065015
_cell_length_c   6.34886200
_cell_angle_alpha   90.00000000
_cell_angle_beta   90.00000000
_cell_angle_gamma   120.23251762
_symmetry_Int_Tables_number   1
_chemical_formula_structural   Lu4PaSn3C
_chemical_formula_sum   'Lu8 Pa2 Sn6 C2'
_cell_volume   428.62403160
_cell_formula_units_Z   2
loop_
 _symmetry_equiv_pos_site_id
 _symmetry_equiv_pos_as_xyz
  1  'x, y, z'
loop_
 _atom_site_type_symbol
 _atom_site_label
 _atom_site_symmetry_multiplicity
 _atom_site_fract_x
 _atom_site_fract_y
 _atom_site_fract_z
 _atom_site_occupancy
  Lu  Lu0  1  0.665310  0.332597  0.500303  1
  Lu  Lu1  1  0.334690  0.667287  0.500303  1
  Lu  Lu2  1  0.334690  0.667287  0.999697  1
  Lu  Lu3  1  0.665310  0.332597  0.999697  1
  Lu  Lu4  1  0.000000  0.225062  0.250000  1
  Lu  Lu5  1  0.217996  0.216525  0.750000  1
  Lu  Lu6  1  0.782004  0.998529  0.750000  1
  Lu  Lu7  1  0.000000  0.781793  0.750000  1
  Pa  Pa8  1  0.786671  0.790587  0.250000  1
  Pa  Pa9  1  0.213329  0.003917  0.250000  1
  Sn  Sn10  1  0.405278  0.407050  0.250000  1
  Sn  Sn11  1  0.594722  0.001772  0.250000  1
  Sn  Sn12  1  0.000000  0.593455  0.250000  1
  Sn  Sn13  1  0.596900  0.596256  0.750000  1
  Sn  Sn14  1  0.403100  0.999356  0.750000  1
  Sn  Sn15  1  0.000000  0.400490  0.750000  1
  C  C16  1  0.000000  0.992719  0.490299  1
  C  C17  1  0.000000  0.992719  0.009701  1
