# generated using pymatgen
data_Dy6Al24IrRu2Rh5
_symmetry_space_group_name_H-M   'P 1'
_cell_length_a   8.82640430
_cell_length_b   8.82640403
_cell_length_c   9.51816332
_cell_angle_alpha   89.85356177
_cell_angle_beta   90.14643459
_cell_angle_gamma   120.16439054
_symmetry_Int_Tables_number   1
_chemical_formula_structural   Dy6Al24IrRu2Rh5
_chemical_formula_sum   'Dy6 Al24 Ir1 Ru2 Rh5'
_cell_volume   641.10286511
_cell_formula_units_Z   1
loop_
 _symmetry_equiv_pos_site_id
 _symmetry_equiv_pos_as_xyz
  1  'x, y, z'
loop_
 _atom_site_type_symbol
 _atom_site_label
 _atom_site_symmetry_multiplicity
 _atom_site_fract_x
 _atom_site_fract_y
 _atom_site_fract_z
 _atom_site_occupancy
  Dy  Dy0  1  0.191610  0.808390  0.250400  1
  Dy  Dy1  1  0.192537  0.383565  0.250522  1
  Dy  Dy2  1  0.616435  0.807463  0.250522  1
  Dy  Dy3  1  0.808390  0.191610  0.749600  1
  Dy  Dy4  1  0.807463  0.616435  0.749478  1
  Dy  Dy5  1  0.383565  0.192537  0.749478  1
  Al  Al6  1  0.562056  0.437944  0.249682  1
  Al  Al7  1  0.561819  0.123846  0.249831  1
  Al  Al8  1  0.876154  0.438181  0.249831  1
  Al  Al9  1  0.437944  0.562056  0.750318  1
  Al  Al10  1  0.438181  0.876154  0.750169  1
  Al  Al11  1  0.123846  0.561819  0.750169  1
  Al  Al12  1  0.326289  0.163662  0.424125  1
  Al  Al13  1  0.837204  0.162796  0.423454  1
  Al  Al14  1  0.836338  0.673711  0.424125  1
  Al  Al15  1  0.673711  0.836338  0.575875  1
  Al  Al16  1  0.162796  0.837204  0.576546  1
  Al  Al17  1  0.163662  0.326289  0.575875  1
  Al  Al18  1  0.674141  0.837135  0.923895  1
  Al  Al19  1  0.162911  0.837089  0.924006  1
  Al  Al20  1  0.162865  0.325859  0.923895  1
  Al  Al21  1  0.325859  0.162865  0.076105  1
  Al  Al22  1  0.837089  0.162911  0.075994  1
  Al  Al23  1  0.837135  0.674141  0.076105  1
  Al  Al24  1  0.666516  0.333484  0.528930  1
  Al  Al25  1  0.333484  0.666516  0.471070  1
  Al  Al26  1  0.333409  0.666591  0.028800  1
  Al  Al27  1  0.666591  0.333409  0.971200  1
  Al  Al28  1  0.000011  0.999989  0.249869  1
  Al  Al29  1  0.999989  0.000011  0.750131  1
  Ir  Ir30  1  0.500000  0.500000  0.500000  1
  Ru  Ru31  1  0.000000  0.000000  0.500000  1
  Ru  Ru32  1  0.000000  0.000000  0.000000  1
  Rh  Rh33  1  0.500000  0.000000  0.500000  1
  Rh  Rh34  1  0.000000  0.500000  0.500000  1
  Rh  Rh35  1  0.500000  0.500000  0.000000  1
  Rh  Rh36  1  0.500000  0.000000  0.000000  1
  Rh  Rh37  1  0.000000  0.500000  0.000000  1
