# generated using pymatgen
data_TbNd5(RuCl3)2
_symmetry_space_group_name_H-M   'P 1'
_cell_length_a   4.12343700
_cell_length_b   8.76328054
_cell_length_c   11.85505965
_cell_angle_alpha   87.76602094
_cell_angle_beta   90.00000000
_cell_angle_gamma   90.00000000
_symmetry_Int_Tables_number   1
_chemical_formula_structural   TbNd5(RuCl3)2
_chemical_formula_sum   'Tb1 Nd5 Ru2 Cl6'
_cell_volume   428.05504687
_cell_formula_units_Z   1
loop_
 _symmetry_equiv_pos_site_id
 _symmetry_equiv_pos_as_xyz
  1  'x, y, z'
loop_
 _atom_site_type_symbol
 _atom_site_label
 _atom_site_symmetry_multiplicity
 _atom_site_fract_x
 _atom_site_fract_y
 _atom_site_fract_z
 _atom_site_occupancy
  Tb  Tb0  1  0.750000  0.122445  0.157840  1
  Nd  Nd1  1  0.250000  0.321516  0.377714  1
  Nd  Nd2  1  0.750000  0.678835  0.618672  1
  Nd  Nd3  1  0.250000  0.888314  0.375469  1
  Nd  Nd4  1  0.750000  0.114772  0.623623  1
  Nd  Nd5  1  0.250000  0.877491  0.846021  1
  Ru  Ru6  1  0.250000  0.896227  0.618887  1
  Ru  Ru7  1  0.750000  0.104975  0.381062  1
  Cl  Cl8  1  0.250000  0.402785  0.621738  1
  Cl  Cl9  1  0.750000  0.596933  0.375022  1
  Cl  Cl10  1  0.250000  0.909058  0.111911  1
  Cl  Cl11  1  0.750000  0.100761  0.896533  1
  Cl  Cl12  1  0.250000  0.330275  0.126036  1
  Cl  Cl13  1  0.750000  0.655611  0.869472  1
