# generated using pymatgen
data_Nd2TmMg3AgPb2
_symmetry_space_group_name_H-M   'P 1'
_cell_length_a   7.72648400
_cell_length_b   7.64007749
_cell_length_c   4.61772600
_cell_angle_alpha   90.00000000
_cell_angle_beta   90.00000000
_cell_angle_gamma   120.37483036
_symmetry_Int_Tables_number   1
_chemical_formula_structural   Nd2TmMg3AgPb2
_chemical_formula_sum   'Nd2 Tm1 Mg3 Ag1 Pb2'
_cell_volume   235.17204436
_cell_formula_units_Z   1
loop_
 _symmetry_equiv_pos_site_id
 _symmetry_equiv_pos_as_xyz
  1  'x, y, z'
loop_
 _atom_site_type_symbol
 _atom_site_label
 _atom_site_symmetry_multiplicity
 _atom_site_fract_x
 _atom_site_fract_y
 _atom_site_fract_z
 _atom_site_occupancy
  Nd  Nd0  1  0.002376  0.588296  0.000000  1
  Nd  Nd1  1  0.414080  0.411704  0.000000  1
  Tm  Tm2  1  0.591288  0.000000  0.000000  1
  Mg  Mg3  1  0.233854  0.000000  0.500000  1
  Mg  Mg4  1  0.998195  0.232194  0.500000  1
  Mg  Mg5  1  0.766001  0.767806  0.500000  1
  Ag  Ag6  1  0.990473  0.000000  0.000000  1
  Pb  Pb7  1  0.340234  0.676734  0.500000  1
  Pb  Pb8  1  0.663501  0.323266  0.500000  1
