# generated using pymatgen
data_YCo(BrO3)6
_symmetry_space_group_name_H-M   'P 1'
_cell_length_a   9.22554900
_cell_length_b   9.22554843
_cell_length_c   5.78639500
_cell_angle_alpha   90.00000000
_cell_angle_beta   90.00000000
_cell_angle_gamma   119.99999130
_symmetry_Int_Tables_number   1
_chemical_formula_structural   YCo(BrO3)6
_chemical_formula_sum   'Y1 Co1 Br6 O18'
_cell_volume   426.50404977
_cell_formula_units_Z   1
loop_
 _symmetry_equiv_pos_site_id
 _symmetry_equiv_pos_as_xyz
  1  'x, y, z'
loop_
 _atom_site_type_symbol
 _atom_site_label
 _atom_site_symmetry_multiplicity
 _atom_site_fract_x
 _atom_site_fract_y
 _atom_site_fract_z
 _atom_site_occupancy
  Y  Y0  1  0.333333  0.666667  0.179906  1
  Co  Co1  1  0.666667  0.333333  0.698183  1
  Br  Br2  1  0.691081  0.045826  0.379014  1
  Br  Br3  1  0.337422  0.001954  0.847890  1
  Br  Br4  1  0.998046  0.335466  0.847890  1
  Br  Br5  1  0.354745  0.308919  0.379014  1
  Br  Br6  1  0.954174  0.645255  0.379014  1
  Br  Br7  1  0.664534  0.662578  0.847890  1
  O  O8  1  0.778395  0.808592  0.035397  1
  O  O9  1  0.923762  0.770641  0.546095  1
  O  O10  1  0.846878  0.076238  0.546095  1
  O  O11  1  0.191408  0.969803  0.035397  1
  O  O12  1  0.030197  0.221605  0.035397  1
  O  O13  1  0.229359  0.153122  0.546095  1
  O  O14  1  0.727641  0.516639  0.907745  1
  O  O15  1  0.159197  0.703381  0.423117  1
  O  O16  1  0.554295  0.418738  0.507021  1
  O  O17  1  0.100881  0.535346  0.960159  1
  O  O18  1  0.434464  0.899119  0.960159  1
  O  O19  1  0.581262  0.135556  0.507021  1
  O  O20  1  0.864444  0.445705  0.507021  1
  O  O21  1  0.464654  0.565536  0.960159  1
  O  O22  1  0.296619  0.455817  0.423117  1
  O  O23  1  0.788998  0.272359  0.907745  1
  O  O24  1  0.483361  0.211002  0.907745  1
  O  O25  1  0.544183  0.840803  0.423117  1
