# generated using pymatgen
data_Th2InAgRh
_symmetry_space_group_name_H-M   'P 1'
_cell_length_a   8.06708948
_cell_length_b   8.06708960
_cell_length_c   3.84033200
_cell_angle_alpha   90.00000000
_cell_angle_beta   90.00000000
_cell_angle_gamma   88.91933851
_symmetry_Int_Tables_number   1
_chemical_formula_structural   Th2InAgRh
_chemical_formula_sum   'Th4 In2 Ag2 Rh2'
_cell_volume   249.87641892
_cell_formula_units_Z   2
loop_
 _symmetry_equiv_pos_site_id
 _symmetry_equiv_pos_as_xyz
  1  'x, y, z'
loop_
 _atom_site_type_symbol
 _atom_site_label
 _atom_site_symmetry_multiplicity
 _atom_site_fract_x
 _atom_site_fract_y
 _atom_site_fract_z
 _atom_site_occupancy
  Th  Th0  1  0.659862  0.159862  0.500000  1
  Th  Th1  1  0.340138  0.840138  0.500000  1
  Th  Th2  1  0.188509  0.311491  0.500000  1
  Th  Th3  1  0.811491  0.688509  0.500000  1
  In  In4  1  0.000000  0.000000  0.000000  1
  In  In5  1  0.500000  0.500000  0.000000  1
  Ag  Ag6  1  0.125684  0.625684  0.000000  1
  Ag  Ag7  1  0.874316  0.374316  0.000000  1
  Rh  Rh8  1  0.632080  0.867920  0.000000  1
  Rh  Rh9  1  0.367920  0.132080  0.000000  1
