# generated using pymatgen
data_Y4MgSc3Pt4
_symmetry_space_group_name_H-M   'P 1'
_cell_length_a   4.57289200
_cell_length_b   7.02615100
_cell_length_c   8.41604473
_cell_angle_alpha   92.59106716
_cell_angle_beta   90.00000000
_cell_angle_gamma   90.00000000
_symmetry_Int_Tables_number   1
_chemical_formula_structural   Y4MgSc3Pt4
_chemical_formula_sum   'Y4 Mg1 Sc3 Pt4'
_cell_volume   270.12962887
_cell_formula_units_Z   1
loop_
 _symmetry_equiv_pos_site_id
 _symmetry_equiv_pos_as_xyz
  1  'x, y, z'
loop_
 _atom_site_type_symbol
 _atom_site_label
 _atom_site_symmetry_multiplicity
 _atom_site_fract_x
 _atom_site_fract_y
 _atom_site_fract_z
 _atom_site_occupancy
  Y  Y0  1  0.250000  0.981598  0.320745  1
  Y  Y1  1  0.250000  0.472518  0.169120  1
  Y  Y2  1  0.750000  0.027767  0.684415  1
  Y  Y3  1  0.750000  0.512826  0.830275  1
  Mg  Mg4  1  0.750000  0.144225  0.072373  1
  Sc  Sc5  1  0.250000  0.367070  0.569195  1
  Sc  Sc6  1  0.250000  0.854741  0.932946  1
  Sc  Sc7  1  0.750000  0.641924  0.428439  1
  Pt  Pt8  1  0.250000  0.234600  0.879465  1
  Pt  Pt9  1  0.250000  0.748260  0.599985  1
  Pt  Pt10  1  0.750000  0.754129  0.110225  1
  Pt  Pt11  1  0.750000  0.260341  0.402815  1
