# generated using pymatgen
data_K4MnAl4Cr3F24
_symmetry_space_group_name_H-M   'P 1'
_cell_length_a   7.06569550
_cell_length_b   7.21094200
_cell_length_c   9.95508220
_cell_angle_alpha   90.00000000
_cell_angle_beta   89.75896237
_cell_angle_gamma   90.00000000
_symmetry_Int_Tables_number   1
_chemical_formula_structural   K4MnAl4Cr3F24
_chemical_formula_sum   'K4 Mn1 Al4 Cr3 F24'
_cell_volume   507.21014020
_cell_formula_units_Z   1
loop_
 _symmetry_equiv_pos_site_id
 _symmetry_equiv_pos_as_xyz
  1  'x, y, z'
loop_
 _atom_site_type_symbol
 _atom_site_label
 _atom_site_symmetry_multiplicity
 _atom_site_fract_x
 _atom_site_fract_y
 _atom_site_fract_z
 _atom_site_occupancy
  K  K0  1  0.987961  0.250000  0.381852  1
  K  K1  1  0.512948  0.750000  0.881138  1
  K  K2  1  0.489210  0.250000  0.118805  1
  K  K3  1  0.011494  0.750000  0.618368  1
  Mn  Mn4  1  0.307818  0.250000  0.765150  1
  Al  Al5  1  0.499811  0.000303  0.500063  1
  Al  Al6  1  0.999142  0.500059  0.000131  1
  Al  Al7  1  0.499811  0.499697  0.500063  1
  Al  Al8  1  0.999142  0.999941  0.000131  1
  Cr  Cr9  1  0.686953  0.750000  0.239699  1
  Cr  Cr10  1  0.187479  0.750000  0.261098  1
  Cr  Cr11  1  0.813139  0.250000  0.738082  1
  F  F12  1  0.607916  0.015822  0.333613  1
  F  F13  1  0.107898  0.484757  0.165402  1
  F  F14  1  0.391768  0.513317  0.666616  1
  F  F15  1  0.893692  0.983963  0.834080  1
  F  F16  1  0.391768  0.986683  0.666616  1
  F  F17  1  0.893692  0.516037  0.834080  1
  F  F18  1  0.607916  0.484178  0.333613  1
  F  F19  1  0.107898  0.015243  0.165402  1
  F  F20  1  0.728077  0.049676  0.574869  1
  F  F21  1  0.228591  0.447232  0.923779  1
  F  F22  1  0.271730  0.550596  0.424747  1
  F  F23  1  0.771116  0.949426  0.075663  1
  F  F24  1  0.066049  0.250000  0.649301  1
  F  F25  1  0.576100  0.250000  0.847862  1
  F  F26  1  0.929851  0.750000  0.344678  1
  F  F27  1  0.430518  0.750000  0.155276  1
  F  F28  1  0.439025  0.250000  0.495293  1
  F  F29  1  0.939804  0.250000  0.005741  1
  F  F30  1  0.560231  0.750000  0.505308  1
  F  F31  1  0.061939  0.750000  0.994421  1
  F  F32  1  0.228591  0.052768  0.923779  1
  F  F33  1  0.728077  0.450324  0.574869  1
  F  F34  1  0.771116  0.550574  0.075663  1
  F  F35  1  0.271730  0.949404  0.424747  1
