# generated using pymatgen
data_Pr5Ir2Ru
_symmetry_space_group_name_H-M   'P 1'
_cell_length_a   11.30202000
_cell_length_b   11.30202000
_cell_length_c   6.67629200
_cell_angle_alpha   90.00000000
_cell_angle_beta   90.00000000
_cell_angle_gamma   90.00000000
_symmetry_Int_Tables_number   1
_chemical_formula_structural   Pr5Ir2Ru
_chemical_formula_sum   'Pr20 Ir8 Ru4'
_cell_volume   852.80053880
_cell_formula_units_Z   4
loop_
 _symmetry_equiv_pos_site_id
 _symmetry_equiv_pos_as_xyz
  1  'x, y, z'
loop_
 _atom_site_type_symbol
 _atom_site_label
 _atom_site_symmetry_multiplicity
 _atom_site_fract_x
 _atom_site_fract_y
 _atom_site_fract_z
 _atom_site_occupancy
  Pr  Pr0  1  0.293190  0.087948  0.381201  1
  Pr  Pr1  1  0.293190  0.912052  0.881201  1
  Pr  Pr2  1  0.706810  0.087948  0.881201  1
  Pr  Pr3  1  0.706810  0.912052  0.381201  1
  Pr  Pr4  1  0.587948  0.793190  0.881201  1
  Pr  Pr5  1  0.587948  0.206810  0.381201  1
  Pr  Pr6  1  0.412052  0.793190  0.381201  1
  Pr  Pr7  1  0.412052  0.206810  0.881201  1
  Pr  Pr8  1  0.206810  0.412052  0.618799  1
  Pr  Pr9  1  0.206810  0.587948  0.118799  1
  Pr  Pr10  1  0.793190  0.412052  0.118799  1
  Pr  Pr11  1  0.793190  0.587948  0.618799  1
  Pr  Pr12  1  0.912052  0.706810  0.118799  1
  Pr  Pr13  1  0.912052  0.293190  0.618799  1
  Pr  Pr14  1  0.087948  0.706810  0.618799  1
  Pr  Pr15  1  0.087948  0.293190  0.118799  1
  Pr  Pr16  1  0.000000  0.000000  0.500000  1
  Pr  Pr17  1  0.000000  0.000000  0.000000  1
  Pr  Pr18  1  0.500000  0.500000  0.000000  1
  Pr  Pr19  1  0.500000  0.500000  0.500000  1
  Ir  Ir20  1  0.846990  0.153010  0.250000  1
  Ir  Ir21  1  0.846990  0.846990  0.750000  1
  Ir  Ir22  1  0.153010  0.153010  0.750000  1
  Ir  Ir23  1  0.153010  0.846990  0.250000  1
  Ir  Ir24  1  0.653010  0.346990  0.750000  1
  Ir  Ir25  1  0.653010  0.653010  0.250000  1
  Ir  Ir26  1  0.346990  0.346990  0.250000  1
  Ir  Ir27  1  0.346990  0.653010  0.750000  1
  Ru  Ru28  1  0.500000  0.000000  0.115046  1
  Ru  Ru29  1  0.500000  0.000000  0.615046  1
  Ru  Ru30  1  0.000000  0.500000  0.884954  1
  Ru  Ru31  1  0.000000  0.500000  0.384954  1
