# generated using pymatgen
data_Ca2La3PrCo4
_symmetry_space_group_name_H-M   'P 1'
_cell_length_a   3.96784200
_cell_length_b   3.96784203
_cell_length_c   21.05762100
_cell_angle_alpha   90.00000000
_cell_angle_beta   90.00000000
_cell_angle_gamma   119.99999978
_symmetry_Int_Tables_number   1
_chemical_formula_structural   Ca2La3PrCo4
_chemical_formula_sum   'Ca2 La3 Pr1 Co4'
_cell_volume   287.11023898
_cell_formula_units_Z   1
loop_
 _symmetry_equiv_pos_site_id
 _symmetry_equiv_pos_as_xyz
  1  'x, y, z'
loop_
 _atom_site_type_symbol
 _atom_site_label
 _atom_site_symmetry_multiplicity
 _atom_site_fract_x
 _atom_site_fract_y
 _atom_site_fract_z
 _atom_site_occupancy
  Ca  Ca0  1  0.333333  0.666667  0.749990  1
  Ca  Ca1  1  0.666667  0.333333  0.249357  1
  La  La2  1  0.000000  0.000000  0.410862  1
  La  La3  1  0.000000  0.000000  0.910085  1
  La  La4  1  0.000000  0.000000  0.589306  1
  Pr  Pr5  1  0.000000  0.000000  0.090383  1
  Co  Co6  1  0.333333  0.666667  0.999812  1
  Co  Co7  1  0.666667  0.333333  0.000004  1
  Co  Co8  1  0.333333  0.666667  0.500236  1
  Co  Co9  1  0.666667  0.333333  0.499963  1
