# generated using pymatgen
data_LaPrB6Ir4Rh5
_symmetry_space_group_name_H-M   'P 1'
_cell_length_a   5.69764500
_cell_length_b   5.69683267
_cell_length_c   8.60453700
_cell_angle_alpha   89.99983758
_cell_angle_beta   90.00030468
_cell_angle_gamma   120.00472288
_symmetry_Int_Tables_number   1
_chemical_formula_structural   LaPrB6Ir4Rh5
_chemical_formula_sum   'La1 Pr1 B6 Ir4 Rh5'
_cell_volume   241.86126347
_cell_formula_units_Z   1
loop_
 _symmetry_equiv_pos_site_id
 _symmetry_equiv_pos_as_xyz
  1  'x, y, z'
loop_
 _atom_site_type_symbol
 _atom_site_label
 _atom_site_symmetry_multiplicity
 _atom_site_fract_x
 _atom_site_fract_y
 _atom_site_fract_z
 _atom_site_occupancy
  La  La0  1  0.999990  0.000000  0.711393  1
  Pr  Pr1  1  0.999968  0.000000  0.295774  1
  B  B2  1  0.333865  0.667802  0.999926  1
  B  B3  1  0.666062  0.332198  0.999926  1
  B  B4  1  0.333712  0.667500  0.332203  1
  B  B5  1  0.666212  0.332500  0.332203  1
  B  B6  1  0.666819  0.333690  0.666445  1
  B  B7  1  0.333129  0.666310  0.666445  1
  Ir  Ir8  1  0.499960  0.000000  0.161863  1
  Ir  Ir9  1  0.499976  0.000000  0.500196  1
  Ir  Ir10  1  0.499993  0.500015  0.499569  1
  Ir  Ir11  1  0.999978  0.499985  0.499569  1
  Rh  Rh12  1  0.500264  0.500349  0.162018  1
  Rh  Rh13  1  0.999915  0.499651  0.162018  1
  Rh  Rh14  1  0.500080  0.000000  0.836340  1
  Rh  Rh15  1  0.500173  0.500369  0.837057  1
  Rh  Rh16  1  0.999804  0.499631  0.837057  1
