# generated using pymatgen
data_Li4Ca6Ag12N
_symmetry_space_group_name_H-M   'P 1'
_cell_length_a   8.52030962
_cell_length_b   8.50859272
_cell_length_c   8.52656294
_cell_angle_alpha   108.90424715
_cell_angle_beta   109.65019606
_cell_angle_gamma   109.36441006
_symmetry_Int_Tables_number   1
_chemical_formula_structural   Li4Ca6Ag12N
_chemical_formula_sum   'Li4 Ca6 Ag12 N1'
_cell_volume   478.71291868
_cell_formula_units_Z   1
loop_
 _symmetry_equiv_pos_site_id
 _symmetry_equiv_pos_as_xyz
  1  'x, y, z'
loop_
 _atom_site_type_symbol
 _atom_site_label
 _atom_site_symmetry_multiplicity
 _atom_site_fract_x
 _atom_site_fract_y
 _atom_site_fract_z
 _atom_site_occupancy
  Li  Li0  1  0.689209  0.345705  0.345153  1
  Li  Li1  1  0.346909  0.001218  0.659544  1
  Li  Li2  1  0.346519  0.685400  0.342236  1
  Li  Li3  1  0.346780  0.350111  0.690364  1
  Ca  Ca4  1  0.997423  0.251612  0.252240  1
  Ca  Ca5  1  0.250031  0.997750  0.247476  1
  Ca  Ca6  1  0.750666  0.002148  0.747850  1
  Ca  Ca7  1  0.746159  0.746303  0.002690  1
  Ca  Ca8  1  0.251051  0.253788  0.000174  1
  Ca  Ca9  1  0.999736  0.744395  0.746595  1
  Ag  Ag10  1  0.495067  0.495705  0.496101  1
  Ag  Ag11  1  0.497859  0.002509  0.998471  1
  Ag  Ag12  1  0.002581  0.501281  0.003701  1
  Ag  Ag13  1  0.011298  0.005089  0.505067  1
  Ag  Ag14  1  0.350139  0.654144  0.004935  1
  Ag  Ag15  1  0.005197  0.349068  0.653103  1
  Ag  Ag16  1  0.009746  0.657791  0.353105  1
  Ag  Ag17  1  0.651447  0.650008  0.304396  1
  Ag  Ag18  1  0.652710  0.005283  0.351196  1
  Ag  Ag19  1  0.649194  0.346511  0.999425  1
  Ag  Ag20  1  0.646145  0.299665  0.648259  1
  Ag  Ag21  1  0.304413  0.654496  0.648267  1
  N  N22  1  0.999721  0.000019  0.999652  1
