# generated using pymatgen
data_NdGdNi2(AsH2)2
_symmetry_space_group_name_H-M   'P 1'
_cell_length_a   4.12222500
_cell_length_b   4.12222649
_cell_length_c   8.27602900
_cell_angle_alpha   90.00000000
_cell_angle_beta   90.00000000
_cell_angle_gamma   119.99999608
_symmetry_Int_Tables_number   1
_chemical_formula_structural   NdGdNi2(AsH2)2
_chemical_formula_sum   'Nd1 Gd1 Ni2 As2 H4'
_cell_volume   121.79128008
_cell_formula_units_Z   1
loop_
 _symmetry_equiv_pos_site_id
 _symmetry_equiv_pos_as_xyz
  1  'x, y, z'
loop_
 _atom_site_type_symbol
 _atom_site_label
 _atom_site_symmetry_multiplicity
 _atom_site_fract_x
 _atom_site_fract_y
 _atom_site_fract_z
 _atom_site_occupancy
  Nd  Nd0  1  0.000000  0.000000  0.500000  1
  Gd  Gd1  1  0.000000  0.000000  0.000000  1
  Ni  Ni2  1  0.666667  0.333333  0.247931  1
  Ni  Ni3  1  0.333333  0.666667  0.752069  1
  As  As4  1  0.333333  0.666667  0.243723  1
  As  As5  1  0.666667  0.333333  0.756277  1
  H  H6  1  0.333333  0.666667  0.944976  1
  H  H7  1  0.666667  0.333333  0.055024  1
  H  H8  1  0.333333  0.666667  0.558751  1
  H  H9  1  0.666667  0.333333  0.441249  1
