# generated using pymatgen
data_TbY2ZnHg3Au2
_symmetry_space_group_name_H-M   'P 1'
_cell_length_a   7.93190491
_cell_length_b   7.93190677
_cell_length_c   3.76107600
_cell_angle_alpha   90.00000000
_cell_angle_beta   90.00000000
_cell_angle_gamma   119.96706433
_symmetry_Int_Tables_number   1
_chemical_formula_structural   TbY2ZnHg3Au2
_chemical_formula_sum   'Tb1 Y2 Zn1 Hg3 Au2'
_cell_volume   204.99434467
_cell_formula_units_Z   1
loop_
 _symmetry_equiv_pos_site_id
 _symmetry_equiv_pos_as_xyz
  1  'x, y, z'
loop_
 _atom_site_type_symbol
 _atom_site_label
 _atom_site_symmetry_multiplicity
 _atom_site_fract_x
 _atom_site_fract_y
 _atom_site_fract_z
 _atom_site_occupancy
  Tb  Tb0  1  0.409861  0.409861  0.000000  1
  Y  Y1  1  0.590381  0.999831  0.000000  1
  Y  Y2  1  0.999831  0.590381  0.000000  1
  Zn  Zn3  1  0.000138  0.000138  0.000000  1
  Hg  Hg4  1  0.259118  0.999966  0.500000  1
  Hg  Hg5  1  0.999966  0.259118  0.500000  1
  Hg  Hg6  1  0.740999  0.740999  0.500000  1
  Au  Au7  1  0.333264  0.666443  0.500000  1
  Au  Au8  1  0.666443  0.333264  0.500000  1
