# generated using pymatgen
data_DyEr11Co4
_symmetry_space_group_name_H-M   'P 1'
_cell_length_a   6.91788177
_cell_length_b   9.35876300
_cell_length_c   6.12276945
_cell_angle_alpha   90.00000000
_cell_angle_beta   90.10249812
_cell_angle_gamma   90.00000000
_symmetry_Int_Tables_number   1
_chemical_formula_structural   DyEr11Co4
_chemical_formula_sum   'Dy1 Er11 Co4'
_cell_volume   396.40470109
_cell_formula_units_Z   1
loop_
 _symmetry_equiv_pos_site_id
 _symmetry_equiv_pos_as_xyz
  1  'x, y, z'
loop_
 _atom_site_type_symbol
 _atom_site_label
 _atom_site_symmetry_multiplicity
 _atom_site_fract_x
 _atom_site_fract_y
 _atom_site_fract_z
 _atom_site_occupancy
  Dy  Dy0  1  0.457921  0.749999  0.139660  1
  Er  Er1  1  0.174753  0.067873  0.176207  1
  Er  Er2  1  0.174753  0.432127  0.176207  1
  Er  Er3  1  0.675624  0.067925  0.323763  1
  Er  Er4  1  0.675624  0.432075  0.323763  1
  Er  Er5  1  0.958465  0.749999  0.359890  1
  Er  Er6  1  0.042057  0.250000  0.640592  1
  Er  Er7  1  0.324490  0.566790  0.675807  1
  Er  Er8  1  0.324490  0.933210  0.675807  1
  Er  Er9  1  0.824998  0.567530  0.824191  1
  Er  Er10  1  0.824998  0.932470  0.824191  1
  Er  Er11  1  0.542388  0.250000  0.859518  1
  Co  Co12  1  0.885994  0.250000  0.048177  1
  Co  Co13  1  0.386401  0.250000  0.451861  1
  Co  Co14  1  0.613946  0.749999  0.549558  1
  Co  Co15  1  0.113100  0.749999  0.950807  1
