# generated using pymatgen
data_PrBi3IrRh3O14
_symmetry_space_group_name_H-M   'P 1'
_cell_length_a   7.34519099
_cell_length_b   7.34519083
_cell_length_c   7.34519120
_cell_angle_alpha   60.61744118
_cell_angle_beta   60.61743819
_cell_angle_gamma   60.61743387
_symmetry_Int_Tables_number   1
_chemical_formula_structural   PrBi3IrRh3O14
_chemical_formula_sum   'Pr1 Bi3 Ir1 Rh3 O14'
_cell_volume   284.12401652
_cell_formula_units_Z   1
loop_
 _symmetry_equiv_pos_site_id
 _symmetry_equiv_pos_as_xyz
  1  'x, y, z'
loop_
 _atom_site_type_symbol
 _atom_site_label
 _atom_site_symmetry_multiplicity
 _atom_site_fract_x
 _atom_site_fract_y
 _atom_site_fract_z
 _atom_site_occupancy
  Pr  Pr0  1  0.125000  0.125000  0.125000  1
  Bi  Bi1  1  0.125000  0.625000  0.125000  1
  Bi  Bi2  1  0.625000  0.125000  0.125000  1
  Bi  Bi3  1  0.125000  0.125000  0.625000  1
  Ir  Ir4  1  0.625000  0.625000  0.625000  1
  Rh  Rh5  1  0.625000  0.625000  0.125000  1
  Rh  Rh6  1  0.125000  0.625000  0.625000  1
  Rh  Rh7  1  0.625000  0.125000  0.625000  1
  O  O8  1  0.254031  0.254031  0.254031  1
  O  O9  1  0.290762  0.708100  0.290762  1
  O  O10  1  0.959238  0.959238  0.541900  1
  O  O11  1  0.545190  0.951080  0.545190  1
  O  O12  1  0.704810  0.704810  0.298920  1
  O  O13  1  0.951080  0.545190  0.545190  1
  O  O14  1  0.704810  0.298920  0.704810  1
  O  O15  1  0.290762  0.290762  0.708100  1
  O  O16  1  0.708100  0.290762  0.290762  1
  O  O17  1  0.298920  0.704810  0.704810  1
  O  O18  1  0.959238  0.541900  0.959238  1
  O  O19  1  0.545190  0.545190  0.951080  1
  O  O20  1  0.995969  0.995969  0.995969  1
  O  O21  1  0.541900  0.959238  0.959238  1
