# generated using pymatgen
data_Ca10TbReN10
_symmetry_space_group_name_H-M   'P 1'
_cell_length_a   7.10116644
_cell_length_b   7.10116529
_cell_length_c   8.96280708
_cell_angle_alpha   80.49358188
_cell_angle_beta   80.49358524
_cell_angle_gamma   59.83248521
_symmetry_Int_Tables_number   1
_chemical_formula_structural   Ca10TbReN10
_chemical_formula_sum   'Ca10 Tb1 Re1 N10'
_cell_volume   383.59018049
_cell_formula_units_Z   1
loop_
 _symmetry_equiv_pos_site_id
 _symmetry_equiv_pos_as_xyz
  1  'x, y, z'
loop_
 _atom_site_type_symbol
 _atom_site_label
 _atom_site_symmetry_multiplicity
 _atom_site_fract_x
 _atom_site_fract_y
 _atom_site_fract_z
 _atom_site_occupancy
  Ca  Ca0  1  0.873596  0.364073  0.823807  1
  Ca  Ca1  1  0.874018  0.874018  0.811183  1
  Ca  Ca2  1  0.737410  0.737410  0.530683  1
  Ca  Ca3  1  0.745650  0.259273  0.514952  1
  Ca  Ca4  1  0.622461  0.139868  0.151369  1
  Ca  Ca5  1  0.364073  0.873596  0.823807  1
  Ca  Ca6  1  0.259273  0.745650  0.514952  1
  Ca  Ca7  1  0.240429  0.240429  0.503880  1
  Ca  Ca8  1  0.140632  0.140632  0.161082  1
  Ca  Ca9  1  0.139868  0.622461  0.151369  1
  Tb  Tb10  1  0.369898  0.369898  0.784940  1
  Re  Re11  1  0.631437  0.631437  0.226902  1
  N  N12  1  0.897673  0.475288  0.313288  1
  N  N13  1  0.991002  0.991002  0.027444  1
  N  N14  1  0.672352  0.672352  0.020773  1
  N  N15  1  0.554630  0.554630  0.681350  1
  N  N16  1  0.475288  0.897673  0.313288  1
  N  N17  1  0.555363  0.063707  0.658729  1
  N  N18  1  0.478553  0.478553  0.296442  1
  N  N19  1  0.314051  0.314051  0.033379  1
  N  N20  1  0.060920  0.060920  0.643460  1
  N  N21  1  0.063707  0.555363  0.658729  1
