# generated using pymatgen
data_BaLa7(GePd)8
_symmetry_space_group_name_H-M   'P 1'
_cell_length_a   4.55927300
_cell_length_b   7.81741557
_cell_length_c   14.93304500
_cell_angle_alpha   89.92570339
_cell_angle_beta   90.00000000
_cell_angle_gamma   90.00000000
_symmetry_Int_Tables_number   1
_chemical_formula_structural   BaLa7(GePd)8
_chemical_formula_sum   'Ba1 La7 Ge8 Pd8'
_cell_volume   532.23913661
_cell_formula_units_Z   1
loop_
 _symmetry_equiv_pos_site_id
 _symmetry_equiv_pos_as_xyz
  1  'x, y, z'
loop_
 _atom_site_type_symbol
 _atom_site_label
 _atom_site_symmetry_multiplicity
 _atom_site_fract_x
 _atom_site_fract_y
 _atom_site_fract_z
 _atom_site_occupancy
  Ba  Ba0  1  0.500000  0.789689  0.253432  1
  La  La1  1  0.000000  0.216916  0.752483  1
  La  La2  1  0.000000  0.216379  0.246145  1
  La  La3  1  0.500000  0.784521  0.747761  1
  La  La4  1  0.000000  0.289205  0.502291  1
  La  La5  1  0.500000  0.714154  0.999934  1
  La  La6  1  0.000000  0.288024  0.995931  1
  La  La7  1  0.500000  0.708522  0.500825  1
  Ge  Ge8  1  0.000000  0.587976  0.856308  1
  Ge  Ge9  1  0.000000  0.580139  0.134297  1
  Ge  Ge10  1  0.500000  0.414386  0.646654  1
  Ge  Ge11  1  0.500000  0.407985  0.355825  1
  Ge  Ge12  1  0.000000  0.921196  0.413931  1
  Ge  Ge13  1  0.000000  0.916311  0.597151  1
  Ge  Ge14  1  0.500000  0.085510  0.089266  1
  Ge  Ge15  1  0.500000  0.084434  0.903098  1
  Pd  Pd16  1  0.000000  0.919879  0.886238  1
  Pd  Pd17  1  0.000000  0.921533  0.103390  1
  Pd  Pd18  1  0.500000  0.081526  0.613652  1
  Pd  Pd19  1  0.500000  0.087670  0.397179  1
  Pd  Pd20  1  0.000000  0.569735  0.359950  1
  Pd  Pd21  1  0.000000  0.583197  0.650056  1
  Pd  Pd22  1  0.500000  0.410854  0.146490  1
  Pd  Pd23  1  0.500000  0.420253  0.847713  1
