# generated using pymatgen
data_Sc2NiP
_symmetry_space_group_name_H-M   'P 1'
_cell_length_a   3.65402964
_cell_length_b   5.21556285
_cell_length_c   6.44467841
_cell_angle_alpha   35.88985633
_cell_angle_beta   106.45916211
_cell_angle_gamma   110.50118865
_symmetry_Int_Tables_number   1
_chemical_formula_structural   Sc2NiP
_chemical_formula_sum   'Sc2 Ni1 P1'
_cell_volume   67.44129373
_cell_formula_units_Z   1
loop_
 _symmetry_equiv_pos_site_id
 _symmetry_equiv_pos_as_xyz
  1  'x, y, z'
loop_
 _atom_site_type_symbol
 _atom_site_label
 _atom_site_symmetry_multiplicity
 _atom_site_fract_x
 _atom_site_fract_y
 _atom_site_fract_z
 _atom_site_occupancy
  Sc  Sc0  1  0.853043  0.804497  0.739397  1
  Sc  Sc1  1  0.571262  0.737390  0.239392  1
  Ni  Ni2  1  0.138717  0.369110  0.740569  1
  P  P3  1  0.284365  0.166715  0.239681  1
