# generated using pymatgen
data_Yb3Pr(Ga12Cu)2
_symmetry_space_group_name_H-M   'P 1'
_cell_length_a   6.16312412
_cell_length_b   6.16312412
_cell_length_c   15.28966900
_cell_angle_alpha   90.00000000
_cell_angle_beta   90.00000000
_cell_angle_gamma   90.38132651
_symmetry_Int_Tables_number   1
_chemical_formula_structural   Yb3Pr(Ga12Cu)2
_chemical_formula_sum   'Yb3 Pr1 Ga24 Cu2'
_cell_volume   580.75143822
_cell_formula_units_Z   1
loop_
 _symmetry_equiv_pos_site_id
 _symmetry_equiv_pos_as_xyz
  1  'x, y, z'
loop_
 _atom_site_type_symbol
 _atom_site_label
 _atom_site_symmetry_multiplicity
 _atom_site_fract_x
 _atom_site_fract_y
 _atom_site_fract_z
 _atom_site_occupancy
  Yb  Yb0  1  0.500000  0.000000  0.757212  1
  Yb  Yb1  1  0.000000  0.500000  0.242440  1
  Yb  Yb2  1  0.500000  0.000000  0.241775  1
  Pr  Pr3  1  0.000000  0.500000  0.757578  1
  Ga  Ga4  1  0.668757  0.168757  0.428842  1
  Ga  Ga5  1  0.668199  0.831801  0.570124  1
  Ga  Ga6  1  0.170118  0.670118  0.568928  1
  Ga  Ga7  1  0.829882  0.329882  0.568928  1
  Ga  Ga8  1  0.500000  0.500000  0.181796  1
  Ga  Ga9  1  0.500000  0.500000  0.818827  1
  Ga  Ga10  1  0.000000  0.000000  0.818827  1
  Ga  Ga11  1  0.000000  0.000000  0.181796  1
  Ga  Ga12  1  0.500000  0.500000  0.342991  1
  Ga  Ga13  1  0.500000  0.500000  0.656575  1
  Ga  Ga14  1  0.000000  0.000000  0.656575  1
  Ga  Ga15  1  0.000000  0.000000  0.342991  1
  Ga  Ga16  1  0.252478  0.752478  0.914661  1
  Ga  Ga17  1  0.252388  0.247612  0.914863  1
  Ga  Ga18  1  0.747612  0.752388  0.914863  1
  Ga  Ga19  1  0.249009  0.250991  0.086664  1
  Ga  Ga20  1  0.750991  0.749009  0.086664  1
  Ga  Ga21  1  0.747522  0.247522  0.914661  1
  Ga  Ga22  1  0.750853  0.250853  0.087200  1
  Ga  Ga23  1  0.249147  0.749147  0.087200  1
  Ga  Ga24  1  0.331243  0.831243  0.428842  1
  Ga  Ga25  1  0.168393  0.331607  0.429619  1
  Ga  Ga26  1  0.831607  0.668393  0.429619  1
  Ga  Ga27  1  0.331801  0.168199  0.570124  1
  Cu  Cu28  1  0.500000  0.000000  0.000161  1
  Cu  Cu29  1  0.000000  0.500000  0.998652  1
