# generated using pymatgen
data_YEr4Zr3(Co4As3)4
_symmetry_space_group_name_H-M   'P 1'
_cell_length_a   12.72043300
_cell_length_b   12.72043364
_cell_length_c   3.82493000
_cell_angle_alpha   90.00000000
_cell_angle_beta   90.00000000
_cell_angle_gamma   120.00000613
_symmetry_Int_Tables_number   1
_chemical_formula_structural   YEr4Zr3(Co4As3)4
_chemical_formula_sum   'Y1 Er4 Zr3 Co16 As12'
_cell_volume   535.99150673
_cell_formula_units_Z   1
loop_
 _symmetry_equiv_pos_site_id
 _symmetry_equiv_pos_as_xyz
  1  'x, y, z'
loop_
 _atom_site_type_symbol
 _atom_site_label
 _atom_site_symmetry_multiplicity
 _atom_site_fract_x
 _atom_site_fract_y
 _atom_site_fract_z
 _atom_site_occupancy
  Y  Y0  1  0.333333  0.666667  0.000000  1
  Er  Er1  1  0.182718  0.182715  0.500000  1
  Er  Er2  1  0.817285  0.000003  0.500000  1
  Er  Er3  1  0.999997  0.817282  0.500000  1
  Er  Er4  1  0.666667  0.333333  0.000000  1
  Zr  Zr5  1  0.561116  0.560997  0.000000  1
  Zr  Zr6  1  0.439003  0.000118  0.000000  1
  Zr  Zr7  1  0.999882  0.438884  0.000000  1
  Co  Co8  1  0.720449  0.720411  0.500000  1
  Co  Co9  1  0.279589  0.000038  0.500000  1
  Co  Co10  1  0.999962  0.279551  0.500000  1
  Co  Co11  1  0.177796  0.373150  0.000000  1
  Co  Co12  1  0.626850  0.804646  0.000000  1
  Co  Co13  1  0.195354  0.822204  0.000000  1
  Co  Co14  1  0.804574  0.626656  0.000000  1
  Co  Co15  1  0.822082  0.195426  0.000000  1
  Co  Co16  1  0.373344  0.177918  0.000000  1
  Co  Co17  1  0.357507  0.479865  0.500000  1
  Co  Co18  1  0.520135  0.877644  0.500000  1
  Co  Co19  1  0.122356  0.642493  0.500000  1
  Co  Co20  1  0.877247  0.519785  0.500000  1
  Co  Co21  1  0.642539  0.122753  0.500000  1
  Co  Co22  1  0.480215  0.357461  0.500000  1
  Co  Co23  1  0.000000  0.000000  0.000000  1
  As  As24  1  0.823221  0.823206  0.000000  1
  As  As25  1  0.176794  0.000015  0.000000  1
  As  As26  1  0.999985  0.176779  0.000000  1
  As  As27  1  0.173507  0.481504  0.500000  1
  As  As28  1  0.518496  0.692004  0.500000  1
  As  As29  1  0.307996  0.826493  0.500000  1
  As  As30  1  0.691907  0.517885  0.500000  1
  As  As31  1  0.825978  0.308093  0.500000  1
  As  As32  1  0.482115  0.174022  0.500000  1
  As  As33  1  0.351408  0.351452  0.000000  1
  As  As34  1  0.648548  0.999956  0.000000  1
  As  As35  1  0.000044  0.648592  0.000000  1
