# generated using pymatgen
data_Hg3Pt4IO14
_symmetry_space_group_name_H-M   'P 1'
_cell_length_a   7.37689836
_cell_length_b   7.26895545
_cell_length_c   7.26895600
_cell_angle_alpha   59.99999752
_cell_angle_beta   60.48286970
_cell_angle_gamma   60.48286427
_symmetry_Int_Tables_number   1
_chemical_formula_structural   Hg3Pt4IO14
_chemical_formula_sum   'Hg3 Pt4 I1 O14'
_cell_volume   277.60948001
_cell_formula_units_Z   1
loop_
 _symmetry_equiv_pos_site_id
 _symmetry_equiv_pos_as_xyz
  1  'x, y, z'
loop_
 _atom_site_type_symbol
 _atom_site_label
 _atom_site_symmetry_multiplicity
 _atom_site_fract_x
 _atom_site_fract_y
 _atom_site_fract_z
 _atom_site_occupancy
  Hg  Hg0  1  0.125000  0.125000  0.125000  1
  Hg  Hg1  1  0.125000  0.625000  0.125000  1
  Hg  Hg2  1  0.125000  0.125000  0.625000  1
  Pt  Pt3  1  0.625000  0.625000  0.125000  1
  Pt  Pt4  1  0.625000  0.625000  0.625000  1
  Pt  Pt5  1  0.625000  0.125000  0.625000  1
  Pt  Pt6  1  0.125000  0.625000  0.625000  1
  I  I7  1  0.625000  0.125000  0.125000  1
  O  O8  1  0.702028  0.291546  0.291546  1
  O  O9  1  0.702028  0.291546  0.714879  1
  O  O10  1  0.964972  0.011676  0.011676  1
  O  O11  1  0.295174  0.706541  0.291743  1
  O  O12  1  0.702028  0.714879  0.291546  1
  O  O13  1  0.954826  0.543459  0.543459  1
  O  O14  1  0.295174  0.706541  0.706541  1
  O  O15  1  0.285028  0.238324  0.238324  1
  O  O16  1  0.954826  0.543459  0.958257  1
  O  O17  1  0.547972  0.958454  0.535121  1
  O  O18  1  0.547972  0.535121  0.958454  1
  O  O19  1  0.954826  0.958257  0.543459  1
  O  O20  1  0.547972  0.958454  0.958454  1
  O  O21  1  0.295174  0.291743  0.706541  1
