# generated using pymatgen
data_Dy5Cu5Ni14
_symmetry_space_group_name_H-M   'P 1'
_cell_length_a   4.94870722
_cell_length_b   4.94870691
_cell_length_c   16.40762221
_cell_angle_alpha   81.32640750
_cell_angle_beta   81.32640803
_cell_angle_gamma   59.99999684
_symmetry_Int_Tables_number   1
_chemical_formula_structural   Dy5Cu5Ni14
_chemical_formula_sum   'Dy5 Cu5 Ni14'
_cell_volume   342.66781767
_cell_formula_units_Z   1
loop_
 _symmetry_equiv_pos_site_id
 _symmetry_equiv_pos_as_xyz
  1  'x, y, z'
loop_
 _atom_site_type_symbol
 _atom_site_label
 _atom_site_symmetry_multiplicity
 _atom_site_fract_x
 _atom_site_fract_y
 _atom_site_fract_z
 _atom_site_occupancy
  Dy  Dy0  1  0.999461  0.999461  0.001617  1
  Dy  Dy1  1  0.077565  0.077565  0.767304  1
  Dy  Dy2  1  0.921539  0.921539  0.235383  1
  Dy  Dy3  1  0.151943  0.151943  0.544170  1
  Dy  Dy4  1  0.848038  0.848038  0.455886  1
  Cu  Cu5  1  0.250584  0.250584  0.248249  1
  Cu  Cu6  1  0.749659  0.749659  0.751025  1
  Cu  Cu7  1  0.333354  0.333354  0.999936  1
  Cu  Cu8  1  0.666733  0.666733  0.999801  1
  Cu  Cu9  1  0.416309  0.416309  0.751072  1
  Ni  Ni10  1  0.500045  0.500045  0.499865  1
  Ni  Ni11  1  0.583903  0.583903  0.248290  1
  Ni  Ni12  1  0.123574  0.624897  0.626632  1
  Ni  Ni13  1  0.624897  0.624897  0.626632  1
  Ni  Ni14  1  0.624897  0.123574  0.626632  1
  Ni  Ni15  1  0.875415  0.376073  0.372438  1
  Ni  Ni16  1  0.376073  0.376073  0.372438  1
  Ni  Ni17  1  0.376073  0.875415  0.372438  1
  Ni  Ni18  1  0.041322  0.541319  0.876039  1
  Ni  Ni19  1  0.541319  0.541319  0.876039  1
  Ni  Ni20  1  0.541319  0.041322  0.876039  1
  Ni  Ni21  1  0.957092  0.459442  0.124024  1
  Ni  Ni22  1  0.459442  0.459442  0.124024  1
  Ni  Ni23  1  0.459442  0.957092  0.124024  1
