# generated using pymatgen
data_Cs12Mn3GaS12
_symmetry_space_group_name_H-M   'P 1'
_cell_length_a   13.77614304
_cell_length_b   8.33684660
_cell_length_c   11.02879794
_cell_angle_alpha   52.77593898
_cell_angle_beta   89.19676039
_cell_angle_gamma   89.64276131
_symmetry_Int_Tables_number   1
_chemical_formula_structural   Cs12Mn3GaS12
_chemical_formula_sum   'Cs12 Mn3 Ga1 S12'
_cell_volume   1008.50214606
_cell_formula_units_Z   1
loop_
 _symmetry_equiv_pos_site_id
 _symmetry_equiv_pos_as_xyz
  1  'x, y, z'
loop_
 _atom_site_type_symbol
 _atom_site_label
 _atom_site_symmetry_multiplicity
 _atom_site_fract_x
 _atom_site_fract_y
 _atom_site_fract_z
 _atom_site_occupancy
  Cs  Cs0  1  0.927930  0.352320  0.390488  1
  Cs  Cs1  1  0.427520  0.637700  0.116973  1
  Cs  Cs2  1  0.070527  0.647752  0.609693  1
  Cs  Cs3  1  0.572770  0.356364  0.888612  1
  Cs  Cs4  1  0.196001  0.137687  0.581258  1
  Cs  Cs5  1  0.698184  0.865524  0.911679  1
  Cs  Cs6  1  0.803483  0.864072  0.413849  1
  Cs  Cs7  1  0.301416  0.134670  0.086287  1
  Cs  Cs8  1  0.634382  0.381100  0.482954  1
  Cs  Cs9  1  0.129806  0.617341  0.022897  1
  Cs  Cs10  1  0.366969  0.611049  0.523826  1
  Cs  Cs11  1  0.869187  0.383656  0.978470  1
  Mn  Mn12  1  0.946355  0.065141  0.844145  1
  Mn  Mn13  1  0.445971  0.936982  0.653334  1
  Mn  Mn14  1  0.054004  0.936333  0.155916  1
  Ga  Ga15  1  0.555558  0.064869  0.340816  1
  S  S16  1  0.397839  0.118016  0.394608  1
  S  S17  1  0.905294  0.868634  0.101178  1
  S  S18  1  0.603443  0.882496  0.600310  1
  S  S19  1  0.095334  0.131797  0.898280  1
  S  S20  1  0.654053  0.342966  0.192693  1
  S  S21  1  0.159143  0.671586  0.303930  1
  S  S22  1  0.337233  0.683999  0.798017  1
  S  S23  1  0.843424  0.332849  0.695367  1
  S  S24  1  0.550000  0.881660  0.250066  1
  S  S25  1  0.046378  0.107748  0.255916  1
  S  S26  1  0.456034  0.092549  0.763514  1
  S  S27  1  0.951761  0.893142  0.744921  1
