# generated using pymatgen
data_Tb4Sc4PtRh3
_symmetry_space_group_name_H-M   'P 1'
_cell_length_a   4.50388400
_cell_length_b   7.02682902
_cell_length_c   8.49918512
_cell_angle_alpha   89.45460531
_cell_angle_beta   90.00000000
_cell_angle_gamma   90.00000000
_symmetry_Int_Tables_number   1
_chemical_formula_structural   Tb4Sc4PtRh3
_chemical_formula_sum   'Tb4 Sc4 Pt1 Rh3'
_cell_volume   268.97021809
_cell_formula_units_Z   1
loop_
 _symmetry_equiv_pos_site_id
 _symmetry_equiv_pos_as_xyz
  1  'x, y, z'
loop_
 _atom_site_type_symbol
 _atom_site_label
 _atom_site_symmetry_multiplicity
 _atom_site_fract_x
 _atom_site_fract_y
 _atom_site_fract_z
 _atom_site_occupancy
  Tb  Tb0  1  0.250000  0.020273  0.673091  1
  Tb  Tb1  1  0.250000  0.522412  0.823466  1
  Tb  Tb2  1  0.750000  0.981249  0.327250  1
  Tb  Tb3  1  0.750000  0.478903  0.177159  1
  Sc  Sc4  1  0.250000  0.135949  0.072021  1
  Sc  Sc5  1  0.250000  0.638517  0.428547  1
  Sc  Sc6  1  0.750000  0.861559  0.930695  1
  Sc  Sc7  1  0.750000  0.362230  0.573083  1
  Pt  Pt8  1  0.750000  0.243554  0.898876  1
  Rh  Rh9  1  0.250000  0.258154  0.403003  1
  Rh  Rh10  1  0.250000  0.753915  0.095225  1
  Rh  Rh11  1  0.750000  0.743287  0.597586  1
