# generated using pymatgen
data_Lu3Ga3GePt2
_symmetry_space_group_name_H-M   'P 1'
_cell_length_a   7.09733300
_cell_length_b   7.09733253
_cell_length_c   3.97761700
_cell_angle_alpha   90.00000000
_cell_angle_beta   90.00000000
_cell_angle_gamma   119.99998821
_symmetry_Int_Tables_number   1
_chemical_formula_structural   Lu3Ga3GePt2
_chemical_formula_sum   'Lu3 Ga3 Ge1 Pt2'
_cell_volume   173.51777990
_cell_formula_units_Z   1
loop_
 _symmetry_equiv_pos_site_id
 _symmetry_equiv_pos_as_xyz
  1  'x, y, z'
loop_
 _atom_site_type_symbol
 _atom_site_label
 _atom_site_symmetry_multiplicity
 _atom_site_fract_x
 _atom_site_fract_y
 _atom_site_fract_z
 _atom_site_occupancy
  Lu  Lu0  1  0.006860  0.595338  0.500000  1
  Lu  Lu1  1  0.588478  0.993140  0.500000  1
  Lu  Lu2  1  0.404662  0.411522  0.500000  1
  Ga  Ga3  1  0.008990  0.254570  0.000000  1
  Ga  Ga4  1  0.245580  0.991010  0.000000  1
  Ga  Ga5  1  0.745430  0.754420  0.000000  1
  Ge  Ge6  1  0.666667  0.333333  0.000000  1
  Pt  Pt7  1  0.000000  0.000000  0.500000  1
  Pt  Pt8  1  0.333333  0.666667  0.000000  1
