# generated using pymatgen
data_Nd2IrRhO7
_symmetry_space_group_name_H-M   'P 1'
_cell_length_a   7.40279065
_cell_length_b   7.40391258
_cell_length_c   7.40278966
_cell_angle_alpha   59.99497715
_cell_angle_beta   59.95403363
_cell_angle_gamma   59.99498119
_symmetry_Int_Tables_number   1
_chemical_formula_structural   Nd2IrRhO7
_chemical_formula_sum   'Nd4 Ir2 Rh2 O14'
_cell_volume   286.78281595
_cell_formula_units_Z   2
loop_
 _symmetry_equiv_pos_site_id
 _symmetry_equiv_pos_as_xyz
  1  'x, y, z'
loop_
 _atom_site_type_symbol
 _atom_site_label
 _atom_site_symmetry_multiplicity
 _atom_site_fract_x
 _atom_site_fract_y
 _atom_site_fract_z
 _atom_site_occupancy
  Nd  Nd0  1  0.125000  0.125000  0.125000  1
  Nd  Nd1  1  0.125000  0.625000  0.125000  1
  Nd  Nd2  1  0.625000  0.125000  0.125000  1
  Nd  Nd3  1  0.125000  0.125000  0.625000  1
  Ir  Ir4  1  0.625000  0.625000  0.125000  1
  Ir  Ir5  1  0.125000  0.625000  0.625000  1
  Rh  Rh6  1  0.625000  0.625000  0.625000  1
  Rh  Rh7  1  0.625000  0.125000  0.625000  1
  O  O8  1  0.248860  0.251140  0.248860  1
  O  O9  1  0.295281  0.704719  0.295281  1
  O  O10  1  0.959982  0.953814  0.541074  1
  O  O11  1  0.540277  0.959723  0.540277  1
  O  O12  1  0.708926  0.704870  0.290018  1
  O  O13  1  0.959982  0.545130  0.541074  1
  O  O14  1  0.709723  0.290277  0.709723  1
  O  O15  1  0.290018  0.296186  0.708926  1
  O  O16  1  0.708926  0.296186  0.290018  1
  O  O17  1  0.290018  0.704870  0.708926  1
  O  O18  1  0.954719  0.545281  0.954719  1
  O  O19  1  0.541074  0.545130  0.959982  1
  O  O20  1  0.001140  0.998860  0.001140  1
  O  O21  1  0.541074  0.953814  0.959982  1
