# generated using pymatgen
data_Zr12Zn4Ir7RhN4
_symmetry_space_group_name_H-M   'P 1'
_cell_length_a   8.56929101
_cell_length_b   8.56929084
_cell_length_c   8.57043904
_cell_angle_alpha   60.00442830
_cell_angle_beta   60.00442961
_cell_angle_gamma   60.00000419
_symmetry_Int_Tables_number   1
_chemical_formula_structural   Zr12Zn4Ir7RhN4
_chemical_formula_sum   'Zr12 Zn4 Ir7 Rh1 N4'
_cell_volume   445.04807902
_cell_formula_units_Z   1
loop_
 _symmetry_equiv_pos_site_id
 _symmetry_equiv_pos_as_xyz
  1  'x, y, z'
loop_
 _atom_site_type_symbol
 _atom_site_label
 _atom_site_symmetry_multiplicity
 _atom_site_fract_x
 _atom_site_fract_y
 _atom_site_fract_z
 _atom_site_occupancy
  Zr  Zr0  1  0.807566  0.192399  0.192469  1
  Zr  Zr1  1  0.192399  0.807566  0.192469  1
  Zr  Zr2  1  0.807566  0.807566  0.192469  1
  Zr  Zr3  1  0.192125  0.808489  0.807262  1
  Zr  Zr4  1  0.808489  0.192125  0.807262  1
  Zr  Zr5  1  0.192125  0.192125  0.807262  1
  Zr  Zr6  1  0.442488  0.056133  0.058891  1
  Zr  Zr7  1  0.056133  0.442488  0.058891  1
  Zr  Zr8  1  0.442488  0.442488  0.058891  1
  Zr  Zr9  1  0.057421  0.442502  0.442656  1
  Zr  Zr10  1  0.442502  0.057421  0.442656  1
  Zr  Zr11  1  0.057421  0.057421  0.442656  1
  Zn  Zn12  1  0.625081  0.625081  0.124758  1
  Zn  Zn13  1  0.624574  0.624574  0.625114  1
  Zn  Zn14  1  0.125739  0.624574  0.625114  1
  Zn  Zn15  1  0.624574  0.125739  0.625114  1
  Ir  Ir16  1  0.415076  0.415076  0.414301  1
  Ir  Ir17  1  0.755545  0.415076  0.414301  1
  Ir  Ir18  1  0.415076  0.755545  0.414301  1
  Ir  Ir19  1  0.835135  0.835135  0.494598  1
  Ir  Ir20  1  0.835134  0.835134  0.835048  1
  Ir  Ir21  1  0.494687  0.835134  0.835048  1
  Ir  Ir22  1  0.835134  0.494687  0.835048  1
  Rh  Rh23  1  0.414931  0.414931  0.755204  1
  N  N24  1  0.125057  0.125057  0.624830  1
  N  N25  1  0.125366  0.125366  0.124463  1
  N  N26  1  0.624805  0.125366  0.124463  1
  N  N27  1  0.125366  0.624805  0.124463  1
