# generated using pymatgen
data_V2Ir5Ru
_symmetry_space_group_name_H-M   'P 1'
_cell_length_a   5.46487928
_cell_length_b   5.46487945
_cell_length_c   4.35283400
_cell_angle_alpha   90.00000000
_cell_angle_beta   90.00000000
_cell_angle_gamma   120.14337851
_symmetry_Int_Tables_number   1
_chemical_formula_structural   V2Ir5Ru
_chemical_formula_sum   'V2 Ir5 Ru1'
_cell_volume   112.41768104
_cell_formula_units_Z   1
loop_
 _symmetry_equiv_pos_site_id
 _symmetry_equiv_pos_as_xyz
  1  'x, y, z'
loop_
 _atom_site_type_symbol
 _atom_site_label
 _atom_site_symmetry_multiplicity
 _atom_site_fract_x
 _atom_site_fract_y
 _atom_site_fract_z
 _atom_site_occupancy
  V  V0  1  0.333499  0.666501  0.750000  1
  V  V1  1  0.667577  0.332423  0.250000  1
  Ir  Ir2  1  0.166245  0.334768  0.250000  1
  Ir  Ir3  1  0.665232  0.833755  0.250000  1
  Ir  Ir4  1  0.167131  0.832869  0.250000  1
  Ir  Ir5  1  0.833576  0.665493  0.750000  1
  Ir  Ir6  1  0.334507  0.166424  0.750000  1
  Ru  Ru7  1  0.832233  0.167767  0.750000  1
