# generated using pymatgen
data_Lu5Ir2Rh
_symmetry_space_group_name_H-M   'P 1'
_cell_length_a   10.65004300
_cell_length_b   10.65004300
_cell_length_c   6.28531300
_cell_angle_alpha   90.00000000
_cell_angle_beta   90.00000000
_cell_angle_gamma   90.00000000
_symmetry_Int_Tables_number   1
_chemical_formula_structural   Lu5Ir2Rh
_chemical_formula_sum   'Lu20 Ir8 Rh4'
_cell_volume   712.90167047
_cell_formula_units_Z   4
loop_
 _symmetry_equiv_pos_site_id
 _symmetry_equiv_pos_as_xyz
  1  'x, y, z'
loop_
 _atom_site_type_symbol
 _atom_site_label
 _atom_site_symmetry_multiplicity
 _atom_site_fract_x
 _atom_site_fract_y
 _atom_site_fract_z
 _atom_site_occupancy
  Lu  Lu0  1  0.291041  0.088615  0.378990  1
  Lu  Lu1  1  0.291041  0.911385  0.878990  1
  Lu  Lu2  1  0.708959  0.088615  0.878990  1
  Lu  Lu3  1  0.708959  0.911385  0.378990  1
  Lu  Lu4  1  0.588615  0.791041  0.878990  1
  Lu  Lu5  1  0.588615  0.208959  0.378990  1
  Lu  Lu6  1  0.411385  0.791041  0.378990  1
  Lu  Lu7  1  0.411385  0.208959  0.878990  1
  Lu  Lu8  1  0.208959  0.411385  0.621010  1
  Lu  Lu9  1  0.208959  0.588615  0.121010  1
  Lu  Lu10  1  0.791041  0.411385  0.121010  1
  Lu  Lu11  1  0.791041  0.588615  0.621010  1
  Lu  Lu12  1  0.911385  0.708959  0.121010  1
  Lu  Lu13  1  0.911385  0.291041  0.621010  1
  Lu  Lu14  1  0.088615  0.708959  0.621010  1
  Lu  Lu15  1  0.088615  0.291041  0.121010  1
  Lu  Lu16  1  0.000000  0.000000  0.500000  1
  Lu  Lu17  1  0.000000  0.000000  0.000000  1
  Lu  Lu18  1  0.500000  0.500000  0.000000  1
  Lu  Lu19  1  0.500000  0.500000  0.500000  1
  Ir  Ir20  1  0.846137  0.153863  0.250000  1
  Ir  Ir21  1  0.846137  0.846137  0.750000  1
  Ir  Ir22  1  0.153863  0.153863  0.750000  1
  Ir  Ir23  1  0.153863  0.846137  0.250000  1
  Ir  Ir24  1  0.653863  0.346137  0.750000  1
  Ir  Ir25  1  0.653863  0.653863  0.250000  1
  Ir  Ir26  1  0.346137  0.346137  0.250000  1
  Ir  Ir27  1  0.346137  0.653863  0.750000  1
  Rh  Rh28  1  0.500000  0.000000  0.125132  1
  Rh  Rh29  1  0.500000  0.000000  0.625132  1
  Rh  Rh30  1  0.000000  0.500000  0.874868  1
  Rh  Rh31  1  0.000000  0.500000  0.374868  1
