# generated using pymatgen
data_Tb3Th3(Al3Ru)8
_symmetry_space_group_name_H-M   'P 1'
_cell_length_a   8.89332000
_cell_length_b   8.89331996
_cell_length_c   9.57632200
_cell_angle_alpha   90.00000000
_cell_angle_beta   90.00000000
_cell_angle_gamma   120.00000014
_symmetry_Int_Tables_number   1
_chemical_formula_structural   Tb3Th3(Al3Ru)8
_chemical_formula_sum   'Tb3 Th3 Al24 Ru8'
_cell_volume   655.92956827
_cell_formula_units_Z   1
loop_
 _symmetry_equiv_pos_site_id
 _symmetry_equiv_pos_as_xyz
  1  'x, y, z'
loop_
 _atom_site_type_symbol
 _atom_site_label
 _atom_site_symmetry_multiplicity
 _atom_site_fract_x
 _atom_site_fract_y
 _atom_site_fract_z
 _atom_site_occupancy
  Tb  Tb0  1  0.613428  0.806714  0.750000  1
  Tb  Tb1  1  0.193286  0.806714  0.750000  1
  Tb  Tb2  1  0.193286  0.386572  0.750000  1
  Th  Th3  1  0.391646  0.195823  0.250000  1
  Th  Th4  1  0.804177  0.195823  0.250000  1
  Th  Th5  1  0.804177  0.608354  0.250000  1
  Al  Al6  1  0.435189  0.870378  0.250000  1
  Al  Al7  1  0.129622  0.564811  0.250000  1
  Al  Al8  1  0.435189  0.564811  0.250000  1
  Al  Al9  1  0.559227  0.118455  0.750000  1
  Al  Al10  1  0.881545  0.440773  0.750000  1
  Al  Al11  1  0.559227  0.440773  0.750000  1
  Al  Al12  1  0.163159  0.836841  0.426212  1
  Al  Al13  1  0.163159  0.326319  0.426212  1
  Al  Al14  1  0.673681  0.836841  0.426212  1
  Al  Al15  1  0.838317  0.161683  0.581839  1
  Al  Al16  1  0.838317  0.676633  0.581839  1
  Al  Al17  1  0.323367  0.161683  0.581839  1
  Al  Al18  1  0.838317  0.161683  0.918161  1
  Al  Al19  1  0.838317  0.676633  0.918161  1
  Al  Al20  1  0.323367  0.161683  0.918161  1
  Al  Al21  1  0.163159  0.836841  0.073788  1
  Al  Al22  1  0.163159  0.326319  0.073788  1
  Al  Al23  1  0.673681  0.836841  0.073788  1
  Al  Al24  1  0.333333  0.666667  0.517141  1
  Al  Al25  1  0.666667  0.333333  0.495181  1
  Al  Al26  1  0.666667  0.333333  0.004819  1
  Al  Al27  1  0.333333  0.666667  0.982859  1
  Al  Al28  1  0.000000  0.000000  0.250000  1
  Al  Al29  1  0.000000  0.000000  0.750000  1
  Ru  Ru30  1  0.000000  0.000000  0.501574  1
  Ru  Ru31  1  0.000000  0.000000  0.998426  1
  Ru  Ru32  1  0.500470  0.000940  0.497747  1
  Ru  Ru33  1  0.999060  0.499530  0.497747  1
  Ru  Ru34  1  0.500470  0.499530  0.497747  1
  Ru  Ru35  1  0.500470  0.000940  0.002253  1
  Ru  Ru36  1  0.999060  0.499530  0.002253  1
  Ru  Ru37  1  0.500470  0.499530  0.002253  1
