# generated using pymatgen
data_SmHo18TmSn16
_symmetry_space_group_name_H-M   'P 1'
_cell_length_a   8.01477760
_cell_length_b   8.14513073
_cell_length_c   15.41153519
_cell_angle_alpha   90.02805209
_cell_angle_beta   89.69437439
_cell_angle_gamma   89.89867201
_symmetry_Int_Tables_number   1
_chemical_formula_structural   SmHo18TmSn16
_chemical_formula_sum   'Sm1 Ho18 Tm1 Sn16'
_cell_volume   1006.07075492
_cell_formula_units_Z   1
loop_
 _symmetry_equiv_pos_site_id
 _symmetry_equiv_pos_as_xyz
  1  'x, y, z'
loop_
 _atom_site_type_symbol
 _atom_site_label
 _atom_site_symmetry_multiplicity
 _atom_site_fract_x
 _atom_site_fract_y
 _atom_site_fract_z
 _atom_site_occupancy
  Sm  Sm0  1  0.016647  0.179378  0.904542  1
  Ho  Ho1  1  0.365559  0.837084  0.877241  1
  Ho  Ho2  1  0.867674  0.662321  0.621324  1
  Ho  Ho3  1  0.631937  0.161712  0.377470  1
  Ho  Ho4  1  0.134879  0.337619  0.123046  1
  Ho  Ho5  1  0.634133  0.163092  0.123501  1
  Ho  Ho6  1  0.131887  0.337986  0.377809  1
  Ho  Ho7  1  0.368860  0.837805  0.621805  1
  Ho  Ho8  1  0.866378  0.662419  0.877462  1
  Ho  Ho9  1  0.520081  0.321970  0.903254  1
  Ho  Ho10  1  0.022349  0.179126  0.597253  1
  Ho  Ho11  1  0.478041  0.679112  0.402116  1
  Ho  Ho12  1  0.981332  0.819967  0.096995  1
  Ho  Ho13  1  0.479940  0.678777  0.097282  1
  Ho  Ho14  1  0.978595  0.821382  0.402434  1
  Ho  Ho15  1  0.521321  0.321504  0.596580  1
  Ho  Ho16  1  0.198670  0.503558  0.749378  1
  Ho  Ho17  1  0.698353  0.996630  0.749365  1
  Ho  Ho18  1  0.801839  0.496804  0.250226  1
  Tm  Tm19  1  0.301849  0.003268  0.250538  1
  Sn  Sn20  1  0.297272  0.035687  0.043314  1
  Sn  Sn21  1  0.791307  0.463286  0.458045  1
  Sn  Sn22  1  0.708794  0.964639  0.541468  1
  Sn  Sn23  1  0.206711  0.538954  0.958777  1
  Sn  Sn24  1  0.702006  0.959022  0.959527  1
  Sn  Sn25  1  0.208262  0.536959  0.541320  1
  Sn  Sn26  1  0.291650  0.036077  0.457882  1
  Sn  Sn27  1  0.793662  0.462825  0.041612  1
  Sn  Sn28  1  0.565036  0.618493  0.749826  1
  Sn  Sn29  1  0.064464  0.880858  0.749194  1
  Sn  Sn30  1  0.435496  0.381545  0.250802  1
  Sn  Sn31  1  0.936880  0.117773  0.250296  1
  Sn  Sn32  1  0.330789  0.148453  0.750018  1
  Sn  Sn33  1  0.828422  0.352985  0.748755  1
  Sn  Sn34  1  0.669497  0.851213  0.249596  1
  Sn  Sn35  1  0.169425  0.649714  0.249947  1
