# generated using pymatgen
data_Cs2NbFeS4
_symmetry_space_group_name_H-M   'P 1'
_cell_length_a   7.43995015
_cell_length_b   7.43995080
_cell_length_c   5.64410074
_cell_angle_alpha   79.22889422
_cell_angle_beta   79.22889689
_cell_angle_gamma   117.43292426
_symmetry_Int_Tables_number   1
_chemical_formula_structural   Cs2NbFeS4
_chemical_formula_sum   'Cs2 Nb1 Fe1 S4'
_cell_volume   258.70551758
_cell_formula_units_Z   1
loop_
 _symmetry_equiv_pos_site_id
 _symmetry_equiv_pos_as_xyz
  1  'x, y, z'
loop_
 _atom_site_type_symbol
 _atom_site_label
 _atom_site_symmetry_multiplicity
 _atom_site_fract_x
 _atom_site_fract_y
 _atom_site_fract_z
 _atom_site_occupancy
  Cs  Cs0  1  0.146785  0.853215  0.000000  1
  Cs  Cs1  1  0.853169  0.146831  0.500000  1
  Nb  Nb2  1  0.502240  0.497760  0.000000  1
  Fe  Fe3  1  0.497827  0.502173  0.500000  1
  S  S4  1  0.217423  0.418380  0.840213  1
  S  S5  1  0.581620  0.782577  0.159787  1
  S  S6  1  0.783428  0.582492  0.651083  1
  S  S7  1  0.417508  0.216572  0.348917  1
