# generated using pymatgen
data_Lu3P2Se
_symmetry_space_group_name_H-M   'P 1'
_cell_length_a   6.84222033
_cell_length_b   6.84221995
_cell_length_c   6.84221995
_cell_angle_alpha   146.58357903
_cell_angle_beta   132.05138184
_cell_angle_gamma   59.70270512
_symmetry_Int_Tables_number   1
_chemical_formula_structural   Lu3P2Se
_chemical_formula_sum   'Lu3 P2 Se1'
_cell_volume   129.81965486
_cell_formula_units_Z   1
loop_
 _symmetry_equiv_pos_site_id
 _symmetry_equiv_pos_as_xyz
  1  'x, y, z'
loop_
 _atom_site_type_symbol
 _atom_site_label
 _atom_site_symmetry_multiplicity
 _atom_site_fract_x
 _atom_site_fract_y
 _atom_site_fract_z
 _atom_site_occupancy
  Lu  Lu0  1  0.500000  0.000000  0.500000  1
  Lu  Lu1  1  0.178026  0.678026  0.500000  1
  Lu  Lu2  1  0.821974  0.321974  0.500000  1
  P  P3  1  0.664110  0.664110  0.000000  1
  P  P4  1  0.335890  0.335890  0.000000  1
  Se  Se5  1  0.000000  0.000000  0.000000  1
