# generated using pymatgen
data_Lu4TlBi(TeO6)3
_symmetry_space_group_name_H-M   'P 1'
_cell_length_a   9.15117483
_cell_length_b   9.09739518
_cell_length_c   5.13615001
_cell_angle_alpha   89.99999724
_cell_angle_beta   90.41222451
_cell_angle_gamma   119.80578690
_symmetry_Int_Tables_number   1
_chemical_formula_structural   Lu4TlBi(TeO6)3
_chemical_formula_sum   'Lu4 Tl1 Bi1 Te3 O18'
_cell_volume   371.01709088
_cell_formula_units_Z   1
loop_
 _symmetry_equiv_pos_site_id
 _symmetry_equiv_pos_as_xyz
  1  'x, y, z'
loop_
 _atom_site_type_symbol
 _atom_site_label
 _atom_site_symmetry_multiplicity
 _atom_site_fract_x
 _atom_site_fract_y
 _atom_site_fract_z
 _atom_site_occupancy
  Lu  Lu0  1  0.378323  0.377927  0.998001  1
  Lu  Lu1  1  0.286096  0.999982  0.499437  1
  Lu  Lu2  1  0.713904  0.713886  0.500563  1
  Lu  Lu3  1  0.621677  0.999605  0.001999  1
  Tl  Tl4  1  0.000000  0.287200  0.500000  1
  Bi  Bi5  1  0.000000  0.622095  0.000000  1
  Te  Te6  1  0.341635  0.668583  0.499021  1
  Te  Te7  1  0.000000  0.002837  0.000000  1
  Te  Te8  1  0.658365  0.326948  0.500979  1
  O  O9  1  0.081216  0.884685  0.779490  1
  O  O10  1  0.233633  0.769377  0.290938  1
  O  O11  1  0.141389  0.542024  0.710650  1
  O  O12  1  0.414527  0.869487  0.721028  1
  O  O13  1  0.249089  0.469003  0.271242  1
  O  O14  1  0.123506  0.206475  0.790060  1
  O  O15  1  0.205707  0.119809  0.206549  1
  O  O16  1  0.544689  0.780254  0.286861  1
  O  O17  1  0.463782  0.588125  0.715598  1
  O  O18  1  0.794293  0.914102  0.793451  1
  O  O19  1  0.455311  0.235566  0.713139  1
  O  O20  1  0.585473  0.454960  0.278972  1
  O  O21  1  0.536218  0.124343  0.284402  1
  O  O22  1  0.766367  0.535744  0.709062  1
  O  O23  1  0.918784  0.803468  0.220510  1
  O  O24  1  0.750911  0.219914  0.728758  1
  O  O25  1  0.858611  0.400635  0.289350  1
  O  O26  1  0.876494  0.082969  0.209940  1
