# generated using pymatgen
data_YbEr6(CCl5)2
_symmetry_space_group_name_H-M   'P 1'
_cell_length_a   10.04224546
_cell_length_b   10.04224574
_cell_length_c   12.54445255
_cell_angle_alpha   80.84270691
_cell_angle_beta   80.84270673
_cell_angle_gamma   21.61048732
_symmetry_Int_Tables_number   1
_chemical_formula_structural   YbEr6(CCl5)2
_chemical_formula_sum   'Yb1 Er6 C2 Cl10'
_cell_volume   459.76157830
_cell_formula_units_Z   1
loop_
 _symmetry_equiv_pos_site_id
 _symmetry_equiv_pos_as_xyz
  1  'x, y, z'
loop_
 _atom_site_type_symbol
 _atom_site_label
 _atom_site_symmetry_multiplicity
 _atom_site_fract_x
 _atom_site_fract_y
 _atom_site_fract_z
 _atom_site_occupancy
  Yb  Yb0  1  0.000000  0.000000  0.000000  1
  Er  Er1  1  0.818272  0.818272  0.509623  1
  Er  Er2  1  0.181728  0.181728  0.490377  1
  Er  Er3  1  0.697773  0.697773  0.725703  1
  Er  Er4  1  0.302227  0.302227  0.274297  1
  Er  Er5  1  0.347965  0.347965  0.735230  1
  Er  Er6  1  0.652035  0.652035  0.264770  1
  C  C7  1  0.262851  0.262851  0.626977  1
  C  C8  1  0.737149  0.737149  0.373023  1
  Cl  Cl9  1  0.450128  0.450128  0.879171  1
  Cl  Cl10  1  0.549872  0.549872  0.120829  1
  Cl  Cl11  1  0.786640  0.786640  0.872031  1
  Cl  Cl12  1  0.213360  0.213360  0.127969  1
  Cl  Cl13  1  0.124793  0.124793  0.861649  1
  Cl  Cl14  1  0.074160  0.074160  0.370979  1
  Cl  Cl15  1  0.925840  0.925840  0.629021  1
  Cl  Cl16  1  0.403742  0.403742  0.386662  1
  Cl  Cl17  1  0.596258  0.596258  0.613338  1
  Cl  Cl18  1  0.875207  0.875207  0.138351  1
