# generated using pymatgen
data_LiYb3Mg2Pt3
_symmetry_space_group_name_H-M   'P 1'
_cell_length_a   7.19171745
_cell_length_b   7.17215024
_cell_length_c   4.19133200
_cell_angle_alpha   90.00000000
_cell_angle_beta   90.00000000
_cell_angle_gamma   119.91003540
_symmetry_Int_Tables_number   1
_chemical_formula_structural   LiYb3Mg2Pt3
_chemical_formula_sum   'Li1 Yb3 Mg2 Pt3'
_cell_volume   187.39486358
_cell_formula_units_Z   1
loop_
 _symmetry_equiv_pos_site_id
 _symmetry_equiv_pos_as_xyz
  1  'x, y, z'
loop_
 _atom_site_type_symbol
 _atom_site_label
 _atom_site_symmetry_multiplicity
 _atom_site_fract_x
 _atom_site_fract_y
 _atom_site_fract_z
 _atom_site_occupancy
  Li  Li0  1  0.000000  0.757841  0.000000  1
  Yb  Yb1  1  0.000000  0.423506  0.500000  1
  Yb  Yb2  1  0.589737  0.585939  0.500000  1
  Yb  Yb3  1  0.410263  0.996202  0.500000  1
  Mg  Mg4  1  0.242806  0.240833  0.000000  1
  Mg  Mg5  1  0.757194  0.998027  0.000000  1
  Pt  Pt6  1  0.339522  0.665021  0.000000  1
  Pt  Pt7  1  0.660478  0.325499  0.000000  1
  Pt  Pt8  1  0.000000  0.007132  0.500000  1
