# generated using pymatgen
data_Tb4B16Ir3Pd
_symmetry_space_group_name_H-M   'P 1'
_cell_length_a   7.03106643
_cell_length_b   7.03106641
_cell_length_c   7.03106657
_cell_angle_alpha   111.53221950
_cell_angle_beta   111.60960703
_cell_angle_gamma   105.34884364
_symmetry_Int_Tables_number   1
_chemical_formula_structural   Tb4B16Ir3Pd
_chemical_formula_sum   'Tb4 B16 Ir3 Pd1'
_cell_volume   266.54341348
_cell_formula_units_Z   1
loop_
 _symmetry_equiv_pos_site_id
 _symmetry_equiv_pos_as_xyz
  1  'x, y, z'
loop_
 _atom_site_type_symbol
 _atom_site_label
 _atom_site_symmetry_multiplicity
 _atom_site_fract_x
 _atom_site_fract_y
 _atom_site_fract_z
 _atom_site_occupancy
  Tb  Tb0  1  0.217837  0.213042  0.004795  1
  Tb  Tb1  1  0.791755  0.786958  0.004795  1
  Tb  Tb2  1  0.743824  0.246425  0.497399  1
  Tb  Tb3  1  0.250974  0.753575  0.497399  1
  B  B4  1  0.107228  0.261729  0.368957  1
  B  B5  1  0.893255  0.735876  0.629132  1
  B  B6  1  0.893255  0.264124  0.157380  1
  B  B7  1  0.107228  0.738271  0.845498  1
  B  B8  1  0.733132  0.892209  0.625341  1
  B  B9  1  0.265949  0.106880  0.372827  1
  B  B10  1  0.733132  0.107791  0.840922  1
  B  B11  1  0.265949  0.893120  0.159070  1
  B  B12  1  0.414687  0.411624  0.522726  1
  B  B13  1  0.888536  0.887737  0.472963  1
  B  B14  1  0.585227  0.112263  0.000799  1
  B  B15  1  0.111103  0.588376  0.003063  1
  B  B16  1  0.585227  0.584428  0.472963  1
  B  B17  1  0.111103  0.108039  0.522726  1
  B  B18  1  0.888536  0.415572  0.000799  1
  B  B19  1  0.414687  0.891961  0.003063  1
  Ir  Ir20  1  0.499213  0.262213  0.761426  1
  Ir  Ir21  1  0.499213  0.737787  0.237000  1
  Ir  Ir22  1  0.741906  0.500000  0.241906  1
  Pd  Pd23  1  0.257049  0.500000  0.757049  1
