# generated using pymatgen
data_AcYb(Si2Ir3)2
_symmetry_space_group_name_H-M   'P 1'
_cell_length_a   6.75304896
_cell_length_b   6.75303679
_cell_length_c   6.75304649
_cell_angle_alpha   130.22007939
_cell_angle_beta   115.53172655
_cell_angle_gamma   85.59905199
_symmetry_Int_Tables_number   1
_chemical_formula_structural   AcYb(Si2Ir3)2
_chemical_formula_sum   'Ac1 Yb1 Si4 Ir6'
_cell_volume   202.90387084
_cell_formula_units_Z   1
loop_
 _symmetry_equiv_pos_site_id
 _symmetry_equiv_pos_as_xyz
  1  'x, y, z'
loop_
 _atom_site_type_symbol
 _atom_site_label
 _atom_site_symmetry_multiplicity
 _atom_site_fract_x
 _atom_site_fract_y
 _atom_site_fract_z
 _atom_site_occupancy
  Ac  Ac0  1  0.250000  0.974496  0.724497  1
  Yb  Yb1  1  0.750000  0.033223  0.283223  1
  Si  Si2  1  0.075733  0.279320  0.203587  1
  Si  Si3  1  0.918069  0.717934  0.799865  1
  Si  Si4  1  0.424267  0.627853  0.203586  1
  Si  Si5  1  0.581931  0.381797  0.799865  1
  Ir  Ir6  1  0.502676  0.500162  0.502838  1
  Ir  Ir7  1  0.997324  0.500162  0.997486  1
  Ir  Ir8  1  0.284206  0.999886  0.276847  1
  Ir  Ir9  1  0.723039  0.999886  0.715679  1
  Ir  Ir10  1  0.215794  0.492641  0.715679  1
  Ir  Ir11  1  0.776961  0.492641  0.276847  1
