# generated using pymatgen
data_Li4Yb5Pt4
_symmetry_space_group_name_H-M   'P 1'
_cell_length_a   8.21427305
_cell_length_b   8.21427485
_cell_length_c   8.21427381
_cell_angle_alpha   93.87884249
_cell_angle_beta   93.87884296
_cell_angle_gamma   149.84915742
_symmetry_Int_Tables_number   1
_chemical_formula_structural   Li4Yb5Pt4
_chemical_formula_sum   'Li4 Yb5 Pt4'
_cell_volume   268.80797520
_cell_formula_units_Z   1
loop_
 _symmetry_equiv_pos_site_id
 _symmetry_equiv_pos_as_xyz
  1  'x, y, z'
loop_
 _atom_site_type_symbol
 _atom_site_label
 _atom_site_symmetry_multiplicity
 _atom_site_fract_x
 _atom_site_fract_y
 _atom_site_fract_z
 _atom_site_occupancy
  Li  Li0  1  0.605942  0.077689  0.683630  1
  Li  Li1  1  0.922311  0.605942  0.528253  1
  Li  Li2  1  0.077689  0.394058  0.471747  1
  Li  Li3  1  0.394058  0.922311  0.316370  1
  Yb  Yb4  1  0.129804  0.792362  0.922166  1
  Yb  Yb5  1  0.207638  0.129804  0.337442  1
  Yb  Yb6  1  0.870196  0.207638  0.077834  1
  Yb  Yb7  1  0.500000  0.500000  0.000000  1
  Yb  Yb8  1  0.792362  0.870196  0.662558  1
  Pt  Pt9  1  0.439650  0.249725  0.689375  1
  Pt  Pt10  1  0.560350  0.750275  0.310625  1
  Pt  Pt11  1  0.249725  0.560350  0.810076  1
  Pt  Pt12  1  0.750275  0.439650  0.189924  1
