# generated using pymatgen
data_EuTcP2Ir
_symmetry_space_group_name_H-M   'P 1'
_cell_length_a   6.07446785
_cell_length_b   6.07446741
_cell_length_c   6.07446734
_cell_angle_alpha   140.68125286
_cell_angle_beta   140.68125040
_cell_angle_gamma   56.82035702
_symmetry_Int_Tables_number   1
_chemical_formula_structural   EuTcP2Ir
_chemical_formula_sum   'Eu1 Tc1 P2 Ir1'
_cell_volume   89.25558500
_cell_formula_units_Z   1
loop_
 _symmetry_equiv_pos_site_id
 _symmetry_equiv_pos_as_xyz
  1  'x, y, z'
loop_
 _atom_site_type_symbol
 _atom_site_label
 _atom_site_symmetry_multiplicity
 _atom_site_fract_x
 _atom_site_fract_y
 _atom_site_fract_z
 _atom_site_occupancy
  Eu  Eu0  1  0.000000  0.000000  0.000000  1
  Tc  Tc1  1  0.250000  0.750000  0.500000  1
  P  P2  1  0.640141  0.640141  0.000000  1
  P  P3  1  0.359859  0.359859  0.000000  1
  Ir  Ir4  1  0.750000  0.250000  0.500000  1
