# generated using pymatgen
data_Ho16Lu4(Ir3Ru)3
_symmetry_space_group_name_H-M   'P 1'
_cell_length_a   10.75677000
_cell_length_b   10.75677000
_cell_length_c   6.37620000
_cell_angle_alpha   90.00000000
_cell_angle_beta   90.00000000
_cell_angle_gamma   90.00000000
_symmetry_Int_Tables_number   1
_chemical_formula_structural   Ho16Lu4(Ir3Ru)3
_chemical_formula_sum   'Ho16 Lu4 Ir9 Ru3'
_cell_volume   737.77799253
_cell_formula_units_Z   1
loop_
 _symmetry_equiv_pos_site_id
 _symmetry_equiv_pos_as_xyz
  1  'x, y, z'
loop_
 _atom_site_type_symbol
 _atom_site_label
 _atom_site_symmetry_multiplicity
 _atom_site_fract_x
 _atom_site_fract_y
 _atom_site_fract_z
 _atom_site_occupancy
  Ho  Ho0  1  0.292634  0.086547  0.377372  1
  Ho  Ho1  1  0.292659  0.913633  0.877597  1
  Ho  Ho2  1  0.707341  0.086367  0.877597  1
  Ho  Ho3  1  0.707366  0.913453  0.377372  1
  Ho  Ho4  1  0.586367  0.792659  0.877597  1
  Ho  Ho5  1  0.586547  0.207366  0.377372  1
  Ho  Ho6  1  0.413453  0.792634  0.377372  1
  Ho  Ho7  1  0.413633  0.207341  0.877597  1
  Ho  Ho8  1  0.208738  0.412929  0.623520  1
  Ho  Ho9  1  0.208584  0.587002  0.121123  1
  Ho  Ho10  1  0.791416  0.412998  0.121123  1
  Ho  Ho11  1  0.791262  0.587071  0.623520  1
  Ho  Ho12  1  0.912998  0.708584  0.121123  1
  Ho  Ho13  1  0.912929  0.291262  0.623520  1
  Ho  Ho14  1  0.087071  0.708738  0.623520  1
  Ho  Ho15  1  0.087002  0.291416  0.121123  1
  Lu  Lu16  1  0.000000  0.000000  0.499984  1
  Lu  Lu17  1  0.000000  0.000000  0.999872  1
  Lu  Lu18  1  0.500000  0.500000  0.999872  1
  Lu  Lu19  1  0.500000  0.500000  0.499984  1
  Ir  Ir20  1  0.849197  0.151121  0.250095  1
  Ir  Ir21  1  0.848991  0.848914  0.749928  1
  Ir  Ir22  1  0.151009  0.151086  0.749928  1
  Ir  Ir23  1  0.150803  0.848879  0.250095  1
  Ir  Ir24  1  0.651086  0.348991  0.749928  1
  Ir  Ir25  1  0.651121  0.650803  0.250095  1
  Ir  Ir26  1  0.348879  0.349197  0.250095  1
  Ir  Ir27  1  0.348914  0.651009  0.749928  1
  Ir  Ir28  1  0.000000  0.500000  0.378016  1
  Ru  Ru29  1  0.500000  0.000000  0.122968  1
  Ru  Ru30  1  0.500000  0.000000  0.622899  1
  Ru  Ru31  1  0.000000  0.500000  0.877868  1
