# generated using pymatgen
data_Sr2PBrO4
_symmetry_space_group_name_H-M   'P 1'
_cell_length_a   8.96145100
_cell_length_b   8.53818497
_cell_length_c   9.05368494
_cell_angle_alpha   65.70681351
_cell_angle_beta   90.00000000
_cell_angle_gamma   90.00000000
_symmetry_Int_Tables_number   1
_chemical_formula_structural   Sr2PBrO4
_chemical_formula_sum   'Sr8 P4 Br4 O16'
_cell_volume   631.39795561
_cell_formula_units_Z   4
loop_
 _symmetry_equiv_pos_site_id
 _symmetry_equiv_pos_as_xyz
  1  'x, y, z'
loop_
 _atom_site_type_symbol
 _atom_site_label
 _atom_site_symmetry_multiplicity
 _atom_site_fract_x
 _atom_site_fract_y
 _atom_site_fract_z
 _atom_site_occupancy
  Sr  Sr0  1  0.301773  0.457596  0.149042  1
  Sr  Sr1  1  0.801773  0.042404  0.850958  1
  Sr  Sr2  1  0.698227  0.542404  0.850958  1
  Sr  Sr3  1  0.198227  0.957596  0.149042  1
  Sr  Sr4  1  0.327891  0.964861  0.739357  1
  Sr  Sr5  1  0.827891  0.535139  0.260643  1
  Sr  Sr6  1  0.672109  0.035139  0.260643  1
  Sr  Sr7  1  0.172109  0.464861  0.739357  1
  P  P8  1  0.051320  0.745483  0.953355  1
  P  P9  1  0.551320  0.754517  0.046645  1
  P  P10  1  0.948680  0.254517  0.046645  1
  P  P11  1  0.448680  0.245483  0.953355  1
  Br  Br12  1  0.871895  0.711771  0.508510  1
  Br  Br13  1  0.371895  0.788229  0.491490  1
  Br  Br14  1  0.128105  0.288229  0.491490  1
  Br  Br15  1  0.628105  0.211771  0.508510  1
  O  O16  1  0.078585  0.661656  0.140853  1
  O  O17  1  0.578585  0.838344  0.859147  1
  O  O18  1  0.921415  0.338344  0.859147  1
  O  O19  1  0.421415  0.161656  0.140853  1
  O  O20  1  0.114131  0.282161  0.077400  1
  O  O21  1  0.614131  0.217839  0.922600  1
  O  O22  1  0.885869  0.717839  0.922600  1
  O  O23  1  0.385869  0.782161  0.077400  1
  O  O24  1  0.664712  0.828783  0.130750  1
  O  O25  1  0.164712  0.671217  0.869250  1
  O  O26  1  0.335288  0.171217  0.869250  1
  O  O27  1  0.835288  0.328783  0.130750  1
  O  O28  1  0.418632  0.442552  0.887582  1
  O  O29  1  0.918632  0.057448  0.112418  1
  O  O30  1  0.581368  0.557448  0.112418  1
  O  O31  1  0.081368  0.942552  0.887582  1
