# generated using pymatgen
data_Yb4GaAg4Sn3
_symmetry_space_group_name_H-M   'P 1'
_cell_length_a   6.05010949
_cell_length_b   6.05010716
_cell_length_c   11.08540200
_cell_angle_alpha   83.62974086
_cell_angle_beta   83.62974333
_cell_angle_gamma   46.95533827
_symmetry_Int_Tables_number   1
_chemical_formula_structural   Yb4GaAg4Sn3
_chemical_formula_sum   'Yb4 Ga1 Ag4 Sn3'
_cell_volume   294.36642185
_cell_formula_units_Z   1
loop_
 _symmetry_equiv_pos_site_id
 _symmetry_equiv_pos_as_xyz
  1  'x, y, z'
loop_
 _atom_site_type_symbol
 _atom_site_label
 _atom_site_symmetry_multiplicity
 _atom_site_fract_x
 _atom_site_fract_y
 _atom_site_fract_z
 _atom_site_occupancy
  Yb  Yb0  1  0.681122  0.681122  0.687844  1
  Yb  Yb1  1  0.182525  0.182525  0.173578  1
  Yb  Yb2  1  0.400001  0.400001  0.903585  1
  Yb  Yb3  1  0.899297  0.899297  0.396310  1
  Ga  Ga4  1  0.682839  0.682839  0.979805  1
  Ag  Ag5  1  0.387387  0.387387  0.608207  1
  Ag  Ag6  1  0.880080  0.880080  0.102991  1
  Ag  Ag7  1  0.114299  0.114299  0.895009  1
  Ag  Ag8  1  0.606253  0.606253  0.386638  1
  Sn  Sn9  1  0.183545  0.183545  0.480517  1
  Sn  Sn10  1  0.980906  0.980906  0.687666  1
  Sn  Sn11  1  0.482946  0.482946  0.179048  1
