# generated using pymatgen
data_DyY8Tm11Sn16
_symmetry_space_group_name_H-M   'P 1'
_cell_length_a   7.98169751
_cell_length_b   8.11371749
_cell_length_c   15.33841620
_cell_angle_alpha   89.98864593
_cell_angle_beta   89.98561089
_cell_angle_gamma   89.96166781
_symmetry_Int_Tables_number   1
_chemical_formula_structural   DyY8Tm11Sn16
_chemical_formula_sum   'Dy1 Y8 Tm11 Sn16'
_cell_volume   993.33455965
_cell_formula_units_Z   1
loop_
 _symmetry_equiv_pos_site_id
 _symmetry_equiv_pos_as_xyz
  1  'x, y, z'
loop_
 _atom_site_type_symbol
 _atom_site_label
 _atom_site_symmetry_multiplicity
 _atom_site_fract_x
 _atom_site_fract_y
 _atom_site_fract_z
 _atom_site_occupancy
  Dy  Dy0  1  0.367326  0.836718  0.877512  1
  Y  Y1  1  0.522171  0.321321  0.902739  1
  Y  Y2  1  0.022097  0.178918  0.597194  1
  Y  Y3  1  0.477796  0.678814  0.402731  1
  Y  Y4  1  0.977987  0.821282  0.097223  1
  Y  Y5  1  0.477961  0.678718  0.097557  1
  Y  Y6  1  0.977831  0.821137  0.402755  1
  Y  Y7  1  0.522173  0.321159  0.597167  1
  Y  Y8  1  0.021910  0.179010  0.902830  1
  Tm  Tm9  1  0.867291  0.663056  0.622612  1
  Tm  Tm10  1  0.632844  0.163105  0.377270  1
  Tm  Tm11  1  0.132790  0.336941  0.122921  1
  Tm  Tm12  1  0.632763  0.162995  0.122660  1
  Tm  Tm13  1  0.132843  0.336965  0.377283  1
  Tm  Tm14  1  0.367152  0.836962  0.622610  1
  Tm  Tm15  1  0.867029  0.663116  0.877235  1
  Tm  Tm16  1  0.198100  0.503710  0.749760  1
  Tm  Tm17  1  0.698619  0.996096  0.749835  1
  Tm  Tm18  1  0.801656  0.495872  0.250004  1
  Tm  Tm19  1  0.301655  0.004158  0.250056  1
  Sn  Sn20  1  0.293945  0.037889  0.042470  1
  Sn  Sn21  1  0.794164  0.462831  0.458192  1
  Sn  Sn22  1  0.705763  0.962925  0.541701  1
  Sn  Sn23  1  0.205025  0.535877  0.958521  1
  Sn  Sn24  1  0.707075  0.963181  0.958472  1
  Sn  Sn25  1  0.205821  0.537106  0.541698  1
  Sn  Sn26  1  0.294211  0.037105  0.458216  1
  Sn  Sn27  1  0.794242  0.462865  0.041785  1
  Sn  Sn28  1  0.565027  0.619896  0.749612  1
  Sn  Sn29  1  0.063815  0.879478  0.749625  1
  Sn  Sn30  1  0.435609  0.379371  0.250031  1
  Sn  Sn31  1  0.935574  0.120619  0.250033  1
  Sn  Sn32  1  0.331002  0.148358  0.749719  1
  Sn  Sn33  1  0.831139  0.352329  0.749986  1
  Sn  Sn34  1  0.668776  0.852289  0.250003  1
  Sn  Sn35  1  0.168816  0.647823  0.249982  1
