# generated using pymatgen
data_Pr16Cd4CuRu3
_symmetry_space_group_name_H-M   'P 1'
_cell_length_a   9.98359397
_cell_length_b   9.98359429
_cell_length_c   9.98359426
_cell_angle_alpha   60.35334445
_cell_angle_beta   60.35334436
_cell_angle_gamma   60.35334748
_symmetry_Int_Tables_number   1
_chemical_formula_structural   Pr16Cd4CuRu3
_chemical_formula_sum   'Pr16 Cd4 Cu1 Ru3'
_cell_volume   709.25654640
_cell_formula_units_Z   1
loop_
 _symmetry_equiv_pos_site_id
 _symmetry_equiv_pos_as_xyz
  1  'x, y, z'
loop_
 _atom_site_type_symbol
 _atom_site_label
 _atom_site_symmetry_multiplicity
 _atom_site_fract_x
 _atom_site_fract_y
 _atom_site_fract_z
 _atom_site_occupancy
  Pr  Pr0  1  0.346024  0.346024  0.346024  1
  Pr  Pr1  1  0.350887  0.350887  0.952665  1
  Pr  Pr2  1  0.350887  0.952665  0.350887  1
  Pr  Pr3  1  0.952665  0.350887  0.350887  1
  Pr  Pr4  1  0.800835  0.192383  0.192383  1
  Pr  Pr5  1  0.190231  0.809223  0.809223  1
  Pr  Pr6  1  0.192383  0.800835  0.192383  1
  Pr  Pr7  1  0.809223  0.190231  0.809223  1
  Pr  Pr8  1  0.192383  0.192383  0.800835  1
  Pr  Pr9  1  0.809223  0.809223  0.190231  1
  Pr  Pr10  1  0.941741  0.561075  0.561075  1
  Pr  Pr11  1  0.564516  0.939294  0.939294  1
  Pr  Pr12  1  0.561075  0.941741  0.561075  1
  Pr  Pr13  1  0.939294  0.564516  0.939294  1
  Pr  Pr14  1  0.561075  0.561075  0.941741  1
  Pr  Pr15  1  0.939294  0.939294  0.564516  1
  Cd  Cd16  1  0.578998  0.578998  0.578998  1
  Cd  Cd17  1  0.579761  0.579761  0.261402  1
  Cd  Cd18  1  0.579761  0.261402  0.579761  1
  Cd  Cd19  1  0.261402  0.579761  0.579761  1
  Cu  Cu20  1  0.141648  0.141648  0.141648  1
  Ru  Ru21  1  0.138822  0.138822  0.579049  1
  Ru  Ru22  1  0.138822  0.579049  0.138822  1
  Ru  Ru23  1  0.579049  0.138822  0.138822  1
