# generated using pymatgen
data_Tb3NdCo6(Ni4B3)2
_symmetry_space_group_name_H-M   'P 1'
_cell_length_a   5.04105804
_cell_length_b   5.03739252
_cell_length_c   12.99198800
_cell_angle_alpha   89.99991801
_cell_angle_beta   90.00018626
_cell_angle_gamma   119.98047170
_symmetry_Int_Tables_number   1
_chemical_formula_structural   Tb3NdCo6(Ni4B3)2
_chemical_formula_sum   'Tb3 Nd1 Co6 Ni8 B6'
_cell_volume   285.77166211
_cell_formula_units_Z   1
loop_
 _symmetry_equiv_pos_site_id
 _symmetry_equiv_pos_as_xyz
  1  'x, y, z'
loop_
 _atom_site_type_symbol
 _atom_site_label
 _atom_site_symmetry_multiplicity
 _atom_site_fract_x
 _atom_site_fract_y
 _atom_site_fract_z
 _atom_site_occupancy
  Tb  Tb0  1  0.999992  0.000000  0.500000  1
  Tb  Tb1  1  0.999986  0.000000  0.263821  1
  Tb  Tb2  1  0.999997  0.000000  0.736172  1
  Nd  Nd3  1  0.000001  0.000007  0.000002  1
  Co  Co4  1  0.499990  0.000001  0.383921  1
  Co  Co5  1  0.499990  0.499999  0.383917  1
  Co  Co6  1  0.999988  0.499999  0.383942  1
  Co  Co7  1  0.499995  0.000001  0.616082  1
  Co  Co8  1  0.499995  0.499999  0.616077  1
  Co  Co9  1  0.999994  0.499999  0.616076  1
  Ni  Ni10  1  0.333328  0.666673  0.999993  1
  Ni  Ni11  1  0.666654  0.333319  0.999988  1
  Ni  Ni12  1  0.499983  0.000004  0.158842  1
  Ni  Ni13  1  0.499982  0.499998  0.158876  1
  Ni  Ni14  1  0.999981  0.499999  0.158838  1
  Ni  Ni15  1  0.499998  0.000001  0.841150  1
  Ni  Ni16  1  0.499999  0.499998  0.841146  1
  Ni  Ni17  1  0.999995  0.500000  0.841144  1
  B  B18  1  0.333455  0.666756  0.500004  1
  B  B19  1  0.666530  0.333244  0.500004  1
  B  B20  1  0.333319  0.666685  0.271365  1
  B  B21  1  0.666656  0.333316  0.271363  1
  B  B22  1  0.666591  0.333308  0.728638  1
  B  B23  1  0.333400  0.666692  0.728637  1
