# generated using pymatgen
data_Ba2Zn2Co(PO3)10
_symmetry_space_group_name_H-M   'P 1'
_cell_length_a   5.43210200
_cell_length_b   10.89317356
_cell_length_c   22.86905615
_cell_angle_alpha   71.59347568
_cell_angle_beta   90.00000000
_cell_angle_gamma   90.00000000
_symmetry_Int_Tables_number   1
_chemical_formula_structural   Ba2Zn2Co(PO3)10
_chemical_formula_sum   'Ba4 Zn4 Co2 P20 O60'
_cell_volume   1283.99577106
_cell_formula_units_Z   2
loop_
 _symmetry_equiv_pos_site_id
 _symmetry_equiv_pos_as_xyz
  1  'x, y, z'
loop_
 _atom_site_type_symbol
 _atom_site_label
 _atom_site_symmetry_multiplicity
 _atom_site_fract_x
 _atom_site_fract_y
 _atom_site_fract_z
 _atom_site_occupancy
  Ba  Ba0  1  0.504824  0.389764  0.424395  1
  Ba  Ba1  1  0.495176  0.610236  0.575605  1
  Ba  Ba2  1  0.495176  0.389764  0.924395  1
  Ba  Ba3  1  0.504824  0.610236  0.075605  1
  Zn  Zn4  1  0.500000  0.000000  0.500000  1
  Zn  Zn5  1  0.471579  0.000000  0.750000  1
  Zn  Zn6  1  0.500000  0.000000  0.000000  1
  Zn  Zn7  1  0.528421  0.000000  0.250000  1
  Co  Co8  1  0.550535  0.500000  0.750000  1
  Co  Co9  1  0.449465  0.500000  0.250000  1
  P  P10  1  0.956201  0.682096  0.195656  1
  P  P11  1  0.906425  0.628967  0.925657  1
  P  P12  1  0.776933  0.724983  0.795674  1
  P  P13  1  0.015479  0.160943  0.522170  1
  P  P14  1  0.043799  0.317904  0.804344  1
  P  P15  1  0.984521  0.160943  0.022170  1
  P  P16  1  0.093575  0.628967  0.425657  1
  P  P17  1  0.223067  0.275017  0.204326  1
  P  P18  1  0.015479  0.839057  0.977830  1
  P  P19  1  0.956201  0.317904  0.304344  1
  P  P20  1  0.776933  0.275017  0.704326  1
  P  P21  1  0.984521  0.839057  0.477830  1
  P  P22  1  0.215734  0.957168  0.629547  1
  P  P23  1  0.215734  0.042832  0.870453  1
  P  P24  1  0.043799  0.682096  0.695656  1
  P  P25  1  0.784266  0.042832  0.370453  1
  P  P26  1  0.906425  0.371033  0.574343  1
  P  P27  1  0.093575  0.371033  0.074343  1
  P  P28  1  0.223067  0.724983  0.295674  1
  P  P29  1  0.784266  0.957168  0.129547  1
  O  O30  1  0.344875  0.396126  0.045526  1
  O  O31  1  0.949851  0.484566  0.079278  1
  O  O32  1  0.562198  0.055312  0.407211  1
  O  O33  1  0.992199  0.046651  0.086111  1
  O  O34  1  0.765316  0.149091  0.983719  1
  O  O35  1  0.752751  0.005646  0.183416  1
  O  O36  1  0.606294  0.390480  0.690510  1
  O  O37  1  0.970177  0.696756  0.263681  1
  O  O38  1  0.237760  0.168147  0.994825  1
  O  O39  1  0.247249  0.005646  0.683416  1
  O  O40  1  0.683184  0.853692  0.756679  1
  O  O41  1  0.029823  0.303244  0.736319  1
  O  O42  1  0.316816  0.146308  0.243321  1
  O  O43  1  0.055463  0.826528  0.649072  1
  O  O44  1  0.007801  0.953349  0.913889  1
  O  O45  1  0.752751  0.994354  0.316584  1
  O  O46  1  0.683184  0.146308  0.743321  1
  O  O47  1  0.925233  0.289305  0.041029  1
  O  O48  1  0.765316  0.850909  0.516281  1
  O  O49  1  0.050149  0.515434  0.920722  1
  O  O50  1  0.944537  0.173472  0.350928  1
  O  O51  1  0.344875  0.603874  0.454474  1
  O  O52  1  0.717388  0.384785  0.309261  1
  O  O53  1  0.007801  0.046651  0.586111  1
  O  O54  1  0.884377  0.260909  0.641928  1
  O  O55  1  0.655125  0.396126  0.545526  1
  O  O56  1  0.393706  0.390480  0.190510  1
  O  O57  1  0.437802  0.055312  0.907211  1
  O  O58  1  0.437802  0.944688  0.592789  1
  O  O59  1  0.282612  0.615215  0.690739  1
  O  O60  1  0.606294  0.609520  0.809490  1
  O  O61  1  0.884377  0.739091  0.858072  1
  O  O62  1  0.925233  0.710695  0.458971  1
  O  O63  1  0.762240  0.168147  0.494825  1
  O  O64  1  0.655125  0.603874  0.954474  1
  O  O65  1  0.050149  0.484566  0.579278  1
  O  O66  1  0.074767  0.289305  0.541029  1
  O  O67  1  0.237760  0.831853  0.505175  1
  O  O68  1  0.234684  0.149091  0.483719  1
  O  O69  1  0.194970  0.626132  0.182380  1
  O  O70  1  0.717388  0.615215  0.190739  1
  O  O71  1  0.234684  0.850909  0.016281  1
  O  O72  1  0.194970  0.373868  0.317620  1
  O  O73  1  0.762240  0.831853  0.005175  1
  O  O74  1  0.282612  0.384785  0.809261  1
  O  O75  1  0.029823  0.696756  0.763681  1
  O  O76  1  0.949851  0.515434  0.420722  1
  O  O77  1  0.316816  0.853692  0.256679  1
  O  O78  1  0.115623  0.739091  0.358072  1
  O  O79  1  0.805030  0.373868  0.817620  1
  O  O80  1  0.944537  0.826528  0.149072  1
  O  O81  1  0.992199  0.953349  0.413889  1
  O  O82  1  0.115623  0.260909  0.141928  1
  O  O83  1  0.970177  0.303244  0.236319  1
  O  O84  1  0.562198  0.944688  0.092789  1
  O  O85  1  0.805030  0.626132  0.682380  1
  O  O86  1  0.074767  0.710695  0.958971  1
  O  O87  1  0.055463  0.173472  0.850928  1
  O  O88  1  0.247249  0.994354  0.816584  1
  O  O89  1  0.393706  0.609520  0.309490  1
