# generated using pymatgen
data_Ac8MgHgRu2
_symmetry_space_group_name_H-M   'P 1'
_cell_length_a   10.52920189
_cell_length_b   10.49833389
_cell_length_c   10.49833221
_cell_angle_alpha   60.25077858
_cell_angle_beta   59.90077376
_cell_angle_gamma   59.90077016
_symmetry_Int_Tables_number   1
_chemical_formula_structural   Ac8MgHgRu2
_chemical_formula_sum   'Ac16 Mg2 Hg2 Ru4'
_cell_volume   820.88439965
_cell_formula_units_Z   2
loop_
 _symmetry_equiv_pos_site_id
 _symmetry_equiv_pos_as_xyz
  1  'x, y, z'
loop_
 _atom_site_type_symbol
 _atom_site_label
 _atom_site_symmetry_multiplicity
 _atom_site_fract_x
 _atom_site_fract_y
 _atom_site_fract_z
 _atom_site_occupancy
  Ac  Ac0  1  0.810241  0.189777  0.189777  1
  Ac  Ac1  1  0.190574  0.186999  0.812012  1
  Ac  Ac2  1  0.810419  0.811990  0.187006  1
  Ac  Ac3  1  0.189290  0.810711  0.810711  1
  Ac  Ac4  1  0.596396  0.594524  0.212667  1
  Ac  Ac5  1  0.440075  0.059928  0.059928  1
  Ac  Ac6  1  0.062030  0.439271  0.061524  1
  Ac  Ac7  1  0.437180  0.061525  0.439270  1
  Ac  Ac8  1  0.218323  0.592912  0.592912  1
  Ac  Ac9  1  0.061542  0.438456  0.438456  1
  Ac  Ac10  1  0.596396  0.212667  0.594524  1
  Ac  Ac11  1  0.595850  0.592916  0.592916  1
  Ac  Ac12  1  0.190574  0.812012  0.186999  1
  Ac  Ac13  1  0.810419  0.187006  0.811990  1
  Ac  Ac14  1  0.062030  0.061524  0.439271  1
  Ac  Ac15  1  0.437180  0.439270  0.061525  1
  Mg  Mg16  1  0.820895  0.530897  0.827315  1
  Mg  Mg17  1  0.820895  0.827315  0.530897  1
  Hg  Hg18  1  0.838492  0.828657  0.828657  1
  Hg  Hg19  1  0.504202  0.828657  0.828657  1
  Ru  Ru20  1  0.836648  0.386518  0.386518  1
  Ru  Ru21  1  0.390289  0.386542  0.386542  1
  Ru  Ru22  1  0.390031  0.834880  0.385048  1
  Ru  Ru23  1  0.390031  0.385048  0.834880  1
