# generated using pymatgen
data_PaNbF10
_symmetry_space_group_name_H-M   'P 1'
_cell_length_a   9.34645190
_cell_length_b   9.34645310
_cell_length_c   5.49340910
_cell_angle_alpha   86.81075585
_cell_angle_beta   86.81075511
_cell_angle_gamma   112.73882730
_symmetry_Int_Tables_number   1
_chemical_formula_structural   PaNbF10
_chemical_formula_sum   'Pa2 Nb2 F20'
_cell_volume   440.34628784
_cell_formula_units_Z   2
loop_
 _symmetry_equiv_pos_site_id
 _symmetry_equiv_pos_as_xyz
  1  'x, y, z'
loop_
 _atom_site_type_symbol
 _atom_site_label
 _atom_site_symmetry_multiplicity
 _atom_site_fract_x
 _atom_site_fract_y
 _atom_site_fract_z
 _atom_site_occupancy
  Pa  Pa0  1  0.748088  0.748088  0.753137  1
  Pa  Pa1  1  0.251912  0.251912  0.246863  1
  Nb  Nb2  1  0.204092  0.795908  0.000000  1
  Nb  Nb3  1  0.795908  0.204092  0.000000  1
  F  F4  1  0.397533  0.834030  0.119473  1
  F  F5  1  0.165970  0.602467  0.880527  1
  F  F6  1  0.602467  0.165970  0.880527  1
  F  F7  1  0.834030  0.397533  0.119473  1
  F  F8  1  0.136230  0.136230  0.573193  1
  F  F9  1  0.863770  0.863770  0.426807  1
  F  F10  1  0.345397  0.345397  0.899232  1
  F  F11  1  0.654603  0.654603  0.100768  1
  F  F12  1  0.270030  0.466474  0.347080  1
  F  F13  1  0.533526  0.729970  0.652920  1
  F  F14  1  0.729970  0.533526  0.652920  1
  F  F15  1  0.466474  0.270030  0.347080  1
  F  F16  1  0.012613  0.216023  0.116388  1
  F  F17  1  0.783977  0.987387  0.883612  1
  F  F18  1  0.987387  0.783977  0.883612  1
  F  F19  1  0.216023  0.012613  0.116388  1
  F  F20  1  0.917112  0.279837  0.697715  1
  F  F21  1  0.720163  0.082888  0.302285  1
  F  F22  1  0.082888  0.720163  0.302285  1
  F  F23  1  0.279837  0.917112  0.697715  1
