# generated using pymatgen
data_DyPa3Rh4
_symmetry_space_group_name_H-M   'P 1'
_cell_length_a   3.96218400
_cell_length_b   5.76204007
_cell_length_c   7.54172206
_cell_angle_alpha   89.64507381
_cell_angle_beta   90.00000000
_cell_angle_gamma   90.00000000
_symmetry_Int_Tables_number   1
_chemical_formula_structural   DyPa3Rh4
_chemical_formula_sum   'Dy1 Pa3 Rh4'
_cell_volume   172.17619427
_cell_formula_units_Z   1
loop_
 _symmetry_equiv_pos_site_id
 _symmetry_equiv_pos_as_xyz
  1  'x, y, z'
loop_
 _atom_site_type_symbol
 _atom_site_label
 _atom_site_symmetry_multiplicity
 _atom_site_fract_x
 _atom_site_fract_y
 _atom_site_fract_z
 _atom_site_occupancy
  Dy  Dy0  1  0.750000  0.836979  0.828020  1
  Pa  Pa1  1  0.250000  0.333460  0.674207  1
  Pa  Pa2  1  0.250000  0.169198  0.167017  1
  Pa  Pa3  1  0.750000  0.672419  0.330062  1
  Rh  Rh4  1  0.250000  0.819401  0.551153  1
  Rh  Rh5  1  0.250000  0.661168  0.079703  1
  Rh  Rh6  1  0.750000  0.181615  0.434106  1
  Rh  Rh7  1  0.750000  0.325760  0.935732  1
