# generated using pymatgen
data_Yb4Y5HoZnCuPb6
_symmetry_space_group_name_H-M   'P 1'
_cell_length_a   9.21613500
_cell_length_b   9.21613452
_cell_length_c   6.79961900
_cell_angle_alpha   90.00000000
_cell_angle_beta   90.00000000
_cell_angle_gamma   120.01811873
_symmetry_Int_Tables_number   1
_chemical_formula_structural   Yb4Y5HoZnCuPb6
_chemical_formula_sum   'Yb4 Y5 Ho1 Zn1 Cu1 Pb6'
_cell_volume   500.07313311
_cell_formula_units_Z   1
loop_
 _symmetry_equiv_pos_site_id
 _symmetry_equiv_pos_as_xyz
  1  'x, y, z'
loop_
 _atom_site_type_symbol
 _atom_site_label
 _atom_site_symmetry_multiplicity
 _atom_site_fract_x
 _atom_site_fract_y
 _atom_site_fract_z
 _atom_site_occupancy
  Yb  Yb0  1  0.333029  0.666211  0.500067  1
  Yb  Yb1  1  0.666211  0.333029  0.500067  1
  Yb  Yb2  1  0.666229  0.332996  0.999978  1
  Yb  Yb3  1  0.332996  0.666229  0.999978  1
  Y  Y4  1  0.261116  0.999622  0.755166  1
  Y  Y5  1  0.737447  0.999086  0.244890  1
  Y  Y6  1  0.999622  0.261116  0.755166  1
  Y  Y7  1  0.999086  0.737447  0.244890  1
  Y  Y8  1  0.740240  0.740240  0.754970  1
  Ho  Ho9  1  0.262355  0.262355  0.244190  1
  Zn  Zn10  1  0.002301  0.002301  0.496546  1
  Cu  Cu11  1  0.002928  0.002928  0.004199  1
  Pb  Pb12  1  0.614479  0.999605  0.751160  1
  Pb  Pb13  1  0.383701  0.000185  0.248757  1
  Pb  Pb14  1  0.999605  0.614479  0.751160  1
  Pb  Pb15  1  0.000185  0.383701  0.248757  1
  Pb  Pb16  1  0.384676  0.384676  0.751163  1
  Pb  Pb17  1  0.613797  0.613797  0.248897  1
