# generated using pymatgen
data_Er5Lu5(SiSn3)2
_symmetry_space_group_name_H-M   'P 1'
_cell_length_a   9.07523707
_cell_length_b   9.07712142
_cell_length_c   6.35901700
_cell_angle_alpha   90.00000000
_cell_angle_beta   90.00000000
_cell_angle_gamma   120.00687840
_symmetry_Int_Tables_number   1
_chemical_formula_structural   Er5Lu5(SiSn3)2
_chemical_formula_sum   'Er5 Lu5 Si2 Sn6'
_cell_volume   453.62463891
_cell_formula_units_Z   1
loop_
 _symmetry_equiv_pos_site_id
 _symmetry_equiv_pos_as_xyz
  1  'x, y, z'
loop_
 _atom_site_type_symbol
 _atom_site_label
 _atom_site_symmetry_multiplicity
 _atom_site_fract_x
 _atom_site_fract_y
 _atom_site_fract_z
 _atom_site_occupancy
  Er  Er0  1  0.746559  0.746343  0.750000  1
  Er  Er1  1  0.253441  0.999784  0.750000  1
  Er  Er2  1  0.000000  0.253485  0.750000  1
  Er  Er3  1  0.253677  0.253672  0.250000  1
  Er  Er4  1  0.746323  0.999995  0.250000  1
  Lu  Lu5  1  0.666758  0.333499  0.999913  1
  Lu  Lu6  1  0.333242  0.666742  0.999913  1
  Lu  Lu7  1  0.333242  0.666742  0.500087  1
  Lu  Lu8  1  0.666758  0.333499  0.500087  1
  Lu  Lu9  1  0.000000  0.746954  0.250000  1
  Si  Si10  1  0.000000  0.999354  0.000843  1
  Si  Si11  1  0.000000  0.999354  0.499157  1
  Sn  Sn12  1  0.393231  0.393311  0.750000  1
  Sn  Sn13  1  0.606769  0.000080  0.750000  1
  Sn  Sn14  1  0.000000  0.606393  0.750000  1
  Sn  Sn15  1  0.607800  0.607110  0.250000  1
  Sn  Sn16  1  0.392200  0.999310  0.250000  1
  Sn  Sn17  1  0.000000  0.394372  0.250000  1
