# generated using pymatgen
data_Pr8Nd2Si5Os
_symmetry_space_group_name_H-M   'P 1'
_cell_length_a   7.70162642
_cell_length_b   7.70162662
_cell_length_c   9.13778880
_cell_angle_alpha   114.92403623
_cell_angle_beta   114.92403688
_cell_angle_gamma   90.00000169
_symmetry_Int_Tables_number   1
_chemical_formula_structural   Pr8Nd2Si5Os
_chemical_formula_sum   'Pr8 Nd2 Si5 Os1'
_cell_volume   435.23531689
_cell_formula_units_Z   1
loop_
 _symmetry_equiv_pos_site_id
 _symmetry_equiv_pos_as_xyz
  1  'x, y, z'
loop_
 _atom_site_type_symbol
 _atom_site_label
 _atom_site_symmetry_multiplicity
 _atom_site_fract_x
 _atom_site_fract_y
 _atom_site_fract_z
 _atom_site_occupancy
  Pr  Pr0  1  0.948909  0.806261  0.287113  1
  Pr  Pr1  1  0.338203  0.480851  0.287113  1
  Pr  Pr2  1  0.806261  0.338203  0.287113  1
  Pr  Pr3  1  0.480851  0.948909  0.287113  1
  Pr  Pr4  1  0.019149  0.161797  0.712887  1
  Pr  Pr5  1  0.693739  0.551091  0.712887  1
  Pr  Pr6  1  0.161797  0.693739  0.712887  1
  Pr  Pr7  1  0.551091  0.019149  0.712887  1
  Nd  Nd8  1  0.468623  0.468623  0.937246  1
  Nd  Nd9  1  0.031377  0.031377  0.062754  1
  Si  Si10  1  0.250000  0.250000  0.500000  1
  Si  Si11  1  0.615190  0.884810  0.000000  1
  Si  Si12  1  0.384810  0.115190  0.000000  1
  Si  Si13  1  0.884810  0.384810  0.000000  1
  Si  Si14  1  0.115190  0.615190  0.000000  1
  Os  Os15  1  0.750000  0.750000  0.500000  1
