# generated using pymatgen
data_Nd4Al13Pt9
_symmetry_space_group_name_H-M   'P 1'
_cell_length_a   11.47253000
_cell_length_b   11.47252827
_cell_length_c   4.15573200
_cell_angle_alpha   90.00000000
_cell_angle_beta   90.00000000
_cell_angle_gamma   119.99999923
_symmetry_Int_Tables_number   1
_chemical_formula_structural   Nd4Al13Pt9
_chemical_formula_sum   'Nd4 Al13 Pt9'
_cell_volume   473.69249707
_cell_formula_units_Z   1
loop_
 _symmetry_equiv_pos_site_id
 _symmetry_equiv_pos_as_xyz
  1  'x, y, z'
loop_
 _atom_site_type_symbol
 _atom_site_label
 _atom_site_symmetry_multiplicity
 _atom_site_fract_x
 _atom_site_fract_y
 _atom_site_fract_z
 _atom_site_occupancy
  Nd  Nd0  1  0.203747  0.796253  0.500000  1
  Nd  Nd1  1  0.592505  0.796253  0.500000  1
  Nd  Nd2  1  0.203747  0.407495  0.500000  1
  Nd  Nd3  1  0.666667  0.333333  0.000000  1
  Al  Al4  1  0.948616  0.290876  0.000000  1
  Al  Al5  1  0.709124  0.657740  0.000000  1
  Al  Al6  1  0.948616  0.657740  0.000000  1
  Al  Al7  1  0.342260  0.051384  0.000000  1
  Al  Al8  1  0.164804  0.082403  0.500000  1
  Al  Al9  1  0.917597  0.835196  0.500000  1
  Al  Al10  1  0.709124  0.051384  0.000000  1
  Al  Al11  1  0.531641  0.063281  0.500000  1
  Al  Al12  1  0.917597  0.082403  0.500000  1
  Al  Al13  1  0.342260  0.290876  0.000000  1
  Al  Al14  1  0.531641  0.468359  0.500000  1
  Al  Al15  1  0.936719  0.468359  0.500000  1
  Al  Al16  1  0.333333  0.666667  0.000000  1
  Pt  Pt17  1  0.457717  0.542283  0.000000  1
  Pt  Pt18  1  0.833864  0.916933  0.000000  1
  Pt  Pt19  1  0.457717  0.915433  0.000000  1
  Pt  Pt20  1  0.083067  0.166136  0.000000  1
  Pt  Pt21  1  0.083067  0.916933  0.000000  1
  Pt  Pt22  1  0.791478  0.582955  0.500000  1
  Pt  Pt23  1  0.084567  0.542283  0.000000  1
  Pt  Pt24  1  0.791478  0.208522  0.500000  1
  Pt  Pt25  1  0.417045  0.208522  0.500000  1
