# generated using pymatgen
data_HfMn2(NbRu2)3
_symmetry_space_group_name_H-M   'P 1'
_cell_length_a   4.44692300
_cell_length_b   6.32325200
_cell_length_c   13.36586200
_cell_angle_alpha   89.99985892
_cell_angle_beta   89.99915898
_cell_angle_gamma   89.99975718
_symmetry_Int_Tables_number   1
_chemical_formula_structural   HfMn2(NbRu2)3
_chemical_formula_sum   'Hf2 Mn4 Nb6 Ru12'
_cell_volume   375.83487075
_cell_formula_units_Z   2
loop_
 _symmetry_equiv_pos_site_id
 _symmetry_equiv_pos_as_xyz
  1  'x, y, z'
loop_
 _atom_site_type_symbol
 _atom_site_label
 _atom_site_symmetry_multiplicity
 _atom_site_fract_x
 _atom_site_fract_y
 _atom_site_fract_z
 _atom_site_occupancy
  Hf  Hf0  1  0.000010  0.000000  0.998359  1
  Hf  Hf1  1  0.499993  0.499999  0.168303  1
  Mn  Mn2  1  0.999888  0.999995  0.335925  1
  Mn  Mn3  1  0.499987  0.500003  0.501656  1
  Mn  Mn4  1  0.000005  0.999989  0.665181  1
  Mn  Mn5  1  0.500025  0.500002  0.830583  1
  Nb  Nb6  1  0.000011  0.500000  0.989932  1
  Nb  Nb7  1  0.499996  0.999999  0.176712  1
  Nb  Nb8  1  0.999977  0.499998  0.344241  1
  Nb  Nb9  1  0.499992  0.999999  0.501577  1
  Nb  Nb10  1  0.000035  0.500002  0.665086  1
  Nb  Nb11  1  0.500028  0.000001  0.822442  1
  Ru  Ru12  1  0.500006  0.250055  0.999097  1
  Ru  Ru13  1  0.500013  0.749944  0.999096  1
  Ru  Ru14  1  0.999996  0.249983  0.167601  1
  Ru  Ru15  1  0.000003  0.750020  0.167599  1
  Ru  Ru16  1  0.499944  0.251351  0.335333  1
  Ru  Ru17  1  0.499974  0.748652  0.335334  1
  Ru  Ru18  1  0.000084  0.249461  0.501452  1
  Ru  Ru19  1  0.999901  0.750537  0.501451  1
  Ru  Ru20  1  0.499974  0.250578  0.665156  1
  Ru  Ru21  1  0.500096  0.749429  0.665155  1
  Ru  Ru22  1  0.000045  0.248803  0.831364  1
  Ru  Ru23  1  0.000018  0.751204  0.831365  1
