# generated using pymatgen
data_Ta12Ga8Co3CuC4
_symmetry_space_group_name_H-M   'P 1'
_cell_length_a   8.22633731
_cell_length_b   8.21219990
_cell_length_c   8.22634200
_cell_angle_alpha   59.94299335
_cell_angle_beta   59.99995700
_cell_angle_gamma   59.94294489
_symmetry_Int_Tables_number   1
_chemical_formula_structural   Ta12Ga8Co3CuC4
_chemical_formula_sum   'Ta12 Ga8 Co3 Cu1 C4'
_cell_volume   392.62932903
_cell_formula_units_Z   1
loop_
 _symmetry_equiv_pos_site_id
 _symmetry_equiv_pos_as_xyz
  1  'x, y, z'
loop_
 _atom_site_type_symbol
 _atom_site_label
 _atom_site_symmetry_multiplicity
 _atom_site_fract_x
 _atom_site_fract_y
 _atom_site_fract_z
 _atom_site_occupancy
  Ta  Ta0  1  0.561790  0.938980  0.561790  1
  Ta  Ta1  1  0.313879  0.688814  0.683428  1
  Ta  Ta2  1  0.688210  0.311020  0.312559  1
  Ta  Ta3  1  0.313879  0.688814  0.313879  1
  Ta  Ta4  1  0.683428  0.688814  0.313878  1
  Ta  Ta5  1  0.312559  0.311020  0.688210  1
  Ta  Ta6  1  0.566572  0.561186  0.936122  1
  Ta  Ta7  1  0.936121  0.561186  0.566572  1
  Ta  Ta8  1  0.561790  0.938980  0.937441  1
  Ta  Ta9  1  0.937441  0.938980  0.561790  1
  Ta  Ta10  1  0.688210  0.311020  0.688210  1
  Ta  Ta11  1  0.936121  0.561186  0.936121  1
  Ga  Ga12  1  0.913906  0.919996  0.913905  1
  Ga  Ga13  1  0.997805  0.330004  0.336095  1
  Ga  Ga14  1  0.332484  0.002547  0.332485  1
  Ga  Ga15  1  0.336094  0.330004  0.997805  1
  Ga  Ga16  1  0.917516  0.247453  0.917515  1
  Ga  Ga17  1  0.913906  0.919996  0.252195  1
  Ga  Ga18  1  0.252195  0.919996  0.913905  1
  Ga  Ga19  1  0.336094  0.330004  0.336095  1
  Co  Co20  1  0.125000  0.125000  0.125000  1
  Co  Co21  1  0.625000  0.125000  0.125000  1
  Co  Co22  1  0.125000  0.125000  0.625000  1
  Cu  Cu23  1  0.125000  0.625000  0.125000  1
  C  C24  1  0.625000  0.625000  0.625000  1
  C  C25  1  0.125000  0.625000  0.625000  1
  C  C26  1  0.625000  0.125000  0.625000  1
  C  C27  1  0.625000  0.625000  0.125000  1
