# generated using pymatgen
data_Tb3Ce5(ZnRh)8
_symmetry_space_group_name_H-M   'P 1'
_cell_length_a   3.91243900
_cell_length_b   7.31520267
_cell_length_c   16.36521526
_cell_angle_alpha   89.57834488
_cell_angle_beta   90.00000000
_cell_angle_gamma   90.00000000
_symmetry_Int_Tables_number   1
_chemical_formula_structural   Tb3Ce5(ZnRh)8
_chemical_formula_sum   'Tb3 Ce5 Zn8 Rh8'
_cell_volume   468.36442855
_cell_formula_units_Z   1
loop_
 _symmetry_equiv_pos_site_id
 _symmetry_equiv_pos_as_xyz
  1  'x, y, z'
loop_
 _atom_site_type_symbol
 _atom_site_label
 _atom_site_symmetry_multiplicity
 _atom_site_fract_x
 _atom_site_fract_y
 _atom_site_fract_z
 _atom_site_occupancy
  Tb  Tb0  1  0.250000  0.668046  0.560531  1
  Tb  Tb1  1  0.750000  0.831791  0.059474  1
  Tb  Tb2  1  0.250000  0.057177  0.714492  1
  Ce  Ce3  1  0.250000  0.179398  0.940611  1
  Ce  Ce4  1  0.750000  0.937536  0.285050  1
  Ce  Ce5  1  0.250000  0.561474  0.783804  1
  Ce  Ce6  1  0.750000  0.443513  0.216084  1
  Ce  Ce7  1  0.750000  0.321411  0.442438  1
  Zn  Zn8  1  0.250000  0.110638  0.150668  1
  Zn  Zn9  1  0.750000  0.513860  0.941188  1
  Zn  Zn10  1  0.750000  0.991265  0.562526  1
  Zn  Zn11  1  0.750000  0.383477  0.651243  1
  Zn  Zn12  1  0.750000  0.896758  0.845019  1
  Zn  Zn13  1  0.250000  0.506912  0.059072  1
  Zn  Zn14  1  0.250000  0.606299  0.349410  1
  Zn  Zn15  1  0.250000  0.991342  0.441388  1
  Rh  Rh16  1  0.750000  0.749875  0.432364  1
  Rh  Rh17  1  0.750000  0.273248  0.817789  1
  Rh  Rh18  1  0.750000  0.750590  0.690992  1
  Rh  Rh19  1  0.250000  0.731583  0.190465  1
  Rh  Rh20  1  0.250000  0.757786  0.931595  1
  Rh  Rh21  1  0.250000  0.250994  0.559985  1
  Rh  Rh22  1  0.750000  0.249354  0.061292  1
  Rh  Rh23  1  0.250000  0.235675  0.312522  1
