# generated using pymatgen
data_Tm3Lu17(Ir2Os)4
_symmetry_space_group_name_H-M   'P 1'
_cell_length_a   10.63191405
_cell_length_b   10.63547006
_cell_length_c   6.30272701
_cell_angle_alpha   89.99403900
_cell_angle_beta   89.99712992
_cell_angle_gamma   89.98956849
_symmetry_Int_Tables_number   1
_chemical_formula_structural   Tm3Lu17(Ir2Os)4
_chemical_formula_sum   'Tm3 Lu17 Ir8 Os4'
_cell_volume   712.68338340
_cell_formula_units_Z   1
loop_
 _symmetry_equiv_pos_site_id
 _symmetry_equiv_pos_as_xyz
  1  'x, y, z'
loop_
 _atom_site_type_symbol
 _atom_site_label
 _atom_site_symmetry_multiplicity
 _atom_site_fract_x
 _atom_site_fract_y
 _atom_site_fract_z
 _atom_site_occupancy
  Tm  Tm0  1  0.913646  0.293382  0.624247  1
  Tm  Tm1  1  0.086233  0.706621  0.624220  1
  Tm  Tm2  1  0.086336  0.293433  0.124081  1
  Lu  Lu3  1  0.293797  0.085989  0.376340  1
  Lu  Lu4  1  0.293836  0.913922  0.876219  1
  Lu  Lu5  1  0.706148  0.086052  0.876174  1
  Lu  Lu6  1  0.706280  0.913875  0.376218  1
  Lu  Lu7  1  0.586090  0.793744  0.876066  1
  Lu  Lu8  1  0.586092  0.206211  0.376080  1
  Lu  Lu9  1  0.413884  0.793753  0.376092  1
  Lu  Lu10  1  0.413957  0.206244  0.876054  1
  Lu  Lu11  1  0.206568  0.413904  0.623843  1
  Lu  Lu12  1  0.206369  0.586285  0.123836  1
  Lu  Lu13  1  0.793536  0.414001  0.123851  1
  Lu  Lu14  1  0.793491  0.586224  0.623838  1
  Lu  Lu15  1  0.913762  0.706341  0.123817  1
  Lu  Lu16  1  0.999989  0.999965  0.499893  1
  Lu  Lu17  1  0.999930  0.999803  0.000061  1
  Lu  Lu18  1  0.500004  0.500059  0.999860  1
  Lu  Lu19  1  0.500011  0.500014  0.500090  1
  Ir  Ir20  1  0.847248  0.152194  0.249540  1
  Ir  Ir21  1  0.847387  0.847661  0.750065  1
  Ir  Ir22  1  0.152722  0.152154  0.749517  1
  Ir  Ir23  1  0.152575  0.847692  0.249441  1
  Ir  Ir24  1  0.652157  0.347623  0.750131  1
  Ir  Ir25  1  0.652421  0.652395  0.250005  1
  Ir  Ir26  1  0.347881  0.347632  0.250150  1
  Ir  Ir27  1  0.347841  0.652370  0.750120  1
  Os  Os28  1  0.500016  0.999995  0.123348  1
  Os  Os29  1  0.500006  0.999991  0.623254  1
  Os  Os30  1  0.999904  0.500270  0.877093  1
  Os  Os31  1  0.999882  0.500202  0.376455  1
