# generated using pymatgen
data_U10FeRe5C16
_symmetry_space_group_name_H-M   'P 1'
_cell_length_a   11.29389600
_cell_length_b   11.29389600
_cell_length_c   3.26180600
_cell_angle_alpha   90.00000000
_cell_angle_beta   90.00000000
_cell_angle_gamma   90.00000000
_symmetry_Int_Tables_number   1
_chemical_formula_structural   U10FeRe5C16
_chemical_formula_sum   'U10 Fe1 Re5 C16'
_cell_volume   416.05016223
_cell_formula_units_Z   1
loop_
 _symmetry_equiv_pos_site_id
 _symmetry_equiv_pos_as_xyz
  1  'x, y, z'
loop_
 _atom_site_type_symbol
 _atom_site_label
 _atom_site_symmetry_multiplicity
 _atom_site_fract_x
 _atom_site_fract_y
 _atom_site_fract_z
 _atom_site_occupancy
  U  U0  1  0.500000  0.000000  0.000000  1
  U  U1  1  0.000000  0.500000  0.000000  1
  U  U2  1  0.776754  0.040810  0.500000  1
  U  U3  1  0.040810  0.223245  0.500000  1
  U  U4  1  0.541112  0.269913  0.500000  1
  U  U5  1  0.269913  0.458887  0.500000  1
  U  U6  1  0.730087  0.541112  0.500000  1
  U  U7  1  0.458887  0.730087  0.500000  1
  U  U8  1  0.959189  0.776754  0.500000  1
  U  U9  1  0.223245  0.959189  0.500000  1
  Fe  Fe10  1  0.000000  0.000000  0.000000  1
  Re  Re11  1  0.292571  0.203850  0.000000  1
  Re  Re12  1  0.796151  0.292571  0.000000  1
  Re  Re13  1  0.500000  0.500000  0.000000  1
  Re  Re14  1  0.203850  0.707430  0.000000  1
  Re  Re15  1  0.707430  0.796151  0.000000  1
  C  C16  1  0.145653  0.091982  0.000000  1
  C  C17  1  0.908019  0.145653  0.000000  1
  C  C18  1  0.655649  0.151556  0.000000  1
  C  C19  1  0.151556  0.344351  0.000000  1
  C  C20  1  0.400771  0.347060  0.000000  1
  C  C21  1  0.652939  0.400771  0.000000  1
  C  C22  1  0.347060  0.599230  0.000000  1
  C  C23  1  0.599230  0.652939  0.000000  1
  C  C24  1  0.848445  0.655649  0.000000  1
  C  C25  1  0.344351  0.848445  0.000000  1
  C  C26  1  0.091982  0.854346  0.000000  1
  C  C27  1  0.854346  0.908019  0.000000  1
  C  C28  1  0.379825  0.115990  0.500000  1
  C  C29  1  0.884010  0.379825  0.500000  1
  C  C30  1  0.115990  0.620175  0.500000  1
  C  C31  1  0.620175  0.884010  0.500000  1
