# generated using pymatgen
data_Sm5Y5(PPb3)2
_symmetry_space_group_name_H-M   'P 1'
_cell_length_a   9.29626248
_cell_length_b   9.28716281
_cell_length_c   6.86037800
_cell_angle_alpha   90.00000000
_cell_angle_beta   90.00000000
_cell_angle_gamma   119.96764164
_symmetry_Int_Tables_number   1
_chemical_formula_structural   Sm5Y5(PPb3)2
_chemical_formula_sum   'Sm5 Y5 P2 Pb6'
_cell_volume   513.11135969
_cell_formula_units_Z   1
loop_
 _symmetry_equiv_pos_site_id
 _symmetry_equiv_pos_as_xyz
  1  'x, y, z'
loop_
 _atom_site_type_symbol
 _atom_site_label
 _atom_site_symmetry_multiplicity
 _atom_site_fract_x
 _atom_site_fract_y
 _atom_site_fract_z
 _atom_site_occupancy
  Sm  Sm0  1  0.760252  0.759916  0.750000  1
  Sm  Sm1  1  0.239748  0.999664  0.750000  1
  Sm  Sm2  1  0.000000  0.238788  0.750000  1
  Sm  Sm3  1  0.239864  0.239801  0.250000  1
  Sm  Sm4  1  0.760136  0.999937  0.250000  1
  Y  Y5  1  0.000000  0.763735  0.250000  1
  Y  Y6  1  0.666924  0.333982  0.000258  1
  Y  Y7  1  0.333076  0.667059  0.000258  1
  Y  Y8  1  0.333076  0.667059  0.499742  1
  Y  Y9  1  0.666924  0.333982  0.499742  1
  P  P10  1  0.000000  0.997985  0.001367  1
  P  P11  1  0.000000  0.997985  0.498633  1
  Pb  Pb12  1  0.400655  0.400624  0.750000  1
  Pb  Pb13  1  0.599345  0.999970  0.750000  1
  Pb  Pb14  1  0.000000  0.598495  0.750000  1
  Pb  Pb15  1  0.601437  0.599818  0.250000  1
  Pb  Pb16  1  0.398563  0.998381  0.250000  1
  Pb  Pb17  1  0.000000  0.402817  0.250000  1
