# generated using pymatgen
data_Sr5Pa4WO18
_symmetry_space_group_name_H-M   'P 1'
_cell_length_a   6.83587564
_cell_length_b   7.65409133
_cell_length_c   8.62030000
_cell_angle_alpha   101.34417396
_cell_angle_beta   97.66475826
_cell_angle_gamma   106.93711795
_symmetry_Int_Tables_number   1
_chemical_formula_structural   Sr5Pa4WO18
_chemical_formula_sum   'Sr5 Pa4 W1 O18'
_cell_volume   414.20738346
_cell_formula_units_Z   1
loop_
 _symmetry_equiv_pos_site_id
 _symmetry_equiv_pos_as_xyz
  1  'x, y, z'
loop_
 _atom_site_type_symbol
 _atom_site_label
 _atom_site_symmetry_multiplicity
 _atom_site_fract_x
 _atom_site_fract_y
 _atom_site_fract_z
 _atom_site_occupancy
  Sr  Sr0  1  0.801361  0.100637  0.588327  1
  Sr  Sr1  1  0.599219  0.694005  0.193923  1
  Sr  Sr2  1  0.400781  0.305995  0.806077  1
  Sr  Sr3  1  0.198639  0.899363  0.411673  1
  Sr  Sr4  1  0.000000  0.500000  0.000000  1
  Pa  Pa5  1  0.787660  0.579106  0.584546  1
  Pa  Pa6  1  0.630215  0.195100  0.193589  1
  Pa  Pa7  1  0.369785  0.804900  0.806411  1
  Pa  Pa8  1  0.212340  0.420894  0.415454  1
  W  W9  1  0.000000  0.000000  0.000000  1
  O  O10  1  0.824305  0.788941  0.464142  1
  O  O11  1  0.015769  0.215332  0.171717  1
  O  O12  1  0.664179  0.397273  0.067651  1
  O  O13  1  0.456227  0.003011  0.683754  1
  O  O14  1  0.864219  0.343908  0.418816  1
  O  O15  1  0.510156  0.395954  0.350314  1
  O  O16  1  0.244637  0.606172  0.272540  1
  O  O17  1  0.982948  0.837860  0.143173  1
  O  O18  1  0.689344  0.945861  0.982004  1
  O  O19  1  0.310656  0.054139  0.017996  1
  O  O20  1  0.017052  0.162140  0.856827  1
  O  O21  1  0.755363  0.393828  0.727460  1
  O  O22  1  0.489844  0.604046  0.649686  1
  O  O23  1  0.135781  0.656092  0.581184  1
  O  O24  1  0.543773  0.996989  0.316246  1
  O  O25  1  0.335821  0.602727  0.932349  1
  O  O26  1  0.984231  0.784668  0.828283  1
  O  O27  1  0.175695  0.211059  0.535858  1
