# generated using pymatgen
data_Lu4SnSb5Rh7
_symmetry_space_group_name_H-M   'P 1'
_cell_length_a   7.55405480
_cell_length_b   7.55405573
_cell_length_c   7.55405513
_cell_angle_alpha   109.58809373
_cell_angle_beta   109.41281917
_cell_angle_gamma   109.41281159
_symmetry_Int_Tables_number   1
_chemical_formula_structural   Lu4SnSb5Rh7
_chemical_formula_sum   'Lu4 Sn1 Sb5 Rh7'
_cell_volume   331.83120433
_cell_formula_units_Z   1
loop_
 _symmetry_equiv_pos_site_id
 _symmetry_equiv_pos_as_xyz
  1  'x, y, z'
loop_
 _atom_site_type_symbol
 _atom_site_label
 _atom_site_symmetry_multiplicity
 _atom_site_fract_x
 _atom_site_fract_y
 _atom_site_fract_z
 _atom_site_occupancy
  Lu  Lu0  1  0.498793  0.000775  0.000775  1
  Lu  Lu1  1  0.000000  0.501982  0.000775  1
  Lu  Lu2  1  0.000000  0.000775  0.501982  1
  Lu  Lu3  1  0.501207  0.501982  0.501982  1
  Sn  Sn4  1  0.000000  0.312182  0.312182  1
  Sb  Sb5  1  0.684596  0.001455  0.686052  1
  Sb  Sb6  1  0.684596  0.686052  0.001455  1
  Sb  Sb7  1  0.000000  0.679910  0.679910  1
  Sb  Sb8  1  0.315404  0.001455  0.316858  1
  Sb  Sb9  1  0.315404  0.316858  0.001455  1
  Rh  Rh10  1  0.000000  0.994427  0.994427  1
  Rh  Rh11  1  0.500000  0.751098  0.251098  1
  Rh  Rh12  1  0.749007  0.499987  0.248995  1
  Rh  Rh13  1  0.250993  0.750980  0.499987  1
  Rh  Rh14  1  0.250993  0.499987  0.750980  1
  Rh  Rh15  1  0.500000  0.251098  0.751098  1
  Rh  Rh16  1  0.749007  0.248995  0.499987  1
