# generated using pymatgen
data_Sc10B2Cl15
_symmetry_space_group_name_H-M   'P 1'
_cell_length_a   8.20420140
_cell_length_b   8.95593204
_cell_length_c   9.70032388
_cell_angle_alpha   91.06930133
_cell_angle_beta   114.64159354
_cell_angle_gamma   110.95081967
_symmetry_Int_Tables_number   1
_chemical_formula_structural   Sc10B2Cl15
_chemical_formula_sum   'Sc10 B2 Cl15'
_cell_volume   593.07552098
_cell_formula_units_Z   1
loop_
 _symmetry_equiv_pos_site_id
 _symmetry_equiv_pos_as_xyz
  1  'x, y, z'
loop_
 _atom_site_type_symbol
 _atom_site_label
 _atom_site_symmetry_multiplicity
 _atom_site_fract_x
 _atom_site_fract_y
 _atom_site_fract_z
 _atom_site_occupancy
  Sc  Sc0  1  0.273207  0.923771  0.949918  1
  Sc  Sc1  1  0.726797  0.076221  0.050050  1
  Sc  Sc2  1  0.413950  0.956605  0.672918  1
  Sc  Sc3  1  0.586054  0.043381  0.327103  1
  Sc  Sc4  1  0.474473  0.296477  0.903401  1
  Sc  Sc5  1  0.525516  0.703550  0.096554  1
  Sc  Sc6  1  0.323293  0.253858  0.179065  1
  Sc  Sc7  1  0.676630  0.746091  0.820919  1
  Sc  Sc8  1  0.198002  0.590362  0.722513  1
  Sc  Sc9  1  0.802031  0.409646  0.277540  1
  B  B10  1  0.531146  0.178319  0.120943  1
  B  B11  1  0.468878  0.821749  0.879100  1
  Cl  Cl12  1  0.999955  0.999976  0.999965  1
  Cl  Cl13  1  0.362131  0.115722  0.413016  1
  Cl  Cl14  1  0.637816  0.884235  0.587007  1
  Cl  Cl15  1  0.115732  0.698573  0.473406  1
  Cl  Cl16  1  0.884370  0.301446  0.526654  1
  Cl  Cl17  1  0.702793  0.233573  0.820536  1
  Cl  Cl18  1  0.297213  0.766398  0.179414  1
  Cl  Cl19  1  0.946917  0.659534  0.773719  1
  Cl  Cl20  1  0.053146  0.340474  0.226318  1
  Cl  Cl21  1  0.409946  0.467028  0.662736  1
  Cl  Cl22  1  0.590028  0.532983  0.337221  1
  Cl  Cl23  1  0.238308  0.412531  0.944152  1
  Cl  Cl24  1  0.761688  0.587526  0.055868  1
  Cl  Cl25  1  0.173994  0.058645  0.704663  1
  Cl  Cl26  1  0.825981  0.941332  0.295303  1
