# generated using pymatgen
data_Nd4Ga4GeRh9
_symmetry_space_group_name_H-M   'P 1'
_cell_length_a   12.19894695
_cell_length_b   12.19894649
_cell_length_c   12.19894795
_cell_angle_alpha   26.80231961
_cell_angle_beta   26.80232282
_cell_angle_gamma   26.80232249
_symmetry_Int_Tables_number   1
_chemical_formula_structural   Nd4Ga4GeRh9
_chemical_formula_sum   'Nd4 Ga4 Ge1 Rh9'
_cell_volume   325.48101984
_cell_formula_units_Z   1
loop_
 _symmetry_equiv_pos_site_id
 _symmetry_equiv_pos_as_xyz
  1  'x, y, z'
loop_
 _atom_site_type_symbol
 _atom_site_label
 _atom_site_symmetry_multiplicity
 _atom_site_fract_x
 _atom_site_fract_y
 _atom_site_fract_z
 _atom_site_occupancy
  Nd  Nd0  1  0.949697  0.949697  0.949697  1
  Nd  Nd1  1  0.853307  0.853307  0.853307  1
  Nd  Nd2  1  0.146208  0.146208  0.146208  1
  Nd  Nd3  1  0.049014  0.049014  0.049014  1
  Ga  Ga4  1  0.278475  0.278475  0.278475  1
  Ga  Ga5  1  0.500352  0.500352  0.500352  1
  Ga  Ga6  1  0.388878  0.388878  0.388878  1
  Ga  Ga7  1  0.721714  0.721714  0.721714  1
  Ge  Ge8  1  0.611205  0.611205  0.611205  1
  Rh  Rh9  1  0.612084  0.612084  0.106459  1
  Rh  Rh10  1  0.894511  0.388870  0.388870  1
  Rh  Rh11  1  0.499742  0.998787  0.499742  1
  Rh  Rh12  1  0.388870  0.894511  0.388870  1
  Rh  Rh13  1  0.499742  0.499742  0.998787  1
  Rh  Rh14  1  0.106459  0.612084  0.612084  1
  Rh  Rh15  1  0.998787  0.499742  0.499742  1
  Rh  Rh16  1  0.388870  0.388870  0.894511  1
  Rh  Rh17  1  0.612084  0.106459  0.612084  1
