# generated using pymatgen
data_ThAl10TcRu
_symmetry_space_group_name_H-M   'P 1'
_cell_length_a   6.90152400
_cell_length_b   6.90259426
_cell_length_c   9.21008000
_cell_angle_alpha   90.00000000
_cell_angle_beta   90.00000000
_cell_angle_gamma   97.08733680
_symmetry_Int_Tables_number   1
_chemical_formula_structural   ThAl10TcRu
_chemical_formula_sum   'Th2 Al20 Tc2 Ru2'
_cell_volume   435.40124372
_cell_formula_units_Z   2
loop_
 _symmetry_equiv_pos_site_id
 _symmetry_equiv_pos_as_xyz
  1  'x, y, z'
loop_
 _atom_site_type_symbol
 _atom_site_label
 _atom_site_symmetry_multiplicity
 _atom_site_fract_x
 _atom_site_fract_y
 _atom_site_fract_z
 _atom_site_occupancy
  Th  Th0  1  0.868376  0.122147  0.750000  1
  Th  Th1  1  0.131624  0.877853  0.250000  1
  Al  Al2  1  0.593781  0.861138  0.250000  1
  Al  Al3  1  0.780631  0.519771  0.250000  1
  Al  Al4  1  0.159146  0.838978  0.898319  1
  Al  Al5  1  0.406219  0.138862  0.750000  1
  Al  Al6  1  0.621277  0.378152  0.951254  1
  Al  Al7  1  0.840854  0.161022  0.398319  1
  Al  Al8  1  0.772382  0.771694  0.999771  1
  Al  Al9  1  0.861034  0.591480  0.750000  1
  Al  Al10  1  0.840854  0.161022  0.101681  1
  Al  Al11  1  0.219369  0.480229  0.750000  1
  Al  Al12  1  0.159146  0.838978  0.601681  1
  Al  Al13  1  0.772382  0.771694  0.500229  1
  Al  Al14  1  0.482987  0.222738  0.250000  1
  Al  Al15  1  0.621277  0.378152  0.548746  1
  Al  Al16  1  0.227618  0.228306  0.499771  1
  Al  Al17  1  0.378723  0.621848  0.451254  1
  Al  Al18  1  0.138966  0.408520  0.250000  1
  Al  Al19  1  0.517013  0.777262  0.750000  1
  Al  Al20  1  0.378723  0.621848  0.048746  1
  Al  Al21  1  0.227618  0.228306  0.000229  1
  Tc  Tc22  1  0.500000  0.000000  0.000000  1
  Tc  Tc23  1  0.500000  0.000000  0.500000  1
  Ru  Ru24  1  0.000000  0.500000  0.000000  1
  Ru  Ru25  1  0.000000  0.500000  0.500000  1
