# generated using pymatgen
data_Sc5Al16AsIr7
_symmetry_space_group_name_H-M   'P 1'
_cell_length_a   8.70459693
_cell_length_b   8.76333334
_cell_length_c   8.76333455
_cell_angle_alpha   59.55705980
_cell_angle_beta   60.22147146
_cell_angle_gamma   60.22147362
_symmetry_Int_Tables_number   1
_chemical_formula_structural   Sc5Al16AsIr7
_chemical_formula_sum   'Sc5 Al16 As1 Ir7'
_cell_volume   472.64345060
_cell_formula_units_Z   1
loop_
 _symmetry_equiv_pos_site_id
 _symmetry_equiv_pos_as_xyz
  1  'x, y, z'
loop_
 _atom_site_type_symbol
 _atom_site_label
 _atom_site_symmetry_multiplicity
 _atom_site_fract_x
 _atom_site_fract_y
 _atom_site_fract_z
 _atom_site_occupancy
  Sc  Sc0  1  0.796872  0.203128  0.203128  1
  Sc  Sc1  1  0.783177  0.216823  0.777778  1
  Sc  Sc2  1  0.783177  0.777778  0.216823  1
  Sc  Sc3  1  0.222222  0.777778  0.216823  1
  Sc  Sc4  1  0.222222  0.216823  0.777778  1
  Al  Al5  1  0.869655  0.833751  0.833751  1
  Al  Al6  1  0.846652  0.822029  0.484669  1
  Al  Al7  1  0.462844  0.833751  0.833751  1
  Al  Al8  1  0.846652  0.484669  0.822029  1
  Al  Al9  1  0.177971  0.153348  0.153348  1
  Al  Al10  1  0.166249  0.130345  0.537156  1
  Al  Al11  1  0.166249  0.537156  0.130345  1
  Al  Al12  1  0.515331  0.153348  0.153348  1
  Al  Al13  1  0.610015  0.620385  0.620385  1
  Al  Al14  1  0.630780  0.617033  0.121406  1
  Al  Al15  1  0.149214  0.620385  0.620385  1
  Al  Al16  1  0.630780  0.121406  0.617033  1
  Al  Al17  1  0.382967  0.369220  0.369220  1
  Al  Al18  1  0.379615  0.389985  0.850786  1
  Al  Al19  1  0.379615  0.850786  0.389985  1
  Al  Al20  1  0.878594  0.369220  0.369220  1
  As  As21  1  0.022990  0.977010  0.977010  1
  Ir  Ir22  1  0.512712  0.487288  0.487288  1
  Ir  Ir23  1  0.011607  0.488393  0.488393  1
  Ir  Ir24  1  0.511607  0.988393  0.988393  1
  Ir  Ir25  1  0.514308  0.994194  0.485692  1
  Ir  Ir26  1  0.514308  0.485692  0.994194  1
  Ir  Ir27  1  0.005806  0.485692  0.994194  1
  Ir  Ir28  1  0.005806  0.994194  0.485692  1
