# generated using pymatgen
data_Dy4Sc(GaSb)2
_symmetry_space_group_name_H-M   'P 1'
_cell_length_a   8.53120245
_cell_length_b   8.53120096
_cell_length_c   7.84649500
_cell_angle_alpha   90.00000000
_cell_angle_beta   90.00000000
_cell_angle_gamma   125.24733318
_symmetry_Int_Tables_number   1
_chemical_formula_structural   Dy4Sc(GaSb)2
_chemical_formula_sum   'Dy8 Sc2 Ga4 Sb4'
_cell_volume   466.38211022
_cell_formula_units_Z   2
loop_
 _symmetry_equiv_pos_site_id
 _symmetry_equiv_pos_as_xyz
  1  'x, y, z'
loop_
 _atom_site_type_symbol
 _atom_site_label
 _atom_site_symmetry_multiplicity
 _atom_site_fract_x
 _atom_site_fract_y
 _atom_site_fract_z
 _atom_site_occupancy
  Dy  Dy0  1  0.040330  0.300258  0.331587  1
  Dy  Dy1  1  0.959670  0.699742  0.668413  1
  Dy  Dy2  1  0.459670  0.199742  0.831587  1
  Dy  Dy3  1  0.800258  0.540330  0.168413  1
  Dy  Dy4  1  0.540330  0.800258  0.168413  1
  Dy  Dy5  1  0.199742  0.459670  0.831587  1
  Dy  Dy6  1  0.699742  0.959670  0.668413  1
  Dy  Dy7  1  0.300258  0.040330  0.331587  1
  Sc  Sc8  1  0.000000  0.000000  0.000000  1
  Sc  Sc9  1  0.500000  0.500000  0.500000  1
  Ga  Ga10  1  0.373471  0.373471  0.126298  1
  Ga  Ga11  1  0.626529  0.626529  0.873702  1
  Ga  Ga12  1  0.126529  0.126529  0.626298  1
  Ga  Ga13  1  0.873471  0.873471  0.373702  1
  Sb  Sb14  1  0.796722  0.203278  0.000000  1
  Sb  Sb15  1  0.203278  0.796722  0.000000  1
  Sb  Sb16  1  0.703278  0.296722  0.500000  1
  Sb  Sb17  1  0.296722  0.703278  0.500000  1
