# generated using pymatgen
data_Th5Al2Tc3
_symmetry_space_group_name_H-M   'P 1'
_cell_length_a   8.57019272
_cell_length_b   8.57019260
_cell_length_c   8.57019260
_cell_angle_alpha   109.52551709
_cell_angle_beta   109.52551903
_cell_angle_gamma   109.52551814
_symmetry_Int_Tables_number   1
_chemical_formula_structural   Th5Al2Tc3
_chemical_formula_sum   'Th10 Al4 Tc6'
_cell_volume   483.58599352
_cell_formula_units_Z   2
loop_
 _symmetry_equiv_pos_site_id
 _symmetry_equiv_pos_as_xyz
  1  'x, y, z'
loop_
 _atom_site_type_symbol
 _atom_site_label
 _atom_site_symmetry_multiplicity
 _atom_site_fract_x
 _atom_site_fract_y
 _atom_site_fract_z
 _atom_site_occupancy
  Th  Th0  1  0.464378  0.157042  0.213511  1
  Th  Th1  1  0.157042  0.213511  0.464378  1
  Th  Th2  1  0.213511  0.464378  0.157042  1
  Th  Th3  1  0.407185  0.689160  0.906267  1
  Th  Th4  1  0.689160  0.906267  0.407185  1
  Th  Th5  1  0.906267  0.407185  0.689160  1
  Th  Th6  1  0.656532  0.100902  0.851092  1
  Th  Th7  1  0.100902  0.851092  0.656532  1
  Th  Th8  1  0.851092  0.656532  0.100902  1
  Th  Th9  1  0.624569  0.624569  0.624569  1
  Al  Al10  1  0.407476  0.311299  0.908971  1
  Al  Al11  1  0.311299  0.908971  0.407476  1
  Al  Al12  1  0.908971  0.407476  0.311299  1
  Al  Al13  1  0.003552  0.003552  0.003552  1
  Tc  Tc14  1  0.030368  0.157879  0.781475  1
  Tc  Tc15  1  0.157879  0.781475  0.030368  1
  Tc  Tc16  1  0.781475  0.030368  0.157879  1
  Tc  Tc17  1  0.659379  0.533151  0.285814  1
  Tc  Tc18  1  0.533151  0.285814  0.659379  1
  Tc  Tc19  1  0.285814  0.659379  0.533151  1
