# generated using pymatgen
data_YHo3Cr4F28
_symmetry_space_group_name_H-M   'P 1'
_cell_length_a   5.50146809
_cell_length_b   8.73924189
_cell_length_c   11.65631371
_cell_angle_alpha   63.10647103
_cell_angle_beta   90.02004145
_cell_angle_gamma   90.00252691
_symmetry_Int_Tables_number   1
_chemical_formula_structural   YHo3Cr4F28
_chemical_formula_sum   'Y1 Ho3 Cr4 F28'
_cell_volume   499.80972460
_cell_formula_units_Z   1
loop_
 _symmetry_equiv_pos_site_id
 _symmetry_equiv_pos_as_xyz
  1  'x, y, z'
loop_
 _atom_site_type_symbol
 _atom_site_label
 _atom_site_symmetry_multiplicity
 _atom_site_fract_x
 _atom_site_fract_y
 _atom_site_fract_z
 _atom_site_occupancy
  Y  Y0  1  0.233927  0.809917  0.765911  1
  Ho  Ho1  1  0.266332  0.809962  0.265835  1
  Ho  Ho2  1  0.733385  0.191229  0.734039  1
  Ho  Ho3  1  0.766471  0.190317  0.234220  1
  Cr  Cr4  1  0.757764  0.725941  0.044650  1
  Cr  Cr5  1  0.242023  0.273153  0.956565  1
  Cr  Cr6  1  0.258381  0.274750  0.455799  1
  Cr  Cr7  1  0.742480  0.725789  0.543162  1
  F  F8  1  0.936817  0.705889  0.422611  1
  F  F9  1  0.063283  0.293799  0.576497  1
  F  F10  1  0.436924  0.293344  0.076652  1
  F  F11  1  0.564163  0.705778  0.923898  1
  F  F12  1  0.478784  0.729976  0.138521  1
  F  F13  1  0.520815  0.270167  0.861864  1
  F  F14  1  0.979848  0.270301  0.361246  1
  F  F15  1  0.021821  0.729049  0.636849  1
  F  F16  1  0.951580  0.744867  0.168759  1
  F  F17  1  0.047394  0.254554  0.832161  1
  F  F18  1  0.452820  0.255667  0.332022  1
  F  F19  1  0.550208  0.743857  0.667864  1
  F  F20  1  0.766568  0.490520  0.138944  1
  F  F21  1  0.231574  0.508342  0.861810  1
  F  F22  1  0.267666  0.510032  0.361367  1
  F  F23  1  0.732957  0.490591  0.637695  1
  F  F24  1  0.956131  0.281895  0.045389  1
  F  F25  1  0.043942  0.716739  0.956630  1
  F  F26  1  0.455909  0.717471  0.454608  1
  F  F27  1  0.544006  0.282772  0.545017  1
  F  F28  1  0.742899  0.960015  0.453239  1
  F  F29  1  0.258109  0.040794  0.545629  1
  F  F30  1  0.242495  0.039399  0.046438  1
  F  F31  1  0.757344  0.959799  0.954069  1
  F  F32  1  0.584630  0.975128  0.227982  1
  F  F33  1  0.414240  0.027654  0.772413  1
  F  F34  1  0.084819  0.025107  0.272087  1
  F  F35  1  0.911492  0.975434  0.727557  1
