# generated using pymatgen
data_YHoAl20(RuRh)2
_symmetry_space_group_name_H-M   'P 1'
_cell_length_a   6.85017743
_cell_length_b   6.84475678
_cell_length_c   9.15939500
_cell_angle_alpha   90.00000000
_cell_angle_beta   90.00000000
_cell_angle_gamma   97.21790999
_symmetry_Int_Tables_number   1
_chemical_formula_structural   YHoAl20(RuRh)2
_chemical_formula_sum   'Y1 Ho1 Al20 Ru2 Rh2'
_cell_volume   426.06056976
_cell_formula_units_Z   1
loop_
 _symmetry_equiv_pos_site_id
 _symmetry_equiv_pos_as_xyz
  1  'x, y, z'
loop_
 _atom_site_type_symbol
 _atom_site_label
 _atom_site_symmetry_multiplicity
 _atom_site_fract_x
 _atom_site_fract_y
 _atom_site_fract_z
 _atom_site_occupancy
  Y  Y0  1  0.868826  0.125716  0.750000  1
  Ho  Ho1  1  0.131346  0.874249  0.250000  1
  Al  Al2  1  0.620888  0.375777  0.549340  1
  Al  Al3  1  0.378758  0.624527  0.450168  1
  Al  Al4  1  0.378758  0.624527  0.049832  1
  Al  Al5  1  0.620888  0.375777  0.950660  1
  Al  Al6  1  0.224868  0.222978  0.498722  1
  Al  Al7  1  0.775391  0.776777  0.500583  1
  Al  Al8  1  0.775391  0.776777  0.999417  1
  Al  Al9  1  0.224868  0.222978  0.001278  1
  Al  Al10  1  0.844619  0.154298  0.101819  1
  Al  Al11  1  0.155914  0.845195  0.898716  1
  Al  Al12  1  0.155914  0.845195  0.601284  1
  Al  Al13  1  0.844619  0.154298  0.398181  1
  Al  Al14  1  0.856917  0.588689  0.750000  1
  Al  Al15  1  0.143390  0.412018  0.250000  1
  Al  Al16  1  0.411450  0.141307  0.750000  1
  Al  Al17  1  0.587818  0.858459  0.250000  1
  Al  Al18  1  0.224274  0.480968  0.750000  1
  Al  Al19  1  0.776275  0.519563  0.250000  1
  Al  Al20  1  0.517887  0.777808  0.750000  1
  Al  Al21  1  0.481555  0.221738  0.250000  1
  Ru  Ru22  1  0.499633  0.999889  0.000432  1
  Ru  Ru23  1  0.499633  0.999889  0.499568  1
  Rh  Rh24  1  0.000061  0.500303  0.499789  1
  Rh  Rh25  1  0.000061  0.500303  0.000211  1
