# generated using pymatgen
data_TbErAlRe3
_symmetry_space_group_name_H-M   'P 1'
_cell_length_a   5.34957700
_cell_length_b   5.34957798
_cell_length_c   9.06023200
_cell_angle_alpha   90.00000000
_cell_angle_beta   90.00000000
_cell_angle_gamma   119.99998777
_symmetry_Int_Tables_number   1
_chemical_formula_structural   TbErAlRe3
_chemical_formula_sum   'Tb2 Er2 Al2 Re6'
_cell_volume   224.54788518
_cell_formula_units_Z   2
loop_
 _symmetry_equiv_pos_site_id
 _symmetry_equiv_pos_as_xyz
  1  'x, y, z'
loop_
 _atom_site_type_symbol
 _atom_site_label
 _atom_site_symmetry_multiplicity
 _atom_site_fract_x
 _atom_site_fract_y
 _atom_site_fract_z
 _atom_site_occupancy
  Tb  Tb0  1  0.666667  0.333333  0.433089  1
  Tb  Tb1  1  0.333333  0.666667  0.566911  1
  Er  Er2  1  0.333333  0.666667  0.932292  1
  Er  Er3  1  0.666667  0.333333  0.067708  1
  Al  Al4  1  0.000000  0.000000  0.500000  1
  Al  Al5  1  0.000000  0.000000  0.000000  1
  Re  Re6  1  0.660984  0.830493  0.248230  1
  Re  Re7  1  0.169507  0.830493  0.248230  1
  Re  Re8  1  0.169507  0.339016  0.248230  1
  Re  Re9  1  0.339016  0.169507  0.751770  1
  Re  Re10  1  0.830493  0.169507  0.751770  1
  Re  Re11  1  0.830493  0.660984  0.751770  1
