# generated using pymatgen
data_PrNdPa(SnRh)3
_symmetry_space_group_name_H-M   'P 1'
_cell_length_a   7.67889318
_cell_length_b   7.77044579
_cell_length_c   3.93415400
_cell_angle_alpha   90.00000000
_cell_angle_beta   90.00000000
_cell_angle_gamma   120.41242591
_symmetry_Int_Tables_number   1
_chemical_formula_structural   PrNdPa(SnRh)3
_chemical_formula_sum   'Pr1 Nd1 Pa1 Sn3 Rh3'
_cell_volume   202.44480239
_cell_formula_units_Z   1
loop_
 _symmetry_equiv_pos_site_id
 _symmetry_equiv_pos_as_xyz
  1  'x, y, z'
loop_
 _atom_site_type_symbol
 _atom_site_label
 _atom_site_symmetry_multiplicity
 _atom_site_fract_x
 _atom_site_fract_y
 _atom_site_fract_z
 _atom_site_occupancy
  Pr  Pr0  1  0.407746  0.407748  0.000000  1
  Nd  Nd1  1  0.592604  0.999997  0.000000  1
  Pa  Pa2  1  0.000081  0.586130  0.000000  1
  Sn  Sn3  1  0.737856  0.745518  0.500000  1
  Sn  Sn4  1  0.999118  0.242453  0.500000  1
  Sn  Sn5  1  0.262641  0.006790  0.500000  1
  Rh  Rh6  1  0.999452  0.979973  0.000000  1
  Rh  Rh7  1  0.710508  0.370390  0.500000  1
  Rh  Rh8  1  0.289994  0.661000  0.500000  1
