# generated using pymatgen
data_NdDy5(Ir2Rh)6
_symmetry_space_group_name_H-M   'P 1'
_cell_length_a   5.31445700
_cell_length_b   5.31433009
_cell_length_c   17.50873000
_cell_angle_alpha   90.00000000
_cell_angle_beta   90.00000000
_cell_angle_gamma   119.99931780
_symmetry_Int_Tables_number   1
_chemical_formula_structural   NdDy5(Ir2Rh)6
_chemical_formula_sum   'Nd1 Dy5 Ir12 Rh6'
_cell_volume   428.24833828
_cell_formula_units_Z   1
loop_
 _symmetry_equiv_pos_site_id
 _symmetry_equiv_pos_as_xyz
  1  'x, y, z'
loop_
 _atom_site_type_symbol
 _atom_site_label
 _atom_site_symmetry_multiplicity
 _atom_site_fract_x
 _atom_site_fract_y
 _atom_site_fract_z
 _atom_site_occupancy
  Nd  Nd0  1  0.666666  0.333333  0.250000  1
  Dy  Dy1  1  0.333333  0.666667  0.542083  1
  Dy  Dy2  1  0.666668  0.333334  0.041209  1
  Dy  Dy3  1  0.666668  0.333334  0.458791  1
  Dy  Dy4  1  0.333333  0.666667  0.957917  1
  Dy  Dy5  1  0.333332  0.666666  0.750000  1
  Ir  Ir6  1  0.167692  0.335384  0.125214  1
  Ir  Ir7  1  0.832382  0.664767  0.626056  1
  Ir  Ir8  1  0.664615  0.832306  0.125215  1
  Ir  Ir9  1  0.167692  0.832307  0.125214  1
  Ir  Ir10  1  0.832382  0.167615  0.626056  1
  Ir  Ir11  1  0.335231  0.167616  0.626057  1
  Ir  Ir12  1  0.832382  0.664767  0.873944  1
  Ir  Ir13  1  0.832382  0.167615  0.873944  1
  Ir  Ir14  1  0.335231  0.167616  0.873943  1
  Ir  Ir15  1  0.664615  0.832306  0.374785  1
  Ir  Ir16  1  0.167692  0.832307  0.374786  1
  Ir  Ir17  1  0.167692  0.335384  0.374786  1
  Rh  Rh18  1  0.999999  0.000001  0.250000  1
  Rh  Rh19  1  0.000012  0.000009  0.750000  1
  Rh  Rh20  1  0.333334  0.666666  0.250000  1
  Rh  Rh21  1  0.666658  0.333327  0.750000  1
  Rh  Rh22  1  0.000005  0.000004  0.999637  1
  Rh  Rh23  1  0.000005  0.000004  0.500363  1
