# generated using pymatgen
data_Zr16Nb3Si16Ru
_symmetry_space_group_name_H-M   'P 1'
_cell_length_a   7.05777780
_cell_length_b   7.05777780
_cell_length_c   12.92180396
_cell_angle_alpha   89.86502031
_cell_angle_beta   90.13497969
_cell_angle_gamma   89.94187266
_symmetry_Int_Tables_number   1
_chemical_formula_structural   Zr16Nb3Si16Ru
_chemical_formula_sum   'Zr16 Nb3 Si16 Ru1'
_cell_volume   643.65993165
_cell_formula_units_Z   1
loop_
 _symmetry_equiv_pos_site_id
 _symmetry_equiv_pos_as_xyz
  1  'x, y, z'
loop_
 _atom_site_type_symbol
 _atom_site_label
 _atom_site_symmetry_multiplicity
 _atom_site_fract_x
 _atom_site_fract_y
 _atom_site_fract_z
 _atom_site_occupancy
  Zr  Zr0  1  0.353819  0.503142  0.377708  1
  Zr  Zr1  1  0.857592  0.998244  0.374709  1
  Zr  Zr2  1  0.003141  0.143624  0.125828  1
  Zr  Zr3  1  0.998244  0.857592  0.625291  1
  Zr  Zr4  1  0.644678  0.499149  0.874556  1
  Zr  Zr5  1  0.503142  0.353819  0.622292  1
  Zr  Zr6  1  0.499149  0.644678  0.125444  1
  Zr  Zr7  1  0.143624  0.003141  0.874172  1
  Zr  Zr8  1  0.998642  0.650330  0.034554  1
  Zr  Zr9  1  0.003681  0.348117  0.532932  1
  Zr  Zr10  1  0.650330  0.998642  0.965446  1
  Zr  Zr11  1  0.149862  0.501811  0.782732  1
  Zr  Zr12  1  0.850237  0.498883  0.284303  1
  Zr  Zr13  1  0.501811  0.149862  0.217268  1
  Zr  Zr14  1  0.498883  0.850237  0.715697  1
  Zr  Zr15  1  0.348117  0.003681  0.467068  1
  Nb  Nb16  1  0.823613  0.175750  0.748140  1
  Nb  Nb17  1  0.175750  0.823613  0.251860  1
  Nb  Nb18  1  0.326042  0.326042  0.000000  1
  Si  Si19  1  0.044212  0.698806  0.437969  1
  Si  Si20  1  0.950333  0.301384  0.935007  1
  Si  Si21  1  0.698806  0.044212  0.562031  1
  Si  Si22  1  0.199664  0.451016  0.186133  1
  Si  Si23  1  0.796559  0.555016  0.681312  1
  Si  Si24  1  0.451016  0.199664  0.813867  1
  Si  Si25  1  0.555016  0.796559  0.318688  1
  Si  Si26  1  0.301384  0.950333  0.064993  1
  Si  Si27  1  0.853329  0.796260  0.820478  1
  Si  Si28  1  0.148227  0.202703  0.321195  1
  Si  Si29  1  0.796260  0.853329  0.179522  1
  Si  Si30  1  0.297602  0.647589  0.571202  1
  Si  Si31  1  0.702905  0.351694  0.071096  1
  Si  Si32  1  0.647589  0.297602  0.428798  1
  Si  Si33  1  0.351694  0.702905  0.928904  1
  Si  Si34  1  0.202703  0.148227  0.678805  1
  Ru  Ru35  1  0.672339  0.672339  0.500000  1
