# generated using pymatgen
data_Dy16ZnIn5Pt2
_symmetry_space_group_name_H-M   'P 1'
_cell_length_a   10.37776900
_cell_length_b   10.41913677
_cell_length_c   7.03901200
_cell_angle_alpha   90.06244769
_cell_angle_beta   90.00000000
_cell_angle_gamma   119.86870687
_symmetry_Int_Tables_number   1
_chemical_formula_structural   Dy16ZnIn5Pt2
_chemical_formula_sum   'Dy16 Zn1 In5 Pt2'
_cell_volume   660.01040723
_cell_formula_units_Z   1
loop_
 _symmetry_equiv_pos_site_id
 _symmetry_equiv_pos_as_xyz
  1  'x, y, z'
loop_
 _atom_site_type_symbol
 _atom_site_label
 _atom_site_symmetry_multiplicity
 _atom_site_fract_x
 _atom_site_fract_y
 _atom_site_fract_z
 _atom_site_occupancy
  Dy  Dy0  1  0.529202  0.058406  0.516054  1
  Dy  Dy1  1  0.934426  0.475373  0.516741  1
  Dy  Dy2  1  0.540949  0.475374  0.516741  1
  Dy  Dy3  1  0.469502  0.939002  0.009600  1
  Dy  Dy4  1  0.063240  0.529204  0.015933  1
  Dy  Dy5  1  0.465962  0.529203  0.015933  1
  Dy  Dy6  1  0.174129  0.348258  0.719049  1
  Dy  Dy7  1  0.658134  0.819635  0.729597  1
  Dy  Dy8  1  0.161502  0.819635  0.729597  1
  Dy  Dy9  1  0.825856  0.651710  0.200556  1
  Dy  Dy10  1  0.351052  0.175551  0.225346  1
  Dy  Dy11  1  0.824498  0.175551  0.225346  1
  Dy  Dy12  1  0.670555  0.341110  0.887622  1
  Dy  Dy13  1  0.333615  0.667230  0.391517  1
  Dy  Dy14  1  0.997220  0.994440  0.497598  1
  Dy  Dy15  1  0.001305  0.002609  0.998970  1
  Zn  Zn16  1  0.835146  0.670293  0.769016  1
  In  In17  1  0.328465  0.162289  0.760709  1
  In  In18  1  0.833823  0.162289  0.760709  1
  In  In19  1  0.163155  0.326309  0.262290  1
  In  In20  1  0.673138  0.836838  0.261769  1
  In  In21  1  0.163702  0.836838  0.261769  1
  Pt  Pt22  1  0.667574  0.335146  0.285838  1
  Pt  Pt23  1  0.333851  0.667704  0.785901  1
