# generated using pymatgen
data_Tb5(Th3Ru2)3
_symmetry_space_group_name_H-M   'P 1'
_cell_length_a   9.79613602
_cell_length_b   9.93072448
_cell_length_c   6.35856525
_cell_angle_alpha   90.04922913
_cell_angle_beta   90.28509756
_cell_angle_gamma   120.59985508
_symmetry_Int_Tables_number   1
_chemical_formula_structural   Tb5(Th3Ru2)3
_chemical_formula_sum   'Tb5 Th9 Ru6'
_cell_volume   532.42664459
_cell_formula_units_Z   1
loop_
 _symmetry_equiv_pos_site_id
 _symmetry_equiv_pos_as_xyz
  1  'x, y, z'
loop_
 _atom_site_type_symbol
 _atom_site_label
 _atom_site_symmetry_multiplicity
 _atom_site_fract_x
 _atom_site_fract_y
 _atom_site_fract_z
 _atom_site_occupancy
  Tb  Tb0  1  0.460347  0.536235  0.298279  1
  Tb  Tb1  1  0.072897  0.535136  0.300431  1
  Tb  Tb2  1  0.923527  0.459343  0.798967  1
  Tb  Tb3  1  0.251295  0.125503  0.509192  1
  Tb  Tb4  1  0.541084  0.077836  0.795091  1
  Th  Th5  1  0.748268  0.875901  0.011495  1
  Th  Th6  1  0.665815  0.332786  0.272483  1
  Th  Th7  1  0.127749  0.873490  0.005149  1
  Th  Th8  1  0.459166  0.922281  0.301799  1
  Th  Th9  1  0.537207  0.461263  0.796795  1
  Th  Th10  1  0.879457  0.131847  0.512331  1
  Th  Th11  1  0.125812  0.250672  0.010791  1
  Th  Th12  1  0.876033  0.747700  0.507508  1
  Th  Th13  1  0.333236  0.666212  0.771968  1
  Ru  Ru14  1  0.809378  0.630750  0.046001  1
  Ru  Ru15  1  0.818990  0.180576  0.052202  1
  Ru  Ru16  1  0.633536  0.820396  0.543239  1
  Ru  Ru17  1  0.371186  0.190161  0.040763  1
  Ru  Ru18  1  0.182109  0.373987  0.560893  1
  Ru  Ru19  1  0.182907  0.807924  0.548619  1
