# generated using pymatgen
data_Pr8Tm9Si16Ag3
_symmetry_space_group_name_H-M   'P 1'
_cell_length_a   7.23723217
_cell_length_b   7.77570067
_cell_length_c   14.74670900
_cell_angle_alpha   90.00000000
_cell_angle_beta   90.00000000
_cell_angle_gamma   89.84707893
_symmetry_Int_Tables_number   1
_chemical_formula_structural   Pr8Tm9Si16Ag3
_chemical_formula_sum   'Pr8 Tm9 Si16 Ag3'
_cell_volume   829.86147294
_cell_formula_units_Z   1
loop_
 _symmetry_equiv_pos_site_id
 _symmetry_equiv_pos_as_xyz
  1  'x, y, z'
loop_
 _atom_site_type_symbol
 _atom_site_label
 _atom_site_symmetry_multiplicity
 _atom_site_fract_x
 _atom_site_fract_y
 _atom_site_fract_z
 _atom_site_occupancy
  Pr  Pr0  1  0.021202  0.183036  0.395602  1
  Pr  Pr1  1  0.520426  0.315060  0.396827  1
  Pr  Pr2  1  0.475359  0.673829  0.899474  1
  Pr  Pr3  1  0.475359  0.673829  0.600526  1
  Pr  Pr4  1  0.986592  0.813599  0.599861  1
  Pr  Pr5  1  0.986592  0.813599  0.900139  1
  Pr  Pr6  1  0.520426  0.315060  0.103173  1
  Pr  Pr7  1  0.021202  0.183036  0.104398  1
  Tm  Tm8  1  0.319980  0.188857  0.625024  1
  Tm  Tm9  1  0.671598  0.819988  0.373473  1
  Tm  Tm10  1  0.653975  0.995190  0.750000  1
  Tm  Tm11  1  0.173510  0.683240  0.372313  1
  Tm  Tm12  1  0.832733  0.325665  0.874439  1
  Tm  Tm13  1  0.832733  0.325665  0.625561  1
  Tm  Tm14  1  0.319980  0.188857  0.874976  1
  Tm  Tm15  1  0.173510  0.683240  0.127687  1
  Tm  Tm16  1  0.671598  0.819988  0.126527  1
  Si  Si17  1  0.280227  0.891685  0.750000  1
  Si  Si18  1  0.473801  0.597413  0.250000  1
  Si  Si19  1  0.026800  0.097724  0.750000  1
  Si  Si20  1  0.533655  0.389948  0.750000  1
  Si  Si21  1  0.149970  0.462085  0.528923  1
  Si  Si22  1  0.972949  0.904254  0.250000  1
  Si  Si23  1  0.724469  0.110181  0.250000  1
  Si  Si24  1  0.846567  0.536347  0.034957  1
  Si  Si25  1  0.347421  0.964245  0.032198  1
  Si  Si26  1  0.149970  0.462085  0.971077  1
  Si  Si27  1  0.649209  0.029824  0.539389  1
  Si  Si28  1  0.347421  0.964245  0.467802  1
  Si  Si29  1  0.846567  0.536347  0.465043  1
  Si  Si30  1  0.773045  0.619836  0.750000  1
  Si  Si31  1  0.225792  0.390074  0.250000  1
  Si  Si32  1  0.649209  0.029824  0.960611  1
  Ag  Ag33  1  0.847352  0.489280  0.250000  1
  Ag  Ag34  1  0.346784  0.011212  0.250000  1
  Ag  Ag35  1  0.152014  0.511652  0.750000  1
