# generated using pymatgen
data_Sr8Li4Si11Ge
_symmetry_space_group_name_H-M   'P 1'
_cell_length_a   11.76818449
_cell_length_b   10.08211650
_cell_length_c   8.56689412
_cell_angle_alpha   77.80839296
_cell_angle_beta   56.86099803
_cell_angle_gamma   45.34093028
_symmetry_Int_Tables_number   1
_chemical_formula_structural   Sr8Li4Si11Ge
_chemical_formula_sum   'Sr8 Li4 Si11 Ge1'
_cell_volume   579.28063127
_cell_formula_units_Z   1
loop_
 _symmetry_equiv_pos_site_id
 _symmetry_equiv_pos_as_xyz
  1  'x, y, z'
loop_
 _atom_site_type_symbol
 _atom_site_label
 _atom_site_symmetry_multiplicity
 _atom_site_fract_x
 _atom_site_fract_y
 _atom_site_fract_z
 _atom_site_occupancy
  Sr  Sr0  1  0.123919  0.123934  0.876219  1
  Sr  Sr1  1  0.875678  0.876618  0.123701  1
  Sr  Sr2  1  0.126292  0.125358  0.373939  1
  Sr  Sr3  1  0.374904  0.373520  0.125570  1
  Sr  Sr4  1  0.623867  0.624371  0.375677  1
  Sr  Sr5  1  0.375829  0.375729  0.624225  1
  Sr  Sr6  1  0.625308  0.625822  0.874944  1
  Sr  Sr7  1  0.874025  0.874727  0.626142  1
  Li  Li8  1  0.083286  0.416764  0.081684  1
  Li  Li9  1  0.832898  0.167228  0.832686  1
  Li  Li10  1  0.167175  0.832720  0.167280  1
  Li  Li11  1  0.417145  0.082739  0.417287  1
  Si  Si12  1  0.071132  0.422987  0.594401  1
  Si  Si13  1  0.425389  0.069013  0.914308  1
  Si  Si14  1  0.592198  0.913532  0.068525  1
  Si  Si15  1  0.336532  0.657809  0.824255  1
  Si  Si16  1  0.657821  0.336528  0.181396  1
  Si  Si17  1  0.824149  0.181428  0.336421  1
  Si  Si18  1  0.181372  0.824209  0.658020  1
  Si  Si19  1  0.910849  0.589101  0.911981  1
  Si  Si20  1  0.583984  0.915908  0.591061  1
  Si  Si21  1  0.338918  0.661213  0.338728  1
  Si  Si22  1  0.661098  0.338983  0.661218  1
  Ge  Ge23  1  0.916236  0.589765  0.420326  1
