# generated using pymatgen
data_Dy4YTm15Sn16
_symmetry_space_group_name_H-M   'P 1'
_cell_length_a   7.97083249
_cell_length_b   8.09125915
_cell_length_c   15.30125713
_cell_angle_alpha   90.00634456
_cell_angle_beta   89.87681248
_cell_angle_gamma   89.89085973
_symmetry_Int_Tables_number   1
_chemical_formula_structural   Dy4YTm15Sn16
_chemical_formula_sum   'Dy4 Y1 Tm15 Sn16'
_cell_volume   986.83629172
_cell_formula_units_Z   1
loop_
 _symmetry_equiv_pos_site_id
 _symmetry_equiv_pos_as_xyz
  1  'x, y, z'
loop_
 _atom_site_type_symbol
 _atom_site_label
 _atom_site_symmetry_multiplicity
 _atom_site_fract_x
 _atom_site_fract_y
 _atom_site_fract_z
 _atom_site_occupancy
  Dy  Dy0  1  0.478775  0.678784  0.096518  1
  Dy  Dy1  1  0.978267  0.820846  0.403213  1
  Dy  Dy2  1  0.521525  0.321029  0.596641  1
  Dy  Dy3  1  0.020887  0.179511  0.903433  1
  Y  Y4  1  0.978596  0.820523  0.097045  1
  Tm  Tm5  1  0.367129  0.837133  0.877028  1
  Tm  Tm6  1  0.867962  0.662743  0.622685  1
  Tm  Tm7  1  0.631792  0.162968  0.377323  1
  Tm  Tm8  1  0.132513  0.337286  0.122862  1
  Tm  Tm9  1  0.632261  0.162928  0.122923  1
  Tm  Tm10  1  0.131730  0.337130  0.377563  1
  Tm  Tm11  1  0.368481  0.837238  0.622683  1
  Tm  Tm12  1  0.867373  0.662468  0.876965  1
  Tm  Tm13  1  0.522361  0.320856  0.902616  1
  Tm  Tm14  1  0.022795  0.179043  0.597451  1
  Tm  Tm15  1  0.477077  0.678718  0.402726  1
  Tm  Tm16  1  0.198580  0.503999  0.749910  1
  Tm  Tm17  1  0.698478  0.996095  0.749792  1
  Tm  Tm18  1  0.801305  0.495934  0.250383  1
  Tm  Tm19  1  0.301779  0.004141  0.250298  1
  Sn  Sn20  1  0.294419  0.037570  0.041653  1
  Sn  Sn21  1  0.791992  0.463714  0.458160  1
  Sn  Sn22  1  0.707850  0.964060  0.541935  1
  Sn  Sn23  1  0.207344  0.536451  0.958085  1
  Sn  Sn24  1  0.704943  0.962819  0.958255  1
  Sn  Sn25  1  0.206614  0.537863  0.541171  1
  Sn  Sn26  1  0.293440  0.037276  0.458834  1
  Sn  Sn27  1  0.793596  0.461229  0.040980  1
  Sn  Sn28  1  0.564668  0.619026  0.749880  1
  Sn  Sn29  1  0.064566  0.880692  0.749874  1
  Sn  Sn30  1  0.435276  0.380691  0.250097  1
  Sn  Sn31  1  0.935390  0.120024  0.250151  1
  Sn  Sn32  1  0.331525  0.148913  0.750429  1
  Sn  Sn33  1  0.831454  0.350976  0.749642  1
  Sn  Sn34  1  0.667791  0.851081  0.250518  1
  Sn  Sn35  1  0.169465  0.648237  0.250278  1
