# generated using pymatgen
data_MnBi2PbF14
_symmetry_space_group_name_H-M   'P 1'
_cell_length_a   5.72622401
_cell_length_b   9.31799614
_cell_length_c   12.39481000
_cell_angle_alpha   61.73382410
_cell_angle_beta   90.16244531
_cell_angle_gamma   90.15577656
_symmetry_Int_Tables_number   1
_chemical_formula_structural   MnBi2PbF14
_chemical_formula_sum   'Mn2 Bi4 Pb2 F28'
_cell_volume   582.48480219
_cell_formula_units_Z   2
loop_
 _symmetry_equiv_pos_site_id
 _symmetry_equiv_pos_as_xyz
  1  'x, y, z'
loop_
 _atom_site_type_symbol
 _atom_site_label
 _atom_site_symmetry_multiplicity
 _atom_site_fract_x
 _atom_site_fract_y
 _atom_site_fract_z
 _atom_site_occupancy
  Mn  Mn0  1  0.757884  0.728208  0.041622  1
  Mn  Mn1  1  0.242116  0.271792  0.958378  1
  Bi  Bi2  1  0.257487  0.823840  0.251014  1
  Bi  Bi3  1  0.742513  0.176160  0.748986  1
  Bi  Bi4  1  0.761345  0.190601  0.228616  1
  Bi  Bi5  1  0.238655  0.809399  0.771384  1
  Pb  Pb6  1  0.259465  0.272235  0.459885  1
  Pb  Pb7  1  0.740535  0.727765  0.540115  1
  F  F8  1  0.940438  0.707359  0.405754  1
  F  F9  1  0.059562  0.292641  0.594246  1
  F  F10  1  0.436277  0.285939  0.072416  1
  F  F11  1  0.563723  0.714061  0.927584  1
  F  F12  1  0.500216  0.740174  0.127492  1
  F  F13  1  0.499784  0.259826  0.872508  1
  F  F14  1  0.961596  0.274818  0.357028  1
  F  F15  1  0.038404  0.725182  0.642972  1
  F  F16  1  0.950936  0.746366  0.156328  1
  F  F17  1  0.049064  0.253634  0.843672  1
  F  F18  1  0.447389  0.250895  0.320443  1
  F  F19  1  0.552611  0.749105  0.679557  1
  F  F20  1  0.762279  0.505885  0.130983  1
  F  F21  1  0.237721  0.494115  0.869017  1
  F  F22  1  0.287601  0.525203  0.355085  1
  F  F23  1  0.712399  0.474797  0.644915  1
  F  F24  1  0.975995  0.280526  0.042329  1
  F  F25  1  0.024005  0.719474  0.957671  1
  F  F26  1  0.422798  0.732181  0.448924  1
  F  F27  1  0.577202  0.267819  0.551076  1
  F  F28  1  0.740906  0.985640  0.438530  1
  F  F29  1  0.259094  0.014360  0.561470  1
  F  F30  1  0.238737  0.042999  0.049482  1
  F  F31  1  0.761263  0.957001  0.950518  1
  F  F32  1  0.589848  0.972852  0.229741  1
  F  F33  1  0.410152  0.027148  0.770259  1
  F  F34  1  0.083793  0.027303  0.270118  1
  F  F35  1  0.916207  0.972697  0.729882  1
