# generated using pymatgen
data_Lu7IrRuSe2
_symmetry_space_group_name_H-M   'P 1'
_cell_length_a   8.93637639
_cell_length_b   8.92584328
_cell_length_c   8.92584226
_cell_angle_alpha   155.26398513
_cell_angle_beta   119.06200645
_cell_angle_gamma   66.78955507
_symmetry_Int_Tables_number   1
_chemical_formula_structural   Lu7IrRuSe2
_chemical_formula_sum   'Lu7 Ir1 Ru1 Se2'
_cell_volume   258.23914852
_cell_formula_units_Z   1
loop_
 _symmetry_equiv_pos_site_id
 _symmetry_equiv_pos_as_xyz
  1  'x, y, z'
loop_
 _atom_site_type_symbol
 _atom_site_label
 _atom_site_symmetry_multiplicity
 _atom_site_fract_x
 _atom_site_fract_y
 _atom_site_fract_z
 _atom_site_occupancy
  Lu  Lu0  1  0.615810  0.356982  0.258829  1
  Lu  Lu1  1  0.898160  0.642142  0.256018  1
  Lu  Lu2  1  0.999526  0.999893  0.999633  1
  Lu  Lu3  1  0.543162  0.126582  0.416580  1
  Lu  Lu4  1  0.290840  0.874161  0.416679  1
  Lu  Lu5  1  0.945295  0.316924  0.628372  1
  Lu  Lu6  1  0.314117  0.683263  0.630856  1
  Ir  Ir7  1  0.167786  0.237720  0.930066  1
  Ru  Ru8  1  0.693486  0.762186  0.931300  1
  Se  Se9  1  0.261926  0.500051  0.761875  1
  Se  Se10  1  0.660753  0.000096  0.660657  1
