# generated using pymatgen
data_Nd9Dy3CuSi8Ni3
_symmetry_space_group_name_H-M   'P 1'
_cell_length_a   4.20666700
_cell_length_b   11.83438062
_cell_length_c   11.51591199
_cell_angle_alpha   89.82083946
_cell_angle_beta   90.00000000
_cell_angle_gamma   90.00000000
_symmetry_Int_Tables_number   1
_chemical_formula_structural   Nd9Dy3CuSi8Ni3
_chemical_formula_sum   'Nd9 Dy3 Cu1 Si8 Ni3'
_cell_volume   573.29728056
_cell_formula_units_Z   1
loop_
 _symmetry_equiv_pos_site_id
 _symmetry_equiv_pos_as_xyz
  1  'x, y, z'
loop_
 _atom_site_type_symbol
 _atom_site_label
 _atom_site_symmetry_multiplicity
 _atom_site_fract_x
 _atom_site_fract_y
 _atom_site_fract_z
 _atom_site_occupancy
  Nd  Nd0  1  0.250000  0.060015  0.882683  1
  Nd  Nd1  1  0.250000  0.443588  0.383950  1
  Nd  Nd2  1  0.750000  0.940695  0.112083  1
  Nd  Nd3  1  0.750000  0.562844  0.615470  1
  Nd  Nd4  1  0.250000  0.117205  0.563555  1
  Nd  Nd5  1  0.250000  0.378907  0.062304  1
  Nd  Nd6  1  0.750000  0.875678  0.437713  1
  Nd  Nd7  1  0.750000  0.623204  0.937723  1
  Nd  Nd8  1  0.750000  0.195494  0.291211  1
  Dy  Dy9  1  0.250000  0.806423  0.710725  1
  Dy  Dy10  1  0.250000  0.695891  0.210541  1
  Dy  Dy11  1  0.750000  0.308572  0.795979  1
  Cu  Cu12  1  0.250000  0.359388  0.635956  1
  Si  Si13  1  0.250000  0.811347  0.967875  1
  Si  Si14  1  0.250000  0.687550  0.469676  1
  Si  Si15  1  0.750000  0.190375  0.027971  1
  Si  Si16  1  0.750000  0.310601  0.534190  1
  Si  Si17  1  0.250000  0.484626  0.805218  1
  Si  Si18  1  0.250000  0.011442  0.299121  1
  Si  Si19  1  0.750000  0.519328  0.197742  1
  Si  Si20  1  0.750000  0.980453  0.698183  1
  Ni  Ni21  1  0.250000  0.136366  0.128409  1
  Ni  Ni22  1  0.750000  0.639489  0.365491  1
  Ni  Ni23  1  0.750000  0.860520  0.866228  1
