# generated using pymatgen
data_Dy3Ho(Co2O5)4
_symmetry_space_group_name_H-M   'P 1'
_cell_length_a   5.64162166
_cell_length_b   7.25478047
_cell_length_c   8.43160888
_cell_angle_alpha   89.98277597
_cell_angle_beta   89.90966381
_cell_angle_gamma   89.99159483
_symmetry_Int_Tables_number   1
_chemical_formula_structural   Dy3Ho(Co2O5)4
_chemical_formula_sum   'Dy3 Ho1 Co8 O20'
_cell_volume   345.09456712
_cell_formula_units_Z   1
loop_
 _symmetry_equiv_pos_site_id
 _symmetry_equiv_pos_as_xyz
  1  'x, y, z'
loop_
 _atom_site_type_symbol
 _atom_site_label
 _atom_site_symmetry_multiplicity
 _atom_site_fract_x
 _atom_site_fract_y
 _atom_site_fract_z
 _atom_site_occupancy
  Dy  Dy0  1  0.000870  0.640591  0.327316  1
  Dy  Dy1  1  0.999136  0.359449  0.672819  1
  Dy  Dy2  1  0.999029  0.140357  0.172505  1
  Ho  Ho3  1  0.001161  0.859213  0.827339  1
  Co  Co4  1  0.499357  0.910530  0.149464  1
  Co  Co5  1  0.500755  0.088610  0.850348  1
  Co  Co6  1  0.500759  0.410751  0.350463  1
  Co  Co7  1  0.499410  0.589513  0.649697  1
  Co  Co8  1  0.256096  0.498199  0.000293  1
  Co  Co9  1  0.743943  0.997713  0.499786  1
  Co  Co10  1  0.743460  0.502524  0.999270  1
  Co  Co11  1  0.256302  0.002004  0.500653  1
  O  O12  1  0.274466  0.500310  0.500485  1
  O  O13  1  0.726086  0.999663  0.999318  1
  O  O14  1  0.726001  0.499377  0.499974  1
  O  O15  1  0.273528  0.998847  0.999851  1
  O  O16  1  0.004951  0.662674  0.052779  1
  O  O17  1  0.994353  0.338338  0.946866  1
  O  O18  1  0.994732  0.161923  0.446970  1
  O  O19  1  0.005503  0.837890  0.553809  1
  O  O20  1  0.507780  0.652609  0.060613  1
  O  O21  1  0.491732  0.347638  0.938507  1
  O  O22  1  0.491948  0.152473  0.439338  1
  O  O23  1  0.508244  0.847329  0.560954  1
  O  O24  1  0.244317  0.899277  0.291125  1
  O  O25  1  0.243796  0.097587  0.709283  1
  O  O26  1  0.755701  0.399480  0.208856  1
  O  O27  1  0.756328  0.599457  0.791032  1
  O  O28  1  0.756454  0.099986  0.709184  1
  O  O29  1  0.755918  0.901781  0.291045  1
  O  O30  1  0.243819  0.601989  0.791196  1
  O  O31  1  0.244067  0.401922  0.208862  1
