# generated using pymatgen
data_YHo2Sc2(In2Pt)2
_symmetry_space_group_name_H-M   'P 1'
_cell_length_a   3.57593000
_cell_length_b   7.99578700
_cell_length_c   17.85180800
_cell_angle_alpha   90.00000000
_cell_angle_beta   90.00000000
_cell_angle_gamma   90.00000000
_symmetry_Int_Tables_number   1
_chemical_formula_structural   YHo2Sc2(In2Pt)2
_chemical_formula_sum   'Y2 Ho4 Sc4 In8 Pt4'
_cell_volume   510.42558175
_cell_formula_units_Z   2
loop_
 _symmetry_equiv_pos_site_id
 _symmetry_equiv_pos_as_xyz
  1  'x, y, z'
loop_
 _atom_site_type_symbol
 _atom_site_label
 _atom_site_symmetry_multiplicity
 _atom_site_fract_x
 _atom_site_fract_y
 _atom_site_fract_z
 _atom_site_occupancy
  Y  Y0  1  0.000000  0.000000  0.000000  1
  Y  Y1  1  0.000000  0.500000  0.500000  1
  Ho  Ho2  1  0.000000  0.241290  0.216424  1
  Ho  Ho3  1  0.000000  0.758710  0.783576  1
  Ho  Ho4  1  0.000000  0.258710  0.716424  1
  Ho  Ho5  1  0.000000  0.741290  0.283576  1
  Sc  Sc6  1  0.000000  0.117355  0.413890  1
  Sc  Sc7  1  0.000000  0.882645  0.586110  1
  Sc  Sc8  1  0.000000  0.382645  0.913890  1
  Sc  Sc9  1  0.000000  0.617355  0.086110  1
  In  In10  1  0.500000  0.412861  0.350551  1
  In  In11  1  0.500000  0.587139  0.649449  1
  In  In12  1  0.500000  0.087139  0.850551  1
  In  In13  1  0.500000  0.912861  0.149449  1
  In  In14  1  0.500000  0.306665  0.060473  1
  In  In15  1  0.500000  0.693335  0.939527  1
  In  In16  1  0.500000  0.193335  0.560473  1
  In  In17  1  0.500000  0.806665  0.439527  1
  Pt  Pt18  1  0.500000  0.030888  0.307196  1
  Pt  Pt19  1  0.500000  0.969112  0.692804  1
  Pt  Pt20  1  0.500000  0.469112  0.807196  1
  Pt  Pt21  1  0.500000  0.530888  0.192804  1
