# generated using pymatgen
data_Tb6ErLuAl4
_symmetry_space_group_name_H-M   'P 1'
_cell_length_a   5.11692300
_cell_length_b   6.56027166
_cell_length_c   9.45200000
_cell_angle_alpha   90.35322133
_cell_angle_beta   90.00000000
_cell_angle_gamma   90.00000000
_symmetry_Int_Tables_number   1
_chemical_formula_structural   Tb6ErLuAl4
_chemical_formula_sum   'Tb6 Er1 Lu1 Al4'
_cell_volume   317.28253432
_cell_formula_units_Z   1
loop_
 _symmetry_equiv_pos_site_id
 _symmetry_equiv_pos_as_xyz
  1  'x, y, z'
loop_
 _atom_site_type_symbol
 _atom_site_label
 _atom_site_symmetry_multiplicity
 _atom_site_fract_x
 _atom_site_fract_y
 _atom_site_fract_z
 _atom_site_occupancy
  Tb  Tb0  1  0.750000  0.690375  0.427968  1
  Tb  Tb1  1  0.250000  0.309139  0.573784  1
  Tb  Tb2  1  0.750000  0.186629  0.072519  1
  Tb  Tb3  1  0.250000  0.813511  0.925574  1
  Tb  Tb4  1  0.750000  0.527207  0.790751  1
  Tb  Tb5  1  0.250000  0.472531  0.209446  1
  Er  Er6  1  0.250000  0.972303  0.288928  1
  Lu  Lu7  1  0.750000  0.027351  0.710073  1
  Al  Al8  1  0.750000  0.207004  0.399295  1
  Al  Al9  1  0.250000  0.793717  0.601776  1
  Al  Al10  1  0.750000  0.708451  0.103081  1
  Al  Al11  1  0.250000  0.291782  0.896806  1
