# generated using pymatgen
data_Be6Co2RuW3
_symmetry_space_group_name_H-M   'P 1'
_cell_length_a   4.51787300
_cell_length_b   4.51787430
_cell_length_c   7.20575400
_cell_angle_alpha   90.00000000
_cell_angle_beta   90.00000000
_cell_angle_gamma   119.99999781
_symmetry_Int_Tables_number   1
_chemical_formula_structural   Be6Co2RuW3
_chemical_formula_sum   'Be6 Co2 Ru1 W3'
_cell_volume   127.37325128
_cell_formula_units_Z   1
loop_
 _symmetry_equiv_pos_site_id
 _symmetry_equiv_pos_as_xyz
  1  'x, y, z'
loop_
 _atom_site_type_symbol
 _atom_site_label
 _atom_site_symmetry_multiplicity
 _atom_site_fract_x
 _atom_site_fract_y
 _atom_site_fract_z
 _atom_site_occupancy
  Be  Be0  1  0.832089  0.167911  0.252927  1
  Be  Be1  1  0.832089  0.664179  0.252927  1
  Be  Be2  1  0.335821  0.167911  0.252927  1
  Be  Be3  1  0.168009  0.831991  0.750205  1
  Be  Be4  1  0.168009  0.336018  0.750205  1
  Be  Be5  1  0.663982  0.831991  0.750205  1
  Co  Co6  1  0.000000  0.000000  0.501332  1
  Co  Co7  1  0.000000  0.000000  0.005701  1
  Ru  Ru8  1  0.333333  0.666667  0.421684  1
  W  W9  1  0.666667  0.333333  0.561719  1
  W  W10  1  0.666667  0.333333  0.930836  1
  W  W11  1  0.333333  0.666667  0.069332  1
