# generated using pymatgen
data_LiDy5Ti2(Co4P3)4
_symmetry_space_group_name_H-M   'P 1'
_cell_length_a   12.10732953
_cell_length_b   12.04743035
_cell_length_c   3.68566400
_cell_angle_alpha   90.00000000
_cell_angle_beta   90.00000000
_cell_angle_gamma   119.83646664
_symmetry_Int_Tables_number   1
_chemical_formula_structural   LiDy5Ti2(Co4P3)4
_chemical_formula_sum   'Li1 Dy5 Ti2 Co16 P12'
_cell_volume   466.33978097
_cell_formula_units_Z   1
loop_
 _symmetry_equiv_pos_site_id
 _symmetry_equiv_pos_as_xyz
  1  'x, y, z'
loop_
 _atom_site_type_symbol
 _atom_site_label
 _atom_site_symmetry_multiplicity
 _atom_site_fract_x
 _atom_site_fract_y
 _atom_site_fract_z
 _atom_site_occupancy
  Li  Li0  1  0.000000  0.441197  0.000000  1
  Dy  Dy1  1  0.665324  0.332184  0.000000  1
  Dy  Dy2  1  0.334676  0.666861  0.000000  1
  Dy  Dy3  1  0.186126  0.184538  0.500000  1
  Dy  Dy4  1  0.813874  0.998412  0.500000  1
  Dy  Dy5  1  0.000000  0.811981  0.500000  1
  Ti  Ti6  1  0.561402  0.561283  0.000000  1
  Ti  Ti7  1  0.438598  0.999882  0.000000  1
  Co  Co8  1  0.822928  0.200811  0.000000  1
  Co  Co9  1  0.802633  0.623542  0.000000  1
  Co  Co10  1  0.374916  0.178104  0.000000  1
  Co  Co11  1  0.197367  0.820910  0.000000  1
  Co  Co12  1  0.625084  0.803188  0.000000  1
  Co  Co13  1  0.177072  0.377883  0.000000  1
  Co  Co14  1  0.643730  0.123722  0.500000  1
  Co  Co15  1  0.873749  0.517229  0.500000  1
  Co  Co16  1  0.481834  0.356258  0.500000  1
  Co  Co17  1  0.126251  0.643481  0.500000  1
  Co  Co18  1  0.518166  0.874424  0.500000  1
  Co  Co19  1  0.356270  0.479993  0.500000  1
  Co  Co20  1  0.718630  0.718847  0.500000  1
  Co  Co21  1  0.281370  0.000216  0.500000  1
  Co  Co22  1  0.000000  0.283642  0.500000  1
  Co  Co23  1  0.000000  0.002417  0.000000  1
  P  P24  1  0.358590  0.360733  0.000000  1
  P  P25  1  0.641410  0.002143  0.000000  1
  P  P26  1  0.000000  0.633374  0.000000  1
  P  P27  1  0.831673  0.312323  0.500000  1
  P  P28  1  0.688274  0.520033  0.500000  1
  P  P29  1  0.479390  0.167163  0.500000  1
  P  P30  1  0.311726  0.831758  0.500000  1
  P  P31  1  0.520610  0.687773  0.500000  1
  P  P32  1  0.168327  0.480650  0.500000  1
  P  P33  1  0.821118  0.820639  0.000000  1
  P  P34  1  0.178882  0.999520  0.000000  1
  P  P35  1  0.000000  0.182884  0.000000  1
