# generated using pymatgen
data_Sm2Er5Tm3In8(PdPt)2
_symmetry_space_group_name_H-M   'P 1'
_cell_length_a   3.60267500
_cell_length_b   8.16482701
_cell_length_c   18.26238700
_cell_angle_alpha   90.00225960
_cell_angle_beta   90.00000000
_cell_angle_gamma   90.00000000
_symmetry_Int_Tables_number   1
_chemical_formula_structural   Sm2Er5Tm3In8(PdPt)2
_chemical_formula_sum   'Sm2 Er5 Tm3 In8 Pd2 Pt2'
_cell_volume   537.19209685
_cell_formula_units_Z   1
loop_
 _symmetry_equiv_pos_site_id
 _symmetry_equiv_pos_as_xyz
  1  'x, y, z'
loop_
 _atom_site_type_symbol
 _atom_site_label
 _atom_site_symmetry_multiplicity
 _atom_site_fract_x
 _atom_site_fract_y
 _atom_site_fract_z
 _atom_site_occupancy
  Sm  Sm0  1  0.000000  0.000020  0.999916  1
  Sm  Sm1  1  0.000000  0.500140  0.500077  1
  Er  Er2  1  0.000000  0.619366  0.085264  1
  Er  Er3  1  0.000000  0.246306  0.218719  1
  Er  Er4  1  0.000000  0.753890  0.781409  1
  Er  Er5  1  0.000000  0.263192  0.719487  1
  Er  Er6  1  0.000000  0.736702  0.280495  1
  Tm  Tm7  1  0.000000  0.119609  0.415292  1
  Tm  Tm8  1  0.000000  0.880560  0.584861  1
  Tm  Tm9  1  0.000000  0.380871  0.914216  1
  In  In10  1  0.500000  0.418473  0.349696  1
  In  In11  1  0.500000  0.581551  0.650464  1
  In  In12  1  0.500000  0.077045  0.848029  1
  In  In13  1  0.500000  0.923075  0.152076  1
  In  In14  1  0.500000  0.297726  0.065924  1
  In  In15  1  0.500000  0.701872  0.933769  1
  In  In16  1  0.500000  0.200449  0.567313  1
  In  In17  1  0.500000  0.799595  0.432697  1
  Pd  Pd18  1  0.500000  0.025309  0.304405  1
  Pd  Pd19  1  0.500000  0.974689  0.695627  1
  Pt  Pt20  1  0.500000  0.474265  0.803923  1
  Pt  Pt21  1  0.500000  0.525293  0.196339  1
