# generated using pymatgen
data_PdPt3F24
_symmetry_space_group_name_H-M   'P 1'
_cell_length_a   5.08071340
_cell_length_b   8.78441400
_cell_length_c   9.58614559
_cell_angle_alpha   90.00000000
_cell_angle_beta   89.88820878
_cell_angle_gamma   90.00000000
_symmetry_Int_Tables_number   1
_chemical_formula_structural   PdPt3F24
_chemical_formula_sum   'Pd1 Pt3 F24'
_cell_volume   427.83931169
_cell_formula_units_Z   1
loop_
 _symmetry_equiv_pos_site_id
 _symmetry_equiv_pos_as_xyz
  1  'x, y, z'
loop_
 _atom_site_type_symbol
 _atom_site_label
 _atom_site_symmetry_multiplicity
 _atom_site_fract_x
 _atom_site_fract_y
 _atom_site_fract_z
 _atom_site_occupancy
  Pd  Pd0  1  0.908210  0.750000  0.874057  1
  Pt  Pt1  1  0.407241  0.250000  0.626472  1
  Pt  Pt2  1  0.092106  0.250000  0.125612  1
  Pt  Pt3  1  0.592655  0.750000  0.373772  1
  F  F4  1  0.208629  0.750000  0.991053  1
  F  F5  1  0.707955  0.250000  0.508535  1
  F  F6  1  0.791745  0.250000  0.008601  1
  F  F7  1  0.292387  0.750000  0.491352  1
  F  F8  1  0.606847  0.750000  0.757194  1
  F  F9  1  0.105802  0.250000  0.743708  1
  F  F10  1  0.392583  0.250000  0.243170  1
  F  F11  1  0.893536  0.750000  0.256383  1
  F  F12  1  0.751147  0.902875  0.987009  1
  F  F13  1  0.250562  0.097337  0.513787  1
  F  F14  1  0.249219  0.402781  0.013470  1
  F  F15  1  0.749195  0.597242  0.486086  1
  F  F16  1  0.249219  0.097219  0.013470  1
  F  F17  1  0.749195  0.902758  0.486086  1
  F  F18  1  0.751147  0.597125  0.987009  1
  F  F19  1  0.250562  0.402663  0.513787  1
  F  F20  1  0.063971  0.902533  0.760690  1
  F  F21  1  0.563414  0.097641  0.739013  1
  F  F22  1  0.936159  0.402336  0.239001  1
  F  F23  1  0.436484  0.597665  0.260989  1
  F  F24  1  0.936159  0.097664  0.239001  1
  F  F25  1  0.436484  0.902335  0.260989  1
  F  F26  1  0.063971  0.597467  0.760690  1
  F  F27  1  0.563414  0.402359  0.739013  1
