# generated using pymatgen
data_Nd5Zn7Rh12
_symmetry_space_group_name_H-M   'P 1'
_cell_length_a   5.54783225
_cell_length_b   5.54783307
_cell_length_c   16.48443394
_cell_angle_alpha   80.31246392
_cell_angle_beta   80.31246379
_cell_angle_gamma   60.00001062
_symmetry_Int_Tables_number   1
_chemical_formula_structural   Nd5Zn7Rh12
_chemical_formula_sum   'Nd5 Zn7 Rh12'
_cell_volume   431.01679256
_cell_formula_units_Z   1
loop_
 _symmetry_equiv_pos_site_id
 _symmetry_equiv_pos_as_xyz
  1  'x, y, z'
loop_
 _atom_site_type_symbol
 _atom_site_label
 _atom_site_symmetry_multiplicity
 _atom_site_fract_x
 _atom_site_fract_y
 _atom_site_fract_z
 _atom_site_occupancy
  Nd  Nd0  1  0.000000  0.000000  0.000000  1
  Nd  Nd1  1  0.076185  0.076185  0.771443  1
  Nd  Nd2  1  0.923815  0.923815  0.228557  1
  Nd  Nd3  1  0.150694  0.150694  0.547916  1
  Nd  Nd4  1  0.849306  0.849306  0.452084  1
  Zn  Zn5  1  0.500000  0.500000  0.500000  1
  Zn  Zn6  1  0.250489  0.250489  0.248533  1
  Zn  Zn7  1  0.749511  0.749511  0.751467  1
  Zn  Zn8  1  0.333276  0.333276  0.000169  1
  Zn  Zn9  1  0.666724  0.666724  0.999831  1
  Zn  Zn10  1  0.416772  0.416772  0.749686  1
  Zn  Zn11  1  0.583228  0.583228  0.250314  1
  Rh  Rh12  1  0.120368  0.626936  0.625761  1
  Rh  Rh13  1  0.626936  0.626936  0.625761  1
  Rh  Rh14  1  0.626936  0.120368  0.625761  1
  Rh  Rh15  1  0.879632  0.373064  0.374239  1
  Rh  Rh16  1  0.373064  0.373064  0.374239  1
  Rh  Rh17  1  0.373064  0.879632  0.374239  1
  Rh  Rh18  1  0.041842  0.541079  0.876001  1
  Rh  Rh19  1  0.541079  0.541079  0.876001  1
  Rh  Rh20  1  0.541079  0.041842  0.876001  1
  Rh  Rh21  1  0.958158  0.458921  0.123999  1
  Rh  Rh22  1  0.458921  0.458921  0.123999  1
  Rh  Rh23  1  0.458921  0.958158  0.123999  1
