# generated using pymatgen
data_Zn20NiPd2Pt3
_symmetry_space_group_name_H-M   'P 1'
_cell_length_a   7.88485353
_cell_length_b   7.88485406
_cell_length_c   7.87678187
_cell_angle_alpha   71.03617487
_cell_angle_beta   71.03616943
_cell_angle_gamma   109.40865294
_symmetry_Int_Tables_number   1
_chemical_formula_structural   Zn20NiPd2Pt3
_chemical_formula_sum   'Zn20 Ni1 Pd2 Pt3'
_cell_volume   381.90069057
_cell_formula_units_Z   1
loop_
 _symmetry_equiv_pos_site_id
 _symmetry_equiv_pos_as_xyz
  1  'x, y, z'
loop_
 _atom_site_type_symbol
 _atom_site_label
 _atom_site_symmetry_multiplicity
 _atom_site_fract_x
 _atom_site_fract_y
 _atom_site_fract_z
 _atom_site_occupancy
  Zn  Zn0  1  0.006828  0.006828  0.818895  1
  Zn  Zn1  1  0.757600  0.757600  0.240193  1
  Zn  Zn2  1  0.238669  0.003747  0.994711  1
  Zn  Zn3  1  0.003747  0.238669  0.994711  1
  Zn  Zn4  1  0.240850  0.240850  0.422085  1
  Zn  Zn5  1  0.007040  0.754646  0.650124  1
  Zn  Zn6  1  0.754646  0.007040  0.650124  1
  Zn  Zn7  1  0.644058  0.644058  0.634949  1
  Zn  Zn8  1  0.370352  0.627424  0.340693  1
  Zn  Zn9  1  0.627424  0.370352  0.340693  1
  Zn  Zn10  1  0.363527  0.734118  0.959830  1
  Zn  Zn11  1  0.622212  0.264245  0.705048  1
  Zn  Zn12  1  0.357648  0.013001  0.280329  1
  Zn  Zn13  1  0.734118  0.363527  0.959830  1
  Zn  Zn14  1  0.013001  0.357648  0.280329  1
  Zn  Zn15  1  0.264245  0.622212  0.705048  1
  Zn  Zn16  1  0.646596  0.646596  0.992992  1
  Zn  Zn17  1  0.004302  0.650386  0.357996  1
  Zn  Zn18  1  0.650386  0.004302  0.357996  1
  Zn  Zn19  1  0.354749  0.354749  0.007399  1
  Ni  Ni20  1  0.357602  0.357602  0.659666  1
  Pd  Pd21  1  0.636956  0.985481  0.019645  1
  Pd  Pd22  1  0.985481  0.636956  0.019645  1
  Pt  Pt23  1  0.000072  0.361148  0.637976  1
  Pt  Pt24  1  0.361148  0.000072  0.637976  1
  Pt  Pt25  1  0.996743  0.996743  0.331121  1
