# generated using pymatgen
data_Nd2Ga9OsPd2
_symmetry_space_group_name_H-M   'P 1'
_cell_length_a   7.71128060
_cell_length_b   7.71128222
_cell_length_c   9.68859873
_cell_angle_alpha   90.08635264
_cell_angle_beta   90.08636385
_cell_angle_gamma   119.76640235
_symmetry_Int_Tables_number   1
_chemical_formula_structural   Nd2Ga9OsPd2
_chemical_formula_sum   'Nd4 Ga18 Os2 Pd4'
_cell_volume   500.10387528
_cell_formula_units_Z   2
loop_
 _symmetry_equiv_pos_site_id
 _symmetry_equiv_pos_as_xyz
  1  'x, y, z'
loop_
 _atom_site_type_symbol
 _atom_site_label
 _atom_site_symmetry_multiplicity
 _atom_site_fract_x
 _atom_site_fract_y
 _atom_site_fract_z
 _atom_site_occupancy
  Nd  Nd0  1  0.995675  0.668741  0.250597  1
  Nd  Nd1  1  0.004325  0.331259  0.749403  1
  Nd  Nd2  1  0.668741  0.995675  0.250597  1
  Nd  Nd3  1  0.331259  0.004325  0.749403  1
  Ga  Ga4  1  0.131852  0.131852  0.248878  1
  Ga  Ga5  1  0.868148  0.868148  0.751122  1
  Ga  Ga6  1  0.000351  0.339990  0.074994  1
  Ga  Ga7  1  0.999649  0.660010  0.925006  1
  Ga  Ga8  1  0.996360  0.665870  0.581462  1
  Ga  Ga9  1  0.334130  0.003640  0.418538  1
  Ga  Ga10  1  0.003640  0.334130  0.418538  1
  Ga  Ga11  1  0.665870  0.996360  0.581462  1
  Ga  Ga12  1  0.660010  0.999649  0.925006  1
  Ga  Ga13  1  0.339990  0.000351  0.074994  1
  Ga  Ga14  1  0.337249  0.337249  0.568427  1
  Ga  Ga15  1  0.662751  0.662751  0.431573  1
  Ga  Ga16  1  0.662951  0.662951  0.055435  1
  Ga  Ga17  1  0.337049  0.337049  0.944565  1
  Ga  Ga18  1  0.338807  0.544455  0.245113  1
  Ga  Ga19  1  0.661193  0.455545  0.754887  1
  Ga  Ga20  1  0.544455  0.338807  0.245113  1
  Ga  Ga21  1  0.455545  0.661193  0.754887  1
  Os  Os22  1  0.671519  0.328481  0.000000  1
  Os  Os23  1  0.328481  0.671519  0.000000  1
  Pd  Pd24  1  0.329959  0.670041  0.500000  1
  Pd  Pd25  1  0.670041  0.329959  0.500000  1
  Pd  Pd26  1  0.000000  0.000000  0.000000  1
  Pd  Pd27  1  0.000000  0.000000  0.500000  1
