# generated using pymatgen
data_PrEu2(CdPd)3
_symmetry_space_group_name_H-M   'P 1'
_cell_length_a   7.67967700
_cell_length_b   7.69808903
_cell_length_c   4.18824100
_cell_angle_alpha   90.00000000
_cell_angle_beta   90.00000000
_cell_angle_gamma   119.92091679
_symmetry_Int_Tables_number   1
_chemical_formula_structural   PrEu2(CdPd)3
_chemical_formula_sum   'Pr1 Eu2 Cd3 Pd3'
_cell_volume   214.60197538
_cell_formula_units_Z   1
loop_
 _symmetry_equiv_pos_site_id
 _symmetry_equiv_pos_as_xyz
  1  'x, y, z'
loop_
 _atom_site_type_symbol
 _atom_site_label
 _atom_site_symmetry_multiplicity
 _atom_site_fract_x
 _atom_site_fract_y
 _atom_site_fract_z
 _atom_site_occupancy
  Pr  Pr0  1  0.592967  0.000000  0.500000  1
  Eu  Eu1  1  0.405837  0.406456  0.500000  1
  Eu  Eu2  1  0.999382  0.593544  0.500000  1
  Cd  Cd3  1  0.749259  0.748617  0.000000  1
  Cd  Cd4  1  0.249981  0.000000  0.000000  1
  Cd  Cd5  1  0.000642  0.251383  0.000000  1
  Pd  Pd6  1  0.666284  0.328660  0.000000  1
  Pd  Pd7  1  0.998026  0.000000  0.500000  1
  Pd  Pd8  1  0.337623  0.671340  0.000000  1
