# generated using pymatgen
data_ReSCl
_symmetry_space_group_name_H-M   'P 1'
_cell_length_a   9.33269668
_cell_length_b   9.33269650
_cell_length_c   11.23223900
_cell_angle_alpha   90.00000000
_cell_angle_beta   90.00000000
_cell_angle_gamma   104.27179069
_symmetry_Int_Tables_number   1
_chemical_formula_structural   ReSCl
_chemical_formula_sum   'Re12 S12 Cl12'
_cell_volume   948.12566778
_cell_formula_units_Z   12
loop_
 _symmetry_equiv_pos_site_id
 _symmetry_equiv_pos_as_xyz
  1  'x, y, z'
loop_
 _atom_site_type_symbol
 _atom_site_label
 _atom_site_symmetry_multiplicity
 _atom_site_fract_x
 _atom_site_fract_y
 _atom_site_fract_z
 _atom_site_occupancy
  Re  Re0  1  0.374970  0.625030  0.250000  1
  Re  Re1  1  0.314193  0.816939  0.099734  1
  Re  Re2  1  0.394546  0.898200  0.318993  1
  Re  Re3  1  0.625030  0.374970  0.750000  1
  Re  Re4  1  0.605454  0.101800  0.818993  1
  Re  Re5  1  0.685807  0.183061  0.599734  1
  Re  Re6  1  0.816939  0.314193  0.900266  1
  Re  Re7  1  0.898200  0.394546  0.681007  1
  Re  Re8  1  0.877066  0.122934  0.750000  1
  Re  Re9  1  0.101800  0.605454  0.181007  1
  Re  Re10  1  0.183061  0.685807  0.400266  1
  Re  Re11  1  0.122934  0.877066  0.250000  1
  S  S12  1  0.288466  0.560737  0.048527  1
  S  S13  1  0.439263  0.711534  0.451473  1
  S  S14  1  0.330894  0.063170  0.173105  1
  S  S15  1  0.560737  0.288466  0.951473  1
  S  S16  1  0.711534  0.439263  0.548527  1
  S  S17  1  0.669106  0.936830  0.673105  1
  S  S18  1  0.936830  0.669106  0.326895  1
  S  S19  1  0.790255  0.062426  0.950906  1
  S  S20  1  0.937574  0.209745  0.549094  1
  S  S21  1  0.063170  0.330894  0.826895  1
  S  S22  1  0.062426  0.790255  0.049094  1
  S  S23  1  0.209745  0.937574  0.450906  1
  Cl  Cl24  1  0.466211  0.533789  0.750000  1
  Cl  Cl25  1  0.427328  0.170796  0.672703  1
  Cl  Cl26  1  0.404778  0.893216  0.894362  1
  Cl  Cl27  1  0.533789  0.466211  0.250000  1
  Cl  Cl28  1  0.595222  0.106784  0.394362  1
  Cl  Cl29  1  0.572672  0.829204  0.172703  1
  Cl  Cl30  1  0.829204  0.572672  0.827297  1
  Cl  Cl31  1  0.893216  0.404778  0.105638  1
  Cl  Cl32  1  0.962391  0.037608  0.250000  1
  Cl  Cl33  1  0.106784  0.595222  0.605638  1
  Cl  Cl34  1  0.037608  0.962391  0.750000  1
  Cl  Cl35  1  0.170796  0.427328  0.327297  1
