# generated using pymatgen
data_Tb7Lu13Sn16
_symmetry_space_group_name_H-M   'P 1'
_cell_length_a   7.94965810
_cell_length_b   8.07812403
_cell_length_c   15.25829006
_cell_angle_alpha   90.01671055
_cell_angle_beta   90.22209986
_cell_angle_gamma   89.89963468
_symmetry_Int_Tables_number   1
_chemical_formula_structural   Tb7Lu13Sn16
_chemical_formula_sum   'Tb7 Lu13 Sn16'
_cell_volume   979.85291098
_cell_formula_units_Z   1
loop_
 _symmetry_equiv_pos_site_id
 _symmetry_equiv_pos_as_xyz
  1  'x, y, z'
loop_
 _atom_site_type_symbol
 _atom_site_label
 _atom_site_symmetry_multiplicity
 _atom_site_fract_x
 _atom_site_fract_y
 _atom_site_fract_z
 _atom_site_occupancy
  Tb  Tb0  1  0.019459  0.179211  0.596493  1
  Tb  Tb1  1  0.480720  0.678921  0.404435  1
  Tb  Tb2  1  0.979435  0.820842  0.095943  1
  Tb  Tb3  1  0.479382  0.678065  0.095831  1
  Tb  Tb4  1  0.980577  0.821267  0.404408  1
  Tb  Tb5  1  0.518501  0.321775  0.595424  1
  Tb  Tb6  1  0.020324  0.179205  0.903759  1
  Lu  Lu7  1  0.364915  0.838310  0.876400  1
  Lu  Lu8  1  0.863394  0.662235  0.624005  1
  Lu  Lu9  1  0.635799  0.162209  0.376036  1
  Lu  Lu10  1  0.134095  0.338186  0.123211  1
  Lu  Lu11  1  0.634221  0.161895  0.123149  1
  Lu  Lu12  1  0.135969  0.337955  0.376278  1
  Lu  Lu13  1  0.364238  0.838431  0.624508  1
  Lu  Lu14  1  0.865933  0.661273  0.876626  1
  Lu  Lu15  1  0.522816  0.321230  0.903135  1
  Lu  Lu16  1  0.195835  0.504916  0.750519  1
  Lu  Lu17  1  0.695221  0.995086  0.750548  1
  Lu  Lu18  1  0.804398  0.494635  0.249745  1
  Lu  Lu19  1  0.304472  0.005221  0.249794  1
  Sn  Sn20  1  0.296228  0.039425  0.041648  1
  Sn  Sn21  1  0.797787  0.459358  0.458656  1
  Sn  Sn22  1  0.701460  0.960435  0.541397  1
  Sn  Sn23  1  0.207105  0.537266  0.957714  1
  Sn  Sn24  1  0.702668  0.960924  0.958137  1
  Sn  Sn25  1  0.201482  0.541202  0.541496  1
  Sn  Sn26  1  0.298133  0.040306  0.458654  1
  Sn  Sn27  1  0.794998  0.458813  0.040396  1
  Sn  Sn28  1  0.561409  0.619719  0.750465  1
  Sn  Sn29  1  0.061137  0.879421  0.750266  1
  Sn  Sn30  1  0.438669  0.379970  0.249605  1
  Sn  Sn31  1  0.938649  0.120247  0.249818  1
  Sn  Sn32  1  0.331574  0.151361  0.751015  1
  Sn  Sn33  1  0.828884  0.350531  0.750190  1
  Sn  Sn34  1  0.670053  0.850470  0.250142  1
  Sn  Sn35  1  0.170060  0.649685  0.250155  1
