# generated using pymatgen
data_Dy12Th4MgHg3Ru4
_symmetry_space_group_name_H-M   'P 1'
_cell_length_a   9.67159712
_cell_length_b   9.71411698
_cell_length_c   9.71411700
_cell_angle_alpha   59.99999653
_cell_angle_beta   59.85445910
_cell_angle_gamma   59.85445862
_symmetry_Int_Tables_number   1
_chemical_formula_structural   Dy12Th4MgHg3Ru4
_chemical_formula_sum   'Dy12 Th4 Mg1 Hg3 Ru4'
_cell_volume   643.91857303
_cell_formula_units_Z   1
loop_
 _symmetry_equiv_pos_site_id
 _symmetry_equiv_pos_as_xyz
  1  'x, y, z'
loop_
 _atom_site_type_symbol
 _atom_site_label
 _atom_site_symmetry_multiplicity
 _atom_site_fract_x
 _atom_site_fract_y
 _atom_site_fract_z
 _atom_site_occupancy
  Dy  Dy0  1  0.811181  0.188856  0.188856  1
  Dy  Dy1  1  0.186303  0.813003  0.813003  1
  Dy  Dy2  1  0.186303  0.813003  0.187692  1
  Dy  Dy3  1  0.811181  0.188856  0.811107  1
  Dy  Dy4  1  0.186303  0.187692  0.813003  1
  Dy  Dy5  1  0.811181  0.811107  0.188856  1
  Dy  Dy6  1  0.933846  0.564331  0.564331  1
  Dy  Dy7  1  0.563780  0.935993  0.935993  1
  Dy  Dy8  1  0.563780  0.935993  0.564235  1
  Dy  Dy9  1  0.933846  0.564331  0.937492  1
  Dy  Dy10  1  0.563780  0.564235  0.935993  1
  Dy  Dy11  1  0.933846  0.937492  0.564331  1
  Th  Th12  1  0.348382  0.346546  0.346546  1
  Th  Th13  1  0.348382  0.346546  0.958525  1
  Th  Th14  1  0.348382  0.958525  0.346546  1
  Th  Th15  1  0.951342  0.349553  0.349553  1
  Mg  Mg16  1  0.280449  0.573184  0.573184  1
  Hg  Hg17  1  0.580644  0.587264  0.587264  1
  Hg  Hg18  1  0.580644  0.587264  0.244827  1
  Hg  Hg19  1  0.580644  0.244827  0.587264  1
  Ru  Ru20  1  0.142191  0.143837  0.143837  1
  Ru  Ru21  1  0.142191  0.143837  0.570135  1
  Ru  Ru22  1  0.142191  0.570135  0.143837  1
  Ru  Ru23  1  0.569226  0.143591  0.143591  1
