# generated using pymatgen
data_Yb15Ho3(LuPt8)2
_symmetry_space_group_name_H-M   'P 1'
_cell_length_a   7.45469080
_cell_length_b   7.54209166
_cell_length_c   14.52109357
_cell_angle_alpha   90.05394890
_cell_angle_beta   90.01192275
_cell_angle_gamma   90.03933198
_symmetry_Int_Tables_number   1
_chemical_formula_structural   Yb15Ho3(LuPt8)2
_chemical_formula_sum   'Yb15 Ho3 Lu2 Pt16'
_cell_volume   816.43283088
_cell_formula_units_Z   1
loop_
 _symmetry_equiv_pos_site_id
 _symmetry_equiv_pos_as_xyz
  1  'x, y, z'
loop_
 _atom_site_type_symbol
 _atom_site_label
 _atom_site_symmetry_multiplicity
 _atom_site_fract_x
 _atom_site_fract_y
 _atom_site_fract_z
 _atom_site_occupancy
  Yb  Yb0  1  0.850812  0.665905  0.122304  1
  Yb  Yb1  1  0.648221  0.166183  0.878101  1
  Yb  Yb2  1  0.148141  0.333719  0.621019  1
  Yb  Yb3  1  0.491209  0.675628  0.594801  1
  Yb  Yb4  1  0.990902  0.823152  0.905583  1
  Yb  Yb5  1  0.509312  0.322069  0.093884  1
  Yb  Yb6  1  0.007222  0.178077  0.405580  1
  Yb  Yb7  1  0.508511  0.322645  0.404613  1
  Yb  Yb8  1  0.006507  0.180452  0.094418  1
  Yb  Yb9  1  0.491915  0.679402  0.904486  1
  Yb  Yb10  1  0.991964  0.819579  0.595512  1
  Yb  Yb11  1  0.809431  0.506678  0.750167  1
  Yb  Yb12  1  0.308793  0.991912  0.749948  1
  Yb  Yb13  1  0.188782  0.489890  0.249485  1
  Yb  Yb14  1  0.694443  0.008607  0.249633  1
  Ho  Ho15  1  0.649286  0.162128  0.622713  1
  Ho  Ho16  1  0.149895  0.336086  0.876202  1
  Ho  Ho17  1  0.351382  0.835984  0.124126  1
  Lu  Lu18  1  0.852036  0.664555  0.376748  1
  Lu  Lu19  1  0.351667  0.833950  0.376822  1
  Pt  Pt20  1  0.682806  0.956049  0.457921  1
  Pt  Pt21  1  0.188594  0.539819  0.039449  1
  Pt  Pt22  1  0.310884  0.040016  0.961007  1
  Pt  Pt23  1  0.813840  0.459666  0.537761  1
  Pt  Pt24  1  0.323704  0.029744  0.539823  1
  Pt  Pt25  1  0.827317  0.466717  0.957198  1
  Pt  Pt26  1  0.673407  0.966701  0.043523  1
  Pt  Pt27  1  0.176239  0.544792  0.456217  1
  Pt  Pt28  1  0.444239  0.379412  0.747035  1
  Pt  Pt29  1  0.943925  0.118752  0.751454  1
  Pt  Pt30  1  0.553470  0.623741  0.253573  1
  Pt  Pt31  1  0.059028  0.877863  0.255060  1
  Pt  Pt32  1  0.680968  0.862818  0.747070  1
  Pt  Pt33  1  0.181257  0.636324  0.753052  1
  Pt  Pt34  1  0.323606  0.133503  0.250400  1
  Pt  Pt35  1  0.816285  0.367481  0.253312  1
