# generated using pymatgen
data_YHo2MgCd2Ga3
_symmetry_space_group_name_H-M   'P 1'
_cell_length_a   7.23136600
_cell_length_b   7.24644086
_cell_length_c   4.42325800
_cell_angle_alpha   90.00000000
_cell_angle_beta   90.00000000
_cell_angle_gamma   119.93121678
_symmetry_Int_Tables_number   1
_chemical_formula_structural   YHo2MgCd2Ga3
_chemical_formula_sum   'Y1 Ho2 Mg1 Cd2 Ga3'
_cell_volume   200.87162510
_cell_formula_units_Z   1
loop_
 _symmetry_equiv_pos_site_id
 _symmetry_equiv_pos_as_xyz
  1  'x, y, z'
loop_
 _atom_site_type_symbol
 _atom_site_label
 _atom_site_symmetry_multiplicity
 _atom_site_fract_x
 _atom_site_fract_y
 _atom_site_fract_z
 _atom_site_occupancy
  Y  Y0  1  0.574251  0.000000  0.500000  1
  Ho  Ho1  1  0.998812  0.571858  0.500000  1
  Ho  Ho2  1  0.426953  0.428142  0.500000  1
  Mg  Mg3  1  0.240262  0.000000  0.000000  1
  Cd  Cd4  1  0.001889  0.248706  0.000000  1
  Cd  Cd5  1  0.753183  0.751294  0.000000  1
  Ga  Ga6  1  0.333473  0.669888  0.000000  1
  Ga  Ga7  1  0.663586  0.330112  0.000000  1
  Ga  Ga8  1  0.007591  0.000000  0.500000  1
