# generated using pymatgen
data_Tb16Cd3Hg(IrPd)2
_symmetry_space_group_name_H-M   'P 1'
_cell_length_a   9.69856739
_cell_length_b   9.69856662
_cell_length_c   9.66573056
_cell_angle_alpha   60.08001574
_cell_angle_beta   60.08001864
_cell_angle_gamma   60.28657928
_symmetry_Int_Tables_number   1
_chemical_formula_structural   Tb16Cd3Hg(IrPd)2
_chemical_formula_sum   'Tb16 Cd3 Hg1 Ir2 Pd2'
_cell_volume   645.04958157
_cell_formula_units_Z   1
loop_
 _symmetry_equiv_pos_site_id
 _symmetry_equiv_pos_as_xyz
  1  'x, y, z'
loop_
 _atom_site_type_symbol
 _atom_site_label
 _atom_site_symmetry_multiplicity
 _atom_site_fract_x
 _atom_site_fract_y
 _atom_site_fract_z
 _atom_site_occupancy
  Tb  Tb0  1  0.599506  0.599506  0.595584  1
  Tb  Tb1  1  0.603968  0.603968  0.196736  1
  Tb  Tb2  1  0.610130  0.188268  0.603336  1
  Tb  Tb3  1  0.188268  0.610130  0.603336  1
  Tb  Tb4  1  0.055604  0.441563  0.438873  1
  Tb  Tb5  1  0.439558  0.055571  0.063951  1
  Tb  Tb6  1  0.441563  0.055604  0.438873  1
  Tb  Tb7  1  0.055571  0.439558  0.063951  1
  Tb  Tb8  1  0.441039  0.441039  0.059411  1
  Tb  Tb9  1  0.061015  0.061015  0.437048  1
  Tb  Tb10  1  0.187329  0.816742  0.811178  1
  Tb  Tb11  1  0.814723  0.187078  0.186105  1
  Tb  Tb12  1  0.816742  0.187329  0.811178  1
  Tb  Tb13  1  0.187078  0.814723  0.186105  1
  Tb  Tb14  1  0.813398  0.813398  0.186492  1
  Tb  Tb15  1  0.186807  0.186807  0.811664  1
  Cd  Cd16  1  0.830734  0.830734  0.504131  1
  Cd  Cd17  1  0.829607  0.505924  0.830950  1
  Cd  Cd18  1  0.505924  0.829607  0.830950  1
  Hg  Hg19  1  0.834700  0.834700  0.835154  1
  Ir  Ir20  1  0.390099  0.822250  0.393741  1
  Ir  Ir21  1  0.822250  0.390099  0.393741  1
  Pd  Pd22  1  0.392942  0.392942  0.397670  1
  Pd  Pd23  1  0.391445  0.391445  0.819842  1
