# generated using pymatgen
data_Mn20Ni(WC3)2
_symmetry_space_group_name_H-M   'P 1'
_cell_length_a   7.39423854
_cell_length_b   7.39423828
_cell_length_c   7.39423800
_cell_angle_alpha   59.99999228
_cell_angle_beta   59.99999348
_cell_angle_gamma   59.99999962
_symmetry_Int_Tables_number   1
_chemical_formula_structural   Mn20Ni(WC3)2
_chemical_formula_sum   'Mn20 Ni1 W2 C6'
_cell_volume   285.86782533
_cell_formula_units_Z   1
loop_
 _symmetry_equiv_pos_site_id
 _symmetry_equiv_pos_as_xyz
  1  'x, y, z'
loop_
 _atom_site_type_symbol
 _atom_site_label
 _atom_site_symmetry_multiplicity
 _atom_site_fract_x
 _atom_site_fract_y
 _atom_site_fract_z
 _atom_site_occupancy
  Mn  Mn0  1  0.847713  0.384096  0.384096  1
  Mn  Mn1  1  0.384096  0.847713  0.384096  1
  Mn  Mn2  1  0.384096  0.384096  0.847713  1
  Mn  Mn3  1  0.384096  0.384096  0.384096  1
  Mn  Mn4  1  0.152287  0.615904  0.615904  1
  Mn  Mn5  1  0.615904  0.152287  0.615904  1
  Mn  Mn6  1  0.615904  0.615904  0.152287  1
  Mn  Mn7  1  0.615904  0.615904  0.615904  1
  Mn  Mn8  1  0.662964  0.000000  0.000000  1
  Mn  Mn9  1  0.662964  0.000000  0.337036  1
  Mn  Mn10  1  0.662964  0.337036  0.000000  1
  Mn  Mn11  1  0.000000  0.662964  0.337036  1
  Mn  Mn12  1  0.000000  0.662964  0.000000  1
  Mn  Mn13  1  0.337036  0.662964  0.000000  1
  Mn  Mn14  1  0.000000  0.337036  0.662964  1
  Mn  Mn15  1  0.337036  0.000000  0.662964  1
  Mn  Mn16  1  0.000000  0.000000  0.662964  1
  Mn  Mn17  1  0.337036  0.000000  0.000000  1
  Mn  Mn18  1  0.000000  0.337036  0.000000  1
  Mn  Mn19  1  0.000000  0.000000  0.337036  1
  Ni  Ni20  1  0.000000  0.000000  0.000000  1
  W  W21  1  0.250000  0.250000  0.250000  1
  W  W22  1  0.750000  0.750000  0.750000  1
  C  C23  1  0.724988  0.275012  0.275012  1
  C  C24  1  0.724988  0.275012  0.724988  1
  C  C25  1  0.724988  0.724988  0.275012  1
  C  C26  1  0.275012  0.724988  0.724988  1
  C  C27  1  0.275012  0.724988  0.275012  1
  C  C28  1  0.275012  0.275012  0.724988  1
