# generated using pymatgen
data_Dy4Y4Ti11Si16Hg
_symmetry_space_group_name_H-M   'P 1'
_cell_length_a   7.08820140
_cell_length_b   7.08829442
_cell_length_c   12.93721101
_cell_angle_alpha   89.88786515
_cell_angle_beta   90.11742061
_cell_angle_gamma   89.58418426
_symmetry_Int_Tables_number   1
_chemical_formula_structural   Dy4Y4Ti11Si16Hg
_chemical_formula_sum   'Dy4 Y4 Ti11 Si16 Hg1'
_cell_volume   649.98788932
_cell_formula_units_Z   1
loop_
 _symmetry_equiv_pos_site_id
 _symmetry_equiv_pos_as_xyz
  1  'x, y, z'
loop_
 _atom_site_type_symbol
 _atom_site_label
 _atom_site_symmetry_multiplicity
 _atom_site_fract_x
 _atom_site_fract_y
 _atom_site_fract_z
 _atom_site_occupancy
  Dy  Dy0  1  0.842385  0.498745  0.285088  1
  Dy  Dy1  1  0.502064  0.160487  0.216043  1
  Dy  Dy2  1  0.498773  0.842464  0.714862  1
  Dy  Dy3  1  0.342916  0.999582  0.468567  1
  Y  Y4  1  0.997734  0.658953  0.033148  1
  Y  Y5  1  0.999678  0.342839  0.531417  1
  Y  Y6  1  0.658954  0.997752  0.966875  1
  Y  Y7  1  0.160508  0.502111  0.783921  1
  Ti  Ti8  1  0.349836  0.504630  0.376237  1
  Ti  Ti9  1  0.852563  0.991130  0.377126  1
  Ti  Ti10  1  0.008734  0.150801  0.125436  1
  Ti  Ti11  1  0.991197  0.852635  0.622847  1
  Ti  Ti12  1  0.504694  0.349751  0.623721  1
  Ti  Ti13  1  0.150802  0.008728  0.874551  1
  Ti  Ti14  1  0.826371  0.173408  0.750527  1
  Ti  Ti15  1  0.173494  0.826445  0.249477  1
  Ti  Ti16  1  0.327113  0.327057  0.000064  1
  Ti  Ti17  1  0.492406  0.648912  0.124626  1
  Ti  Ti18  1  0.648892  0.492462  0.875361  1
  Si  Si19  1  0.067150  0.714217  0.432431  1
  Si  Si20  1  0.952226  0.290218  0.935921  1
  Si  Si21  1  0.714072  0.067077  0.567571  1
  Si  Si22  1  0.209103  0.453554  0.185356  1
  Si  Si23  1  0.794246  0.541282  0.694499  1
  Si  Si24  1  0.453609  0.209004  0.814638  1
  Si  Si25  1  0.541178  0.794420  0.305517  1
  Si  Si26  1  0.290305  0.952289  0.064164  1
  Si  Si27  1  0.798267  0.868586  0.184495  1
  Si  Si28  1  0.275615  0.625885  0.572385  1
  Si  Si29  1  0.705597  0.369047  0.067032  1
  Si  Si30  1  0.625661  0.275515  0.427573  1
  Si  Si31  1  0.369122  0.705684  0.933035  1
  Si  Si32  1  0.132439  0.201635  0.316726  1
  Si  Si33  1  0.201762  0.132198  0.683268  1
  Si  Si34  1  0.868488  0.798351  0.815515  1
  Hg  Hg35  1  0.672044  0.672146  0.499980  1
