# generated using pymatgen
data_YLu(P2Ir3)2
_symmetry_space_group_name_H-M   'P 1'
_cell_length_a   3.96178000
_cell_length_b   11.15677172
_cell_length_c   12.84166435
_cell_angle_alpha   90.10426946
_cell_angle_beta   90.00000000
_cell_angle_gamma   90.00000000
_symmetry_Int_Tables_number   1
_chemical_formula_structural   YLu(P2Ir3)2
_chemical_formula_sum   'Y3 Lu3 P12 Ir18'
_cell_volume   567.60929337
_cell_formula_units_Z   3
loop_
 _symmetry_equiv_pos_site_id
 _symmetry_equiv_pos_as_xyz
  1  'x, y, z'
loop_
 _atom_site_type_symbol
 _atom_site_label
 _atom_site_symmetry_multiplicity
 _atom_site_fract_x
 _atom_site_fract_y
 _atom_site_fract_z
 _atom_site_occupancy
  Y  Y0  1  0.000000  0.500517  0.521841  1
  Y  Y1  1  0.500000  0.000329  0.477729  1
  Y  Y2  1  0.000000  0.314304  0.796204  1
  Lu  Lu3  1  0.500000  0.814326  0.204545  1
  Lu  Lu4  1  0.500000  0.185213  0.203891  1
  Lu  Lu5  1  0.000000  0.684785  0.795964  1
  P  P6  1  0.500000  0.501244  0.875025  1
  P  P7  1  0.000000  0.999613  0.126323  1
  P  P8  1  0.500000  0.500428  0.359846  1
  P  P9  1  0.000000  0.001205  0.639889  1
  P  P10  1  0.500000  0.315802  0.617002  1
  P  P11  1  0.500000  0.685217  0.618272  1
  P  P12  1  0.000000  0.185054  0.381090  1
  P  P13  1  0.000000  0.815634  0.382293  1
  P  P14  1  0.500000  0.844883  0.893711  1
  P  P15  1  0.500000  0.150788  0.892807  1
  P  P16  1  0.000000  0.654743  0.107062  1
  P  P17  1  0.000000  0.344108  0.106150  1
  Ir  Ir18  1  0.500000  0.500915  0.182347  1
  Ir  Ir19  1  0.000000  0.000115  0.817642  1
  Ir  Ir20  1  0.500000  0.501183  0.699869  1
  Ir  Ir21  1  0.000000  0.999993  0.300277  1
  Ir  Ir22  1  0.000000  0.500837  0.969006  1
  Ir  Ir23  1  0.500000  0.999452  0.034009  1
  Ir  Ir24  1  0.500000  0.336481  0.004594  1
  Ir  Ir25  1  0.500000  0.664050  0.004505  1
  Ir  Ir26  1  0.000000  0.162299  0.997125  1
  Ir  Ir27  1  0.000000  0.836937  0.995322  1
  Ir  Ir28  1  0.500000  0.293398  0.428412  1
  Ir  Ir29  1  0.500000  0.707805  0.429564  1
  Ir  Ir30  1  0.000000  0.207689  0.569143  1
  Ir  Ir31  1  0.000000  0.793885  0.570967  1
  Ir  Ir32  1  0.500000  0.866630  0.715716  1
  Ir  Ir33  1  0.500000  0.129579  0.712103  1
  Ir  Ir34  1  0.000000  0.632941  0.285538  1
  Ir  Ir35  1  0.000000  0.367619  0.284221  1
