# generated using pymatgen
data_Ce8Si12TcAu3
_symmetry_space_group_name_H-M   'P 1'
_cell_length_a   8.23861500
_cell_length_b   8.23861449
_cell_length_c   8.18513800
_cell_angle_alpha   90.00000000
_cell_angle_beta   90.00000000
_cell_angle_gamma   120.00000608
_symmetry_Int_Tables_number   1
_chemical_formula_structural   Ce8Si12TcAu3
_chemical_formula_sum   'Ce8 Si12 Tc1 Au3'
_cell_volume   481.13283946
_cell_formula_units_Z   1
loop_
 _symmetry_equiv_pos_site_id
 _symmetry_equiv_pos_as_xyz
  1  'x, y, z'
loop_
 _atom_site_type_symbol
 _atom_site_label
 _atom_site_symmetry_multiplicity
 _atom_site_fract_x
 _atom_site_fract_y
 _atom_site_fract_z
 _atom_site_occupancy
  Ce  Ce0  1  0.494803  0.989605  0.259036  1
  Ce  Ce1  1  0.493653  0.987310  0.740602  1
  Ce  Ce2  1  0.010395  0.505197  0.259036  1
  Ce  Ce3  1  0.012690  0.506347  0.740602  1
  Ce  Ce4  1  0.494803  0.505197  0.259036  1
  Ce  Ce5  1  0.493653  0.506347  0.740602  1
  Ce  Ce6  1  0.000000  0.000000  0.250177  1
  Ce  Ce7  1  0.000000  0.000000  0.749785  1
  Si  Si8  1  0.162202  0.324405  0.997211  1
  Si  Si9  1  0.836249  0.672498  0.002536  1
  Si  Si10  1  0.675595  0.837798  0.997211  1
  Si  Si11  1  0.838764  0.677528  0.501568  1
  Si  Si12  1  0.327502  0.163751  0.002536  1
  Si  Si13  1  0.164489  0.328977  0.498589  1
  Si  Si14  1  0.162202  0.837798  0.997211  1
  Si  Si15  1  0.322472  0.161236  0.501568  1
  Si  Si16  1  0.836249  0.163751  0.002536  1
  Si  Si17  1  0.671023  0.835511  0.498589  1
  Si  Si18  1  0.838764  0.161236  0.501568  1
  Si  Si19  1  0.164489  0.835511  0.498589  1
  Tc  Tc20  1  0.333333  0.666667  0.499693  1
  Au  Au21  1  0.333333  0.666667  0.003120  1
  Au  Au22  1  0.666667  0.333333  0.997109  1
  Au  Au23  1  0.666667  0.333333  0.501488  1
