# generated using pymatgen
data_Dy2YTm2Si3
_symmetry_space_group_name_H-M   'P 1'
_cell_length_a   8.40751900
_cell_length_b   8.40751814
_cell_length_c   6.29490400
_cell_angle_alpha   90.00000000
_cell_angle_beta   90.00000000
_cell_angle_gamma   120.00352037
_symmetry_Int_Tables_number   1
_chemical_formula_structural   Dy2YTm2Si3
_chemical_formula_sum   'Dy4 Y2 Tm4 Si6'
_cell_volume   385.33637415
_cell_formula_units_Z   2
loop_
 _symmetry_equiv_pos_site_id
 _symmetry_equiv_pos_as_xyz
  1  'x, y, z'
loop_
 _atom_site_type_symbol
 _atom_site_label
 _atom_site_symmetry_multiplicity
 _atom_site_fract_x
 _atom_site_fract_y
 _atom_site_fract_z
 _atom_site_occupancy
  Dy  Dy0  1  0.755772  0.755772  0.250000  1
  Dy  Dy1  1  0.244224  0.000067  0.250000  1
  Dy  Dy2  1  0.000067  0.244224  0.250000  1
  Dy  Dy3  1  0.244325  0.244325  0.750000  1
  Y  Y4  1  0.755797  0.000025  0.750000  1
  Y  Y5  1  0.000025  0.755797  0.750000  1
  Tm  Tm6  1  0.666632  0.333330  0.499972  1
  Tm  Tm7  1  0.333330  0.666632  0.499972  1
  Tm  Tm8  1  0.333330  0.666632  0.000028  1
  Tm  Tm9  1  0.666632  0.333330  0.000028  1
  Si  Si10  1  0.395040  0.395040  0.250000  1
  Si  Si11  1  0.604912  0.999965  0.250000  1
  Si  Si12  1  0.999965  0.604912  0.250000  1
  Si  Si13  1  0.604912  0.604912  0.750000  1
  Si  Si14  1  0.395027  0.000011  0.750000  1
  Si  Si15  1  0.000011  0.395027  0.750000  1
