# generated using pymatgen
data_Tb3Zr2Sn3H
_symmetry_space_group_name_H-M   'P 1'
_cell_length_a   8.89279100
_cell_length_b   8.89275508
_cell_length_c   6.05274800
_cell_angle_alpha   90.00002928
_cell_angle_beta   90.00000000
_cell_angle_gamma   120.00022944
_symmetry_Int_Tables_number   1
_chemical_formula_structural   Tb3Zr2Sn3H
_chemical_formula_sum   'Tb6 Zr4 Sn6 H2'
_cell_volume   414.53064031
_cell_formula_units_Z   2
loop_
 _symmetry_equiv_pos_site_id
 _symmetry_equiv_pos_as_xyz
  1  'x, y, z'
loop_
 _atom_site_type_symbol
 _atom_site_label
 _atom_site_symmetry_multiplicity
 _atom_site_fract_x
 _atom_site_fract_y
 _atom_site_fract_z
 _atom_site_occupancy
  Tb  Tb0  1  0.246601  0.000082  0.250002  1
  Tb  Tb1  1  0.999918  0.246520  0.250002  1
  Tb  Tb2  1  0.753480  0.753399  0.250005  1
  Tb  Tb3  1  0.753479  0.000081  0.749997  1
  Tb  Tb4  1  0.999918  0.753398  0.749997  1
  Tb  Tb5  1  0.246601  0.246519  0.750000  1
  Zr  Zr6  1  0.666666  0.333331  0.000001  1
  Zr  Zr7  1  0.333332  0.666666  0.000003  1
  Zr  Zr8  1  0.666666  0.333332  0.500000  1
  Zr  Zr9  1  0.333332  0.666666  0.499997  1
  Sn  Sn10  1  0.602829  0.000127  0.250003  1
  Sn  Sn11  1  0.999873  0.602702  0.250003  1
  Sn  Sn12  1  0.397298  0.397171  0.250006  1
  Sn  Sn13  1  0.397297  0.000126  0.749997  1
  Sn  Sn14  1  0.999872  0.397170  0.749997  1
  Sn  Sn15  1  0.602829  0.602702  0.749997  1
  H  H16  1  0.000000  0.000000  0.000000  1
  H  H17  1  0.000000  0.000000  0.500002  1
