# generated using pymatgen
data_LaZr3(Al8Pt3)3
_symmetry_space_group_name_H-M   'P 1'
_cell_length_a   7.50681583
_cell_length_b   7.51573689
_cell_length_c   13.04435559
_cell_angle_alpha   84.51646650
_cell_angle_beta   78.92585272
_cell_angle_gamma   59.91967713
_symmetry_Int_Tables_number   1
_chemical_formula_structural   LaZr3(Al8Pt3)3
_chemical_formula_sum   'La1 Zr3 Al24 Pt9'
_cell_volume   624.97883061
_cell_formula_units_Z   1
loop_
 _symmetry_equiv_pos_site_id
 _symmetry_equiv_pos_as_xyz
  1  'x, y, z'
loop_
 _atom_site_type_symbol
 _atom_site_label
 _atom_site_symmetry_multiplicity
 _atom_site_fract_x
 _atom_site_fract_y
 _atom_site_fract_z
 _atom_site_occupancy
  La  La0  1  0.266736  0.502049  0.189521  1
  Zr  Zr1  1  0.393218  0.167288  0.809804  1
  Zr  Zr2  1  0.606894  0.831482  0.188828  1
  Zr  Zr3  1  0.733920  0.499374  0.809480  1
  Al  Al4  1  0.681800  0.833370  0.939104  1
  Al  Al5  1  0.319521  0.161766  0.052141  1
  Al  Al6  1  0.145911  0.832931  0.564522  1
  Al  Al7  1  0.853652  0.167163  0.438475  1
  Al  Al8  1  0.480112  0.166247  0.562332  1
  Al  Al9  1  0.519537  0.833433  0.439632  1
  Al  Al10  1  0.219213  0.162629  0.331123  1
  Al  Al11  1  0.778252  0.834676  0.677405  1
  Al  Al12  1  0.437342  0.504257  0.677564  1
  Al  Al13  1  0.562378  0.495902  0.331206  1
  Al  Al14  1  0.107933  0.162239  0.675266  1
  Al  Al15  1  0.885825  0.840852  0.333113  1
  Al  Al16  1  0.359383  0.495356  0.936006  1
  Al  Al17  1  0.651192  0.502954  0.051936  1
  Al  Al18  1  0.017701  0.170850  0.946174  1
  Al  Al19  1  0.981594  0.834933  0.042413  1
  Al  Al20  1  0.186189  0.499464  0.441774  1
  Al  Al21  1  0.811982  0.500284  0.562312  1
  Al  Al22  1  0.739075  0.152051  0.183454  1
  Al  Al23  1  0.272537  0.836432  0.815720  1
  Al  Al24  1  0.061068  0.625928  0.814554  1
  Al  Al25  1  0.926993  0.375150  0.184785  1
  Al  Al26  1  0.849793  0.047321  0.815579  1
  Al  Al27  1  0.150437  0.964483  0.184495  1
  Pt  Pt28  1  0.120386  0.489994  0.639558  1
  Pt  Pt29  1  0.877393  0.508163  0.363048  1
  Pt  Pt30  1  0.657686  0.172395  0.997814  1
  Pt  Pt31  1  0.342975  0.828626  0.998345  1
  Pt  Pt32  1  0.538130  0.165688  0.363159  1
  Pt  Pt33  1  0.463884  0.833071  0.639113  1
  Pt  Pt34  1  0.777531  0.176444  0.638488  1
  Pt  Pt35  1  0.219896  0.826331  0.364338  1
  Pt  Pt36  1  0.001930  0.498427  0.997422  1
