# generated using pymatgen
data_Zr4Al24NiPt8
_symmetry_space_group_name_H-M   'P 1'
_cell_length_a   7.46067829
_cell_length_b   7.44773844
_cell_length_c   12.96025070
_cell_angle_alpha   84.38626018
_cell_angle_beta   78.90575577
_cell_angle_gamma   60.02579056
_symmetry_Int_Tables_number   1
_chemical_formula_structural   Zr4Al24NiPt8
_chemical_formula_sum   'Zr4 Al24 Ni1 Pt8'
_cell_volume   612.16123854
_cell_formula_units_Z   1
loop_
 _symmetry_equiv_pos_site_id
 _symmetry_equiv_pos_as_xyz
  1  'x, y, z'
loop_
 _atom_site_type_symbol
 _atom_site_label
 _atom_site_symmetry_multiplicity
 _atom_site_fract_x
 _atom_site_fract_y
 _atom_site_fract_z
 _atom_site_occupancy
  Zr  Zr0  1  0.394230  0.164190  0.813277  1
  Zr  Zr1  1  0.605770  0.835810  0.186723  1
  Zr  Zr2  1  0.730068  0.498164  0.813292  1
  Zr  Zr3  1  0.269932  0.501836  0.186708  1
  Al  Al4  1  0.687807  0.826628  0.944471  1
  Al  Al5  1  0.312193  0.173372  0.055529  1
  Al  Al6  1  0.145974  0.832362  0.563509  1
  Al  Al7  1  0.854026  0.167638  0.436491  1
  Al  Al8  1  0.479321  0.167253  0.561365  1
  Al  Al9  1  0.520679  0.832747  0.438635  1
  Al  Al10  1  0.221375  0.166271  0.322430  1
  Al  Al11  1  0.778625  0.833729  0.677570  1
  Al  Al12  1  0.436245  0.503908  0.677953  1
  Al  Al13  1  0.563755  0.496092  0.322047  1
  Al  Al14  1  0.107485  0.162095  0.676200  1
  Al  Al15  1  0.892515  0.837905  0.323800  1
  Al  Al16  1  0.349661  0.495828  0.943872  1
  Al  Al17  1  0.650339  0.504172  0.056128  1
  Al  Al18  1  0.016327  0.178262  0.950490  1
  Al  Al19  1  0.983673  0.821738  0.049510  1
  Al  Al20  1  0.187130  0.499002  0.438975  1
  Al  Al21  1  0.812870  0.500998  0.561025  1
  Al  Al22  1  0.730199  0.165500  0.182533  1
  Al  Al23  1  0.269801  0.834500  0.817467  1
  Al  Al24  1  0.059517  0.616016  0.820844  1
  Al  Al25  1  0.940483  0.383984  0.179156  1
  Al  Al26  1  0.850640  0.044834  0.816834  1
  Al  Al27  1  0.149360  0.955166  0.183166  1
  Ni  Ni28  1  0.000000  0.500000  0.000000  1
  Pt  Pt29  1  0.119928  0.491271  0.639751  1
  Pt  Pt30  1  0.880072  0.508729  0.360249  1
  Pt  Pt31  1  0.656933  0.171709  0.999730  1
  Pt  Pt32  1  0.343067  0.828291  0.000270  1
  Pt  Pt33  1  0.536579  0.167014  0.360944  1
  Pt  Pt34  1  0.463421  0.832986  0.639056  1
  Pt  Pt35  1  0.777886  0.176328  0.637657  1
  Pt  Pt36  1  0.222114  0.823672  0.362343  1
