# generated using pymatgen
data_ErAs2P4(Pd10Pb)2
_symmetry_space_group_name_H-M   'P 1'
_cell_length_a   8.80955612
_cell_length_b   8.80955459
_cell_length_c   8.68703300
_cell_angle_alpha   60.45901371
_cell_angle_beta   60.45901933
_cell_angle_gamma   59.08197557
_symmetry_Int_Tables_number   1
_chemical_formula_structural   ErAs2P4(Pd10Pb)2
_chemical_formula_sum   'Er1 As2 P4 Pd20 Pb2'
_cell_volume   476.53931193
_cell_formula_units_Z   1
loop_
 _symmetry_equiv_pos_site_id
 _symmetry_equiv_pos_as_xyz
  1  'x, y, z'
loop_
 _atom_site_type_symbol
 _atom_site_label
 _atom_site_symmetry_multiplicity
 _atom_site_fract_x
 _atom_site_fract_y
 _atom_site_fract_z
 _atom_site_occupancy
  Er  Er0  1  0.000000  0.000000  0.000000  1
  As  As1  1  0.265240  0.265240  0.734760  1
  As  As2  1  0.734760  0.734760  0.265240  1
  P  P3  1  0.734310  0.265690  0.265690  1
  P  P4  1  0.265690  0.734310  0.734310  1
  P  P5  1  0.265690  0.734310  0.265690  1
  P  P6  1  0.734310  0.265690  0.734310  1
  Pd  Pd7  1  0.343843  0.990139  0.009861  1
  Pd  Pd8  1  0.656157  0.009861  0.990139  1
  Pd  Pd9  1  0.990139  0.343843  0.656157  1
  Pd  Pd10  1  0.009861  0.656157  0.343843  1
  Pd  Pd11  1  0.990139  0.343843  0.009861  1
  Pd  Pd12  1  0.656157  0.009861  0.343843  1
  Pd  Pd13  1  0.009861  0.656157  0.990139  1
  Pd  Pd14  1  0.343843  0.990139  0.656157  1
  Pd  Pd15  1  0.000000  0.000000  0.342144  1
  Pd  Pd16  1  0.000000  0.000000  0.657856  1
  Pd  Pd17  1  0.657856  0.342144  0.000000  1
  Pd  Pd18  1  0.342144  0.657856  0.000000  1
  Pd  Pd19  1  0.387713  0.387713  0.375618  1
  Pd  Pd20  1  0.612287  0.612287  0.624382  1
  Pd  Pd21  1  0.387713  0.387713  0.848957  1
  Pd  Pd22  1  0.375618  0.848957  0.387713  1
  Pd  Pd23  1  0.612287  0.612287  0.151043  1
  Pd  Pd24  1  0.624382  0.151043  0.612287  1
  Pd  Pd25  1  0.848957  0.375618  0.387713  1
  Pd  Pd26  1  0.151043  0.624382  0.612287  1
  Pb  Pb27  1  0.250000  0.250000  0.250000  1
  Pb  Pb28  1  0.750000  0.750000  0.750000  1
