# generated using pymatgen
data_NdPa3(InRh2)2
_symmetry_space_group_name_H-M   'P 1'
_cell_length_a   7.77020097
_cell_length_b   7.77020097
_cell_length_c   3.64097200
_cell_angle_alpha   90.00000000
_cell_angle_beta   90.00000000
_cell_angle_gamma   92.30505268
_symmetry_Int_Tables_number   1
_chemical_formula_structural   NdPa3(InRh2)2
_chemical_formula_sum   'Nd1 Pa3 In2 Rh4'
_cell_volume   219.64953672
_cell_formula_units_Z   1
loop_
 _symmetry_equiv_pos_site_id
 _symmetry_equiv_pos_as_xyz
  1  'x, y, z'
loop_
 _atom_site_type_symbol
 _atom_site_label
 _atom_site_symmetry_multiplicity
 _atom_site_fract_x
 _atom_site_fract_y
 _atom_site_fract_z
 _atom_site_occupancy
  Nd  Nd0  1  0.170883  0.329117  0.500000  1
  Pa  Pa1  1  0.669301  0.171075  0.500000  1
  Pa  Pa2  1  0.328925  0.830699  0.500000  1
  Pa  Pa3  1  0.830010  0.669990  0.500000  1
  In  In4  1  0.494492  0.502435  0.000000  1
  In  In5  1  0.997565  0.005508  0.000000  1
  Rh  Rh6  1  0.390801  0.109199  0.000000  1
  Rh  Rh7  1  0.127377  0.654905  0.000000  1
  Rh  Rh8  1  0.845095  0.372623  0.000000  1
  Rh  Rh9  1  0.645550  0.854450  0.000000  1
