# generated using pymatgen
data_DyY5Sc4Si5P
_symmetry_space_group_name_H-M   'P 1'
_cell_length_a   8.26280193
_cell_length_b   8.26280039
_cell_length_c   6.00087900
_cell_angle_alpha   90.00000000
_cell_angle_beta   90.00000000
_cell_angle_gamma   120.07715539
_symmetry_Int_Tables_number   1
_chemical_formula_structural   DyY5Sc4Si5P
_chemical_formula_sum   'Dy1 Y5 Sc4 Si5 P1'
_cell_volume   354.53729740
_cell_formula_units_Z   1
loop_
 _symmetry_equiv_pos_site_id
 _symmetry_equiv_pos_as_xyz
  1  'x, y, z'
loop_
 _atom_site_type_symbol
 _atom_site_label
 _atom_site_symmetry_multiplicity
 _atom_site_fract_x
 _atom_site_fract_y
 _atom_site_fract_z
 _atom_site_occupancy
  Dy  Dy0  1  0.750104  0.750104  0.500000  1
  Y  Y1  1  0.246316  0.998946  0.500000  1
  Y  Y2  1  0.998946  0.246316  0.500000  1
  Y  Y3  1  0.252267  0.252267  0.000000  1
  Y  Y4  1  0.752908  0.999372  0.000000  1
  Y  Y5  1  0.999372  0.752908  0.000000  1
  Sc  Sc6  1  0.666778  0.333295  0.250641  1
  Sc  Sc7  1  0.333295  0.666778  0.250641  1
  Sc  Sc8  1  0.333295  0.666778  0.749359  1
  Sc  Sc9  1  0.666778  0.333295  0.749359  1
  Si  Si10  1  0.395334  0.395334  0.500000  1
  Si  Si11  1  0.601099  0.998430  0.500000  1
  Si  Si12  1  0.998430  0.601099  0.500000  1
  Si  Si13  1  0.397993  0.999942  0.000000  1
  Si  Si14  1  0.999942  0.397993  0.000000  1
  P  P15  1  0.607196  0.607196  0.000000  1
