# generated using pymatgen
data_Ce4Fe2HgB6
_symmetry_space_group_name_H-M   'P 1'
_cell_length_a   5.28357593
_cell_length_b   5.28357700
_cell_length_c   8.40463061
_cell_angle_alpha   71.67990663
_cell_angle_beta   71.67991219
_cell_angle_gamma   59.99999001
_symmetry_Int_Tables_number   1
_chemical_formula_structural   Ce4Fe2HgB6
_chemical_formula_sum   'Ce4 Fe2 Hg1 B6'
_cell_volume   189.33532001
_cell_formula_units_Z   1
loop_
 _symmetry_equiv_pos_site_id
 _symmetry_equiv_pos_as_xyz
  1  'x, y, z'
loop_
 _atom_site_type_symbol
 _atom_site_label
 _atom_site_symmetry_multiplicity
 _atom_site_fract_x
 _atom_site_fract_y
 _atom_site_fract_z
 _atom_site_occupancy
  Ce  Ce0  1  0.746148  0.746148  0.761557  1
  Ce  Ce1  1  0.253852  0.253852  0.238443  1
  Ce  Ce2  1  0.587004  0.587004  0.238987  1
  Ce  Ce3  1  0.412996  0.412996  0.761013  1
  Fe  Fe4  1  0.882740  0.882740  0.351783  1
  Fe  Fe5  1  0.117260  0.117260  0.648218  1
  Hg  Hg6  1  0.000000  0.000000  0.000000  1
  B  B7  1  0.500000  0.168111  0.500000  1
  B  B8  1  0.831889  0.500000  0.500000  1
  B  B9  1  0.168111  0.831889  0.500000  1
  B  B10  1  0.168111  0.500000  0.500000  1
  B  B11  1  0.831889  0.168111  0.500000  1
  B  B12  1  0.500000  0.831889  0.500000  1
