# generated using pymatgen
data_HoTm5Al16(SiOs)8
_symmetry_space_group_name_H-M   'P 1'
_cell_length_a   8.67221583
_cell_length_b   8.67221555
_cell_length_c   9.39891400
_cell_angle_alpha   90.00000000
_cell_angle_beta   90.00000000
_cell_angle_gamma   120.11430277
_symmetry_Int_Tables_number   1
_chemical_formula_structural   HoTm5Al16(SiOs)8
_chemical_formula_sum   'Ho1 Tm5 Al16 Si8 Os8'
_cell_volume   611.45863100
_cell_formula_units_Z   1
loop_
 _symmetry_equiv_pos_site_id
 _symmetry_equiv_pos_as_xyz
  1  'x, y, z'
loop_
 _atom_site_type_symbol
 _atom_site_label
 _atom_site_symmetry_multiplicity
 _atom_site_fract_x
 _atom_site_fract_y
 _atom_site_fract_z
 _atom_site_occupancy
  Ho  Ho0  1  0.806189  0.193811  0.750000  1
  Tm  Tm1  1  0.192460  0.388906  0.250000  1
  Tm  Tm2  1  0.807536  0.610992  0.750000  1
  Tm  Tm3  1  0.611094  0.807540  0.250000  1
  Tm  Tm4  1  0.389008  0.192464  0.750000  1
  Tm  Tm5  1  0.195582  0.804418  0.250000  1
  Al  Al6  1  0.165819  0.329515  0.577549  1
  Al  Al7  1  0.834525  0.671168  0.420598  1
  Al  Al8  1  0.670485  0.834181  0.577549  1
  Al  Al9  1  0.834525  0.671168  0.079402  1
  Al  Al10  1  0.328832  0.165475  0.420598  1
  Al  Al11  1  0.165819  0.329515  0.922451  1
  Al  Al12  1  0.164366  0.835634  0.577024  1
  Al  Al13  1  0.328832  0.165475  0.079402  1
  Al  Al14  1  0.835329  0.164671  0.420105  1
  Al  Al15  1  0.670485  0.834181  0.922451  1
  Al  Al16  1  0.835329  0.164671  0.079895  1
  Al  Al17  1  0.164366  0.835634  0.922976  1
  Al  Al18  1  0.564721  0.435279  0.250000  1
  Al  Al19  1  0.435425  0.564575  0.750000  1
  Al  Al20  1  0.000431  0.999569  0.250000  1
  Al  Al21  1  0.001027  0.998973  0.750000  1
  Si  Si22  1  0.334869  0.665131  0.042554  1
  Si  Si23  1  0.665054  0.334946  0.958848  1
  Si  Si24  1  0.665054  0.334946  0.541152  1
  Si  Si25  1  0.334869  0.665131  0.457446  1
  Si  Si26  1  0.563030  0.123855  0.250000  1
  Si  Si27  1  0.435103  0.875325  0.750000  1
  Si  Si28  1  0.876145  0.436970  0.250000  1
  Si  Si29  1  0.124675  0.564897  0.750000  1
  Os  Os30  1  0.499692  0.999854  0.000343  1
  Os  Os31  1  0.000146  0.500308  0.000343  1
  Os  Os32  1  0.499692  0.999854  0.499657  1
  Os  Os33  1  0.499998  0.500002  0.999954  1
  Os  Os34  1  0.000146  0.500308  0.499657  1
  Os  Os35  1  0.499998  0.500002  0.500046  1
  Os  Os36  1  0.999674  0.000326  0.999729  1
  Os  Os37  1  0.999674  0.000326  0.500271  1
