# generated using pymatgen
data_Tb4Sn6Rh7
_symmetry_space_group_name_H-M   'P 1'
_cell_length_a   7.63372821
_cell_length_b   7.63372821
_cell_length_c   7.63372800
_cell_angle_alpha   109.47122009
_cell_angle_beta   109.47122008
_cell_angle_gamma   109.47122119
_symmetry_Int_Tables_number   1
_chemical_formula_structural   Tb4Sn6Rh7
_chemical_formula_sum   'Tb4 Sn6 Rh7'
_cell_volume   342.44291073
_cell_formula_units_Z   1
loop_
 _symmetry_equiv_pos_site_id
 _symmetry_equiv_pos_as_xyz
  1  'x, y, z'
loop_
 _atom_site_type_symbol
 _atom_site_label
 _atom_site_symmetry_multiplicity
 _atom_site_fract_x
 _atom_site_fract_y
 _atom_site_fract_z
 _atom_site_occupancy
  Tb  Tb0  1  0.500000  0.000000  0.000000  1
  Tb  Tb1  1  0.000000  0.500000  0.000000  1
  Tb  Tb2  1  0.000000  0.000000  0.500000  1
  Tb  Tb3  1  0.500000  0.500000  0.500000  1
  Sn  Sn4  1  0.000000  0.316709  0.316709  1
  Sn  Sn5  1  0.683291  0.000000  0.683291  1
  Sn  Sn6  1  0.683291  0.683291  0.000000  1
  Sn  Sn7  1  0.000000  0.683291  0.683291  1
  Sn  Sn8  1  0.316709  0.000000  0.316709  1
  Sn  Sn9  1  0.316709  0.316709  0.000000  1
  Rh  Rh10  1  0.000000  0.000000  0.000000  1
  Rh  Rh11  1  0.500000  0.750000  0.250000  1
  Rh  Rh12  1  0.750000  0.500000  0.250000  1
  Rh  Rh13  1  0.250000  0.750000  0.500000  1
  Rh  Rh14  1  0.250000  0.500000  0.750000  1
  Rh  Rh15  1  0.500000  0.250000  0.750000  1
  Rh  Rh16  1  0.750000  0.250000  0.500000  1
