# generated using pymatgen
data_Tm7Lu13ZnBi11
_symmetry_space_group_name_H-M   'P 1'
_cell_length_a   8.09365838
_cell_length_b   9.35492400
_cell_length_c   11.82636496
_cell_angle_alpha   90.00000000
_cell_angle_beta   89.73352144
_cell_angle_gamma   90.00000000
_symmetry_Int_Tables_number   1
_chemical_formula_structural   Tm7Lu13ZnBi11
_chemical_formula_sum   'Tm7 Lu13 Zn1 Bi11'
_cell_volume   895.43014992
_cell_formula_units_Z   1
loop_
 _symmetry_equiv_pos_site_id
 _symmetry_equiv_pos_as_xyz
  1  'x, y, z'
loop_
 _atom_site_type_symbol
 _atom_site_label
 _atom_site_symmetry_multiplicity
 _atom_site_fract_x
 _atom_site_fract_y
 _atom_site_fract_z
 _atom_site_occupancy
  Tm  Tm0  1  0.647400  0.750000  0.716604  1
  Tm  Tm1  1  0.149563  0.750000  0.782294  1
  Tm  Tm2  1  0.853214  0.250000  0.216225  1
  Tm  Tm3  1  0.191701  0.250000  0.778721  1
  Tm  Tm4  1  0.809767  0.750000  0.217348  1
  Tm  Tm5  1  0.312757  0.750000  0.281385  1
  Tm  Tm6  1  0.674828  0.250000  0.710164  1
  Lu  Lu7  1  0.036919  0.250000  0.508644  1
  Lu  Lu8  1  0.980424  0.750000  0.490039  1
  Lu  Lu9  1  0.475717  0.750000  0.010085  1
  Lu  Lu10  1  0.525029  0.250000  0.989649  1
  Lu  Lu11  1  0.356755  0.250000  0.294916  1
  Lu  Lu12  1  0.193977  0.066788  0.061415  1
  Lu  Lu13  1  0.806161  0.933788  0.940360  1
  Lu  Lu14  1  0.309151  0.951883  0.558850  1
  Lu  Lu15  1  0.806161  0.566212  0.940360  1
  Lu  Lu16  1  0.683789  0.072703  0.445376  1
  Lu  Lu17  1  0.193977  0.433212  0.061415  1
  Lu  Lu18  1  0.683789  0.427297  0.445376  1
  Lu  Lu19  1  0.309151  0.548117  0.558850  1
  Zn  Zn20  1  0.407803  0.250000  0.539633  1
  Bi  Bi21  1  0.595140  0.750000  0.457187  1
  Bi  Bi22  1  0.095382  0.750000  0.042779  1
  Bi  Bi23  1  0.905869  0.250000  0.954430  1
  Bi  Bi24  1  0.062806  0.002555  0.324154  1
  Bi  Bi25  1  0.935225  0.997567  0.675298  1
  Bi  Bi26  1  0.435629  0.997030  0.825295  1
  Bi  Bi27  1  0.935225  0.502433  0.675298  1
  Bi  Bi28  1  0.564127  0.004322  0.174202  1
  Bi  Bi29  1  0.062806  0.497445  0.324154  1
  Bi  Bi30  1  0.564127  0.495678  0.174202  1
  Bi  Bi31  1  0.435629  0.502970  0.825295  1
