# generated using pymatgen
data_DyBiRh2O7
_symmetry_space_group_name_H-M   'P 1'
_cell_length_a   7.31644145
_cell_length_b   7.28257115
_cell_length_c   7.28257061
_cell_angle_alpha   59.72454201
_cell_angle_beta   59.84602503
_cell_angle_gamma   59.84602831
_symmetry_Int_Tables_number   1
_chemical_formula_structural   DyBiRh2O7
_chemical_formula_sum   'Dy2 Bi2 Rh4 O14'
_cell_volume   273.16913223
_cell_formula_units_Z   2
loop_
 _symmetry_equiv_pos_site_id
 _symmetry_equiv_pos_as_xyz
  1  'x, y, z'
loop_
 _atom_site_type_symbol
 _atom_site_label
 _atom_site_symmetry_multiplicity
 _atom_site_fract_x
 _atom_site_fract_y
 _atom_site_fract_z
 _atom_site_occupancy
  Dy  Dy0  1  0.125000  0.625000  0.125000  1
  Dy  Dy1  1  0.125000  0.125000  0.625000  1
  Bi  Bi2  1  0.125000  0.125000  0.125000  1
  Bi  Bi3  1  0.625000  0.125000  0.125000  1
  Rh  Rh4  1  0.625000  0.625000  0.625000  1
  Rh  Rh5  1  0.625000  0.625000  0.125000  1
  Rh  Rh6  1  0.125000  0.625000  0.625000  1
  Rh  Rh7  1  0.625000  0.125000  0.625000  1
  O  O8  1  0.245924  0.254076  0.254076  1
  O  O9  1  0.289079  0.706815  0.288565  1
  O  O10  1  0.960921  0.961435  0.543185  1
  O  O11  1  0.534458  0.961435  0.543185  1
  O  O12  1  0.715542  0.706815  0.288565  1
  O  O13  1  0.962475  0.537525  0.537525  1
  O  O14  1  0.715542  0.288565  0.706815  1
  O  O15  1  0.289079  0.288565  0.706815  1
  O  O16  1  0.706939  0.293061  0.293061  1
  O  O17  1  0.287525  0.712475  0.712475  1
  O  O18  1  0.960921  0.543185  0.961435  1
  O  O19  1  0.534458  0.543185  0.961435  1
  O  O20  1  0.004076  0.995924  0.995924  1
  O  O21  1  0.543061  0.956939  0.956939  1
