# generated using pymatgen
data_Nb2Co2SiAs
_symmetry_space_group_name_H-M   'P 1'
_cell_length_a   3.70100100
_cell_length_b   6.28357800
_cell_length_c   7.13892400
_cell_angle_alpha   90.00000000
_cell_angle_beta   90.00000000
_cell_angle_gamma   90.00000000
_symmetry_Int_Tables_number   1
_chemical_formula_structural   Nb2Co2SiAs
_chemical_formula_sum   'Nb4 Co4 Si2 As2'
_cell_volume   166.01945027
_cell_formula_units_Z   2
loop_
 _symmetry_equiv_pos_site_id
 _symmetry_equiv_pos_as_xyz
  1  'x, y, z'
loop_
 _atom_site_type_symbol
 _atom_site_label
 _atom_site_symmetry_multiplicity
 _atom_site_fract_x
 _atom_site_fract_y
 _atom_site_fract_z
 _atom_site_occupancy
  Nb  Nb0  1  0.250000  0.021630  0.823010  1
  Nb  Nb1  1  0.250000  0.521630  0.676990  1
  Nb  Nb2  1  0.750000  0.973635  0.174175  1
  Nb  Nb3  1  0.750000  0.473635  0.325825  1
  Co  Co4  1  0.250000  0.145581  0.444443  1
  Co  Co5  1  0.250000  0.645581  0.055557  1
  Co  Co6  1  0.750000  0.858870  0.567667  1
  Co  Co7  1  0.750000  0.358870  0.932333  1
  Si  Si8  1  0.750000  0.224722  0.621315  1
  Si  Si9  1  0.750000  0.724722  0.878685  1
  As  As10  1  0.250000  0.775562  0.379938  1
  As  As11  1  0.250000  0.275562  0.120062  1
