# generated using pymatgen
data_Th4Al18(RuRh)3
_symmetry_space_group_name_H-M   'P 1'
_cell_length_a   7.64781904
_cell_length_b   7.64781813
_cell_length_c   9.57135404
_cell_angle_alpha   90.02720254
_cell_angle_beta   90.02719990
_cell_angle_gamma   118.83609965
_symmetry_Int_Tables_number   1
_chemical_formula_structural   Th4Al18(RuRh)3
_chemical_formula_sum   'Th4 Al18 Ru3 Rh3'
_cell_volume   490.40391297
_cell_formula_units_Z   1
loop_
 _symmetry_equiv_pos_site_id
 _symmetry_equiv_pos_as_xyz
  1  'x, y, z'
loop_
 _atom_site_type_symbol
 _atom_site_label
 _atom_site_symmetry_multiplicity
 _atom_site_fract_x
 _atom_site_fract_y
 _atom_site_fract_z
 _atom_site_occupancy
  Th  Th0  1  0.993895  0.675104  0.248976  1
  Th  Th1  1  0.004185  0.323927  0.750698  1
  Th  Th2  1  0.676073  0.995815  0.249302  1
  Th  Th3  1  0.324896  0.006105  0.751024  1
  Al  Al4  1  0.134909  0.135420  0.250123  1
  Al  Al5  1  0.864580  0.865091  0.749877  1
  Al  Al6  1  0.005359  0.337025  0.076170  1
  Al  Al7  1  0.992675  0.661073  0.923102  1
  Al  Al8  1  0.994682  0.663610  0.576867  1
  Al  Al9  1  0.336390  0.005318  0.423133  1
  Al  Al10  1  0.005569  0.337316  0.423674  1
  Al  Al11  1  0.662684  0.994431  0.576326  1
  Al  Al12  1  0.662975  0.994641  0.923830  1
  Al  Al13  1  0.338927  0.007325  0.076898  1
  Al  Al14  1  0.333380  0.333634  0.541572  1
  Al  Al15  1  0.666366  0.666620  0.458428  1
  Al  Al16  1  0.666376  0.663918  0.040712  1
  Al  Al17  1  0.336082  0.333624  0.959288  1
  Al  Al18  1  0.342507  0.549658  0.250398  1
  Al  Al19  1  0.657270  0.450495  0.750731  1
  Al  Al20  1  0.549505  0.342730  0.249269  1
  Al  Al21  1  0.450342  0.657493  0.749602  1
  Ru  Ru22  1  0.672827  0.327173  0.000000  1
  Ru  Ru23  1  0.000099  0.999901  0.000000  1
  Ru  Ru24  1  0.999912  0.000088  0.500000  1
  Rh  Rh25  1  0.327852  0.672148  0.000000  1
  Rh  Rh26  1  0.327608  0.672392  0.500000  1
  Rh  Rh27  1  0.672075  0.327925  0.500000  1
