# generated using pymatgen
data_LiTb6Mn2WC12
_symmetry_space_group_name_H-M   'P 1'
_cell_length_a   8.21956600
_cell_length_b   8.21956603
_cell_length_c   5.06123700
_cell_angle_alpha   90.00000000
_cell_angle_beta   90.00000000
_cell_angle_gamma   120.00000685
_symmetry_Int_Tables_number   1
_chemical_formula_structural   LiTb6Mn2WC12
_chemical_formula_sum   'Li1 Tb6 Mn2 W1 C12'
_cell_volume   296.13180360
_cell_formula_units_Z   1
loop_
 _symmetry_equiv_pos_site_id
 _symmetry_equiv_pos_as_xyz
  1  'x, y, z'
loop_
 _atom_site_type_symbol
 _atom_site_label
 _atom_site_symmetry_multiplicity
 _atom_site_fract_x
 _atom_site_fract_y
 _atom_site_fract_z
 _atom_site_occupancy
  Li  Li0  1  0.000000  0.000000  0.500000  1
  Tb  Tb1  1  0.620471  0.682613  0.744697  1
  Tb  Tb2  1  0.937858  0.620471  0.255303  1
  Tb  Tb3  1  0.682613  0.062142  0.255303  1
  Tb  Tb4  1  0.317387  0.937858  0.744697  1
  Tb  Tb5  1  0.062142  0.379529  0.744697  1
  Tb  Tb6  1  0.379529  0.317387  0.255303  1
  Mn  Mn7  1  0.666667  0.333333  0.745410  1
  Mn  Mn8  1  0.333333  0.666667  0.254590  1
  W  W9  1  0.000000  0.000000  0.000000  1
  C  C10  1  0.965111  0.761554  0.766738  1
  C  C11  1  0.203559  0.965111  0.233262  1
  C  C12  1  0.761554  0.796441  0.233262  1
  C  C13  1  0.238446  0.203559  0.766738  1
  C  C14  1  0.796441  0.034889  0.766738  1
  C  C15  1  0.034889  0.238446  0.233262  1
  C  C16  1  0.861782  0.571620  0.755507  1
  C  C17  1  0.290162  0.861782  0.244493  1
  C  C18  1  0.571620  0.709838  0.244493  1
  C  C19  1  0.428380  0.290162  0.755507  1
  C  C20  1  0.138218  0.428380  0.244493  1
  C  C21  1  0.709838  0.138218  0.755507  1
