# generated using pymatgen
data_Lu9ScPt18
_symmetry_space_group_name_H-M   'P 1'
_cell_length_a   9.61196678
_cell_length_b   9.61196678
_cell_length_c   5.70284800
_cell_angle_alpha   90.00000000
_cell_angle_beta   90.00000000
_cell_angle_gamma   90.19401481
_symmetry_Int_Tables_number   1
_chemical_formula_structural   Lu9ScPt18
_chemical_formula_sum   'Lu9 Sc1 Pt18'
_cell_volume   526.88256604
_cell_formula_units_Z   1
loop_
 _symmetry_equiv_pos_site_id
 _symmetry_equiv_pos_as_xyz
  1  'x, y, z'
loop_
 _atom_site_type_symbol
 _atom_site_label
 _atom_site_symmetry_multiplicity
 _atom_site_fract_x
 _atom_site_fract_y
 _atom_site_fract_z
 _atom_site_occupancy
  Lu  Lu0  1  0.452635  0.809025  0.000000  1
  Lu  Lu1  1  0.547365  0.190975  0.000000  1
  Lu  Lu2  1  0.190975  0.547365  0.000000  1
  Lu  Lu3  1  0.809025  0.452635  0.000000  1
  Lu  Lu4  1  0.309908  0.047400  0.500000  1
  Lu  Lu5  1  0.690092  0.952600  0.500000  1
  Lu  Lu6  1  0.952600  0.690092  0.500000  1
  Lu  Lu7  1  0.047400  0.309908  0.500000  1
  Lu  Lu8  1  0.000000  0.000000  0.000000  1
  Sc  Sc9  1  0.500000  0.500000  0.500000  1
  Pt  Pt10  1  0.192306  0.807694  0.251123  1
  Pt  Pt11  1  0.807694  0.192306  0.748877  1
  Pt  Pt12  1  0.807694  0.192306  0.251123  1
  Pt  Pt13  1  0.192306  0.807694  0.748877  1
  Pt  Pt14  1  0.442525  0.777222  0.500000  1
  Pt  Pt15  1  0.557475  0.222778  0.500000  1
  Pt  Pt16  1  0.222778  0.557475  0.500000  1
  Pt  Pt17  1  0.777222  0.442525  0.500000  1
  Pt  Pt18  1  0.309761  0.309761  0.249880  1
  Pt  Pt19  1  0.690239  0.690239  0.750120  1
  Pt  Pt20  1  0.690239  0.690239  0.249880  1
  Pt  Pt21  1  0.309761  0.309761  0.750120  1
  Pt  Pt22  1  0.282489  0.058094  0.000000  1
  Pt  Pt23  1  0.717511  0.941906  0.000000  1
  Pt  Pt24  1  0.941906  0.717511  0.000000  1
  Pt  Pt25  1  0.058094  0.282489  0.000000  1
  Pt  Pt26  1  0.000000  0.000000  0.500000  1
  Pt  Pt27  1  0.500000  0.500000  0.000000  1
