# generated using pymatgen
data_CaTbSn5Pd3
_symmetry_space_group_name_H-M   'P 1'
_cell_length_a   13.81928170
_cell_length_b   13.81928080
_cell_length_c   7.47196600
_cell_angle_alpha   90.00000000
_cell_angle_beta   90.00000000
_cell_angle_gamma   161.40458499
_symmetry_Int_Tables_number   1
_chemical_formula_structural   CaTbSn5Pd3
_chemical_formula_sum   'Ca2 Tb2 Sn10 Pd6'
_cell_volume   455.02766162
_cell_formula_units_Z   2
loop_
 _symmetry_equiv_pos_site_id
 _symmetry_equiv_pos_as_xyz
  1  'x, y, z'
loop_
 _atom_site_type_symbol
 _atom_site_label
 _atom_site_symmetry_multiplicity
 _atom_site_fract_x
 _atom_site_fract_y
 _atom_site_fract_z
 _atom_site_occupancy
  Ca  Ca0  1  0.173666  0.826334  0.755616  1
  Ca  Ca1  1  0.826334  0.173666  0.255616  1
  Tb  Tb2  1  0.477861  0.522139  0.735828  1
  Tb  Tb3  1  0.522139  0.477861  0.235828  1
  Sn  Sn4  1  0.881324  0.118676  0.732336  1
  Sn  Sn5  1  0.118676  0.881324  0.232336  1
  Sn  Sn6  1  0.702500  0.297500  0.052503  1
  Sn  Sn7  1  0.297500  0.702500  0.552503  1
  Sn  Sn8  1  0.597889  0.402111  0.609575  1
  Sn  Sn9  1  0.402111  0.597889  0.109575  1
  Sn  Sn10  1  0.953614  0.046386  0.398482  1
  Sn  Sn11  1  0.046386  0.953614  0.898482  1
  Sn  Sn12  1  0.289325  0.710675  0.977662  1
  Sn  Sn13  1  0.710675  0.289325  0.477662  1
  Pd  Pd14  1  0.049205  0.950795  0.515019  1
  Pd  Pd15  1  0.950795  0.049205  0.015019  1
  Pd  Pd16  1  0.777440  0.222560  0.770949  1
  Pd  Pd17  1  0.222560  0.777440  0.270949  1
  Pd  Pd18  1  0.396968  0.603032  0.480028  1
  Pd  Pd19  1  0.603032  0.396968  0.980028  1
