# generated using pymatgen
data_U2Co3P7Ir5Ru4
_symmetry_space_group_name_H-M   'P 1'
_cell_length_a   9.36558239
_cell_length_b   9.45391733
_cell_length_c   3.85874900
_cell_angle_alpha   90.00000000
_cell_angle_beta   90.00000000
_cell_angle_gamma   120.35520499
_symmetry_Int_Tables_number   1
_chemical_formula_structural   U2Co3P7Ir5Ru4
_chemical_formula_sum   'U2 Co3 P7 Ir5 Ru4'
_cell_volume   294.82080943
_cell_formula_units_Z   1
loop_
 _symmetry_equiv_pos_site_id
 _symmetry_equiv_pos_as_xyz
  1  'x, y, z'
loop_
 _atom_site_type_symbol
 _atom_site_label
 _atom_site_symmetry_multiplicity
 _atom_site_fract_x
 _atom_site_fract_y
 _atom_site_fract_z
 _atom_site_occupancy
  U  U0  1  0.998469  0.999829  0.000000  1
  U  U1  1  0.334024  0.665805  0.500000  1
  Co  Co2  1  0.826335  0.602174  0.000000  1
  Co  Co3  1  0.393810  0.221280  0.000000  1
  Co  Co4  1  0.781832  0.171621  0.000000  1
  P  P5  1  0.781918  0.732776  0.500000  1
  P  P6  1  0.273969  0.052373  0.500000  1
  P  P7  1  0.939286  0.214212  0.500000  1
  P  P8  1  0.667580  0.331005  0.000000  1
  P  P9  1  0.067901  0.625816  0.000000  1
  P  P10  1  0.381131  0.442767  0.000000  1
  P  P11  1  0.558903  0.928466  0.000000  1
  Ir  Ir12  1  0.112917  0.409115  0.000000  1
  Ir  Ir13  1  0.606570  0.703882  0.000000  1
  Ir  Ir14  1  0.299113  0.898896  0.000000  1
  Ir  Ir15  1  0.049777  0.774636  0.500000  1
  Ir  Ir16  1  0.213176  0.262572  0.500000  1
  Ru  Ru17  1  0.718119  0.949169  0.500000  1
  Ru  Ru18  1  0.878042  0.421883  0.500000  1
  Ru  Ru19  1  0.566244  0.461587  0.500000  1
  Ru  Ru20  1  0.550887  0.130130  0.500000  1
