# generated using pymatgen
data_Tb3ErCd2(Ni7B2)2
_symmetry_space_group_name_H-M   'P 1'
_cell_length_a   5.02958600
_cell_length_b   5.02958579
_cell_length_c   14.29258000
_cell_angle_alpha   90.00000000
_cell_angle_beta   90.00000000
_cell_angle_gamma   120.00000140
_symmetry_Int_Tables_number   1
_chemical_formula_structural   Tb3ErCd2(Ni7B2)2
_chemical_formula_sum   'Tb3 Er1 Cd2 Ni14 B4'
_cell_volume   313.11632842
_cell_formula_units_Z   1
loop_
 _symmetry_equiv_pos_site_id
 _symmetry_equiv_pos_as_xyz
  1  'x, y, z'
loop_
 _atom_site_type_symbol
 _atom_site_label
 _atom_site_symmetry_multiplicity
 _atom_site_fract_x
 _atom_site_fract_y
 _atom_site_fract_z
 _atom_site_occupancy
  Tb  Tb0  1  0.666667  0.333333  0.528695  1
  Tb  Tb1  1  0.333333  0.666667  0.030009  1
  Tb  Tb2  1  0.666667  0.333333  0.756745  1
  Er  Er3  1  0.333333  0.666667  0.256844  1
  Cd  Cd4  1  0.333333  0.666667  0.466411  1
  Cd  Cd5  1  0.666667  0.333333  0.968118  1
  Ni  Ni6  1  0.835019  0.164981  0.350691  1
  Ni  Ni7  1  0.835019  0.670038  0.350691  1
  Ni  Ni8  1  0.000000  0.000000  0.999256  1
  Ni  Ni9  1  0.000000  0.000000  0.499118  1
  Ni  Ni10  1  0.834337  0.668675  0.149519  1
  Ni  Ni11  1  0.165780  0.834220  0.648517  1
  Ni  Ni12  1  0.668441  0.834220  0.648517  1
  Ni  Ni13  1  0.331325  0.165663  0.149519  1
  Ni  Ni14  1  0.834337  0.165663  0.149519  1
  Ni  Ni15  1  0.164951  0.329903  0.851466  1
  Ni  Ni16  1  0.164951  0.835049  0.851466  1
  Ni  Ni17  1  0.165780  0.331559  0.648517  1
  Ni  Ni18  1  0.670097  0.835049  0.851466  1
  Ni  Ni19  1  0.329962  0.164981  0.350691  1
  B  B20  1  0.666667  0.333333  0.249938  1
  B  B21  1  0.333333  0.666667  0.749981  1
  B  B22  1  0.000000  0.000000  0.747060  1
  B  B23  1  0.000000  0.000000  0.247243  1
