# generated using pymatgen
data_Y16CdHg3PtRh3
_symmetry_space_group_name_H-M   'P 1'
_cell_length_a   9.67103302
_cell_length_b   9.64876287
_cell_length_c   9.64876300
_cell_angle_alpha   60.00000299
_cell_angle_beta   60.07614876
_cell_angle_gamma   60.07615210
_symmetry_Int_Tables_number   1
_chemical_formula_structural   Y16CdHg3PtRh3
_chemical_formula_sum   'Y16 Cd1 Hg3 Pt1 Rh3'
_cell_volume   637.38240649
_cell_formula_units_Z   1
loop_
 _symmetry_equiv_pos_site_id
 _symmetry_equiv_pos_as_xyz
  1  'x, y, z'
loop_
 _atom_site_type_symbol
 _atom_site_label
 _atom_site_symmetry_multiplicity
 _atom_site_fract_x
 _atom_site_fract_y
 _atom_site_fract_z
 _atom_site_occupancy
  Y  Y0  1  0.350049  0.352678  0.352678  1
  Y  Y1  1  0.350049  0.352678  0.944595  1
  Y  Y2  1  0.350049  0.944595  0.352678  1
  Y  Y3  1  0.943172  0.352276  0.352276  1
  Y  Y4  1  0.814469  0.189322  0.189322  1
  Y  Y5  1  0.187547  0.812436  0.812436  1
  Y  Y6  1  0.187547  0.812436  0.187582  1
  Y  Y7  1  0.814469  0.189322  0.806887  1
  Y  Y8  1  0.187547  0.187582  0.812436  1
  Y  Y9  1  0.814469  0.806887  0.189322  1
  Y  Y10  1  0.935247  0.564313  0.564313  1
  Y  Y11  1  0.561958  0.936106  0.936106  1
  Y  Y12  1  0.561958  0.936106  0.565830  1
  Y  Y13  1  0.935247  0.564313  0.936127  1
  Y  Y14  1  0.561958  0.565830  0.936106  1
  Y  Y15  1  0.935247  0.936127  0.564313  1
  Cd  Cd16  1  0.258045  0.580651  0.580651  1
  Hg  Hg17  1  0.583788  0.585563  0.585563  1
  Hg  Hg18  1  0.583788  0.585563  0.245085  1
  Hg  Hg19  1  0.583788  0.245085  0.585563  1
  Pt  Pt20  1  0.571032  0.142989  0.142989  1
  Rh  Rh21  1  0.142860  0.143578  0.143578  1
  Rh  Rh22  1  0.142860  0.143578  0.569984  1
  Rh  Rh23  1  0.142860  0.569984  0.143578  1
