# generated using pymatgen
data_Cs3K2AgSb2
_symmetry_space_group_name_H-M   'P 1'
_cell_length_a   10.34447347
_cell_length_b   10.34447313
_cell_length_c   10.34447200
_cell_angle_alpha   35.57657715
_cell_angle_beta   35.57657979
_cell_angle_gamma   35.57657659
_symmetry_Int_Tables_number   1
_chemical_formula_structural   Cs3K2AgSb2
_chemical_formula_sum   'Cs3 K2 Ag1 Sb2'
_cell_volume   334.87508194
_cell_formula_units_Z   1
loop_
 _symmetry_equiv_pos_site_id
 _symmetry_equiv_pos_as_xyz
  1  'x, y, z'
loop_
 _atom_site_type_symbol
 _atom_site_label
 _atom_site_symmetry_multiplicity
 _atom_site_fract_x
 _atom_site_fract_y
 _atom_site_fract_z
 _atom_site_occupancy
  Cs  Cs0  1  0.500000  0.500000  0.500000  1
  Cs  Cs1  1  0.362633  0.362633  0.362633  1
  Cs  Cs2  1  0.637367  0.637367  0.637367  1
  K  K3  1  0.215918  0.215918  0.215918  1
  K  K4  1  0.784082  0.784082  0.784082  1
  Ag  Ag5  1  0.000000  0.000000  0.000000  1
  Sb  Sb6  1  0.092856  0.092856  0.092856  1
  Sb  Sb7  1  0.907144  0.907144  0.907144  1
