# generated using pymatgen
data_Cs2KDySb2
_symmetry_space_group_name_H-M   'P 1'
_cell_length_a   10.44476003
_cell_length_b   10.44474887
_cell_length_c   10.44476064
_cell_angle_alpha   132.72569207
_cell_angle_beta   66.22231286
_cell_angle_gamma   136.44400789
_symmetry_Int_Tables_number   1
_chemical_formula_structural   Cs2KDySb2
_chemical_formula_sum   'Cs4 K2 Dy2 Sb4'
_cell_volume   567.89482485
_cell_formula_units_Z   2
loop_
 _symmetry_equiv_pos_site_id
 _symmetry_equiv_pos_as_xyz
  1  'x, y, z'
loop_
 _atom_site_type_symbol
 _atom_site_label
 _atom_site_symmetry_multiplicity
 _atom_site_fract_x
 _atom_site_fract_y
 _atom_site_fract_z
 _atom_site_occupancy
  Cs  Cs0  1  0.316981  0.758787  0.075772  1
  Cs  Cs1  1  0.183014  0.258786  0.441805  1
  Cs  Cs2  1  0.816986  0.741214  0.558194  1
  Cs  Cs3  1  0.683019  0.241214  0.924228  1
  K  K4  1  0.249998  0.250000  0.999998  1
  K  K5  1  0.750002  0.750000  0.000002  1
  Dy  Dy6  1  0.749997  0.250000  0.499998  1
  Dy  Dy7  1  0.250002  0.750000  0.500002  1
  Sb  Sb8  1  0.904397  0.299297  0.203688  1
  Sb  Sb9  1  0.595610  0.799297  0.394900  1
  Sb  Sb10  1  0.404391  0.200703  0.605101  1
  Sb  Sb11  1  0.095604  0.700703  0.796312  1
