# generated using pymatgen
data_SmRe2(SiMo)2
_symmetry_space_group_name_H-M   'P 1'
_cell_length_a   8.01025600
_cell_length_b   6.95830900
_cell_length_c   4.27260000
_cell_angle_alpha   90.00000000
_cell_angle_beta   90.00000000
_cell_angle_gamma   90.00000000
_symmetry_Int_Tables_number   1
_chemical_formula_structural   SmRe2(SiMo)2
_chemical_formula_sum   'Sm2 Re4 Si4 Mo4'
_cell_volume   238.14547988
_cell_formula_units_Z   2
loop_
 _symmetry_equiv_pos_site_id
 _symmetry_equiv_pos_as_xyz
  1  'x, y, z'
loop_
 _atom_site_type_symbol
 _atom_site_label
 _atom_site_symmetry_multiplicity
 _atom_site_fract_x
 _atom_site_fract_y
 _atom_site_fract_z
 _atom_site_occupancy
  Sm  Sm0  1  0.500000  0.500000  0.000000  1
  Sm  Sm1  1  0.000000  0.000000  0.500000  1
  Re  Re2  1  0.157376  0.573738  0.500000  1
  Re  Re3  1  0.842624  0.426262  0.500000  1
  Re  Re4  1  0.342624  0.073738  0.000000  1
  Re  Re5  1  0.657376  0.926262  0.000000  1
  Si  Si6  1  0.686182  0.737306  0.500000  1
  Si  Si7  1  0.313818  0.262694  0.500000  1
  Si  Si8  1  0.186182  0.762694  0.000000  1
  Si  Si9  1  0.813818  0.237306  0.000000  1
  Mo  Mo10  1  0.616126  0.151396  0.500000  1
  Mo  Mo11  1  0.383874  0.848604  0.500000  1
  Mo  Mo12  1  0.116126  0.348604  0.000000  1
  Mo  Mo13  1  0.883874  0.651396  0.000000  1
