# generated using pymatgen
data_Pr3NiI3
_symmetry_space_group_name_H-M   'P 1'
_cell_length_a   10.82049052
_cell_length_b   10.82049159
_cell_length_c   10.82049100
_cell_angle_alpha   109.47122327
_cell_angle_beta   109.47122528
_cell_angle_gamma   109.47121926
_symmetry_Int_Tables_number   1
_chemical_formula_structural   Pr3NiI3
_chemical_formula_sum   'Pr12 Ni4 I12'
_cell_volume   975.25679844
_cell_formula_units_Z   4
loop_
 _symmetry_equiv_pos_site_id
 _symmetry_equiv_pos_as_xyz
  1  'x, y, z'
loop_
 _atom_site_type_symbol
 _atom_site_label
 _atom_site_symmetry_multiplicity
 _atom_site_fract_x
 _atom_site_fract_y
 _atom_site_fract_z
 _atom_site_occupancy
  Pr  Pr0  1  0.456694  0.478348  0.228348  1
  Pr  Pr1  1  0.750000  0.228348  0.271652  1
  Pr  Pr2  1  0.750000  0.021652  0.478348  1
  Pr  Pr3  1  0.228348  0.456694  0.478348  1
  Pr  Pr4  1  0.271652  0.750000  0.228348  1
  Pr  Pr5  1  0.043306  0.271652  0.021652  1
  Pr  Pr6  1  0.021652  0.043306  0.271652  1
  Pr  Pr7  1  0.478348  0.750000  0.021652  1
  Pr  Pr8  1  0.478348  0.228348  0.456694  1
  Pr  Pr9  1  0.021652  0.478348  0.750000  1
  Pr  Pr10  1  0.271652  0.021652  0.043306  1
  Pr  Pr11  1  0.228348  0.271652  0.750000  1
  Ni  Ni12  1  0.250000  0.250000  0.250000  1
  Ni  Ni13  1  0.500000  0.000000  0.250000  1
  Ni  Ni14  1  0.000000  0.250000  0.500000  1
  Ni  Ni15  1  0.250000  0.500000  0.000000  1
  I  I16  1  0.250000  0.759729  0.740271  1
  I  I17  1  0.519457  0.509729  0.759729  1
  I  I18  1  0.980543  0.740271  0.990271  1
  I  I19  1  0.740271  0.250000  0.759729  1
  I  I20  1  0.990271  0.980543  0.740271  1
  I  I21  1  0.250000  0.990271  0.509729  1
  I  I22  1  0.759729  0.519457  0.509729  1
  I  I23  1  0.509729  0.250000  0.990271  1
  I  I24  1  0.759729  0.740271  0.250000  1
  I  I25  1  0.740271  0.990271  0.980543  1
  I  I26  1  0.990271  0.509729  0.250000  1
  I  I27  1  0.509729  0.759729  0.519457  1
