# generated using pymatgen
data_Y4Sc3AlPt4
_symmetry_space_group_name_H-M   'P 1'
_cell_length_a   4.52914000
_cell_length_b   7.06337166
_cell_length_c   8.28812343
_cell_angle_alpha   87.04597414
_cell_angle_beta   90.00000000
_cell_angle_gamma   90.00000000
_symmetry_Int_Tables_number   1
_chemical_formula_structural   Y4Sc3AlPt4
_chemical_formula_sum   'Y4 Sc3 Al1 Pt4'
_cell_volume   264.79302640
_cell_formula_units_Z   1
loop_
 _symmetry_equiv_pos_site_id
 _symmetry_equiv_pos_as_xyz
  1  'x, y, z'
loop_
 _atom_site_type_symbol
 _atom_site_label
 _atom_site_symmetry_multiplicity
 _atom_site_fract_x
 _atom_site_fract_y
 _atom_site_fract_z
 _atom_site_occupancy
  Y  Y0  1  0.250000  0.040315  0.671617  1
  Y  Y1  1  0.250000  0.520390  0.814302  1
  Y  Y2  1  0.750000  0.988730  0.339847  1
  Y  Y3  1  0.750000  0.468897  0.183772  1
  Sc  Sc4  1  0.250000  0.133189  0.070668  1
  Sc  Sc5  1  0.250000  0.639720  0.435852  1
  Sc  Sc6  1  0.750000  0.862355  0.928458  1
  Al  Al7  1  0.750000  0.360103  0.568244  1
  Pt  Pt8  1  0.250000  0.266584  0.383538  1
  Pt  Pt9  1  0.250000  0.749682  0.100869  1
  Pt  Pt10  1  0.750000  0.728629  0.614713  1
  Pt  Pt11  1  0.750000  0.241406  0.888122  1
