# generated using pymatgen
data_Sc6Zn23Hg
_symmetry_space_group_name_H-M   'P 1'
_cell_length_a   8.90137262
_cell_length_b   8.90137223
_cell_length_c   8.90137300
_cell_angle_alpha   60.00000085
_cell_angle_beta   60.00000232
_cell_angle_gamma   60.00000008
_symmetry_Int_Tables_number   1
_chemical_formula_structural   Sc6Zn23Hg
_chemical_formula_sum   'Sc6 Zn23 Hg1'
_cell_volume   498.71904888
_cell_formula_units_Z   1
loop_
 _symmetry_equiv_pos_site_id
 _symmetry_equiv_pos_as_xyz
  1  'x, y, z'
loop_
 _atom_site_type_symbol
 _atom_site_label
 _atom_site_symmetry_multiplicity
 _atom_site_fract_x
 _atom_site_fract_y
 _atom_site_fract_z
 _atom_site_occupancy
  Sc  Sc0  1  0.738453  0.261547  0.261547  1
  Sc  Sc1  1  0.738453  0.261547  0.738453  1
  Sc  Sc2  1  0.738453  0.738453  0.261547  1
  Sc  Sc3  1  0.261547  0.738453  0.738453  1
  Sc  Sc4  1  0.261547  0.738453  0.261547  1
  Sc  Sc5  1  0.261547  0.261547  0.738453  1
  Zn  Zn6  1  0.605150  0.131617  0.131617  1
  Zn  Zn7  1  0.131617  0.605150  0.131617  1
  Zn  Zn8  1  0.131617  0.131617  0.605150  1
  Zn  Zn9  1  0.131617  0.131617  0.131617  1
  Zn  Zn10  1  0.394850  0.868383  0.868383  1
  Zn  Zn11  1  0.868383  0.394850  0.868383  1
  Zn  Zn12  1  0.868383  0.868383  0.394850  1
  Zn  Zn13  1  0.868383  0.868383  0.868383  1
  Zn  Zn14  1  0.500000  0.000000  0.000000  1
  Zn  Zn15  1  0.500000  0.000000  0.500000  1
  Zn  Zn16  1  0.500000  0.500000  0.000000  1
  Zn  Zn17  1  0.000000  0.500000  0.500000  1
  Zn  Zn18  1  0.000000  0.500000  0.000000  1
  Zn  Zn19  1  0.000000  0.000000  0.500000  1
  Zn  Zn20  1  0.000000  0.000000  0.000000  1
  Zn  Zn21  1  0.944847  0.351717  0.351717  1
  Zn  Zn22  1  0.351717  0.944847  0.351717  1
  Zn  Zn23  1  0.351717  0.351717  0.944847  1
  Zn  Zn24  1  0.351717  0.351717  0.351717  1
  Zn  Zn25  1  0.055153  0.648283  0.648283  1
  Zn  Zn26  1  0.648283  0.055153  0.648283  1
  Zn  Zn27  1  0.648283  0.648283  0.055153  1
  Zn  Zn28  1  0.648283  0.648283  0.648283  1
  Hg  Hg29  1  0.500000  0.500000  0.500000  1
