# generated using pymatgen
data_Cs4La4Si3GeSe16
_symmetry_space_group_name_H-M   'P 1'
_cell_length_a   7.19603890
_cell_length_b   10.01529990
_cell_length_c   13.79222535
_cell_angle_alpha   71.39380577
_cell_angle_beta   89.82314837
_cell_angle_gamma   89.97149315
_symmetry_Int_Tables_number   1
_chemical_formula_structural   Cs4La4Si3GeSe16
_chemical_formula_sum   'Cs4 La4 Si3 Ge1 Se16'
_cell_volume   942.05466431
_cell_formula_units_Z   1
loop_
 _symmetry_equiv_pos_site_id
 _symmetry_equiv_pos_as_xyz
  1  'x, y, z'
loop_
 _atom_site_type_symbol
 _atom_site_label
 _atom_site_symmetry_multiplicity
 _atom_site_fract_x
 _atom_site_fract_y
 _atom_site_fract_z
 _atom_site_occupancy
  Cs  Cs0  1  0.255783  0.434331  0.387818  1
  Cs  Cs1  1  0.755348  0.567253  0.111423  1
  Cs  Cs2  1  0.745242  0.565475  0.615380  1
  Cs  Cs3  1  0.244553  0.433155  0.887448  1
  La  La4  1  0.196692  0.951766  0.366196  1
  La  La5  1  0.697724  0.046977  0.132855  1
  La  La6  1  0.802553  0.046399  0.634736  1
  La  La7  1  0.300881  0.952811  0.866250  1
  Si  Si8  1  0.244437  0.830180  0.146775  1
  Si  Si9  1  0.255188  0.830241  0.646788  1
  Si  Si10  1  0.754276  0.169549  0.852993  1
  Ge  Ge11  1  0.745308  0.172663  0.352921  1
  Se  Se12  1  0.024806  0.200660  0.759043  1
  Se  Se13  1  0.777431  0.931367  0.454031  1
  Se  Se14  1  0.523065  0.210399  0.732469  1
  Se  Se15  1  0.725694  0.937154  0.950266  1
  Se  Se16  1  0.762565  0.320290  0.455967  1
  Se  Se17  1  0.974164  0.798550  0.240902  1
  Se  Se18  1  0.260261  0.685225  0.049577  1
  Se  Se19  1  0.227591  0.062556  0.549069  1
  Se  Se20  1  0.738989  0.314887  0.949818  1
  Se  Se21  1  0.475781  0.789228  0.267501  1
  Se  Se22  1  0.023647  0.788882  0.768206  1
  Se  Se23  1  0.240659  0.684803  0.550002  1
  Se  Se24  1  0.466967  0.202579  0.254943  1
  Se  Se25  1  0.983469  0.211188  0.225956  1
  Se  Se26  1  0.524047  0.798912  0.741456  1
  Se  Se27  1  0.272879  0.062515  0.049211  1
