# generated using pymatgen
data_Nd3Sm(Tc2I)2
_symmetry_space_group_name_H-M   'P 1'
_cell_length_a   4.15989700
_cell_length_b   4.15989857
_cell_length_c   18.27407900
_cell_angle_alpha   90.00000000
_cell_angle_beta   90.00000000
_cell_angle_gamma   119.99999549
_symmetry_Int_Tables_number   1
_chemical_formula_structural   Nd3Sm(Tc2I)2
_chemical_formula_sum   'Nd3 Sm1 Tc4 I2'
_cell_volume   273.86180622
_cell_formula_units_Z   1
loop_
 _symmetry_equiv_pos_site_id
 _symmetry_equiv_pos_as_xyz
  1  'x, y, z'
loop_
 _atom_site_type_symbol
 _atom_site_label
 _atom_site_symmetry_multiplicity
 _atom_site_fract_x
 _atom_site_fract_y
 _atom_site_fract_z
 _atom_site_occupancy
  Nd  Nd0  1  0.000000  0.000000  0.886610  1
  Nd  Nd1  1  0.000000  0.000000  0.613881  1
  Nd  Nd2  1  0.000000  0.000000  0.385875  1
  Sm  Sm3  1  0.000000  0.000000  0.112713  1
  Tc  Tc4  1  0.333333  0.666667  0.515336  1
  Tc  Tc5  1  0.666667  0.333333  0.484681  1
  Tc  Tc6  1  0.666667  0.333333  0.016140  1
  Tc  Tc7  1  0.333333  0.666667  0.985800  1
  I  I8  1  0.333333  0.666667  0.248866  1
  I  I9  1  0.666667  0.333333  0.750098  1
