# generated using pymatgen
data_AgBi2Ru4PbO14
_symmetry_space_group_name_H-M   'P 1'
_cell_length_a   7.37916710
_cell_length_b   7.36047429
_cell_length_c   7.27194303
_cell_angle_alpha   59.42877213
_cell_angle_beta   59.51103433
_cell_angle_gamma   59.91595427
_symmetry_Int_Tables_number   1
_chemical_formula_structural   AgBi2Ru4PbO14
_chemical_formula_sum   'Ag1 Bi2 Ru4 Pb1 O14'
_cell_volume   276.85313508
_cell_formula_units_Z   1
loop_
 _symmetry_equiv_pos_site_id
 _symmetry_equiv_pos_as_xyz
  1  'x, y, z'
loop_
 _atom_site_type_symbol
 _atom_site_label
 _atom_site_symmetry_multiplicity
 _atom_site_fract_x
 _atom_site_fract_y
 _atom_site_fract_z
 _atom_site_occupancy
  Ag  Ag0  1  0.125000  0.125000  0.625000  1
  Bi  Bi1  1  0.625000  0.125000  0.125000  1
  Bi  Bi2  1  0.125000  0.125000  0.125000  1
  Ru  Ru3  1  0.625000  0.625000  0.125000  1
  Ru  Ru4  1  0.625000  0.125000  0.625000  1
  Ru  Ru5  1  0.125000  0.625000  0.625000  1
  Ru  Ru6  1  0.625000  0.625000  0.625000  1
  Pb  Pb7  1  0.125000  0.625000  0.125000  1
  O  O8  1  0.247979  0.233990  0.270052  1
  O  O9  1  0.002021  0.016010  0.979948  1
  O  O10  1  0.565645  0.946521  0.543469  1
  O  O11  1  0.299582  0.708137  0.294662  1
  O  O12  1  0.552381  0.541863  0.955338  1
  O  O13  1  0.942158  0.563738  0.551946  1
  O  O14  1  0.544902  0.953774  0.956422  1
  O  O15  1  0.944365  0.946521  0.543469  1
  O  O16  1  0.950418  0.541863  0.955338  1
  O  O17  1  0.705098  0.296226  0.293578  1
  O  O18  1  0.307842  0.686262  0.698054  1
  O  O19  1  0.684355  0.303479  0.706531  1
  O  O20  1  0.305635  0.303479  0.706531  1
  O  O21  1  0.697619  0.708137  0.294662  1
