# generated using pymatgen
data_Ho16Hg4Ir3Pt
_symmetry_space_group_name_H-M   'P 1'
_cell_length_a   9.55929527
_cell_length_b   9.55929508
_cell_length_c   9.55929511
_cell_angle_alpha   60.18237919
_cell_angle_beta   60.18237905
_cell_angle_gamma   60.18237891
_symmetry_Int_Tables_number   1
_chemical_formula_structural   Ho16Hg4Ir3Pt
_chemical_formula_sum   'Ho16 Hg4 Ir3 Pt1'
_cell_volume   620.22982804
_cell_formula_units_Z   1
loop_
 _symmetry_equiv_pos_site_id
 _symmetry_equiv_pos_as_xyz
  1  'x, y, z'
loop_
 _atom_site_type_symbol
 _atom_site_label
 _atom_site_symmetry_multiplicity
 _atom_site_fract_x
 _atom_site_fract_y
 _atom_site_fract_z
 _atom_site_occupancy
  Ho  Ho0  1  0.599204  0.599204  0.599204  1
  Ho  Ho1  1  0.604274  0.604274  0.193622  1
  Ho  Ho2  1  0.604274  0.193622  0.604274  1
  Ho  Ho3  1  0.193622  0.604274  0.604274  1
  Ho  Ho4  1  0.055557  0.441103  0.441103  1
  Ho  Ho5  1  0.438366  0.059984  0.059984  1
  Ho  Ho6  1  0.441103  0.055557  0.441103  1
  Ho  Ho7  1  0.059984  0.438366  0.059984  1
  Ho  Ho8  1  0.441103  0.441103  0.055557  1
  Ho  Ho9  1  0.059984  0.059984  0.438366  1
  Ho  Ho10  1  0.188827  0.812535  0.812535  1
  Ho  Ho11  1  0.813452  0.187747  0.187747  1
  Ho  Ho12  1  0.812535  0.188827  0.812535  1
  Ho  Ho13  1  0.187747  0.813452  0.187747  1
  Ho  Ho14  1  0.812535  0.812535  0.188827  1
  Ho  Ho15  1  0.187747  0.187747  0.813452  1
  Hg  Hg16  1  0.834537  0.834537  0.834537  1
  Hg  Hg17  1  0.834679  0.834679  0.494691  1
  Hg  Hg18  1  0.834679  0.494691  0.834679  1
  Hg  Hg19  1  0.494691  0.834679  0.834679  1
  Ir  Ir20  1  0.392141  0.392141  0.823611  1
  Ir  Ir21  1  0.392141  0.823611  0.392141  1
  Ir  Ir22  1  0.823611  0.392141  0.392141  1
  Pt  Pt23  1  0.393208  0.393208  0.393208  1
