# generated using pymatgen
data_KSc3Te5
_symmetry_space_group_name_H-M   'P 1'
_cell_length_a   4.18978100
_cell_length_b   12.74002000
_cell_length_c   22.47830500
_cell_angle_alpha   90.00000000
_cell_angle_beta   90.00000000
_cell_angle_gamma   90.00000000
_symmetry_Int_Tables_number   1
_chemical_formula_structural   KSc3Te5
_chemical_formula_sum   'K4 Sc12 Te20'
_cell_volume   1199.84457565
_cell_formula_units_Z   4
loop_
 _symmetry_equiv_pos_site_id
 _symmetry_equiv_pos_as_xyz
  1  'x, y, z'
loop_
 _atom_site_type_symbol
 _atom_site_label
 _atom_site_symmetry_multiplicity
 _atom_site_fract_x
 _atom_site_fract_y
 _atom_site_fract_z
 _atom_site_occupancy
  K  K0  1  0.250000  0.850368  0.092833  1
  K  K1  1  0.750000  0.149632  0.907167  1
  K  K2  1  0.750000  0.350368  0.407167  1
  K  K3  1  0.250000  0.649632  0.592833  1
  Sc  Sc4  1  0.750000  0.798048  0.826422  1
  Sc  Sc5  1  0.250000  0.201952  0.173578  1
  Sc  Sc6  1  0.250000  0.298048  0.673578  1
  Sc  Sc7  1  0.750000  0.701952  0.326422  1
  Sc  Sc8  1  0.250000  0.956529  0.698438  1
  Sc  Sc9  1  0.750000  0.043471  0.301562  1
  Sc  Sc10  1  0.750000  0.456529  0.801562  1
  Sc  Sc11  1  0.250000  0.543471  0.198438  1
  Sc  Sc12  1  0.750000  0.391168  0.055463  1
  Sc  Sc13  1  0.250000  0.608832  0.944537  1
  Sc  Sc14  1  0.250000  0.891168  0.444537  1
  Sc  Sc15  1  0.750000  0.108832  0.555463  1
  Te  Te16  1  0.250000  0.945797  0.569288  1
  Te  Te17  1  0.750000  0.054203  0.430712  1
  Te  Te18  1  0.750000  0.445797  0.930712  1
  Te  Te19  1  0.250000  0.554203  0.069288  1
  Te  Te20  1  0.750000  0.769533  0.955655  1
  Te  Te21  1  0.250000  0.230467  0.044345  1
  Te  Te22  1  0.250000  0.269533  0.544345  1
  Te  Te23  1  0.750000  0.730467  0.455655  1
  Te  Te24  1  0.250000  0.956020  0.828411  1
  Te  Te25  1  0.750000  0.043980  0.171589  1
  Te  Te26  1  0.750000  0.456020  0.671589  1
  Te  Te27  1  0.250000  0.543980  0.328411  1
  Te  Te28  1  0.750000  0.127160  0.686871  1
  Te  Te29  1  0.250000  0.872840  0.313129  1
  Te  Te30  1  0.250000  0.627160  0.813129  1
  Te  Te31  1  0.750000  0.372840  0.186871  1
  Te  Te32  1  0.750000  0.698927  0.196900  1
  Te  Te33  1  0.250000  0.301073  0.803100  1
  Te  Te34  1  0.250000  0.198927  0.303100  1
  Te  Te35  1  0.750000  0.801073  0.696900  1
