# generated using pymatgen
data_Rb4LaNpI10
_symmetry_space_group_name_H-M   'P 1'
_cell_length_a   9.52168358
_cell_length_b   10.10096600
_cell_length_c   15.19380193
_cell_angle_alpha   90.00000000
_cell_angle_beta   90.09585769
_cell_angle_gamma   90.00000000
_symmetry_Int_Tables_number   1
_chemical_formula_structural   Rb4LaNpI10
_chemical_formula_sum   'Rb8 La2 Np2 I20'
_cell_volume   1461.31050802
_cell_formula_units_Z   2
loop_
 _symmetry_equiv_pos_site_id
 _symmetry_equiv_pos_as_xyz
  1  'x, y, z'
loop_
 _atom_site_type_symbol
 _atom_site_label
 _atom_site_symmetry_multiplicity
 _atom_site_fract_x
 _atom_site_fract_y
 _atom_site_fract_z
 _atom_site_occupancy
  Rb  Rb0  1  0.940818  0.003283  0.826921  1
  Rb  Rb1  1  0.059182  0.996717  0.173079  1
  Rb  Rb2  1  0.441231  0.996683  0.671660  1
  Rb  Rb3  1  0.059182  0.503283  0.173079  1
  Rb  Rb4  1  0.558769  0.003317  0.328340  1
  Rb  Rb5  1  0.940818  0.496717  0.826921  1
  Rb  Rb6  1  0.558769  0.496683  0.328340  1
  Rb  Rb7  1  0.441231  0.503317  0.671660  1
  La  La8  1  0.424010  0.250000  0.994984  1
  La  La9  1  0.575990  0.750000  0.005016  1
  Np  Np10  1  0.929836  0.750000  0.503496  1
  Np  Np11  1  0.070164  0.250000  0.496504  1
  I  I12  1  0.118978  0.750000  0.675370  1
  I  I13  1  0.881022  0.250000  0.324630  1
  I  I14  1  0.622696  0.250000  0.821439  1
  I  I15  1  0.377304  0.750000  0.178561  1
  I  I16  1  0.837584  0.042808  0.572037  1
  I  I17  1  0.162416  0.957192  0.427963  1
  I  I18  1  0.334553  0.955013  0.925617  1
  I  I19  1  0.162416  0.542808  0.427963  1
  I  I20  1  0.665447  0.044987  0.074383  1
  I  I21  1  0.837584  0.457192  0.572037  1
  I  I22  1  0.665447  0.455013  0.074383  1
  I  I23  1  0.334553  0.544987  0.925617  1
  I  I24  1  0.588224  0.750000  0.510507  1
  I  I25  1  0.411776  0.250000  0.489493  1
  I  I26  1  0.079088  0.250000  0.990063  1
  I  I27  1  0.920912  0.750000  0.009937  1
  I  I28  1  0.657202  0.750000  0.798805  1
  I  I29  1  0.342798  0.250000  0.201195  1
  I  I30  1  0.154507  0.250000  0.698532  1
  I  I31  1  0.845493  0.750000  0.301468  1
