# generated using pymatgen
data_La5(PuS4)3
_symmetry_space_group_name_H-M   'P 1'
_cell_length_a   4.07112300
_cell_length_b   7.53305930
_cell_length_c   15.62747552
_cell_angle_alpha   89.91673018
_cell_angle_beta   90.00000000
_cell_angle_gamma   90.00000000
_symmetry_Int_Tables_number   1
_chemical_formula_structural   La5(PuS4)3
_chemical_formula_sum   'La5 Pu3 S12'
_cell_volume   479.26308489
_cell_formula_units_Z   1
loop_
 _symmetry_equiv_pos_site_id
 _symmetry_equiv_pos_as_xyz
  1  'x, y, z'
loop_
 _atom_site_type_symbol
 _atom_site_label
 _atom_site_symmetry_multiplicity
 _atom_site_fract_x
 _atom_site_fract_y
 _atom_site_fract_z
 _atom_site_occupancy
  La  La0  1  0.750000  0.356214  0.291505  1
  La  La1  1  0.250000  0.761869  0.459149  1
  La  La2  1  0.750000  0.240389  0.546297  1
  La  La3  1  0.250000  0.259710  0.040461  1
  La  La4  1  0.750000  0.739722  0.956560  1
  Pu  Pu5  1  0.250000  0.142447  0.788595  1
  Pu  Pu6  1  0.750000  0.857931  0.208938  1
  Pu  Pu7  1  0.250000  0.642828  0.712820  1
  S  S8  1  0.250000  0.372839  0.431772  1
  S  S9  1  0.750000  0.629497  0.575054  1
  S  S10  1  0.250000  0.869147  0.070620  1
  S  S11  1  0.750000  0.128715  0.925081  1
  S  S12  1  0.250000  0.136078  0.218312  1
  S  S13  1  0.750000  0.857441  0.776695  1
  S  S14  1  0.250000  0.650074  0.276827  1
  S  S15  1  0.750000  0.357548  0.724030  1
  S  S16  1  0.750000  0.490546  0.108563  1
  S  S17  1  0.250000  0.509081  0.885702  1
  S  S18  1  0.750000  0.988549  0.389293  1
  S  S19  1  0.250000  0.009375  0.613725  1
