# generated using pymatgen
data_Zr4Tl2GeSe10
_symmetry_space_group_name_H-M   'P 1'
_cell_length_a   6.71748007
_cell_length_b   11.36691964
_cell_length_c   9.11267400
_cell_angle_alpha   59.31224711
_cell_angle_beta   68.44891748
_cell_angle_gamma   90.07918570
_symmetry_Int_Tables_number   1
_chemical_formula_structural   Zr4Tl2GeSe10
_chemical_formula_sum   'Zr4 Tl2 Ge1 Se10'
_cell_volume   540.80768337
_cell_formula_units_Z   1
loop_
 _symmetry_equiv_pos_site_id
 _symmetry_equiv_pos_as_xyz
  1  'x, y, z'
loop_
 _atom_site_type_symbol
 _atom_site_label
 _atom_site_symmetry_multiplicity
 _atom_site_fract_x
 _atom_site_fract_y
 _atom_site_fract_z
 _atom_site_occupancy
  Zr  Zr0  1  0.398994  0.797779  0.201613  1
  Zr  Zr1  1  0.201090  0.401758  0.593992  1
  Zr  Zr2  1  0.602982  0.205832  0.797727  1
  Zr  Zr3  1  0.995953  0.995230  0.003983  1
  Tl  Tl4  1  0.787368  0.075657  0.425046  1
  Tl  Tl5  1  0.010412  0.525463  0.978072  1
  Ge  Ge6  1  0.802597  0.600525  0.401280  1
  Se  Se7  1  0.996741  0.842224  0.344926  1
  Se  Se8  1  0.592024  0.037395  0.153061  1
  Se  Se9  1  0.191656  0.239314  0.951280  1
  Se  Se10  1  0.792153  0.431732  0.757207  1
  Se  Se11  1  0.382100  0.636546  0.549190  1
  Se  Se12  1  0.405041  0.962480  0.850651  1
  Se  Se13  1  0.006211  0.161830  0.648362  1
  Se  Se14  1  0.603433  0.352543  0.456888  1
  Se  Se15  1  0.222304  0.562828  0.246518  1
  Se  Se16  1  0.808941  0.770868  0.040203  1
