# generated using pymatgen
data_Er3Lu(Ga3Rh)6
_symmetry_space_group_name_H-M   'P 1'
_cell_length_a   7.55847301
_cell_length_b   7.55957760
_cell_length_c   9.50199600
_cell_angle_alpha   90.00000000
_cell_angle_beta   90.00000000
_cell_angle_gamma   119.80414732
_symmetry_Int_Tables_number   1
_chemical_formula_structural   Er3Lu(Ga3Rh)6
_chemical_formula_sum   'Er3 Lu1 Ga18 Rh6'
_cell_volume   471.11918596
_cell_formula_units_Z   1
loop_
 _symmetry_equiv_pos_site_id
 _symmetry_equiv_pos_as_xyz
  1  'x, y, z'
loop_
 _atom_site_type_symbol
 _atom_site_label
 _atom_site_symmetry_multiplicity
 _atom_site_fract_x
 _atom_site_fract_y
 _atom_site_fract_z
 _atom_site_occupancy
  Er  Er0  1  0.997835  0.669548  0.250000  1
  Er  Er1  1  0.002212  0.330455  0.750000  1
  Er  Er2  1  0.669522  0.997838  0.250000  1
  Lu  Lu3  1  0.330426  0.002159  0.750000  1
  Ga  Ga4  1  0.338926  0.549401  0.250000  1
  Ga  Ga5  1  0.660931  0.450467  0.750000  1
  Ga  Ga6  1  0.549358  0.338896  0.250000  1
  Ga  Ga7  1  0.450595  0.661178  0.750000  1
  Ga  Ga8  1  0.000198  0.335034  0.080851  1
  Ga  Ga9  1  0.000037  0.665200  0.919037  1
  Ga  Ga10  1  0.000037  0.665200  0.580963  1
  Ga  Ga11  1  0.335041  0.000185  0.419278  1
  Ga  Ga12  1  0.000198  0.335034  0.419149  1
  Ga  Ga13  1  0.664675  0.999807  0.580965  1
  Ga  Ga14  1  0.664675  0.999807  0.919035  1
  Ga  Ga15  1  0.335041  0.000185  0.080722  1
  Ga  Ga16  1  0.332311  0.332087  0.566533  1
  Ga  Ga17  1  0.667705  0.667711  0.433648  1
  Ga  Ga18  1  0.667705  0.667711  0.066352  1
  Ga  Ga19  1  0.332311  0.332087  0.933467  1
  Ga  Ga20  1  0.125960  0.125962  0.250000  1
  Ga  Ga21  1  0.874224  0.874079  0.750000  1
  Rh  Rh22  1  0.671748  0.328109  0.999969  1
  Rh  Rh23  1  0.328159  0.671858  0.999954  1
  Rh  Rh24  1  0.328159  0.671858  0.500046  1
  Rh  Rh25  1  0.671748  0.328109  0.500031  1
  Rh  Rh26  1  0.000130  0.000017  0.999931  1
  Rh  Rh27  1  0.000130  0.000017  0.500069  1
