# generated using pymatgen
data_Dy4LuPPb3
_symmetry_space_group_name_H-M   'P 1'
_cell_length_a   9.12911000
_cell_length_b   9.12910948
_cell_length_c   6.76540600
_cell_angle_alpha   90.00000000
_cell_angle_beta   90.00000000
_cell_angle_gamma   120.00000912
_symmetry_Int_Tables_number   1
_chemical_formula_structural   Dy4LuPPb3
_chemical_formula_sum   'Dy8 Lu2 P2 Pb6'
_cell_volume   488.29391429
_cell_formula_units_Z   2
loop_
 _symmetry_equiv_pos_site_id
 _symmetry_equiv_pos_as_xyz
  1  'x, y, z'
loop_
 _atom_site_type_symbol
 _atom_site_label
 _atom_site_symmetry_multiplicity
 _atom_site_fract_x
 _atom_site_fract_y
 _atom_site_fract_z
 _atom_site_occupancy
  Dy  Dy0  1  0.761569  0.761569  0.750491  1
  Dy  Dy1  1  0.238431  0.000000  0.750491  1
  Dy  Dy2  1  0.000000  0.238431  0.750491  1
  Dy  Dy3  1  0.238431  0.238431  0.249509  1
  Dy  Dy4  1  0.761569  0.000000  0.249509  1
  Dy  Dy5  1  0.000000  0.761569  0.249509  1
  Dy  Dy6  1  0.333333  0.666667  0.500000  1
  Dy  Dy7  1  0.666667  0.333333  0.500000  1
  Lu  Lu8  1  0.666667  0.333333  0.000000  1
  Lu  Lu9  1  0.333333  0.666667  0.000000  1
  P  P10  1  0.000000  0.000000  0.000000  1
  P  P11  1  0.000000  0.000000  0.500000  1
  Pb  Pb12  1  0.400204  0.400204  0.751489  1
  Pb  Pb13  1  0.599796  0.000000  0.751489  1
  Pb  Pb14  1  0.000000  0.599796  0.751489  1
  Pb  Pb15  1  0.599796  0.599796  0.248511  1
  Pb  Pb16  1  0.400204  0.000000  0.248511  1
  Pb  Pb17  1  0.000000  0.400204  0.248511  1
