# generated using pymatgen
data_TmPa3Co2(NiSn)2
_symmetry_space_group_name_H-M   'P 1'
_cell_length_a   7.36803934
_cell_length_b   7.41452596
_cell_length_c   3.52936100
_cell_angle_alpha   90.00000000
_cell_angle_beta   90.00000000
_cell_angle_gamma   91.60314871
_symmetry_Int_Tables_number   1
_chemical_formula_structural   TmPa3Co2(NiSn)2
_chemical_formula_sum   'Tm1 Pa3 Co2 Ni2 Sn2'
_cell_volume   192.73535283
_cell_formula_units_Z   1
loop_
 _symmetry_equiv_pos_site_id
 _symmetry_equiv_pos_as_xyz
  1  'x, y, z'
loop_
 _atom_site_type_symbol
 _atom_site_label
 _atom_site_symmetry_multiplicity
 _atom_site_fract_x
 _atom_site_fract_y
 _atom_site_fract_z
 _atom_site_occupancy
  Tm  Tm0  1  0.828659  0.670011  0.500000  1
  Pa  Pa1  1  0.674696  0.182696  0.500000  1
  Pa  Pa2  1  0.326646  0.834721  0.500000  1
  Pa  Pa3  1  0.169691  0.322824  0.500000  1
  Co  Co4  1  0.881320  0.350211  0.000000  1
  Co  Co5  1  0.367833  0.133125  0.000000  1
  Ni  Ni6  1  0.137245  0.621350  0.000000  1
  Ni  Ni7  1  0.615078  0.885352  0.000000  1
  Sn  Sn8  1  0.505799  0.507438  0.000000  1
  Sn  Sn9  1  0.993034  0.992270  0.000000  1
