# generated using pymatgen
data_Pa3Sb4OsPt2
_symmetry_space_group_name_H-M   'P 1'
_cell_length_a   8.43859248
_cell_length_b   8.43859249
_cell_length_c   8.43859277
_cell_angle_alpha   109.64742541
_cell_angle_beta   109.11939220
_cell_angle_gamma   109.64741580
_symmetry_Int_Tables_number   1
_chemical_formula_structural   Pa3Sb4OsPt2
_chemical_formula_sum   'Pa6 Sb8 Os2 Pt4'
_cell_volume   462.56833079
_cell_formula_units_Z   2
loop_
 _symmetry_equiv_pos_site_id
 _symmetry_equiv_pos_as_xyz
  1  'x, y, z'
loop_
 _atom_site_type_symbol
 _atom_site_label
 _atom_site_symmetry_multiplicity
 _atom_site_fract_x
 _atom_site_fract_y
 _atom_site_fract_z
 _atom_site_occupancy
  Pa  Pa0  1  0.875000  0.250000  0.125000  1
  Pa  Pa1  1  0.625000  0.750000  0.375000  1
  Pa  Pa2  1  0.250000  0.122093  0.872093  1
  Pa  Pa3  1  0.750000  0.377907  0.627907  1
  Pa  Pa4  1  0.127907  0.877907  0.250000  1
  Pa  Pa5  1  0.372093  0.622093  0.750000  1
  Sb  Sb6  1  0.674412  0.496327  0.995474  1
  Sb  Sb7  1  0.499147  0.003673  0.678086  1
  Sb  Sb8  1  0.000853  0.678939  0.504526  1
  Sb  Sb9  1  0.825588  0.821061  0.821914  1
  Sb  Sb10  1  0.495474  0.996327  0.174412  1
  Sb  Sb11  1  0.178086  0.503673  0.999147  1
  Sb  Sb12  1  0.004526  0.178939  0.500853  1
  Sb  Sb13  1  0.321914  0.321061  0.325588  1
  Os  Os14  1  0.375000  0.250000  0.625000  1
  Os  Os15  1  0.125000  0.750000  0.875000  1
  Pt  Pt16  1  0.250000  0.624796  0.374796  1
  Pt  Pt17  1  0.750000  0.875204  0.125204  1
  Pt  Pt18  1  0.625204  0.375204  0.250000  1
  Pt  Pt19  1  0.874796  0.124796  0.750000  1
