# generated using pymatgen
data_Ta6MnB4Os9
_symmetry_space_group_name_H-M   'P 1'
_cell_length_a   9.45989565
_cell_length_b   9.45989534
_cell_length_c   3.03134200
_cell_angle_alpha   90.00000000
_cell_angle_beta   90.00000000
_cell_angle_gamma   90.23602454
_symmetry_Int_Tables_number   1
_chemical_formula_structural   Ta6MnB4Os9
_chemical_formula_sum   'Ta6 Mn1 B4 Os9'
_cell_volume   271.27135032
_cell_formula_units_Z   1
loop_
 _symmetry_equiv_pos_site_id
 _symmetry_equiv_pos_as_xyz
  1  'x, y, z'
loop_
 _atom_site_type_symbol
 _atom_site_label
 _atom_site_symmetry_multiplicity
 _atom_site_fract_x
 _atom_site_fract_y
 _atom_site_fract_z
 _atom_site_occupancy
  Ta  Ta0  1  0.820973  0.679027  0.000000  1
  Ta  Ta1  1  0.179027  0.320973  0.000000  1
  Ta  Ta2  1  0.331159  0.831159  0.000000  1
  Ta  Ta3  1  0.668841  0.168841  0.000000  1
  Ta  Ta4  1  0.500000  0.500000  0.000000  1
  Ta  Ta5  1  0.000000  0.000000  0.000000  1
  Mn  Mn6  1  0.500000  0.000000  0.500000  1
  B  B7  1  0.610943  0.889057  0.000000  1
  B  B8  1  0.389057  0.110943  0.000000  1
  B  B9  1  0.121856  0.621856  0.000000  1
  B  B10  1  0.878144  0.378144  0.000000  1
  Os  Os11  1  0.568830  0.722754  0.500000  1
  Os  Os12  1  0.431170  0.277246  0.500000  1
  Os  Os13  1  0.072398  0.782207  0.500000  1
  Os  Os14  1  0.927602  0.217793  0.500000  1
  Os  Os15  1  0.282207  0.572398  0.500000  1
  Os  Os16  1  0.717793  0.427602  0.500000  1
  Os  Os17  1  0.222754  0.068830  0.500000  1
  Os  Os18  1  0.777246  0.931170  0.500000  1
  Os  Os19  1  0.000000  0.500000  0.500000  1
