# generated using pymatgen
data_Ca5Si11GeIr19
_symmetry_space_group_name_H-M   'P 1'
_cell_length_a   12.86971200
_cell_length_b   12.85235264
_cell_length_c   4.01966400
_cell_angle_alpha   90.00000000
_cell_angle_beta   90.00000000
_cell_angle_gamma   120.04470035
_symmetry_Int_Tables_number   1
_chemical_formula_structural   Ca5Si11GeIr19
_chemical_formula_sum   'Ca5 Si11 Ge1 Ir19'
_cell_volume   575.54071210
_cell_formula_units_Z   1
loop_
 _symmetry_equiv_pos_site_id
 _symmetry_equiv_pos_as_xyz
  1  'x, y, z'
loop_
 _atom_site_type_symbol
 _atom_site_label
 _atom_site_symmetry_multiplicity
 _atom_site_fract_x
 _atom_site_fract_y
 _atom_site_fract_z
 _atom_site_occupancy
  Ca  Ca0  1  0.001063  0.182527  0.500000  1
  Ca  Ca1  1  0.818535  0.817473  0.500000  1
  Ca  Ca2  1  0.182156  0.000000  0.500000  1
  Ca  Ca3  1  0.666347  0.333812  0.000000  1
  Ca  Ca4  1  0.332534  0.666188  0.000000  1
  Si  Si5  1  0.479567  0.312598  0.500000  1
  Si  Si6  1  0.185102  0.184187  0.000000  1
  Si  Si7  1  0.000915  0.815813  0.000000  1
  Si  Si8  1  0.369248  0.000000  0.000000  1
  Si  Si9  1  0.687267  0.168662  0.500000  1
  Si  Si10  1  0.832484  0.520665  0.500000  1
  Si  Si11  1  0.518606  0.831338  0.500000  1
  Si  Si12  1  0.166970  0.687402  0.500000  1
  Si  Si13  1  0.311820  0.479335  0.500000  1
  Si  Si14  1  0.000109  0.369654  0.000000  1
  Si  Si15  1  0.630455  0.630346  0.000000  1
  Ge  Ge16  1  0.820428  0.000000  0.000000  1
  Ir  Ir17  1  0.804080  0.186659  0.000000  1
  Ir  Ir18  1  0.379379  0.194892  0.000000  1
  Ir  Ir19  1  0.638951  0.513039  0.500000  1
  Ir  Ir20  1  0.874187  0.362240  0.500000  1
  Ir  Ir21  1  0.360613  0.873991  0.500000  1
  Ir  Ir22  1  0.511947  0.637760  0.500000  1
  Ir  Ir23  1  0.125913  0.486961  0.500000  1
  Ir  Ir24  1  0.815864  0.621449  0.000000  1
  Ir  Ir25  1  0.617422  0.813341  0.000000  1
  Ir  Ir26  1  0.184489  0.805108  0.000000  1
  Ir  Ir27  1  0.194416  0.378551  0.000000  1
  Ir  Ir28  1  0.000127  0.716120  0.500000  1
  Ir  Ir29  1  0.284006  0.283880  0.500000  1
  Ir  Ir30  1  0.711787  0.000000  0.500000  1
  Ir  Ir31  1  0.000227  0.552946  0.000000  1
  Ir  Ir32  1  0.447281  0.447054  0.000000  1
  Ir  Ir33  1  0.551971  0.000000  0.000000  1
  Ir  Ir34  1  0.007111  0.000000  0.000000  1
  Ir  Ir35  1  0.486622  0.126009  0.500000  1
