# generated using pymatgen
data_HfTc3P4Rh3
_symmetry_space_group_name_H-M   'P 1'
_cell_length_a   6.90372400
_cell_length_b   6.90372282
_cell_length_c   3.77271800
_cell_angle_alpha   90.00000000
_cell_angle_beta   90.00000000
_cell_angle_gamma   120.00000566
_symmetry_Int_Tables_number   1
_chemical_formula_structural   HfTc3P4Rh3
_chemical_formula_sum   'Hf1 Tc3 P4 Rh3'
_cell_volume   155.72262572
_cell_formula_units_Z   1
loop_
 _symmetry_equiv_pos_site_id
 _symmetry_equiv_pos_as_xyz
  1  'x, y, z'
loop_
 _atom_site_type_symbol
 _atom_site_label
 _atom_site_symmetry_multiplicity
 _atom_site_fract_x
 _atom_site_fract_y
 _atom_site_fract_z
 _atom_site_occupancy
  Hf  Hf0  1  0.000000  0.000000  0.000000  1
  Tc  Tc1  1  0.469301  0.933507  0.000000  1
  Tc  Tc2  1  0.464206  0.530699  0.000000  1
  Tc  Tc3  1  0.066493  0.535794  0.000000  1
  P  P4  1  0.666667  0.333333  0.000000  1
  P  P5  1  0.193771  0.385788  0.500000  1
  P  P6  1  0.192015  0.806229  0.500000  1
  P  P7  1  0.614212  0.807985  0.500000  1
  Rh  Rh8  1  0.807990  0.618707  0.500000  1
  Rh  Rh9  1  0.810717  0.192010  0.500000  1
  Rh  Rh10  1  0.381293  0.189283  0.500000  1
