# generated using pymatgen
data_Pr8Ta(TcO8)3
_symmetry_space_group_name_H-M   'P 1'
_cell_length_a   10.29338579
_cell_length_b   10.26958769
_cell_length_c   5.64494121
_cell_angle_alpha   75.28626705
_cell_angle_beta   75.10561158
_cell_angle_gamma   68.94181542
_symmetry_Int_Tables_number   1
_chemical_formula_structural   Pr8Ta(TcO8)3
_chemical_formula_sum   'Pr8 Ta1 Tc3 O24'
_cell_volume   529.44533027
_cell_formula_units_Z   1
loop_
 _symmetry_equiv_pos_site_id
 _symmetry_equiv_pos_as_xyz
  1  'x, y, z'
loop_
 _atom_site_type_symbol
 _atom_site_label
 _atom_site_symmetry_multiplicity
 _atom_site_fract_x
 _atom_site_fract_y
 _atom_site_fract_z
 _atom_site_occupancy
  Pr  Pr0  1  0.629550  0.374806  0.738157  1
  Pr  Pr1  1  0.372466  0.639093  0.241217  1
  Pr  Pr2  1  0.111821  0.888589  0.756786  1
  Pr  Pr3  1  0.890720  0.109319  0.251727  1
  Pr  Pr4  1  0.708855  0.938735  0.876720  1
  Pr  Pr5  1  0.292498  0.048818  0.122126  1
  Pr  Pr6  1  0.059952  0.284107  0.625324  1
  Pr  Pr7  1  0.933887  0.717190  0.382124  1
  Ta  Ta8  1  0.507646  0.799633  0.559547  1
  Tc  Tc9  1  0.493428  0.201946  0.439149  1
  Tc  Tc10  1  0.200826  0.493959  0.951640  1
  Tc  Tc11  1  0.799480  0.504266  0.050645  1
  O  O12  1  0.683727  0.163742  0.584473  1
  O  O13  1  0.310960  0.837691  0.424345  1
  O  O14  1  0.836582  0.312815  0.905382  1
  O  O15  1  0.161238  0.683880  0.092923  1
  O  O16  1  0.383446  0.828678  0.876006  1
  O  O17  1  0.611369  0.182429  0.144964  1
  O  O18  1  0.175557  0.609895  0.657320  1
  O  O19  1  0.825611  0.384368  0.344443  1
  O  O20  1  0.683710  0.788353  0.630180  1
  O  O21  1  0.326637  0.215395  0.364981  1
  O  O22  1  0.214719  0.326524  0.873235  1
  O  O23  1  0.786613  0.670546  0.130774  1
  O  O24  1  0.471792  0.073173  0.721795  1
  O  O25  1  0.526894  0.932815  0.252824  1
  O  O26  1  0.929496  0.524787  0.770001  1
  O  O27  1  0.071975  0.471625  0.234802  1
  O  O28  1  0.542272  0.612772  0.518041  1
  O  O29  1  0.454259  0.380966  0.479858  1
  O  O30  1  0.381195  0.456848  0.983233  1
  O  O31  1  0.619172  0.539171  0.016363  1
  O  O32  1  0.887666  0.923939  0.077576  1
  O  O33  1  0.107146  0.077926  0.925130  1
  O  O34  1  0.078301  0.109744  0.422780  1
  O  O35  1  0.928532  0.891456  0.573407  1
