# generated using pymatgen
data_Er2AlNiRu
_symmetry_space_group_name_H-M   'P 1'
_cell_length_a   5.42774320
_cell_length_b   5.42774369
_cell_length_c   5.42774371
_cell_angle_alpha   135.69387606
_cell_angle_beta   117.78295847
_cell_angle_gamma   79.52877890
_symmetry_Int_Tables_number   1
_chemical_formula_structural   Er2AlNiRu
_chemical_formula_sum   'Er2 Al1 Ni1 Ru1'
_cell_volume   95.78678677
_cell_formula_units_Z   1
loop_
 _symmetry_equiv_pos_site_id
 _symmetry_equiv_pos_as_xyz
  1  'x, y, z'
loop_
 _atom_site_type_symbol
 _atom_site_label
 _atom_site_symmetry_multiplicity
 _atom_site_fract_x
 _atom_site_fract_y
 _atom_site_fract_z
 _atom_site_occupancy
  Er  Er0  1  0.695756  0.201666  0.494090  1
  Er  Er1  1  0.292425  0.798334  0.494090  1
  Al  Al2  1  0.998032  0.000000  0.998032  1
  Ni  Ni3  1  0.741653  0.500000  0.241653  1
  Ru  Ru4  1  0.272135  0.500000  0.772135  1
