# generated using pymatgen
data_MgZnPdO4
_symmetry_space_group_name_H-M   'P 1'
_cell_length_a   6.07519036
_cell_length_b   6.07519261
_cell_length_c   6.07519032
_cell_angle_alpha   120.89005676
_cell_angle_beta   119.28219149
_cell_angle_gamma   89.85654294
_symmetry_Int_Tables_number   1
_chemical_formula_structural   MgZnPdO4
_chemical_formula_sum   'Mg2 Zn2 Pd2 O8'
_cell_volume   158.30346868
_cell_formula_units_Z   2
loop_
 _symmetry_equiv_pos_site_id
 _symmetry_equiv_pos_as_xyz
  1  'x, y, z'
loop_
 _atom_site_type_symbol
 _atom_site_label
 _atom_site_symmetry_multiplicity
 _atom_site_fract_x
 _atom_site_fract_y
 _atom_site_fract_z
 _atom_site_occupancy
  Mg  Mg0  1  0.000000  0.000000  0.500000  1
  Mg  Mg1  1  0.000000  0.500000  0.000000  1
  Zn  Zn2  1  0.600473  0.850473  0.750000  1
  Zn  Zn3  1  0.399527  0.149527  0.250000  1
  Pd  Pd4  1  0.000000  0.500000  0.500000  1
  Pd  Pd5  1  0.500000  0.500000  0.000000  1
  O  O6  1  0.785634  0.263352  0.522283  1
  O  O7  1  0.241069  0.263352  0.977717  1
  O  O8  1  0.246927  0.268847  0.521920  1
  O  O9  1  0.246927  0.725005  0.978080  1
  O  O10  1  0.753073  0.274995  0.021920  1
  O  O11  1  0.758931  0.736648  0.022283  1
  O  O12  1  0.753073  0.731153  0.478080  1
  O  O13  1  0.214366  0.736648  0.477717  1
