# generated using pymatgen
data_Tb3Lu3(Al3Co)8
_symmetry_space_group_name_H-M   'P 1'
_cell_length_a   8.61868400
_cell_length_b   8.61868461
_cell_length_c   9.26102500
_cell_angle_alpha   90.00000000
_cell_angle_beta   90.00000000
_cell_angle_gamma   119.99999764
_symmetry_Int_Tables_number   1
_chemical_formula_structural   Tb3Lu3(Al3Co)8
_chemical_formula_sum   'Tb3 Lu3 Al24 Co8'
_cell_volume   595.76041741
_cell_formula_units_Z   1
loop_
 _symmetry_equiv_pos_site_id
 _symmetry_equiv_pos_as_xyz
  1  'x, y, z'
loop_
 _atom_site_type_symbol
 _atom_site_label
 _atom_site_symmetry_multiplicity
 _atom_site_fract_x
 _atom_site_fract_y
 _atom_site_fract_z
 _atom_site_occupancy
  Tb  Tb0  1  0.806489  0.193511  0.750000  1
  Tb  Tb1  1  0.806489  0.612980  0.750000  1
  Tb  Tb2  1  0.387020  0.193511  0.750000  1
  Lu  Lu3  1  0.196215  0.803785  0.250000  1
  Lu  Lu4  1  0.196215  0.392431  0.250000  1
  Lu  Lu5  1  0.607569  0.803785  0.250000  1
  Al  Al6  1  0.558765  0.441235  0.250000  1
  Al  Al7  1  0.558765  0.117530  0.250000  1
  Al  Al8  1  0.882470  0.441235  0.250000  1
  Al  Al9  1  0.439816  0.560184  0.750000  1
  Al  Al10  1  0.439816  0.879629  0.750000  1
  Al  Al11  1  0.120371  0.560184  0.750000  1
  Al  Al12  1  0.324398  0.162200  0.422418  1
  Al  Al13  1  0.837800  0.162200  0.422418  1
  Al  Al14  1  0.837800  0.675602  0.422418  1
  Al  Al15  1  0.673682  0.836840  0.573546  1
  Al  Al16  1  0.163160  0.836840  0.573546  1
  Al  Al17  1  0.163160  0.326318  0.573546  1
  Al  Al18  1  0.673682  0.836840  0.926454  1
  Al  Al19  1  0.163160  0.836840  0.926454  1
  Al  Al20  1  0.163160  0.326318  0.926454  1
  Al  Al21  1  0.324398  0.162200  0.077582  1
  Al  Al22  1  0.837800  0.162200  0.077582  1
  Al  Al23  1  0.837800  0.675602  0.077582  1
  Al  Al24  1  0.666667  0.333333  0.517868  1
  Al  Al25  1  0.333333  0.666667  0.477377  1
  Al  Al26  1  0.333333  0.666667  0.022623  1
  Al  Al27  1  0.666667  0.333333  0.982132  1
  Al  Al28  1  0.000000  0.000000  0.250000  1
  Al  Al29  1  0.000000  0.000000  0.750000  1
  Co  Co30  1  0.000000  0.000000  0.500040  1
  Co  Co31  1  0.000000  0.000000  0.999960  1
  Co  Co32  1  0.499268  0.500732  0.498070  1
  Co  Co33  1  0.499268  0.998538  0.498070  1
  Co  Co34  1  0.001462  0.500732  0.498070  1
  Co  Co35  1  0.499268  0.500732  0.001930  1
  Co  Co36  1  0.499268  0.998538  0.001930  1
  Co  Co37  1  0.001462  0.500732  0.001930  1
