# generated using pymatgen
data_LiHo3Ag2HgGe2
_symmetry_space_group_name_H-M   'P 1'
_cell_length_a   7.30094271
_cell_length_b   7.20721127
_cell_length_c   4.20376600
_cell_angle_alpha   90.00000000
_cell_angle_beta   90.00000000
_cell_angle_gamma   119.57619619
_symmetry_Int_Tables_number   1
_chemical_formula_structural   LiHo3Ag2HgGe2
_chemical_formula_sum   'Li1 Ho3 Ag2 Hg1 Ge2'
_cell_volume   192.37747923
_cell_formula_units_Z   1
loop_
 _symmetry_equiv_pos_site_id
 _symmetry_equiv_pos_as_xyz
  1  'x, y, z'
loop_
 _atom_site_type_symbol
 _atom_site_label
 _atom_site_symmetry_multiplicity
 _atom_site_fract_x
 _atom_site_fract_y
 _atom_site_fract_z
 _atom_site_occupancy
  Li  Li0  1  0.000000  0.243013  0.500000  1
  Ho  Ho1  1  0.000000  0.579044  0.000000  1
  Ho  Ho2  1  0.571447  0.998665  0.000000  1
  Ho  Ho3  1  0.428553  0.427218  0.000000  1
  Ag  Ag4  1  0.259064  0.000389  0.500000  1
  Ag  Ag5  1  0.740936  0.741325  0.500000  1
  Hg  Hg6  1  0.000000  0.021150  0.000000  1
  Ge  Ge7  1  0.324917  0.657057  0.500000  1
  Ge  Ge8  1  0.675083  0.332139  0.500000  1
