# generated using pymatgen
data_Y2Ho6Re3B24Rh
_symmetry_space_group_name_H-M   'P 1'
_cell_length_a   3.67360100
_cell_length_b   9.15602167
_cell_length_c   11.53631400
_cell_angle_alpha   90.16167594
_cell_angle_beta   90.00000000
_cell_angle_gamma   90.00000000
_symmetry_Int_Tables_number   1
_chemical_formula_structural   Y2Ho6Re3B24Rh
_chemical_formula_sum   'Y2 Ho6 Re3 B24 Rh1'
_cell_volume   388.02895654
_cell_formula_units_Z   1
loop_
 _symmetry_equiv_pos_site_id
 _symmetry_equiv_pos_as_xyz
  1  'x, y, z'
loop_
 _atom_site_type_symbol
 _atom_site_label
 _atom_site_symmetry_multiplicity
 _atom_site_fract_x
 _atom_site_fract_y
 _atom_site_fract_z
 _atom_site_occupancy
  Y  Y0  1  0.000000  0.318137  0.415515  1
  Y  Y1  1  0.000000  0.678348  0.591231  1
  Ho  Ho2  1  0.000000  0.827362  0.081173  1
  Ho  Ho3  1  0.000000  0.177359  0.912762  1
  Ho  Ho4  1  0.000000  0.943101  0.369787  1
  Ho  Ho5  1  0.000000  0.055953  0.629084  1
  Ho  Ho6  1  0.000000  0.441170  0.128863  1
  Ho  Ho7  1  0.000000  0.556806  0.871859  1
  Re  Re8  1  0.000000  0.362136  0.678195  1
  Re  Re9  1  0.000000  0.138050  0.179645  1
  Re  Re10  1  0.000000  0.861913  0.821113  1
  B  B11  1  0.500000  0.554103  0.433342  1
  B  B12  1  0.500000  0.446530  0.566950  1
  B  B13  1  0.500000  0.053453  0.066427  1
  B  B14  1  0.500000  0.947318  0.932750  1
  B  B15  1  0.500000  0.749111  0.419759  1
  B  B16  1  0.500000  0.250431  0.581375  1
  B  B17  1  0.500000  0.249251  0.081160  1
  B  B18  1  0.500000  0.751958  0.919076  1
  B  B19  1  0.500000  0.791108  0.264913  1
  B  B20  1  0.500000  0.208366  0.734246  1
  B  B21  1  0.500000  0.291502  0.234770  1
  B  B22  1  0.500000  0.708392  0.766352  1
  B  B23  1  0.500000  0.632012  0.183975  1
  B  B24  1  0.500000  0.369268  0.814381  1
  B  B25  1  0.500000  0.130352  0.314545  1
  B  B26  1  0.500000  0.868766  0.685741  1
  B  B27  1  0.500000  0.982812  0.211776  1
  B  B28  1  0.500000  0.017538  0.787109  1
  B  B29  1  0.500000  0.483555  0.287659  1
  B  B30  1  0.500000  0.517893  0.712837  1
  B  B31  1  0.500000  0.604299  0.029540  1
  B  B32  1  0.500000  0.397098  0.972070  1
  B  B33  1  0.500000  0.101303  0.471063  1
  B  B34  1  0.500000  0.895153  0.528188  1
  Rh  Rh35  1  0.000000  0.638091  0.320773  1
