# generated using pymatgen
data_Dy2Ho6AlPd24
_symmetry_space_group_name_H-M   'P 1'
_cell_length_a   8.33536720
_cell_length_b   8.33536740
_cell_length_c   8.33536700
_cell_angle_alpha   90.01257908
_cell_angle_beta   90.01257908
_cell_angle_gamma   90.01257632
_symmetry_Int_Tables_number   1
_chemical_formula_structural   Dy2Ho6AlPd24
_chemical_formula_sum   'Dy2 Ho6 Al1 Pd24'
_cell_volume   579.12748766
_cell_formula_units_Z   1
loop_
 _symmetry_equiv_pos_site_id
 _symmetry_equiv_pos_as_xyz
  1  'x, y, z'
loop_
 _atom_site_type_symbol
 _atom_site_label
 _atom_site_symmetry_multiplicity
 _atom_site_fract_x
 _atom_site_fract_y
 _atom_site_fract_z
 _atom_site_occupancy
  Dy  Dy0  1  0.251722  0.251722  0.251722  1
  Dy  Dy1  1  0.748278  0.748278  0.748278  1
  Ho  Ho2  1  0.748393  0.748393  0.251664  1
  Ho  Ho3  1  0.748393  0.251664  0.748393  1
  Ho  Ho4  1  0.251607  0.251607  0.748336  1
  Ho  Ho5  1  0.251607  0.748336  0.251607  1
  Ho  Ho6  1  0.251664  0.748393  0.748393  1
  Ho  Ho7  1  0.748336  0.251607  0.251607  1
  Al  Al8  1  0.000000  0.000000  0.000000  1
  Pd  Pd9  1  0.259650  0.500382  0.999521  1
  Pd  Pd10  1  0.740350  0.499618  0.000479  1
  Pd  Pd11  1  0.999521  0.259650  0.500382  1
  Pd  Pd12  1  0.500382  0.259650  0.999521  1
  Pd  Pd13  1  0.000479  0.740350  0.499618  1
  Pd  Pd14  1  0.499618  0.740350  0.000479  1
  Pd  Pd15  1  0.500382  0.999521  0.259650  1
  Pd  Pd16  1  0.259650  0.999521  0.500382  1
  Pd  Pd17  1  0.499618  0.000479  0.740350  1
  Pd  Pd18  1  0.740350  0.000479  0.499618  1
  Pd  Pd19  1  0.999521  0.500382  0.259650  1
  Pd  Pd20  1  0.000479  0.499618  0.740350  1
  Pd  Pd21  1  0.252554  0.500448  0.500448  1
  Pd  Pd22  1  0.747446  0.499552  0.499552  1
  Pd  Pd23  1  0.500448  0.252554  0.500448  1
  Pd  Pd24  1  0.499552  0.747446  0.499552  1
  Pd  Pd25  1  0.500448  0.500448  0.252554  1
  Pd  Pd26  1  0.499552  0.499552  0.747446  1
  Pd  Pd27  1  0.289069  0.999615  0.999615  1
  Pd  Pd28  1  0.710931  0.000385  0.000385  1
  Pd  Pd29  1  0.999615  0.289069  0.999615  1
  Pd  Pd30  1  0.000385  0.710931  0.000385  1
  Pd  Pd31  1  0.999615  0.999615  0.289069  1
  Pd  Pd32  1  0.000385  0.000385  0.710931  1
