# generated using pymatgen
data_Yb6Ni7P12Rh11
_symmetry_space_group_name_H-M   'P 1'
_cell_length_a   3.88179004
_cell_length_b   10.85009348
_cell_length_c   12.67289400
_cell_angle_alpha   89.80732378
_cell_angle_beta   89.99143912
_cell_angle_gamma   89.99104160
_symmetry_Int_Tables_number   1
_chemical_formula_structural   Yb6Ni7P12Rh11
_chemical_formula_sum   'Yb6 Ni7 P12 Rh11'
_cell_volume   533.75119242
_cell_formula_units_Z   1
loop_
 _symmetry_equiv_pos_site_id
 _symmetry_equiv_pos_as_xyz
  1  'x, y, z'
loop_
 _atom_site_type_symbol
 _atom_site_label
 _atom_site_symmetry_multiplicity
 _atom_site_fract_x
 _atom_site_fract_y
 _atom_site_fract_z
 _atom_site_occupancy
  Yb  Yb0  1  0.751811  0.999279  0.477848  1
  Yb  Yb1  1  0.251904  0.498530  0.522042  1
  Yb  Yb2  1  0.251905  0.683978  0.800804  1
  Yb  Yb3  1  0.251938  0.321960  0.797960  1
  Yb  Yb4  1  0.751766  0.815190  0.199957  1
  Yb  Yb5  1  0.751806  0.182879  0.200515  1
  Ni  Ni6  1  0.751711  0.000024  0.023240  1
  Ni  Ni7  1  0.252170  0.503012  0.977818  1
  Ni  Ni8  1  0.251488  0.831959  0.013497  1
  Ni  Ni9  1  0.752204  0.338855  0.991209  1
  Ni  Ni10  1  0.751798  0.668430  0.989010  1
  Ni  Ni11  1  0.251407  0.999362  0.299406  1
  Ni  Ni12  1  0.752024  0.499166  0.700033  1
  P  P13  1  0.251800  0.180236  0.379103  1
  P  P14  1  0.251756  0.818873  0.379483  1
  P  P15  1  0.751859  0.317767  0.620903  1
  P  P16  1  0.751839  0.679386  0.619675  1
  P  P17  1  0.251608  0.995792  0.125530  1
  P  P18  1  0.752099  0.502837  0.875674  1
  P  P19  1  0.251913  0.651939  0.099052  1
  P  P20  1  0.251913  0.354487  0.100598  1
  P  P21  1  0.751681  0.849492  0.900950  1
  P  P22  1  0.751847  0.155640  0.899452  1
  P  P23  1  0.251712  0.999996  0.658633  1
  P  P24  1  0.751871  0.500562  0.341422  1
  Rh  Rh25  1  0.251926  0.205900  0.570322  1
  Rh  Rh26  1  0.251591  0.791798  0.570540  1
  Rh  Rh27  1  0.751835  0.293115  0.429450  1
  Rh  Rh28  1  0.751812  0.706418  0.429494  1
  Rh  Rh29  1  0.251975  0.627778  0.285674  1
  Rh  Rh30  1  0.251953  0.373455  0.285437  1
  Rh  Rh31  1  0.751662  0.870693  0.712361  1
  Rh  Rh32  1  0.751676  0.126396  0.717371  1
  Rh  Rh33  1  0.251846  0.168027  0.006678  1
  Rh  Rh34  1  0.251416  0.984091  0.842417  1
  Rh  Rh35  1  0.752085  0.502702  0.156441  1
