# generated using pymatgen
data_Mg2Fe3Cu(B2Rh5)2
_symmetry_space_group_name_H-M   'P 1'
_cell_length_a   9.36910828
_cell_length_b   9.34408355
_cell_length_c   2.90809500
_cell_angle_alpha   90.00000000
_cell_angle_beta   90.00000000
_cell_angle_gamma   90.88428973
_symmetry_Int_Tables_number   1
_chemical_formula_structural   Mg2Fe3Cu(B2Rh5)2
_chemical_formula_sum   'Mg2 Fe3 Cu1 B4 Rh10'
_cell_volume   254.56097985
_cell_formula_units_Z   1
loop_
 _symmetry_equiv_pos_site_id
 _symmetry_equiv_pos_as_xyz
  1  'x, y, z'
loop_
 _atom_site_type_symbol
 _atom_site_label
 _atom_site_symmetry_multiplicity
 _atom_site_fract_x
 _atom_site_fract_y
 _atom_site_fract_z
 _atom_site_occupancy
  Mg  Mg0  1  0.176728  0.321807  0.000000  1
  Mg  Mg1  1  0.823272  0.678193  0.000000  1
  Fe  Fe2  1  0.677236  0.176345  0.000000  1
  Fe  Fe3  1  0.322764  0.823655  0.000000  1
  Fe  Fe4  1  0.500000  0.500000  0.000000  1
  Cu  Cu5  1  0.000000  0.000000  0.000000  1
  B  B6  1  0.125219  0.629681  0.000000  1
  B  B7  1  0.874781  0.370319  0.000000  1
  B  B8  1  0.629030  0.875780  0.000000  1
  B  B9  1  0.370970  0.124220  0.000000  1
  Rh  Rh10  1  0.500000  0.000000  0.500000  1
  Rh  Rh11  1  0.000000  0.500000  0.500000  1
  Rh  Rh12  1  0.218827  0.062910  0.500000  1
  Rh  Rh13  1  0.781173  0.937090  0.500000  1
  Rh  Rh14  1  0.079924  0.787735  0.500000  1
  Rh  Rh15  1  0.711726  0.422781  0.500000  1
  Rh  Rh16  1  0.920076  0.212265  0.500000  1
  Rh  Rh17  1  0.288274  0.577219  0.500000  1
  Rh  Rh18  1  0.562917  0.717384  0.500000  1
  Rh  Rh19  1  0.437083  0.282616  0.500000  1
