# generated using pymatgen
data_Nd6GaGeBr6
_symmetry_space_group_name_H-M   'P 1'
_cell_length_a   10.46630030
_cell_length_b   10.46630027
_cell_length_c   10.49547298
_cell_angle_alpha   109.47765316
_cell_angle_beta   109.47765213
_cell_angle_gamma   109.34544883
_symmetry_Int_Tables_number   1
_chemical_formula_structural   Nd6GaGeBr6
_chemical_formula_sum   'Nd12 Ga2 Ge2 Br12'
_cell_volume   886.27727912
_cell_formula_units_Z   2
loop_
 _symmetry_equiv_pos_site_id
 _symmetry_equiv_pos_as_xyz
  1  'x, y, z'
loop_
 _atom_site_type_symbol
 _atom_site_label
 _atom_site_symmetry_multiplicity
 _atom_site_fract_x
 _atom_site_fract_y
 _atom_site_fract_z
 _atom_site_occupancy
  Nd  Nd0  1  0.260075  0.010075  0.020150  1
  Nd  Nd1  1  0.019723  0.259400  0.010175  1
  Nd  Nd2  1  0.490452  0.750775  0.010175  1
  Nd  Nd3  1  0.749223  0.240351  0.258630  1
  Nd  Nd4  1  0.009407  0.018280  0.258630  1
  Nd  Nd5  1  0.009009  0.490991  0.750000  1
  Nd  Nd6  1  0.240991  0.259009  0.750000  1
  Nd  Nd7  1  0.259649  0.750777  0.241370  1
  Nd  Nd8  1  0.240600  0.480277  0.489825  1
  Nd  Nd9  1  0.481720  0.490593  0.241370  1
  Nd  Nd10  1  0.749225  0.009548  0.489825  1
  Nd  Nd11  1  0.489925  0.239925  0.479850  1
  Ga  Ga12  1  0.000072  0.250072  0.500144  1
  Ga  Ga13  1  0.249928  0.499928  0.999856  1
  Ge  Ge14  1  0.500116  0.999884  0.250000  1
  Ge  Ge15  1  0.249884  0.250116  0.250000  1
  Br  Br16  1  0.753658  0.746342  0.250000  1
  Br  Br17  1  0.503666  0.249783  0.996555  1
  Br  Br18  1  0.250217  0.996334  0.503445  1
  Br  Br19  1  0.508203  0.504007  0.753824  1
  Br  Br20  1  0.995993  0.991797  0.746176  1
  Br  Br21  1  0.746031  0.996031  0.992063  1
  Br  Br22  1  0.503969  0.753969  0.507937  1
  Br  Br23  1  0.753227  0.507110  0.503445  1
  Br  Br24  1  0.996342  0.503658  0.250000  1
  Br  Br25  1  0.992890  0.746773  0.996555  1
  Br  Br26  1  0.250182  0.754380  0.746176  1
  Br  Br27  1  0.745620  0.249818  0.753824  1
