# generated using pymatgen
data_Zr2CrP2Pd
_symmetry_space_group_name_H-M   'P 1'
_cell_length_a   3.74521700
_cell_length_b   6.50635067
_cell_length_c   7.62108526
_cell_angle_alpha   90.33934373
_cell_angle_beta   90.00000000
_cell_angle_gamma   90.00000000
_symmetry_Int_Tables_number   1
_chemical_formula_structural   Zr2CrP2Pd
_chemical_formula_sum   'Zr4 Cr2 P4 Pd2'
_cell_volume   185.70502489
_cell_formula_units_Z   2
loop_
 _symmetry_equiv_pos_site_id
 _symmetry_equiv_pos_as_xyz
  1  'x, y, z'
loop_
 _atom_site_type_symbol
 _atom_site_label
 _atom_site_symmetry_multiplicity
 _atom_site_fract_x
 _atom_site_fract_y
 _atom_site_fract_z
 _atom_site_occupancy
  Zr  Zr0  1  0.250000  0.530544  0.171446  1
  Zr  Zr1  1  0.750000  0.469456  0.828554  1
  Zr  Zr2  1  0.750000  0.970034  0.678522  1
  Zr  Zr3  1  0.250000  0.029966  0.321478  1
  Cr  Cr4  1  0.750000  0.862091  0.058354  1
  Cr  Cr5  1  0.250000  0.137909  0.941646  1
  P  P6  1  0.250000  0.776074  0.887086  1
  P  P7  1  0.750000  0.223926  0.112914  1
  P  P8  1  0.750000  0.746220  0.357430  1
  P  P9  1  0.250000  0.253780  0.642570  1
  Pd  Pd10  1  0.250000  0.647361  0.562497  1
  Pd  Pd11  1  0.750000  0.352639  0.437503  1
