# generated using pymatgen
data_PrCo(P4Os)3
_symmetry_space_group_name_H-M   'P 1'
_cell_length_a   6.97539786
_cell_length_b   6.97539802
_cell_length_c   7.01225800
_cell_angle_alpha   109.57830622
_cell_angle_beta   109.57830671
_cell_angle_gamma   109.36392622
_symmetry_Int_Tables_number   1
_chemical_formula_structural   PrCo(P4Os)3
_chemical_formula_sum   'Pr1 Co1 P12 Os3'
_cell_volume   262.30000068
_cell_formula_units_Z   1
loop_
 _symmetry_equiv_pos_site_id
 _symmetry_equiv_pos_as_xyz
  1  'x, y, z'
loop_
 _atom_site_type_symbol
 _atom_site_label
 _atom_site_symmetry_multiplicity
 _atom_site_fract_x
 _atom_site_fract_y
 _atom_site_fract_z
 _atom_site_occupancy
  Pr  Pr0  1  0.000000  0.000000  0.000000  1
  Co  Co1  1  0.000000  0.000000  0.500000  1
  P  P2  1  0.347886  0.207274  0.848434  1
  P  P3  1  0.652114  0.792726  0.151566  1
  P  P4  1  0.642647  0.499933  0.856597  1
  P  P5  1  0.357353  0.500067  0.143403  1
  P  P6  1  0.207274  0.859388  0.358840  1
  P  P7  1  0.792726  0.140612  0.641160  1
  P  P8  1  0.499933  0.857287  0.643336  1
  P  P9  1  0.500067  0.142713  0.356664  1
  P  P10  1  0.857287  0.357353  0.213950  1
  P  P11  1  0.142713  0.642647  0.786050  1
  P  P12  1  0.859388  0.652114  0.500547  1
  P  P13  1  0.140612  0.347886  0.499453  1
  Os  Os14  1  0.500000  0.000000  0.000000  1
  Os  Os15  1  0.000000  0.500000  0.000000  1
  Os  Os16  1  0.500000  0.500000  0.500000  1
