# generated using pymatgen
data_Sr6TaTi2O12
_symmetry_space_group_name_H-M   'P 1'
_cell_length_a   8.91153024
_cell_length_b   8.91153039
_cell_length_c   6.94098363
_cell_angle_alpha   67.35025351
_cell_angle_beta   67.35024856
_cell_angle_gamma   36.80009191
_symmetry_Int_Tables_number   1
_chemical_formula_structural   Sr6TaTi2O12
_chemical_formula_sum   'Sr6 Ta1 Ti2 O12'
_cell_volume   301.77898401
_cell_formula_units_Z   1
loop_
 _symmetry_equiv_pos_site_id
 _symmetry_equiv_pos_as_xyz
  1  'x, y, z'
loop_
 _atom_site_type_symbol
 _atom_site_label
 _atom_site_symmetry_multiplicity
 _atom_site_fract_x
 _atom_site_fract_y
 _atom_site_fract_z
 _atom_site_occupancy
  Sr  Sr0  1  0.877916  0.877916  0.712775  1
  Sr  Sr1  1  0.218634  0.218634  0.708744  1
  Sr  Sr2  1  0.548568  0.548568  0.706661  1
  Sr  Sr3  1  0.451432  0.451432  0.293339  1
  Sr  Sr4  1  0.781366  0.781366  0.291256  1
  Sr  Sr5  1  0.122084  0.122084  0.287225  1
  Ta  Ta6  1  0.000000  0.000000  0.000000  1
  Ti  Ti7  1  0.669071  0.669071  0.999258  1
  Ti  Ti8  1  0.330929  0.330929  0.000742  1
  O  O9  1  0.946652  0.946652  0.320378  1
  O  O10  1  0.280102  0.280102  0.319038  1
  O  O11  1  0.613465  0.613465  0.319440  1
  O  O12  1  0.386535  0.386535  0.680560  1
  O  O13  1  0.719898  0.719898  0.680962  1
  O  O14  1  0.053348  0.053348  0.679622  1
  O  O15  1  0.500000  0.000000  0.000000  1
  O  O16  1  0.833374  0.333259  0.000052  1
  O  O17  1  0.166626  0.666741  0.999948  1
  O  O18  1  0.000000  0.500000  0.000000  1
  O  O19  1  0.333259  0.833374  0.000052  1
  O  O20  1  0.666741  0.166626  0.999948  1
