# generated using pymatgen
data_Pt(SeO4)2
_symmetry_space_group_name_H-M   'P 1'
_cell_length_a   4.95963400
_cell_length_b   4.95963350
_cell_length_c   7.51092700
_cell_angle_alpha   90.00000000
_cell_angle_beta   90.00000000
_cell_angle_gamma   119.99999093
_symmetry_Int_Tables_number   1
_chemical_formula_structural   Pt(SeO4)2
_chemical_formula_sum   'Pt1 Se2 O8'
_cell_volume   160.00126861
_cell_formula_units_Z   1
loop_
 _symmetry_equiv_pos_site_id
 _symmetry_equiv_pos_as_xyz
  1  'x, y, z'
loop_
 _atom_site_type_symbol
 _atom_site_label
 _atom_site_symmetry_multiplicity
 _atom_site_fract_x
 _atom_site_fract_y
 _atom_site_fract_z
 _atom_site_occupancy
  Pt  Pt0  1  0.000000  0.000000  0.000000  1
  Se  Se1  1  0.333333  0.666667  0.242798  1
  Se  Se2  1  0.666666  0.333333  0.757202  1
  O  O3  1  0.321251  0.332815  0.162128  1
  O  O4  1  0.011564  0.678748  0.162128  1
  O  O5  1  0.667185  0.988434  0.162128  1
  O  O6  1  0.332815  0.011564  0.837873  1
  O  O7  1  0.988436  0.321252  0.837873  1
  O  O8  1  0.678748  0.667185  0.837873  1
  O  O9  1  0.666666  0.333333  0.543378  1
  O  O10  1  0.333333  0.666667  0.456622  1
