# generated using pymatgen
data_Pr4Nd(RhO6)2
_symmetry_space_group_name_H-M   'P 1'
_cell_length_a   7.12006353
_cell_length_b   7.12006290
_cell_length_c   7.62801718
_cell_angle_alpha   74.49557307
_cell_angle_beta   74.49557362
_cell_angle_gamma   50.96992075
_symmetry_Int_Tables_number   1
_chemical_formula_structural   Pr4Nd(RhO6)2
_chemical_formula_sum   'Pr4 Nd1 Rh2 O12'
_cell_volume   286.92490015
_cell_formula_units_Z   1
loop_
 _symmetry_equiv_pos_site_id
 _symmetry_equiv_pos_as_xyz
  1  'x, y, z'
loop_
 _atom_site_type_symbol
 _atom_site_label
 _atom_site_symmetry_multiplicity
 _atom_site_fract_x
 _atom_site_fract_y
 _atom_site_fract_z
 _atom_site_occupancy
  Pr  Pr0  1  0.694565  0.694565  0.642346  1
  Pr  Pr1  1  0.692522  0.692522  0.166450  1
  Pr  Pr2  1  0.307493  0.307493  0.833404  1
  Pr  Pr3  1  0.000091  0.000091  0.499738  1
  Nd  Nd4  1  0.305397  0.305397  0.357327  1
  Rh  Rh5  1  0.754213  0.245639  0.000046  1
  Rh  Rh6  1  0.245639  0.754213  0.000046  1
  O  O7  1  0.096269  0.596494  0.575848  1
  O  O8  1  0.999111  0.999111  0.172825  1
  O  O9  1  0.402190  0.905931  0.423129  1
  O  O10  1  0.499662  0.499662  0.176687  1
  O  O11  1  0.101204  0.576986  0.080547  1
  O  O12  1  0.905931  0.402190  0.423129  1
  O  O13  1  0.000826  0.000826  0.827240  1
  O  O14  1  0.596494  0.096268  0.575848  1
  O  O15  1  0.499785  0.499785  0.823910  1
  O  O16  1  0.576986  0.101204  0.080547  1
  O  O17  1  0.422339  0.899282  0.920465  1
  O  O18  1  0.899282  0.422339  0.920465  1
