# generated using pymatgen
data_Li30Si6BiSb
_symmetry_space_group_name_H-M   'P 1'
_cell_length_a   9.33087909
_cell_length_b   9.31383022
_cell_length_c   9.33466207
_cell_angle_alpha   109.54270086
_cell_angle_beta   109.53016672
_cell_angle_gamma   109.42665105
_symmetry_Int_Tables_number   1
_chemical_formula_structural   Li30Si6BiSb
_chemical_formula_sum   'Li30 Si6 Bi1 Sb1'
_cell_volume   623.82985930
_cell_formula_units_Z   1
loop_
 _symmetry_equiv_pos_site_id
 _symmetry_equiv_pos_as_xyz
  1  'x, y, z'
loop_
 _atom_site_type_symbol
 _atom_site_label
 _atom_site_symmetry_multiplicity
 _atom_site_fract_x
 _atom_site_fract_y
 _atom_site_fract_z
 _atom_site_occupancy
  Li  Li0  1  0.332676  0.801454  0.728135  1
  Li  Li1  1  0.121046  0.749902  0.871079  1
  Li  Li2  1  0.739315  0.353583  0.814960  1
  Li  Li3  1  0.625404  0.769573  0.587181  1
  Li  Li4  1  0.028682  0.913202  0.692502  1
  Li  Li5  1  0.085407  0.273297  0.113457  1
  Li  Li6  1  0.924922  0.697811  0.031347  1
  Li  Li7  1  0.273481  0.111785  0.087259  1
  Li  Li8  1  0.186080  0.412064  0.523534  1
  Li  Li9  1  0.779334  0.586603  0.615390  1
  Li  Li10  1  0.695388  0.028225  0.924498  1
  Li  Li11  1  0.529801  0.194960  0.404208  1
  Li  Li12  1  0.629844  0.375442  0.258286  1
  Li  Li13  1  0.462304  0.150444  0.888734  1
  Li  Li14  1  0.885067  0.125409  0.755362  1
  Li  Li15  1  0.975119  0.387958  0.661617  1
  Li  Li16  1  0.403530  0.526484  0.192699  1
  Li  Li17  1  0.111698  0.087849  0.274154  1
  Li  Li18  1  0.304465  0.835843  0.209330  1
  Li  Li19  1  0.756508  0.883271  0.127082  1
  Li  Li20  1  0.894332  0.471831  0.166245  1
  Li  Li21  1  0.589502  0.622525  0.770912  1
  Li  Li22  1  0.375097  0.663046  0.968935  1
  Li  Li23  1  0.815313  0.728320  0.352701  1
  Li  Li24  1  0.667453  0.973680  0.375794  1
  Li  Li25  1  0.145451  0.876583  0.466097  1
  Li  Li26  1  0.211832  0.306319  0.835824  1
  Li  Li27  1  0.365660  0.251385  0.616566  1
  Li  Li28  1  0.840203  0.226733  0.312157  1
  Li  Li29  1  0.242302  0.614518  0.371872  1
  Si  Si30  1  0.501204  0.000556  0.086080  1
  Si  Si31  1  0.001156  0.083951  0.500244  1
  Si  Si32  1  0.999594  0.584993  0.500000  1
  Si  Si33  1  0.085638  0.499323  0.000547  1
  Si  Si34  1  0.416269  0.416199  0.417117  1
  Si  Si35  1  0.915049  0.914972  0.914604  1
  Bi  Bi36  1  0.499906  0.999492  0.583197  1
  Sb  Sb37  1  0.583969  0.500418  0.000294  1
