# generated using pymatgen
data_CeNdP4(IrOs)2
_symmetry_space_group_name_H-M   'P 1'
_cell_length_a   4.21024500
_cell_length_b   4.21024500
_cell_length_c   9.40681600
_cell_angle_alpha   90.00000000
_cell_angle_beta   90.00000000
_cell_angle_gamma   90.00000000
_symmetry_Int_Tables_number   1
_chemical_formula_structural   CeNdP4(IrOs)2
_chemical_formula_sum   'Ce1 Nd1 P4 Ir2 Os2'
_cell_volume   166.74675335
_cell_formula_units_Z   1
loop_
 _symmetry_equiv_pos_site_id
 _symmetry_equiv_pos_as_xyz
  1  'x, y, z'
loop_
 _atom_site_type_symbol
 _atom_site_label
 _atom_site_symmetry_multiplicity
 _atom_site_fract_x
 _atom_site_fract_y
 _atom_site_fract_z
 _atom_site_occupancy
  Ce  Ce0  1  0.500000  0.000000  0.758839  1
  Nd  Nd1  1  0.000000  0.500000  0.238252  1
  P  P2  1  0.000000  0.000000  0.999466  1
  P  P3  1  0.500000  0.500000  0.999466  1
  P  P4  1  0.000000  0.500000  0.627584  1
  P  P5  1  0.500000  0.000000  0.372911  1
  Ir  Ir6  1  0.000000  0.500000  0.884372  1
  Ir  Ir7  1  0.500000  0.000000  0.112961  1
  Os  Os8  1  0.000000  0.000000  0.503074  1
  Os  Os9  1  0.500000  0.500000  0.503074  1
