# generated using pymatgen
data_Pr(TmS2)2
_symmetry_space_group_name_H-M   'P 1'
_cell_length_a   3.86964500
_cell_length_b   12.98450500
_cell_length_c   12.99162800
_cell_angle_alpha   90.00000000
_cell_angle_beta   90.00000000
_cell_angle_gamma   90.00000000
_symmetry_Int_Tables_number   1
_chemical_formula_structural   Pr(TmS2)2
_chemical_formula_sum   'Pr4 Tm8 S16'
_cell_volume   652.76986836
_cell_formula_units_Z   4
loop_
 _symmetry_equiv_pos_site_id
 _symmetry_equiv_pos_as_xyz
  1  'x, y, z'
loop_
 _atom_site_type_symbol
 _atom_site_label
 _atom_site_symmetry_multiplicity
 _atom_site_fract_x
 _atom_site_fract_y
 _atom_site_fract_z
 _atom_site_occupancy
  Pr  Pr0  1  0.250000  0.368439  0.587511  1
  Pr  Pr1  1  0.250000  0.868439  0.912489  1
  Pr  Pr2  1  0.750000  0.631561  0.412489  1
  Pr  Pr3  1  0.750000  0.131561  0.087511  1
  Tm  Tm4  1  0.250000  0.109349  0.423476  1
  Tm  Tm5  1  0.250000  0.609349  0.076524  1
  Tm  Tm6  1  0.750000  0.890651  0.576524  1
  Tm  Tm7  1  0.750000  0.390651  0.923476  1
  Tm  Tm8  1  0.250000  0.147968  0.795975  1
  Tm  Tm9  1  0.250000  0.647968  0.704025  1
  Tm  Tm10  1  0.750000  0.852032  0.204025  1
  Tm  Tm11  1  0.750000  0.352032  0.295975  1
  S  S12  1  0.250000  0.215888  0.238463  1
  S  S13  1  0.250000  0.715888  0.261537  1
  S  S14  1  0.750000  0.784112  0.761537  1
  S  S15  1  0.750000  0.284112  0.738463  1
  S  S16  1  0.250000  0.255990  0.974225  1
  S  S17  1  0.250000  0.755990  0.525775  1
  S  S18  1  0.750000  0.744010  0.025775  1
  S  S19  1  0.750000  0.244010  0.474225  1
  S  S20  1  0.250000  0.466619  0.382015  1
  S  S21  1  0.250000  0.966619  0.117985  1
  S  S22  1  0.750000  0.533381  0.617985  1
  S  S23  1  0.750000  0.033381  0.882015  1
  S  S24  1  0.250000  0.030349  0.621064  1
  S  S25  1  0.250000  0.530349  0.878936  1
  S  S26  1  0.750000  0.969651  0.378936  1
  S  S27  1  0.750000  0.469651  0.121064  1
