# generated using pymatgen
data_Ca4LaNdV2O12
_symmetry_space_group_name_H-M   'P 1'
_cell_length_a   7.40591294
_cell_length_b   7.40591220
_cell_length_c   5.65559800
_cell_angle_alpha   89.99877932
_cell_angle_beta   90.00121608
_cell_angle_gamma   104.18919908
_symmetry_Int_Tables_number   1
_chemical_formula_structural   Ca4LaNdV2O12
_chemical_formula_sum   'Ca4 La1 Nd1 V2 O12'
_cell_volume   300.73206266
_cell_formula_units_Z   1
loop_
 _symmetry_equiv_pos_site_id
 _symmetry_equiv_pos_as_xyz
  1  'x, y, z'
loop_
 _atom_site_type_symbol
 _atom_site_label
 _atom_site_symmetry_multiplicity
 _atom_site_fract_x
 _atom_site_fract_y
 _atom_site_fract_z
 _atom_site_occupancy
  Ca  Ca0  1  0.298957  0.100258  0.766729  1
  Ca  Ca1  1  0.702119  0.898416  0.267070  1
  Ca  Ca2  1  0.101584  0.297881  0.267070  1
  Ca  Ca3  1  0.899742  0.701043  0.766729  1
  La  La4  1  0.401547  0.598453  0.741415  1
  Nd  Nd5  1  0.599375  0.400625  0.241000  1
  V  V6  1  0.188233  0.811767  0.301043  1
  V  V7  1  0.809825  0.190175  0.801499  1
  O  O8  1  0.651609  0.666216  0.006739  1
  O  O9  1  0.203862  0.796138  0.989904  1
  O  O10  1  0.401970  0.898708  0.441122  1
  O  O11  1  0.597616  0.102012  0.944901  1
  O  O12  1  0.668915  0.648785  0.504831  1
  O  O13  1  0.045697  0.954303  0.389797  1
  O  O14  1  0.333784  0.348391  0.006739  1
  O  O15  1  0.351215  0.331085  0.504831  1
  O  O16  1  0.952594  0.047406  0.886887  1
  O  O17  1  0.792076  0.207924  0.489669  1
  O  O18  1  0.897988  0.402384  0.944901  1
  O  O19  1  0.101292  0.598030  0.441122  1
