# generated using pymatgen
data_ErNb8FeSe16
_symmetry_space_group_name_H-M   'P 1'
_cell_length_a   6.98726400
_cell_length_b   6.98726476
_cell_length_c   13.58048700
_cell_angle_alpha   90.00000000
_cell_angle_beta   90.00000000
_cell_angle_gamma   119.99999642
_symmetry_Int_Tables_number   1
_chemical_formula_structural   ErNb8FeSe16
_chemical_formula_sum   'Er1 Nb8 Fe1 Se16'
_cell_volume   574.19623903
_cell_formula_units_Z   1
loop_
 _symmetry_equiv_pos_site_id
 _symmetry_equiv_pos_as_xyz
  1  'x, y, z'
loop_
 _atom_site_type_symbol
 _atom_site_label
 _atom_site_symmetry_multiplicity
 _atom_site_fract_x
 _atom_site_fract_y
 _atom_site_fract_z
 _atom_site_occupancy
  Er  Er0  1  0.000000  0.000000  0.500000  1
  Nb  Nb1  1  0.000000  0.000000  0.237252  1
  Nb  Nb2  1  0.000000  0.000000  0.762748  1
  Nb  Nb3  1  0.507404  0.014808  0.236317  1
  Nb  Nb4  1  0.985192  0.492596  0.236317  1
  Nb  Nb5  1  0.507404  0.492596  0.236317  1
  Nb  Nb6  1  0.492596  0.985192  0.763683  1
  Nb  Nb7  1  0.014808  0.507404  0.763683  1
  Nb  Nb8  1  0.492596  0.507404  0.763683  1
  Fe  Fe9  1  0.000000  0.000000  0.000000  1
  Se  Se10  1  0.333333  0.666667  0.890287  1
  Se  Se11  1  0.666667  0.333333  0.109713  1
  Se  Se12  1  0.666667  0.333333  0.365234  1
  Se  Se13  1  0.333333  0.666667  0.634766  1
  Se  Se14  1  0.169725  0.830275  0.359660  1
  Se  Se15  1  0.169725  0.339450  0.359660  1
  Se  Se16  1  0.660550  0.830275  0.359660  1
  Se  Se17  1  0.830275  0.169725  0.640340  1
  Se  Se18  1  0.830275  0.660550  0.640340  1
  Se  Se19  1  0.339450  0.169725  0.640340  1
  Se  Se20  1  0.832042  0.167958  0.885722  1
  Se  Se21  1  0.832042  0.664085  0.885722  1
  Se  Se22  1  0.335915  0.167958  0.885722  1
  Se  Se23  1  0.167958  0.832042  0.114278  1
  Se  Se24  1  0.167958  0.335915  0.114278  1
  Se  Se25  1  0.664085  0.832042  0.114278  1
