# generated using pymatgen
data_Sr6ZrZn(CoO6)2
_symmetry_space_group_name_H-M   'P 1'
_cell_length_a   6.68398439
_cell_length_b   6.67850144
_cell_length_c   6.68111889
_cell_angle_alpha   92.97036565
_cell_angle_beta   92.98212564
_cell_angle_gamma   92.97133577
_symmetry_Int_Tables_number   1
_chemical_formula_structural   Sr6ZrZn(CoO6)2
_chemical_formula_sum   'Sr6 Zr1 Zn1 Co2 O12'
_cell_volume   296.98946467
_cell_formula_units_Z   1
loop_
 _symmetry_equiv_pos_site_id
 _symmetry_equiv_pos_as_xyz
  1  'x, y, z'
loop_
 _atom_site_type_symbol
 _atom_site_label
 _atom_site_symmetry_multiplicity
 _atom_site_fract_x
 _atom_site_fract_y
 _atom_site_fract_z
 _atom_site_occupancy
  Sr  Sr0  1  0.623508  0.876173  0.251047  1
  Sr  Sr1  1  0.876632  0.249538  0.623534  1
  Sr  Sr2  1  0.249429  0.623952  0.876203  1
  Sr  Sr3  1  0.109102  0.750091  0.390693  1
  Sr  Sr4  1  0.750095  0.389863  0.109928  1
  Sr  Sr5  1  0.390565  0.109855  0.749817  1
  Zr  Zr6  1  0.250010  0.250028  0.249944  1
  Zn  Zn7  1  0.748825  0.749075  0.752109  1
  Co  Co8  1  0.500658  0.500896  0.500375  1
  Co  Co9  1  0.999655  0.999345  0.999090  1
  O  O10  1  0.533952  0.212993  0.401686  1
  O  O11  1  0.212943  0.401433  0.533744  1
  O  O12  1  0.401685  0.533523  0.212434  1
  O  O13  1  0.043668  0.914970  0.723846  1
  O  O14  1  0.915015  0.723596  0.042437  1
  O  O15  1  0.724114  0.041781  0.913647  1
  O  O16  1  0.456641  0.776404  0.584637  1
  O  O17  1  0.775910  0.585821  0.457116  1
  O  O18  1  0.585915  0.458342  0.776141  1
  O  O19  1  0.966052  0.098509  0.286856  1
  O  O20  1  0.098194  0.287330  0.966237  1
  O  O21  1  0.287433  0.966482  0.098480  1
