# generated using pymatgen
data_Dy8MgCd(SnAu4)2
_symmetry_space_group_name_H-M   'P 1'
_cell_length_a   8.00134600
_cell_length_b   8.00134600
_cell_length_c   7.42618600
_cell_angle_alpha   90.00000000
_cell_angle_beta   90.00000000
_cell_angle_gamma   90.00000000
_symmetry_Int_Tables_number   1
_chemical_formula_structural   Dy8MgCd(SnAu4)2
_chemical_formula_sum   'Dy8 Mg1 Cd1 Sn2 Au8'
_cell_volume   475.43584780
_cell_formula_units_Z   1
loop_
 _symmetry_equiv_pos_site_id
 _symmetry_equiv_pos_as_xyz
  1  'x, y, z'
loop_
 _atom_site_type_symbol
 _atom_site_label
 _atom_site_symmetry_multiplicity
 _atom_site_fract_x
 _atom_site_fract_y
 _atom_site_fract_z
 _atom_site_occupancy
  Dy  Dy0  1  0.831841  0.156906  0.499782  1
  Dy  Dy1  1  0.168159  0.843094  0.499782  1
  Dy  Dy2  1  0.343094  0.331841  0.000218  1
  Dy  Dy3  1  0.656906  0.668159  0.000218  1
  Dy  Dy4  1  0.671670  0.682350  0.499275  1
  Dy  Dy5  1  0.328330  0.317650  0.499275  1
  Dy  Dy6  1  0.182350  0.828330  0.000725  1
  Dy  Dy7  1  0.817650  0.171670  0.000725  1
  Mg  Mg8  1  0.000000  0.500000  0.750000  1
  Cd  Cd9  1  0.500000  0.000000  0.250000  1
  Sn  Sn10  1  0.500000  0.000000  0.750000  1
  Sn  Sn11  1  0.000000  0.500000  0.250000  1
  Au  Au12  1  0.628164  0.370822  0.264506  1
  Au  Au13  1  0.371836  0.629178  0.264506  1
  Au  Au14  1  0.118965  0.139621  0.764301  1
  Au  Au15  1  0.881035  0.860379  0.764301  1
  Au  Au16  1  0.360379  0.618965  0.735699  1
  Au  Au17  1  0.639621  0.381035  0.735699  1
  Au  Au18  1  0.870822  0.871836  0.235494  1
  Au  Au19  1  0.129178  0.128164  0.235494  1
