# generated using pymatgen
data_LaHoSe2
_symmetry_space_group_name_H-M   'P 1'
_cell_length_a   7.38605028
_cell_length_b   7.38605000
_cell_length_c   7.38605026
_cell_angle_alpha   32.56694917
_cell_angle_beta   32.56695555
_cell_angle_gamma   32.56694669
_symmetry_Int_Tables_number   1
_chemical_formula_structural   LaHoSe2
_chemical_formula_sum   'La1 Ho1 Se2'
_cell_volume   103.82599635
_cell_formula_units_Z   1
loop_
 _symmetry_equiv_pos_site_id
 _symmetry_equiv_pos_as_xyz
  1  'x, y, z'
loop_
 _atom_site_type_symbol
 _atom_site_label
 _atom_site_symmetry_multiplicity
 _atom_site_fract_x
 _atom_site_fract_y
 _atom_site_fract_z
 _atom_site_occupancy
  La  La0  1  0.500000  0.500000  0.500000  1
  Ho  Ho1  1  0.000000  0.000000  0.000000  1
  Se  Se2  1  0.256956  0.256956  0.256956  1
  Se  Se3  1  0.743044  0.743044  0.743044  1
