# generated using pymatgen
data_Ti16ReSi16Mo3
_symmetry_space_group_name_H-M   'P 1'
_cell_length_a   6.64974601
_cell_length_b   6.64974583
_cell_length_c   12.17116194
_cell_angle_alpha   90.07479994
_cell_angle_beta   89.92520166
_cell_angle_gamma   90.00553454
_symmetry_Int_Tables_number   1
_chemical_formula_structural   Ti16ReSi16Mo3
_chemical_formula_sum   'Ti16 Re1 Si16 Mo3'
_cell_volume   538.19716053
_cell_formula_units_Z   1
loop_
 _symmetry_equiv_pos_site_id
 _symmetry_equiv_pos_as_xyz
  1  'x, y, z'
loop_
 _atom_site_type_symbol
 _atom_site_label
 _atom_site_symmetry_multiplicity
 _atom_site_fract_x
 _atom_site_fract_y
 _atom_site_fract_z
 _atom_site_occupancy
  Ti  Ti0  1  0.995799  0.150429  0.622030  1
  Ti  Ti1  1  0.351283  0.495659  0.872612  1
  Ti  Ti2  1  0.648555  0.502669  0.372109  1
  Ti  Ti3  1  0.495659  0.351283  0.127388  1
  Ti  Ti4  1  0.502669  0.648555  0.627891  1
  Ti  Ti5  1  0.003501  0.851356  0.123051  1
  Ti  Ti6  1  0.150429  0.995799  0.377970  1
  Ti  Ti7  1  0.851356  0.003501  0.876949  1
  Ti  Ti8  1  0.999466  0.339656  0.223193  1
  Ti  Ti9  1  0.161847  0.498579  0.472427  1
  Ti  Ti10  1  0.839545  0.500296  0.972211  1
  Ti  Ti11  1  0.498579  0.161847  0.527573  1
  Ti  Ti12  1  0.500296  0.839545  0.027789  1
  Ti  Ti13  1  0.000112  0.660457  0.722443  1
  Ti  Ti14  1  0.339656  0.999466  0.776807  1
  Ti  Ti15  1  0.660457  0.000112  0.277557  1
  Re  Re16  1  0.829957  0.829957  0.500000  1
  Si  Si17  1  0.042227  0.303799  0.814810  1
  Si  Si18  1  0.196038  0.542455  0.065139  1
  Si  Si19  1  0.803704  0.460285  0.563861  1
  Si  Si20  1  0.542455  0.196038  0.934861  1
  Si  Si21  1  0.460285  0.803704  0.436139  1
  Si  Si22  1  0.956433  0.697383  0.315978  1
  Si  Si23  1  0.303799  0.042227  0.185190  1
  Si  Si24  1  0.697383  0.956433  0.684022  1
  Si  Si25  1  0.293231  0.358854  0.673659  1
  Si  Si26  1  0.140992  0.793283  0.923396  1
  Si  Si27  1  0.859250  0.205253  0.423447  1
  Si  Si28  1  0.793283  0.140992  0.076604  1
  Si  Si29  1  0.205253  0.859250  0.576553  1
  Si  Si30  1  0.706397  0.640936  0.173409  1
  Si  Si31  1  0.358854  0.293231  0.326341  1
  Si  Si32  1  0.640936  0.706397  0.826591  1
  Mo  Mo33  1  0.169812  0.169812  0.000000  1
  Mo  Mo34  1  0.329961  0.670542  0.251018  1
  Mo  Mo35  1  0.670542  0.329961  0.748982  1
