# generated using pymatgen
data_Sm5DyCoBr10
_symmetry_space_group_name_H-M   'P 1'
_cell_length_a   7.50618352
_cell_length_b   9.34023656
_cell_length_c   9.28977445
_cell_angle_alpha   107.01979351
_cell_angle_beta   96.41376721
_cell_angle_gamma   104.97958799
_symmetry_Int_Tables_number   1
_chemical_formula_structural   Sm5DyCoBr10
_chemical_formula_sum   'Sm5 Dy1 Co1 Br10'
_cell_volume   589.10766597
_cell_formula_units_Z   1
loop_
 _symmetry_equiv_pos_site_id
 _symmetry_equiv_pos_as_xyz
  1  'x, y, z'
loop_
 _atom_site_type_symbol
 _atom_site_label
 _atom_site_symmetry_multiplicity
 _atom_site_fract_x
 _atom_site_fract_y
 _atom_site_fract_z
 _atom_site_occupancy
  Sm  Sm0  1  0.963812  0.295511  0.591605  1
  Sm  Sm1  1  0.876671  0.950763  0.735906  1
  Sm  Sm2  1  0.122627  0.048479  0.263418  1
  Sm  Sm3  1  0.353425  0.128647  0.676797  1
  Sm  Sm4  1  0.646621  0.868733  0.322655  1
  Dy  Dy5  1  0.034701  0.709293  0.409347  1
  Co  Co6  1  0.999597  0.999543  0.499583  1
  Br  Br7  1  0.453187  0.818034  0.584339  1
  Br  Br8  1  0.543384  0.179335  0.413516  1
  Br  Br9  1  0.915897  0.630608  0.669666  1
  Br  Br10  1  0.086133  0.375078  0.326672  1
  Br  Br11  1  0.243194  0.080851  0.955682  1
  Br  Br12  1  0.756076  0.918280  0.044048  1
  Br  Br13  1  0.340360  0.445806  0.770847  1
  Br  Br14  1  0.668681  0.554096  0.231740  1
  Br  Br15  1  0.775996  0.248048  0.843535  1
  Br  Br16  1  0.219639  0.748897  0.160642  1
