# generated using pymatgen
data_Nd9DyB2Cl15
_symmetry_space_group_name_H-M   'P 1'
_cell_length_a   9.01350775
_cell_length_b   9.85486204
_cell_length_c   10.64487300
_cell_angle_alpha   90.74055641
_cell_angle_beta   114.55795391
_cell_angle_gamma   111.14651071
_symmetry_Int_Tables_number   1
_chemical_formula_structural   Nd9DyB2Cl15
_chemical_formula_sum   'Nd9 Dy1 B2 Cl15'
_cell_volume   787.18408616
_cell_formula_units_Z   1
loop_
 _symmetry_equiv_pos_site_id
 _symmetry_equiv_pos_as_xyz
  1  'x, y, z'
loop_
 _atom_site_type_symbol
 _atom_site_label
 _atom_site_symmetry_multiplicity
 _atom_site_fract_x
 _atom_site_fract_y
 _atom_site_fract_z
 _atom_site_occupancy
  Nd  Nd0  1  0.809690  0.418245  0.277740  1
  Nd  Nd1  1  0.187475  0.581401  0.720761  1
  Nd  Nd2  1  0.680900  0.743921  0.818683  1
  Nd  Nd3  1  0.317199  0.254745  0.181250  1
  Nd  Nd4  1  0.527364  0.700488  0.102174  1
  Nd  Nd5  1  0.471995  0.299173  0.897518  1
  Nd  Nd6  1  0.590048  0.036703  0.333182  1
  Nd  Nd7  1  0.405513  0.961490  0.665437  1
  Nd  Nd8  1  0.736750  0.078570  0.049499  1
  Dy  Dy9  1  0.275516  0.924560  0.952602  1
  B  B10  1  0.463326  0.818415  0.875145  1
  B  B11  1  0.531024  0.178968  0.122931  1
  Cl  Cl12  1  0.006264  0.996723  0.997765  1
  Cl  Cl13  1  0.632725  0.882419  0.585598  1
  Cl  Cl14  1  0.363603  0.115797  0.413377  1
  Cl  Cl15  1  0.881513  0.299328  0.522341  1
  Cl  Cl16  1  0.116076  0.699504  0.476230  1
  Cl  Cl17  1  0.289860  0.769670  0.172132  1
  Cl  Cl18  1  0.703199  0.233600  0.816957  1
  Cl  Cl19  1  0.057073  0.345903  0.227630  1
  Cl  Cl20  1  0.166029  0.051670  0.714512  1
  Cl  Cl21  1  0.832739  0.942017  0.294605  1
  Cl  Cl22  1  0.235798  0.411010  0.946084  1
  Cl  Cl23  1  0.762454  0.588163  0.053194  1
  Cl  Cl24  1  0.406695  0.468080  0.661307  1
  Cl  Cl25  1  0.591420  0.531297  0.338381  1
  Cl  Cl26  1  0.957752  0.668139  0.782965  1
