# generated using pymatgen
data_Li3GePd2
_symmetry_space_group_name_H-M   'P 1'
_cell_length_a   4.10470438
_cell_length_b   4.10470287
_cell_length_c   10.44168514
_cell_angle_alpha   101.33550977
_cell_angle_beta   101.33550270
_cell_angle_gamma   90.00000291
_symmetry_Int_Tables_number   1
_chemical_formula_structural   Li3GePd2
_chemical_formula_sum   'Li6 Ge2 Pd4'
_cell_volume   168.99438654
_cell_formula_units_Z   2
loop_
 _symmetry_equiv_pos_site_id
 _symmetry_equiv_pos_as_xyz
  1  'x, y, z'
loop_
 _atom_site_type_symbol
 _atom_site_label
 _atom_site_symmetry_multiplicity
 _atom_site_fract_x
 _atom_site_fract_y
 _atom_site_fract_z
 _atom_site_occupancy
  Li  Li0  1  0.041469  0.291469  0.082936  1
  Li  Li1  1  0.125000  0.874999  0.250000  1
  Li  Li2  1  0.708531  0.958531  0.417063  1
  Li  Li3  1  0.291469  0.041469  0.582937  1
  Li  Li4  1  0.875000  0.125000  0.750000  1
  Li  Li5  1  0.958531  0.708531  0.917063  1
  Ge  Ge6  1  0.625000  0.375000  0.250000  1
  Ge  Ge7  1  0.375000  0.625000  0.750000  1
  Pd  Pd8  1  0.547976  0.797976  0.095953  1
  Pd  Pd9  1  0.202023  0.452023  0.404047  1
  Pd  Pd10  1  0.797976  0.547976  0.595953  1
  Pd  Pd11  1  0.452023  0.202024  0.904047  1
