# generated using pymatgen
data_LaNdP7Ru12
_symmetry_space_group_name_H-M   'P 1'
_cell_length_a   9.50257400
_cell_length_b   9.50257258
_cell_length_c   3.98887700
_cell_angle_alpha   90.00000000
_cell_angle_beta   90.00000000
_cell_angle_gamma   119.99999705
_symmetry_Int_Tables_number   1
_chemical_formula_structural   LaNdP7Ru12
_chemical_formula_sum   'La1 Nd1 P7 Ru12'
_cell_volume   311.93474031
_cell_formula_units_Z   1
loop_
 _symmetry_equiv_pos_site_id
 _symmetry_equiv_pos_as_xyz
  1  'x, y, z'
loop_
 _atom_site_type_symbol
 _atom_site_label
 _atom_site_symmetry_multiplicity
 _atom_site_fract_x
 _atom_site_fract_y
 _atom_site_fract_z
 _atom_site_occupancy
  La  La0  1  0.333333  0.666667  0.000000  1
  Nd  Nd1  1  0.666667  0.333333  0.500000  1
  P  P2  1  0.607036  0.717517  0.500000  1
  P  P3  1  0.000000  0.000000  0.000000  1
  P  P4  1  0.282483  0.889519  0.500000  1
  P  P5  1  0.110481  0.392964  0.500000  1
  P  P6  1  0.890601  0.574712  0.000000  1
  P  P7  1  0.425288  0.315887  0.000000  1
  P  P8  1  0.684113  0.109399  0.000000  1
  Ru  Ru9  1  0.559625  0.953101  0.500000  1
  Ru  Ru10  1  0.393476  0.440375  0.500000  1
  Ru  Ru11  1  0.914546  0.119117  0.500000  1
  Ru  Ru12  1  0.204572  0.085454  0.500000  1
  Ru  Ru13  1  0.880883  0.795428  0.500000  1
  Ru  Ru14  1  0.730069  0.892857  0.000000  1
  Ru  Ru15  1  0.107143  0.837211  0.000000  1
  Ru  Ru16  1  0.162789  0.269931  0.000000  1
  Ru  Ru17  1  0.419987  0.066926  0.000000  1
  Ru  Ru18  1  0.933074  0.353063  0.000000  1
  Ru  Ru19  1  0.646937  0.580013  0.000000  1
  Ru  Ru20  1  0.046899  0.606524  0.500000  1
