# generated using pymatgen
data_Dy11Er(TmSn2)8
_symmetry_space_group_name_H-M   'P 1'
_cell_length_a   7.99624621
_cell_length_b   8.13544477
_cell_length_c   15.38380266
_cell_angle_alpha   89.98290986
_cell_angle_beta   89.96268395
_cell_angle_gamma   90.02794596
_symmetry_Int_Tables_number   1
_chemical_formula_structural   Dy11Er(TmSn2)8
_chemical_formula_sum   'Dy11 Er1 Tm8 Sn16'
_cell_volume   1000.76243630
_cell_formula_units_Z   1
loop_
 _symmetry_equiv_pos_site_id
 _symmetry_equiv_pos_as_xyz
  1  'x, y, z'
loop_
 _atom_site_type_symbol
 _atom_site_label
 _atom_site_symmetry_multiplicity
 _atom_site_fract_x
 _atom_site_fract_y
 _atom_site_fract_z
 _atom_site_occupancy
  Dy  Dy0  1  0.132343  0.337002  0.377176  1
  Dy  Dy1  1  0.368086  0.837014  0.622359  1
  Dy  Dy2  1  0.867439  0.663208  0.878296  1
  Dy  Dy3  1  0.521085  0.320419  0.903691  1
  Dy  Dy4  1  0.021208  0.179241  0.597086  1
  Dy  Dy5  1  0.478754  0.679200  0.402614  1
  Dy  Dy6  1  0.978854  0.821181  0.097136  1
  Dy  Dy7  1  0.479733  0.679052  0.096839  1
  Dy  Dy8  1  0.979337  0.821347  0.402934  1
  Dy  Dy9  1  0.520312  0.321045  0.596756  1
  Dy  Dy10  1  0.020667  0.179130  0.903226  1
  Er  Er11  1  0.366371  0.837335  0.876974  1
  Tm  Tm12  1  0.866420  0.662481  0.622792  1
  Tm  Tm13  1  0.633499  0.162417  0.376960  1
  Tm  Tm14  1  0.133315  0.337841  0.122602  1
  Tm  Tm15  1  0.632482  0.162371  0.123148  1
  Tm  Tm16  1  0.197943  0.503474  0.750370  1
  Tm  Tm17  1  0.698445  0.996535  0.749798  1
  Tm  Tm18  1  0.801513  0.496073  0.250105  1
  Tm  Tm19  1  0.301912  0.003937  0.249273  1
  Sn  Sn20  1  0.294105  0.038680  0.041681  1
  Sn  Sn21  1  0.792142  0.462441  0.458584  1
  Sn  Sn22  1  0.708013  0.962587  0.541337  1
  Sn  Sn23  1  0.207673  0.537129  0.958763  1
  Sn  Sn24  1  0.704388  0.963849  0.958746  1
  Sn  Sn25  1  0.204115  0.537058  0.542396  1
  Sn  Sn26  1  0.295700  0.037097  0.457394  1
  Sn  Sn27  1  0.794378  0.460705  0.042660  1
  Sn  Sn28  1  0.564678  0.618701  0.750131  1
  Sn  Sn29  1  0.063956  0.880773  0.749949  1
  Sn  Sn30  1  0.436215  0.380042  0.249482  1
  Sn  Sn31  1  0.935124  0.119222  0.249226  1
  Sn  Sn32  1  0.330564  0.149433  0.750316  1
  Sn  Sn33  1  0.830503  0.351370  0.749841  1
  Sn  Sn34  1  0.669229  0.851558  0.249839  1
  Sn  Sn35  1  0.169500  0.649056  0.249520  1
