# generated using pymatgen
data_ThP2OsRh
_symmetry_space_group_name_H-M   'P 1'
_cell_length_a   4.21916300
_cell_length_b   4.21916300
_cell_length_c   9.57226600
_cell_angle_alpha   90.00000000
_cell_angle_beta   90.00000000
_cell_angle_gamma   90.00000000
_symmetry_Int_Tables_number   1
_chemical_formula_structural   ThP2OsRh
_chemical_formula_sum   'Th2 P4 Os2 Rh2'
_cell_volume   170.39912737
_cell_formula_units_Z   2
loop_
 _symmetry_equiv_pos_site_id
 _symmetry_equiv_pos_as_xyz
  1  'x, y, z'
loop_
 _atom_site_type_symbol
 _atom_site_label
 _atom_site_symmetry_multiplicity
 _atom_site_fract_x
 _atom_site_fract_y
 _atom_site_fract_z
 _atom_site_occupancy
  Th  Th0  1  0.000000  0.500000  0.257823  1
  Th  Th1  1  0.500000  0.000000  0.742177  1
  P  P2  1  0.000000  0.000000  0.500000  1
  P  P3  1  0.500000  0.500000  0.500000  1
  P  P4  1  0.000000  0.500000  0.859079  1
  P  P5  1  0.500000  0.000000  0.140921  1
  Os  Os6  1  0.000000  0.500000  0.614487  1
  Os  Os7  1  0.500000  0.000000  0.385513  1
  Rh  Rh8  1  0.000000  0.000000  0.000000  1
  Rh  Rh9  1  0.500000  0.500000  0.000000  1
