# generated using pymatgen
data_Tb4Sm2Ga17Pd5
_symmetry_space_group_name_H-M   'P 1'
_cell_length_a   8.18524046
_cell_length_b   8.18523981
_cell_length_c   15.81500995
_cell_angle_alpha   76.27500734
_cell_angle_beta   76.27500819
_cell_angle_gamma   30.48043644
_symmetry_Int_Tables_number   1
_chemical_formula_structural   Tb4Sm2Ga17Pd5
_chemical_formula_sum   'Tb4 Sm2 Ga17 Pd5'
_cell_volume   520.95987554
_cell_formula_units_Z   1
loop_
 _symmetry_equiv_pos_site_id
 _symmetry_equiv_pos_as_xyz
  1  'x, y, z'
loop_
 _atom_site_type_symbol
 _atom_site_label
 _atom_site_symmetry_multiplicity
 _atom_site_fract_x
 _atom_site_fract_y
 _atom_site_fract_z
 _atom_site_occupancy
  Tb  Tb0  1  0.600385  0.600385  0.597233  1
  Tb  Tb1  1  0.090670  0.090670  0.093415  1
  Tb  Tb2  1  0.909330  0.909330  0.906585  1
  Tb  Tb3  1  0.399615  0.399615  0.402767  1
  Sm  Sm4  1  0.753896  0.753896  0.750498  1
  Sm  Sm5  1  0.246104  0.246104  0.249502  1
  Ga  Ga6  1  0.821727  0.821727  0.539495  1
  Ga  Ga7  1  0.326676  0.326676  0.043206  1
  Ga  Ga8  1  0.673324  0.673324  0.956794  1
  Ga  Ga9  1  0.178273  0.178273  0.460505  1
  Ga  Ga10  1  0.546193  0.546193  0.826773  1
  Ga  Ga11  1  0.037997  0.037997  0.322598  1
  Ga  Ga12  1  0.962003  0.962003  0.677402  1
  Ga  Ga13  1  0.453807  0.453807  0.173227  1
  Ga  Ga14  1  0.269707  0.269707  0.897846  1
  Ga  Ga15  1  0.760571  0.760571  0.395304  1
  Ga  Ga16  1  0.239429  0.239429  0.604696  1
  Ga  Ga17  1  0.730293  0.730293  0.102154  1
  Ga  Ga18  1  0.401176  0.401176  0.764646  1
  Ga  Ga19  1  0.892526  0.892526  0.266269  1
  Ga  Ga20  1  0.107474  0.107474  0.733731  1
  Ga  Ga21  1  0.598824  0.598824  0.235354  1
  Ga  Ga22  1  0.000000  0.000000  0.500000  1
  Pd  Pd23  1  0.106745  0.106745  0.895853  1
  Pd  Pd24  1  0.593253  0.593253  0.404262  1
  Pd  Pd25  1  0.406747  0.406747  0.595738  1
  Pd  Pd26  1  0.893255  0.893255  0.104147  1
  Pd  Pd27  1  0.500000  0.500000  0.000000  1
