# generated using pymatgen
data_LiLa2Nd(NiP)4
_symmetry_space_group_name_H-M   'P 1'
_cell_length_a   3.96970300
_cell_length_b   3.96970269
_cell_length_c   14.89351400
_cell_angle_alpha   90.00000000
_cell_angle_beta   90.00000000
_cell_angle_gamma   120.00001089
_symmetry_Int_Tables_number   1
_chemical_formula_structural   LiLa2Nd(NiP)4
_chemical_formula_sum   'Li1 La2 Nd1 Ni4 P4'
_cell_volume   203.25618011
_cell_formula_units_Z   1
loop_
 _symmetry_equiv_pos_site_id
 _symmetry_equiv_pos_as_xyz
  1  'x, y, z'
loop_
 _atom_site_type_symbol
 _atom_site_label
 _atom_site_symmetry_multiplicity
 _atom_site_fract_x
 _atom_site_fract_y
 _atom_site_fract_z
 _atom_site_occupancy
  Li  Li0  1  0.000000  0.000000  0.500000  1
  La  La1  1  0.000000  0.000000  0.275399  1
  La  La2  1  0.000000  0.000000  0.724601  1
  Nd  Nd3  1  0.000000  0.000000  0.000000  1
  Ni  Ni4  1  0.333333  0.666667  0.438398  1
  Ni  Ni5  1  0.666667  0.333333  0.561602  1
  Ni  Ni6  1  0.666667  0.333333  0.863015  1
  Ni  Ni7  1  0.333333  0.666667  0.136985  1
  P  P8  1  0.333333  0.666667  0.866267  1
  P  P9  1  0.666667  0.333333  0.133733  1
  P  P10  1  0.666667  0.333333  0.406336  1
  P  P11  1  0.333333  0.666667  0.593664  1
