# generated using pymatgen
data_Tb6Tm3Lu(In2Pt)4
_symmetry_space_group_name_H-M   'P 1'
_cell_length_a   3.63654000
_cell_length_b   8.14947212
_cell_length_c   18.15949022
_cell_angle_alpha   90.05486700
_cell_angle_beta   90.00000000
_cell_angle_gamma   90.00000000
_symmetry_Int_Tables_number   1
_chemical_formula_structural   Tb6Tm3Lu(In2Pt)4
_chemical_formula_sum   'Tb6 Tm3 Lu1 In8 Pt4'
_cell_volume   538.17225066
_cell_formula_units_Z   1
loop_
 _symmetry_equiv_pos_site_id
 _symmetry_equiv_pos_as_xyz
  1  'x, y, z'
loop_
 _atom_site_type_symbol
 _atom_site_label
 _atom_site_symmetry_multiplicity
 _atom_site_fract_x
 _atom_site_fract_y
 _atom_site_fract_z
 _atom_site_occupancy
  Tb  Tb0  1  0.000000  0.240965  0.218781  1
  Tb  Tb1  1  0.000000  0.759073  0.781228  1
  Tb  Tb2  1  0.000000  0.259096  0.718173  1
  Tb  Tb3  1  0.000000  0.740305  0.282149  1
  Tb  Tb4  1  0.000000  0.000048  0.000293  1
  Tb  Tb5  1  0.000000  0.500301  0.499657  1
  Tm  Tm6  1  0.000000  0.883510  0.585386  1
  Tm  Tm7  1  0.000000  0.383424  0.914337  1
  Tm  Tm8  1  0.000000  0.616808  0.085833  1
  Lu  Lu9  1  0.000000  0.116366  0.413776  1
  In  In10  1  0.500000  0.417889  0.350865  1
  In  In11  1  0.500000  0.580556  0.649168  1
  In  In12  1  0.500000  0.080606  0.850508  1
  In  In13  1  0.500000  0.919225  0.149956  1
  In  In14  1  0.500000  0.296546  0.064920  1
  In  In15  1  0.500000  0.703675  0.935327  1
  In  In16  1  0.500000  0.203295  0.563358  1
  In  In17  1  0.500000  0.797972  0.435852  1
  Pt  Pt18  1  0.500000  0.025392  0.305649  1
  Pt  Pt19  1  0.500000  0.974977  0.694711  1
  Pt  Pt20  1  0.500000  0.474389  0.804899  1
  Pt  Pt21  1  0.500000  0.525582  0.195177  1
