# generated using pymatgen
data_TbDyHo6(ReB6)4
_symmetry_space_group_name_H-M   'P 1'
_cell_length_a   3.67717100
_cell_length_b   9.16319210
_cell_length_c   11.54645601
_cell_angle_alpha   89.99356095
_cell_angle_beta   90.00000000
_cell_angle_gamma   90.00000000
_symmetry_Int_Tables_number   1
_chemical_formula_structural   TbDyHo6(ReB6)4
_chemical_formula_sum   'Tb1 Dy1 Ho6 Re4 B24'
_cell_volume   389.05349399
_cell_formula_units_Z   1
loop_
 _symmetry_equiv_pos_site_id
 _symmetry_equiv_pos_as_xyz
  1  'x, y, z'
loop_
 _atom_site_type_symbol
 _atom_site_label
 _atom_site_symmetry_multiplicity
 _atom_site_fract_x
 _atom_site_fract_y
 _atom_site_fract_z
 _atom_site_occupancy
  Tb  Tb0  1  0.000000  0.676678  0.586164  1
  Dy  Dy1  1  0.000000  0.323384  0.413836  1
  Ho  Ho2  1  0.000000  0.823571  0.085983  1
  Ho  Ho3  1  0.000000  0.176448  0.914038  1
  Ho  Ho4  1  0.000000  0.943091  0.369780  1
  Ho  Ho5  1  0.000000  0.057018  0.630182  1
  Ho  Ho6  1  0.000000  0.442944  0.129720  1
  Ho  Ho7  1  0.000000  0.556999  0.870292  1
  Re  Re8  1  0.000000  0.638749  0.320255  1
  Re  Re9  1  0.000000  0.361077  0.679659  1
  Re  Re10  1  0.000000  0.138487  0.179020  1
  Re  Re11  1  0.000000  0.861637  0.821125  1
  B  B12  1  0.500000  0.553280  0.432451  1
  B  B13  1  0.500000  0.446438  0.567398  1
  B  B14  1  0.500000  0.053159  0.066886  1
  B  B15  1  0.500000  0.946880  0.933142  1
  B  B16  1  0.500000  0.749272  0.417891  1
  B  B17  1  0.500000  0.250705  0.581844  1
  B  B18  1  0.500000  0.249007  0.081208  1
  B  B19  1  0.500000  0.750983  0.918846  1
  B  B20  1  0.500000  0.792177  0.264978  1
  B  B21  1  0.500000  0.207816  0.734970  1
  B  B22  1  0.500000  0.291878  0.234192  1
  B  B23  1  0.500000  0.708221  0.765984  1
  B  B24  1  0.500000  0.630791  0.185136  1
  B  B25  1  0.500000  0.369132  0.814869  1
  B  B26  1  0.500000  0.130510  0.314155  1
  B  B27  1  0.500000  0.869667  0.685983  1
  B  B28  1  0.500000  0.981995  0.211637  1
  B  B29  1  0.500000  0.018059  0.788379  1
  B  B30  1  0.500000  0.482200  0.287636  1
  B  B31  1  0.500000  0.517505  0.712428  1
  B  B32  1  0.500000  0.600033  0.027961  1
  B  B33  1  0.500000  0.399933  0.972052  1
  B  B34  1  0.500000  0.099380  0.472182  1
  B  B35  1  0.500000  0.900896  0.527738  1
