# generated using pymatgen
data_Dy4Ga4IrRh3
_symmetry_space_group_name_H-M   'P 1'
_cell_length_a   4.26535700
_cell_length_b   6.88201942
_cell_length_c   7.77395100
_cell_angle_alpha   90.22993238
_cell_angle_beta   90.00000000
_cell_angle_gamma   90.00000000
_symmetry_Int_Tables_number   1
_chemical_formula_structural   Dy4Ga4IrRh3
_chemical_formula_sum   'Dy4 Ga4 Ir1 Rh3'
_cell_volume   228.19681669
_cell_formula_units_Z   1
loop_
 _symmetry_equiv_pos_site_id
 _symmetry_equiv_pos_as_xyz
  1  'x, y, z'
loop_
 _atom_site_type_symbol
 _atom_site_label
 _atom_site_symmetry_multiplicity
 _atom_site_fract_x
 _atom_site_fract_y
 _atom_site_fract_z
 _atom_site_occupancy
  Dy  Dy0  1  0.250000  0.973674  0.311560  1
  Dy  Dy1  1  0.250000  0.470840  0.189470  1
  Dy  Dy2  1  0.750000  0.028725  0.688251  1
  Dy  Dy3  1  0.750000  0.528472  0.811545  1
  Ga  Ga4  1  0.250000  0.347007  0.570188  1
  Ga  Ga5  1  0.250000  0.847099  0.931312  1
  Ga  Ga6  1  0.750000  0.653501  0.430768  1
  Ga  Ga7  1  0.750000  0.152012  0.068618  1
  Ir  Ir8  1  0.750000  0.267030  0.388173  1
  Rh  Rh9  1  0.250000  0.232786  0.889414  1
  Rh  Rh10  1  0.250000  0.732707  0.610610  1
  Rh  Rh11  1  0.750000  0.766146  0.110093  1
