# generated using pymatgen
data_Zn11CoCuAu
_symmetry_space_group_name_H-M   'P 1'
_cell_length_a   6.66616715
_cell_length_b   6.66616792
_cell_length_c   4.99986859
_cell_angle_alpha   80.31065226
_cell_angle_beta   80.31064552
_cell_angle_gamma   70.41420656
_symmetry_Int_Tables_number   1
_chemical_formula_structural   Zn11CoCuAu
_chemical_formula_sum   'Zn11 Co1 Cu1 Au1'
_cell_volume   204.83865462
_cell_formula_units_Z   1
loop_
 _symmetry_equiv_pos_site_id
 _symmetry_equiv_pos_as_xyz
  1  'x, y, z'
loop_
 _atom_site_type_symbol
 _atom_site_label
 _atom_site_symmetry_multiplicity
 _atom_site_fract_x
 _atom_site_fract_y
 _atom_site_fract_z
 _atom_site_occupancy
  Zn  Zn0  1  0.000281  0.000281  0.000599  1
  Zn  Zn1  1  0.780857  0.780857  0.382619  1
  Zn  Zn2  1  0.224864  0.224864  0.629154  1
  Zn  Zn3  1  0.220089  0.626261  0.308016  1
  Zn  Zn4  1  0.362742  0.775437  0.683122  1
  Zn  Zn5  1  0.775437  0.362742  0.683122  1
  Zn  Zn6  1  0.626261  0.220089  0.308016  1
  Zn  Zn7  1  0.011886  0.643479  0.801544  1
  Zn  Zn8  1  0.350882  0.006274  0.199344  1
  Zn  Zn9  1  0.006274  0.350882  0.199344  1
  Zn  Zn10  1  0.643479  0.011886  0.801544  1
  Co  Co11  1  0.000059  0.000059  0.500918  1
  Cu  Cu12  1  0.379235  0.379235  0.935708  1
  Au  Au13  1  0.617653  0.617653  0.066949  1
