# generated using pymatgen
data_Tb6Nb4Re3(MoN8)3
_symmetry_space_group_name_H-M   'P 1'
_cell_length_a   11.14814421
_cell_length_b   11.14814443
_cell_length_c   11.15227200
_cell_angle_alpha   109.48026691
_cell_angle_beta   109.48026645
_cell_angle_gamma   109.43811928
_symmetry_Int_Tables_number   1
_chemical_formula_structural   Tb6Nb4Re3(MoN8)3
_chemical_formula_sum   'Tb12 Nb8 Re6 Mo6 N48'
_cell_volume   1067.15373496
_cell_formula_units_Z   2
loop_
 _symmetry_equiv_pos_site_id
 _symmetry_equiv_pos_as_xyz
  1  'x, y, z'
loop_
 _atom_site_type_symbol
 _atom_site_label
 _atom_site_symmetry_multiplicity
 _atom_site_fract_x
 _atom_site_fract_y
 _atom_site_fract_z
 _atom_site_occupancy
  Tb  Tb0  1  0.372597  0.746552  0.121869  1
  Tb  Tb1  1  0.249272  0.375317  0.121869  1
  Tb  Tb2  1  0.375000  0.125000  0.250000  1
  Tb  Tb3  1  0.875000  0.625000  0.250000  1
  Tb  Tb4  1  0.753448  0.127403  0.378131  1
  Tb  Tb5  1  0.124683  0.250728  0.378131  1
  Tb  Tb6  1  0.874729  0.751736  0.627899  1
  Tb  Tb7  1  0.253169  0.876162  0.627898  1
  Tb  Tb8  1  0.125000  0.375000  0.750000  1
  Tb  Tb9  1  0.625001  0.875000  0.750000  1
  Tb  Tb10  1  0.623838  0.246831  0.872102  1
  Tb  Tb11  1  0.748264  0.625272  0.872102  1
  Nb  Nb12  1  0.006368  0.009969  0.017340  1
  Nb  Nb13  1  0.510972  0.007371  0.017340  1
  Nb  Nb14  1  0.997184  0.507298  0.013839  1
  Nb  Nb15  1  0.516654  0.506541  0.013839  1
  Nb  Nb16  1  0.993459  0.983346  0.486161  1
  Nb  Nb17  1  0.492629  0.989028  0.482660  1
  Nb  Nb18  1  0.992702  0.502816  0.486161  1
  Nb  Nb19  1  0.490031  0.493632  0.482660  1
  Re  Re20  1  0.373433  0.247557  0.624866  1
  Re  Re21  1  0.751432  0.377307  0.624865  1
  Re  Re22  1  0.875099  0.125099  0.750000  1
  Re  Re23  1  0.374901  0.624901  0.750000  1
  Re  Re24  1  0.252442  0.126567  0.875135  1
  Re  Re25  1  0.122693  0.748568  0.875135  1
  Mo  Mo26  1  0.869412  0.248221  0.128482  1
  Mo  Mo27  1  0.759070  0.880260  0.128482  1
  Mo  Mo28  1  0.625726  0.375725  0.250000  1
  Mo  Mo29  1  0.124275  0.874275  0.249999  1
  Mo  Mo30  1  0.251778  0.630589  0.371518  1
  Mo  Mo31  1  0.619740  0.740930  0.371518  1
  N  N32  1  0.312606  0.899407  0.013331  1
  N  N33  1  0.200726  0.113926  0.013332  1
  N  N34  1  0.881084  0.400724  0.086269  1
  N  N35  1  0.705185  0.685545  0.086269  1
  N  N36  1  0.623020  0.409938  0.094841  1
  N  N37  1  0.971820  0.684903  0.094841  1
  N  N38  1  0.016940  0.205536  0.119923  1
  N  N39  1  0.602982  0.914386  0.119922  1
  N  N40  1  0.207813  0.584435  0.176360  1
  N  N41  1  0.468547  0.591925  0.176360  1
  N  N42  1  0.122364  0.026828  0.211048  1
  N  N43  1  0.588684  0.184220  0.211047  1
  N  N44  1  0.315780  0.911316  0.288953  1
  N  N45  1  0.473173  0.377637  0.288953  1
  N  N46  1  0.915565  0.292187  0.323640  1
  N  N47  1  0.908075  0.031453  0.323640  1
  N  N48  1  0.294465  0.483061  0.380078  1
  N  N49  1  0.585613  0.897017  0.380078  1
  N  N50  1  0.815097  0.528180  0.405160  1
  N  N51  1  0.090062  0.876980  0.405159  1
  N  N52  1  0.099276  0.618916  0.413731  1
  N  N53  1  0.814454  0.794814  0.413731  1
  N  N54  1  0.600593  0.187394  0.486669  1
  N  N55  1  0.386075  0.299275  0.486669  1
  N  N56  1  0.623933  0.707438  0.528129  1
  N  N57  1  0.404196  0.820692  0.528130  1
  N  N58  1  0.186900  0.207142  0.587720  1
  N  N59  1  0.900820  0.380578  0.587720  1
  N  N60  1  0.914253  0.117479  0.600945  1
  N  N61  1  0.186692  0.483467  0.600946  1
  N  N62  1  0.412284  0.097632  0.618129  1
  N  N63  1  0.705844  0.520497  0.618128  1
  N  N64  1  0.084671  0.701340  0.687173  1
  N  N65  1  0.102503  0.985833  0.687173  1
  N  N66  1  0.516711  0.616573  0.704429  1
  N  N67  1  0.687718  0.087855  0.704429  1
  N  N68  1  0.883426  0.983289  0.795571  1
  N  N69  1  0.412145  0.812281  0.795570  1
  N  N70  1  0.514167  0.397498  0.812827  1
  N  N71  1  0.798659  0.415329  0.812826  1
  N  N72  1  0.402368  0.087716  0.881871  1
  N  N73  1  0.979503  0.794156  0.881871  1
  N  N74  1  0.016533  0.313308  0.899054  1
  N  N75  1  0.382521  0.585746  0.899054  1
  N  N76  1  0.292858  0.313100  0.912280  1
  N  N77  1  0.119422  0.599179  0.912279  1
  N  N78  1  0.679308  0.095805  0.971870  1
  N  N79  1  0.792562  0.876066  0.971871  1
