# generated using pymatgen
data_Al5V12Zn3N4
_symmetry_space_group_name_H-M   'P 1'
_cell_length_a   6.60878172
_cell_length_b   6.60878172
_cell_length_c   6.60878172
_cell_angle_alpha   90.08591859
_cell_angle_beta   89.91408141
_cell_angle_gamma   89.91408141
_symmetry_Int_Tables_number   1
_chemical_formula_structural   Al5V12Zn3N4
_chemical_formula_sum   'Al5 V12 Zn3 N4'
_cell_volume   288.64414796
_cell_formula_units_Z   1
loop_
 _symmetry_equiv_pos_site_id
 _symmetry_equiv_pos_as_xyz
  1  'x, y, z'
loop_
 _atom_site_type_symbol
 _atom_site_label
 _atom_site_symmetry_multiplicity
 _atom_site_fract_x
 _atom_site_fract_y
 _atom_site_fract_z
 _atom_site_occupancy
  Al  Al0  1  0.177416  0.822584  0.322584  1
  Al  Al1  1  0.317854  0.172125  0.820850  1
  Al  Al2  1  0.827875  0.320850  0.182146  1
  Al  Al3  1  0.679150  0.682146  0.672125  1
  Al  Al4  1  0.572206  0.427794  0.927794  1
  V  V5  1  0.791110  0.959746  0.376745  1
  V  V6  1  0.708522  0.042319  0.875969  1
  V  V7  1  0.210884  0.460789  0.121765  1
  V  V8  1  0.291813  0.537560  0.628135  1
  V  V9  1  0.957681  0.375969  0.791478  1
  V  V10  1  0.040254  0.876745  0.708890  1
  V  V11  1  0.462440  0.128135  0.208187  1
  V  V12  1  0.539211  0.621765  0.289116  1
  V  V13  1  0.378235  0.789116  0.960789  1
  V  V14  1  0.871865  0.708187  0.037560  1
  V  V15  1  0.123255  0.208890  0.459746  1
  V  V16  1  0.624031  0.291478  0.542319  1
  Zn  Zn17  1  0.428541  0.929142  0.569049  1
  Zn  Zn18  1  0.930951  0.571459  0.429142  1
  Zn  Zn19  1  0.070858  0.069049  0.071459  1
  N  N20  1  0.873613  0.126387  0.626387  1
  N  N21  1  0.626045  0.875872  0.127936  1
  N  N22  1  0.124128  0.627936  0.873955  1
  N  N23  1  0.372064  0.373955  0.375872  1
