# generated using pymatgen
data_Er14Tm6Cd5InNi2
_symmetry_space_group_name_H-M   'P 1'
_cell_length_a   9.53872152
_cell_length_b   9.53872133
_cell_length_c   9.60989000
_cell_angle_alpha   90.00000000
_cell_angle_beta   90.00000000
_cell_angle_gamma   120.13987229
_symmetry_Int_Tables_number   1
_chemical_formula_structural   Er14Tm6Cd5InNi2
_chemical_formula_sum   'Er14 Tm6 Cd5 In1 Ni2'
_cell_volume   756.16320021
_cell_formula_units_Z   1
loop_
 _symmetry_equiv_pos_site_id
 _symmetry_equiv_pos_as_xyz
  1  'x, y, z'
loop_
 _atom_site_type_symbol
 _atom_site_label
 _atom_site_symmetry_multiplicity
 _atom_site_fract_x
 _atom_site_fract_y
 _atom_site_fract_z
 _atom_site_occupancy
  Er  Er0  1  0.001893  0.998107  0.501689  1
  Er  Er1  1  0.001893  0.998107  0.998311  1
  Er  Er2  1  0.210872  0.789128  0.437515  1
  Er  Er3  1  0.209970  0.420429  0.436906  1
  Er  Er4  1  0.579571  0.790030  0.436906  1
  Er  Er5  1  0.789587  0.210413  0.562039  1
  Er  Er6  1  0.788987  0.578747  0.563208  1
  Er  Er7  1  0.421253  0.211013  0.563208  1
  Er  Er8  1  0.789587  0.210413  0.937961  1
  Er  Er9  1  0.788987  0.578747  0.936792  1
  Er  Er10  1  0.421253  0.211013  0.936792  1
  Er  Er11  1  0.210872  0.789128  0.062485  1
  Er  Er12  1  0.209970  0.420429  0.063094  1
  Er  Er13  1  0.579571  0.790030  0.063094  1
  Tm  Tm14  1  0.542460  0.457540  0.250000  1
  Tm  Tm15  1  0.539822  0.087710  0.250000  1
  Tm  Tm16  1  0.912290  0.460178  0.250000  1
  Tm  Tm17  1  0.455951  0.544049  0.750000  1
  Tm  Tm18  1  0.456973  0.912961  0.750000  1
  Tm  Tm19  1  0.087039  0.543027  0.750000  1
  Cd  Cd20  1  0.885380  0.769819  0.250000  1
  Cd  Cd21  1  0.230181  0.114620  0.250000  1
  Cd  Cd22  1  0.116112  0.883888  0.750000  1
  Cd  Cd23  1  0.114667  0.230424  0.750000  1
  Cd  Cd24  1  0.769576  0.885333  0.750000  1
  In  In25  1  0.884502  0.115498  0.250000  1
  Ni  Ni26  1  0.333346  0.666654  0.250000  1
  Ni  Ni27  1  0.667433  0.332567  0.750000  1
