# generated using pymatgen
data_K3Rb(Si2Au5)4
_symmetry_space_group_name_H-M   'P 1'
_cell_length_a   7.00022100
_cell_length_b   9.14936049
_cell_length_c   10.58268706
_cell_angle_alpha   89.84293896
_cell_angle_beta   90.00000000
_cell_angle_gamma   90.00000000
_symmetry_Int_Tables_number   1
_chemical_formula_structural   K3Rb(Si2Au5)4
_chemical_formula_sum   'K3 Rb1 Si8 Au20'
_cell_volume   677.79258382
_cell_formula_units_Z   1
loop_
 _symmetry_equiv_pos_site_id
 _symmetry_equiv_pos_as_xyz
  1  'x, y, z'
loop_
 _atom_site_type_symbol
 _atom_site_label
 _atom_site_symmetry_multiplicity
 _atom_site_fract_x
 _atom_site_fract_y
 _atom_site_fract_z
 _atom_site_occupancy
  K  K0  1  0.250000  0.245138  0.120469  1
  K  K1  1  0.250000  0.744818  0.379171  1
  K  K2  1  0.750000  0.754974  0.879619  1
  Rb  Rb3  1  0.750000  0.255062  0.619071  1
  Si  Si4  1  0.250000  0.047505  0.660975  1
  Si  Si5  1  0.250000  0.547331  0.840337  1
  Si  Si6  1  0.750000  0.952094  0.340077  1
  Si  Si7  1  0.750000  0.452484  0.159393  1
  Si  Si8  1  0.250000  0.303668  0.451038  1
  Si  Si9  1  0.250000  0.804779  0.048140  1
  Si  Si10  1  0.750000  0.695323  0.547548  1
  Si  Si11  1  0.750000  0.195777  0.953130  1
  Au  Au12  1  0.043425  0.086437  0.387793  1
  Au  Au13  1  0.457991  0.588988  0.111106  1
  Au  Au14  1  0.539882  0.909816  0.609876  1
  Au  Au15  1  0.958996  0.412317  0.892036  1
  Au  Au16  1  0.960118  0.909816  0.609876  1
  Au  Au17  1  0.541004  0.412317  0.892036  1
  Au  Au18  1  0.456575  0.086437  0.387793  1
  Au  Au19  1  0.042009  0.588988  0.111106  1
  Au  Au20  1  0.034702  0.076810  0.870787  1
  Au  Au21  1  0.463742  0.579745  0.631818  1
  Au  Au22  1  0.534420  0.922336  0.131277  1
  Au  Au23  1  0.968924  0.423893  0.365604  1
  Au  Au24  1  0.965580  0.922336  0.131277  1
  Au  Au25  1  0.531076  0.423893  0.365604  1
  Au  Au26  1  0.465298  0.076810  0.870787  1
  Au  Au27  1  0.036258  0.579745  0.631818  1
  Au  Au28  1  0.250000  0.313597  0.681697  1
  Au  Au29  1  0.250000  0.813410  0.818343  1
  Au  Au30  1  0.750000  0.686732  0.317383  1
  Au  Au31  1  0.750000  0.186622  0.183015  1
