# generated using pymatgen
data_DyBe12Ni
_symmetry_space_group_name_H-M   'P 1'
_cell_length_a   7.28600321
_cell_length_b   7.25110323
_cell_length_c   7.28600352
_cell_angle_alpha   59.61126212
_cell_angle_beta   59.92300170
_cell_angle_gamma   59.61126464
_symmetry_Int_Tables_number   1
_chemical_formula_structural   DyBe12Ni
_chemical_formula_sum   'Dy2 Be24 Ni2'
_cell_volume   270.42106799
_cell_formula_units_Z   2
loop_
 _symmetry_equiv_pos_site_id
 _symmetry_equiv_pos_as_xyz
  1  'x, y, z'
loop_
 _atom_site_type_symbol
 _atom_site_label
 _atom_site_symmetry_multiplicity
 _atom_site_fract_x
 _atom_site_fract_y
 _atom_site_fract_z
 _atom_site_occupancy
  Dy  Dy0  1  0.252085  0.247950  0.253316  1
  Dy  Dy1  1  0.753316  0.747950  0.752085  1
  Be  Be2  1  0.501347  0.500534  0.501437  1
  Be  Be3  1  0.001437  0.000534  0.001347  1
  Be  Be4  1  0.709890  0.934517  0.066565  1
  Be  Be5  1  0.065556  0.936381  0.288020  1
  Be  Be6  1  0.931081  0.064955  0.715356  1
  Be  Be7  1  0.934527  0.291868  0.063794  1
  Be  Be8  1  0.709990  0.062099  0.291273  1
  Be  Be9  1  0.563794  0.791868  0.434527  1
  Be  Be10  1  0.436074  0.791017  0.206818  1
  Be  Be11  1  0.788020  0.436381  0.565556  1
  Be  Be12  1  0.439844  0.207773  0.562922  1
  Be  Be13  1  0.791273  0.562099  0.209990  1
  Be  Be14  1  0.562487  0.206401  0.795520  1
  Be  Be15  1  0.209134  0.436868  0.790489  1
  Be  Be16  1  0.215356  0.564955  0.431081  1
  Be  Be17  1  0.706818  0.291017  0.936074  1
  Be  Be18  1  0.288538  0.067524  0.929802  1
  Be  Be19  1  0.290489  0.936868  0.709134  1
  Be  Be20  1  0.062922  0.707773  0.939844  1
  Be  Be21  1  0.938662  0.704576  0.292021  1
  Be  Be22  1  0.295520  0.706401  0.062487  1
  Be  Be23  1  0.566565  0.434517  0.209890  1
  Be  Be24  1  0.792021  0.204576  0.438662  1
  Be  Be25  1  0.429802  0.567524  0.788538  1
  Ni  Ni26  1  0.202855  0.797537  0.560596  1
  Ni  Ni27  1  0.060596  0.297537  0.702855  1
