# generated using pymatgen
data_Ti3V3Pt2
_symmetry_space_group_name_H-M   'P 1'
_cell_length_a   4.91883700
_cell_length_b   4.90894400
_cell_length_c   4.93899400
_cell_angle_alpha   90.00000000
_cell_angle_beta   90.00000000
_cell_angle_gamma   90.00000000
_symmetry_Int_Tables_number   1
_chemical_formula_structural   Ti3V3Pt2
_chemical_formula_sum   'Ti3 V3 Pt2'
_cell_volume   119.25840799
_cell_formula_units_Z   1
loop_
 _symmetry_equiv_pos_site_id
 _symmetry_equiv_pos_as_xyz
  1  'x, y, z'
loop_
 _atom_site_type_symbol
 _atom_site_label
 _atom_site_symmetry_multiplicity
 _atom_site_fract_x
 _atom_site_fract_y
 _atom_site_fract_z
 _atom_site_occupancy
  Ti  Ti0  1  0.752245  0.500000  0.000000  1
  Ti  Ti1  1  0.499443  0.000000  0.251862  1
  Ti  Ti2  1  0.499443  0.000000  0.748138  1
  V  V3  1  0.000649  0.250405  0.500000  1
  V  V4  1  0.000649  0.749595  0.500000  1
  V  V5  1  0.247770  0.500000  0.000000  1
  Pt  Pt6  1  0.498843  0.500000  0.500000  1
  Pt  Pt7  1  0.000959  0.000000  0.000000  1
