# generated using pymatgen
data_Rb16Hf3ZrSe16
_symmetry_space_group_name_H-M   'P 1'
_cell_length_a   9.02944042
_cell_length_b   10.73414200
_cell_length_c   15.83350700
_cell_angle_alpha   90.00000000
_cell_angle_beta   90.11256185
_cell_angle_gamma   90.00000000
_symmetry_Int_Tables_number   1
_chemical_formula_structural   Rb16Hf3ZrSe16
_chemical_formula_sum   'Rb16 Hf3 Zr1 Se16'
_cell_volume   1534.63271943
_cell_formula_units_Z   1
loop_
 _symmetry_equiv_pos_site_id
 _symmetry_equiv_pos_as_xyz
  1  'x, y, z'
loop_
 _atom_site_type_symbol
 _atom_site_label
 _atom_site_symmetry_multiplicity
 _atom_site_fract_x
 _atom_site_fract_y
 _atom_site_fract_z
 _atom_site_occupancy
  Rb  Rb0  1  0.999859  0.997786  0.000732  1
  Rb  Rb1  1  0.500705  0.001185  0.499716  1
  Rb  Rb2  1  0.999859  0.502214  0.000732  1
  Rb  Rb3  1  0.500705  0.498815  0.499716  1
  Rb  Rb4  1  0.977678  0.750000  0.430012  1
  Rb  Rb5  1  0.477829  0.250000  0.068624  1
  Rb  Rb6  1  0.023477  0.250000  0.569424  1
  Rb  Rb7  1  0.522365  0.750000  0.931512  1
  Rb  Rb8  1  0.849664  0.056574  0.276583  1
  Rb  Rb9  1  0.349841  0.944393  0.223618  1
  Rb  Rb10  1  0.152233  0.555624  0.723504  1
  Rb  Rb11  1  0.649612  0.445024  0.776729  1
  Rb  Rb12  1  0.152233  0.944376  0.723504  1
  Rb  Rb13  1  0.649612  0.054976  0.776729  1
  Rb  Rb14  1  0.849664  0.443426  0.276583  1
  Rb  Rb15  1  0.349841  0.555607  0.223618  1
  Hf  Hf16  1  0.751694  0.750000  0.667306  1
  Hf  Hf17  1  0.248503  0.250000  0.331362  1
  Hf  Hf18  1  0.748489  0.750000  0.168426  1
  Zr  Zr19  1  0.249477  0.250000  0.832484  1
  Se  Se20  1  0.966366  0.250000  0.822458  1
  Se  Se21  1  0.529011  0.250000  0.320956  1
  Se  Se22  1  0.471186  0.750000  0.677128  1
  Se  Se23  1  0.028821  0.750000  0.179298  1
  Se  Se24  1  0.661561  0.555782  0.093226  1
  Se  Se25  1  0.161628  0.443979  0.406555  1
  Se  Se26  1  0.339281  0.054097  0.907923  1
  Se  Se27  1  0.839805  0.944436  0.592915  1
  Se  Se28  1  0.339281  0.445903  0.907923  1
  Se  Se29  1  0.839805  0.555564  0.592915  1
  Se  Se30  1  0.661561  0.944218  0.093226  1
  Se  Se31  1  0.161628  0.056021  0.406555  1
  Se  Se32  1  0.636552  0.750000  0.315671  1
  Se  Se33  1  0.136830  0.250000  0.183667  1
  Se  Se34  1  0.361671  0.250000  0.683409  1
  Se  Se35  1  0.861667  0.750000  0.815263  1
