# generated using pymatgen
data_Ce2Ni2Au
_symmetry_space_group_name_H-M   'P 1'
_cell_length_a   7.30325300
_cell_length_b   7.30325300
_cell_length_c   3.69951900
_cell_angle_alpha   90.00000000
_cell_angle_beta   90.00000000
_cell_angle_gamma   90.00000000
_symmetry_Int_Tables_number   1
_chemical_formula_structural   Ce2Ni2Au
_chemical_formula_sum   'Ce4 Ni4 Au2'
_cell_volume   197.32311087
_cell_formula_units_Z   2
loop_
 _symmetry_equiv_pos_site_id
 _symmetry_equiv_pos_as_xyz
  1  'x, y, z'
loop_
 _atom_site_type_symbol
 _atom_site_label
 _atom_site_symmetry_multiplicity
 _atom_site_fract_x
 _atom_site_fract_y
 _atom_site_fract_z
 _atom_site_occupancy
  Ce  Ce0  1  0.675796  0.175796  0.500000  1
  Ce  Ce1  1  0.175796  0.324204  0.500000  1
  Ce  Ce2  1  0.824204  0.675796  0.500000  1
  Ce  Ce3  1  0.324204  0.824204  0.500000  1
  Ni  Ni4  1  0.875978  0.375978  0.000000  1
  Ni  Ni5  1  0.624022  0.875978  0.000000  1
  Ni  Ni6  1  0.124022  0.624022  0.000000  1
  Ni  Ni7  1  0.375978  0.124022  0.000000  1
  Au  Au8  1  0.000000  0.000000  0.000000  1
  Au  Au9  1  0.500000  0.500000  0.000000  1
