# generated using pymatgen
data_Th3Mg(PdPt)6
_symmetry_space_group_name_H-M   'P 1'
_cell_length_a   5.91152156
_cell_length_b   5.89247615
_cell_length_c   9.66306399
_cell_angle_alpha   89.95531706
_cell_angle_beta   89.97185004
_cell_angle_gamma   119.91358880
_symmetry_Int_Tables_number   1
_chemical_formula_structural   Th3Mg(PdPt)6
_chemical_formula_sum   'Th3 Mg1 Pd6 Pt6'
_cell_volume   291.75596244
_cell_formula_units_Z   1
loop_
 _symmetry_equiv_pos_site_id
 _symmetry_equiv_pos_as_xyz
  1  'x, y, z'
loop_
 _atom_site_type_symbol
 _atom_site_label
 _atom_site_symmetry_multiplicity
 _atom_site_fract_x
 _atom_site_fract_y
 _atom_site_fract_z
 _atom_site_occupancy
  Th  Th0  1  0.000388  0.000766  0.493229  1
  Th  Th1  1  0.000573  0.000951  0.007069  1
  Th  Th2  1  0.665153  0.331482  0.749998  1
  Mg  Mg3  1  0.333891  0.666764  0.250255  1
  Pd  Pd4  1  0.005477  0.503233  0.005242  1
  Pd  Pd5  1  0.823920  0.648151  0.249459  1
  Pd  Pd6  1  0.351521  0.175878  0.248975  1
  Pd  Pd7  1  0.825321  0.174750  0.249370  1
  Pd  Pd8  1  0.652071  0.826118  0.750955  1
  Pd  Pd9  1  0.172704  0.826468  0.750470  1
  Pt  Pt10  1  0.497924  0.503107  0.494450  1
  Pt  Pt11  1  0.497286  0.994876  0.493940  1
  Pt  Pt12  1  0.005545  0.503267  0.494267  1
  Pt  Pt13  1  0.498254  0.503435  0.005519  1
  Pt  Pt14  1  0.497724  0.994938  0.006203  1
  Pt  Pt15  1  0.172248  0.345815  0.750599  1
