# generated using pymatgen
data_Nd2PtRhF14
_symmetry_space_group_name_H-M   'P 1'
_cell_length_a   5.67209327
_cell_length_b   9.17129127
_cell_length_c   12.25774750
_cell_angle_alpha   62.22591211
_cell_angle_beta   90.12948354
_cell_angle_gamma   90.09589031
_symmetry_Int_Tables_number   1
_chemical_formula_structural   Nd2PtRhF14
_chemical_formula_sum   'Nd4 Pt2 Rh2 F28'
_cell_volume   564.18871947
_cell_formula_units_Z   2
loop_
 _symmetry_equiv_pos_site_id
 _symmetry_equiv_pos_as_xyz
  1  'x, y, z'
loop_
 _atom_site_type_symbol
 _atom_site_label
 _atom_site_symmetry_multiplicity
 _atom_site_fract_x
 _atom_site_fract_y
 _atom_site_fract_z
 _atom_site_occupancy
  Nd  Nd0  1  0.259484  0.810044  0.264142  1
  Nd  Nd1  1  0.740516  0.189956  0.735858  1
  Nd  Nd2  1  0.761215  0.188199  0.234498  1
  Nd  Nd3  1  0.238785  0.811801  0.765502  1
  Pt  Pt4  1  0.257669  0.273190  0.457034  1
  Pt  Pt5  1  0.742331  0.726810  0.542966  1
  Rh  Rh6  1  0.755583  0.726585  0.042136  1
  Rh  Rh7  1  0.244417  0.273415  0.957864  1
  F  F8  1  0.931524  0.705904  0.416618  1
  F  F9  1  0.068476  0.294096  0.583382  1
  F  F10  1  0.437455  0.290883  0.083339  1
  F  F11  1  0.562545  0.709117  0.916661  1
  F  F12  1  0.470998  0.732185  0.129941  1
  F  F13  1  0.529002  0.267815  0.870059  1
  F  F14  1  0.968850  0.273365  0.367759  1
  F  F15  1  0.031150  0.726635  0.632241  1
  F  F16  1  0.945493  0.743792  0.169302  1
  F  F17  1  0.054507  0.256208  0.830698  1
  F  F18  1  0.443498  0.258108  0.327166  1
  F  F19  1  0.556502  0.741892  0.672834  1
  F  F20  1  0.763314  0.488987  0.136252  1
  F  F21  1  0.236686  0.511013  0.863748  1
  F  F22  1  0.268477  0.514951  0.360862  1
  F  F23  1  0.731523  0.485049  0.639138  1
  F  F24  1  0.954893  0.283025  0.041800  1
  F  F25  1  0.045107  0.716975  0.958200  1
  F  F26  1  0.448168  0.718669  0.460123  1
  F  F27  1  0.551832  0.281331  0.539877  1
  F  F28  1  0.742870  0.968917  0.451132  1
  F  F29  1  0.257130  0.031083  0.548868  1
  F  F30  1  0.240344  0.035903  0.048438  1
  F  F31  1  0.759656  0.964097  0.951562  1
  F  F32  1  0.591894  0.966827  0.230441  1
  F  F33  1  0.408106  0.033173  0.769559  1
  F  F34  1  0.092325  0.031290  0.269404  1
  F  F35  1  0.907675  0.968710  0.730596  1
