# generated using pymatgen
data_Th3ScNi14
_symmetry_space_group_name_H-M   'P 1'
_cell_length_a   4.95324994
_cell_length_b   4.95325075
_cell_length_c   12.53539799
_cell_angle_alpha   78.60507905
_cell_angle_beta   78.60507768
_cell_angle_gamma   59.99999238
_symmetry_Int_Tables_number   1
_chemical_formula_structural   Th3ScNi14
_chemical_formula_sum   'Th3 Sc1 Ni14'
_cell_volume   259.32419704
_cell_formula_units_Z   1
loop_
 _symmetry_equiv_pos_site_id
 _symmetry_equiv_pos_as_xyz
  1  'x, y, z'
loop_
 _atom_site_type_symbol
 _atom_site_label
 _atom_site_symmetry_multiplicity
 _atom_site_fract_x
 _atom_site_fract_y
 _atom_site_fract_z
 _atom_site_occupancy
  Th  Th0  1  0.949685  0.949685  0.150945  1
  Th  Th1  1  0.052105  0.052105  0.843683  1
  Th  Th2  1  0.851309  0.851309  0.446072  1
  Sc  Sc3  1  0.145296  0.145296  0.564114  1
  Ni  Ni4  1  0.499404  0.499404  0.501788  1
  Ni  Ni5  1  0.722636  0.722636  0.832091  1
  Ni  Ni6  1  0.277844  0.277844  0.166468  1
  Ni  Ni7  1  0.611103  0.611103  0.166691  1
  Ni  Ni8  1  0.389137  0.389137  0.832591  1
  Ni  Ni9  1  0.999708  0.500543  0.999207  1
  Ni  Ni10  1  0.500543  0.999708  0.999207  1
  Ni  Ni11  1  0.500543  0.500543  0.999207  1
  Ni  Ni12  1  0.387803  0.387803  0.333102  1
  Ni  Ni13  1  0.891293  0.387803  0.333102  1
  Ni  Ni14  1  0.387803  0.891293  0.333102  1
  Ni  Ni15  1  0.611673  0.611673  0.666210  1
  Ni  Ni16  1  0.110444  0.611673  0.666210  1
  Ni  Ni17  1  0.611673  0.110444  0.666210  1
