# generated using pymatgen
data_EuMo2Cl7
_symmetry_space_group_name_H-M   'P 1'
_cell_length_a   5.21744404
_cell_length_b   6.21848408
_cell_length_c   11.73210051
_cell_angle_alpha   130.36173848
_cell_angle_beta   105.75297914
_cell_angle_gamma   94.68047638
_symmetry_Int_Tables_number   1
_chemical_formula_structural   EuMo2Cl7
_chemical_formula_sum   'Eu1 Mo2 Cl7'
_cell_volume   261.38323336
_cell_formula_units_Z   1
loop_
 _symmetry_equiv_pos_site_id
 _symmetry_equiv_pos_as_xyz
  1  'x, y, z'
loop_
 _atom_site_type_symbol
 _atom_site_label
 _atom_site_symmetry_multiplicity
 _atom_site_fract_x
 _atom_site_fract_y
 _atom_site_fract_z
 _atom_site_occupancy
  Eu  Eu0  1  0.871085  0.495825  0.780073  1
  Mo  Mo1  1  0.306982  0.053346  0.330353  1
  Mo  Mo2  1  0.115650  0.479389  0.175245  1
  Cl  Cl3  1  0.587253  0.812703  0.377963  1
  Cl  Cl4  1  0.210314  0.277528  0.942044  1
  Cl  Cl5  1  0.254208  0.218398  0.616279  1
  Cl  Cl6  1  0.693939  0.003971  0.956207  1
  Cl  Cl7  1  0.741373  0.500753  0.536713  1
  Cl  Cl8  1  0.852454  0.697933  0.109544  1
  Cl  Cl9  1  0.110181  0.402277  0.346693  1
