# generated using pymatgen
data_Pr3Sn3PtRhAu
_symmetry_space_group_name_H-M   'P 1'
_cell_length_a   7.71403500
_cell_length_b   7.71403501
_cell_length_c   4.18614300
_cell_angle_alpha   90.00000000
_cell_angle_beta   90.00000000
_cell_angle_gamma   120.00000424
_symmetry_Int_Tables_number   1
_chemical_formula_structural   Pr3Sn3PtRhAu
_chemical_formula_sum   'Pr3 Sn3 Pt1 Rh1 Au1'
_cell_volume   215.72867879
_cell_formula_units_Z   1
loop_
 _symmetry_equiv_pos_site_id
 _symmetry_equiv_pos_as_xyz
  1  'x, y, z'
loop_
 _atom_site_type_symbol
 _atom_site_label
 _atom_site_symmetry_multiplicity
 _atom_site_fract_x
 _atom_site_fract_y
 _atom_site_fract_z
 _atom_site_occupancy
  Pr  Pr0  1  0.593118  0.007972  0.500000  1
  Pr  Pr1  1  0.414855  0.406882  0.500000  1
  Pr  Pr2  1  0.992028  0.585145  0.500000  1
  Sn  Sn3  1  0.246032  0.003827  0.000000  1
  Sn  Sn4  1  0.757795  0.753968  0.000000  1
  Sn  Sn5  1  0.996173  0.242205  0.000000  1
  Pt  Pt6  1  0.666667  0.333333  0.000000  1
  Rh  Rh7  1  0.000000  0.000000  0.500000  1
  Au  Au8  1  0.333333  0.666667  0.000000  1
