# generated using pymatgen
data_Hf5ZrAl6(Mo2N)2
_symmetry_space_group_name_H-M   'P 1'
_cell_length_a   7.93100600
_cell_length_b   7.90710701
_cell_length_c   5.35211200
_cell_angle_alpha   90.00000000
_cell_angle_beta   90.00000000
_cell_angle_gamma   120.10004134
_symmetry_Int_Tables_number   1
_chemical_formula_structural   Hf5ZrAl6(Mo2N)2
_chemical_formula_sum   'Hf5 Zr1 Al6 Mo4 N2'
_cell_volume   290.37754642
_cell_formula_units_Z   1
loop_
 _symmetry_equiv_pos_site_id
 _symmetry_equiv_pos_as_xyz
  1  'x, y, z'
loop_
 _atom_site_type_symbol
 _atom_site_label
 _atom_site_symmetry_multiplicity
 _atom_site_fract_x
 _atom_site_fract_y
 _atom_site_fract_z
 _atom_site_occupancy
  Hf  Hf0  1  0.000329  0.230267  0.250000  1
  Hf  Hf1  1  0.770062  0.769733  0.250000  1
  Hf  Hf2  1  0.768317  0.000000  0.750000  1
  Hf  Hf3  1  0.999393  0.770005  0.750000  1
  Hf  Hf4  1  0.229388  0.229995  0.750000  1
  Zr  Zr5  1  0.233073  0.000000  0.250000  1
  Al  Al6  1  0.585862  0.000000  0.250000  1
  Al  Al7  1  0.000277  0.584770  0.250000  1
  Al  Al8  1  0.415507  0.415230  0.250000  1
  Al  Al9  1  0.414688  0.000000  0.750000  1
  Al  Al10  1  0.000297  0.415210  0.750000  1
  Al  Al11  1  0.585086  0.584790  0.750000  1
  Mo  Mo12  1  0.668145  0.334340  0.998772  1
  Mo  Mo13  1  0.333804  0.665660  0.998772  1
  Mo  Mo14  1  0.668145  0.334340  0.501228  1
  Mo  Mo15  1  0.333804  0.665660  0.501228  1
  N  N16  1  0.996911  0.000000  0.998582  1
  N  N17  1  0.996911  0.000000  0.501418  1
