# generated using pymatgen
data_DyTh2Sn3Hg2
_symmetry_space_group_name_H-M   'P 1'
_cell_length_a   6.56326200
_cell_length_b   6.56326099
_cell_length_c   10.37438100
_cell_angle_alpha   90.00000000
_cell_angle_beta   90.00000000
_cell_angle_gamma   102.88196565
_symmetry_Int_Tables_number   1
_chemical_formula_structural   DyTh2Sn3Hg2
_chemical_formula_sum   'Dy2 Th4 Sn6 Hg4'
_cell_volume   435.64338677
_cell_formula_units_Z   2
loop_
 _symmetry_equiv_pos_site_id
 _symmetry_equiv_pos_as_xyz
  1  'x, y, z'
loop_
 _atom_site_type_symbol
 _atom_site_label
 _atom_site_symmetry_multiplicity
 _atom_site_fract_x
 _atom_site_fract_y
 _atom_site_fract_z
 _atom_site_occupancy
  Dy  Dy0  1  0.626225  0.626225  0.250000  1
  Dy  Dy1  1  0.373775  0.373775  0.750000  1
  Th  Th2  1  0.798581  0.201419  0.000000  1
  Th  Th3  1  0.201419  0.798581  0.000000  1
  Th  Th4  1  0.201419  0.798581  0.500000  1
  Th  Th5  1  0.798581  0.201419  0.500000  1
  Sn  Sn6  1  0.070711  0.493802  0.250000  1
  Sn  Sn7  1  0.929289  0.506198  0.750000  1
  Sn  Sn8  1  0.493802  0.070711  0.250000  1
  Sn  Sn9  1  0.506198  0.929289  0.750000  1
  Sn  Sn10  1  0.013159  0.013159  0.250000  1
  Sn  Sn11  1  0.986841  0.986841  0.750000  1
  Hg  Hg12  1  0.313549  0.313549  0.035015  1
  Hg  Hg13  1  0.686451  0.686451  0.964985  1
  Hg  Hg14  1  0.686451  0.686451  0.535015  1
  Hg  Hg15  1  0.313549  0.313549  0.464985  1
