# generated using pymatgen
data_YbTm2Sc(Pt2O7)2
_symmetry_space_group_name_H-M   'P 1'
_cell_length_a   7.20436393
_cell_length_b   7.19300992
_cell_length_c   7.15564030
_cell_angle_alpha   59.82710042
_cell_angle_beta   60.01568925
_cell_angle_gamma   60.05212350
_symmetry_Int_Tables_number   1
_chemical_formula_structural   YbTm2Sc(Pt2O7)2
_chemical_formula_sum   'Yb1 Tm2 Sc1 Pt4 O14'
_cell_volume   261.99368302
_cell_formula_units_Z   1
loop_
 _symmetry_equiv_pos_site_id
 _symmetry_equiv_pos_as_xyz
  1  'x, y, z'
loop_
 _atom_site_type_symbol
 _atom_site_label
 _atom_site_symmetry_multiplicity
 _atom_site_fract_x
 _atom_site_fract_y
 _atom_site_fract_z
 _atom_site_occupancy
  Yb  Yb0  1  0.125000  0.625000  0.625000  1
  Tm  Tm1  1  0.625000  0.625000  0.625000  1
  Tm  Tm2  1  0.625000  0.125000  0.625000  1
  Sc  Sc3  1  0.625000  0.625000  0.125000  1
  Pt  Pt4  1  0.125000  0.125000  0.125000  1
  Pt  Pt5  1  0.625000  0.125000  0.125000  1
  Pt  Pt6  1  0.125000  0.625000  0.125000  1
  Pt  Pt7  1  0.125000  0.125000  0.625000  1
  O  O8  1  0.027581  0.465092  0.465155  1
  O  O9  1  0.782320  0.783120  0.213572  1
  O  O10  1  0.782320  0.220989  0.213572  1
  O  O11  1  0.468262  0.031972  0.467794  1
  O  O12  1  0.027581  0.042171  0.465155  1
  O  O13  1  0.023865  0.464314  0.047506  1
  O  O14  1  0.735321  0.748129  0.768422  1
  O  O15  1  0.514679  0.501871  0.481578  1
  O  O16  1  0.781738  0.218028  0.782206  1
  O  O17  1  0.226135  0.785686  0.202494  1
  O  O18  1  0.222419  0.207829  0.784845  1
  O  O19  1  0.467680  0.029011  0.036428  1
  O  O20  1  0.467680  0.466880  0.036428  1
  O  O21  1  0.222419  0.784908  0.784845  1
