# generated using pymatgen
data_Sm7HoSi16(CN6)4
_symmetry_space_group_name_H-M   'P 1'
_cell_length_a   6.00513442
_cell_length_b   10.04565031
_cell_length_c   12.03775675
_cell_angle_alpha   90.00880626
_cell_angle_beta   119.49206799
_cell_angle_gamma   90.18653234
_symmetry_Int_Tables_number   1
_chemical_formula_structural   Sm7HoSi16(CN6)4
_chemical_formula_sum   'Sm7 Ho1 Si16 C4 N24'
_cell_volume   632.08277182
_cell_formula_units_Z   1
loop_
 _symmetry_equiv_pos_site_id
 _symmetry_equiv_pos_as_xyz
  1  'x, y, z'
loop_
 _atom_site_type_symbol
 _atom_site_label
 _atom_site_symmetry_multiplicity
 _atom_site_fract_x
 _atom_site_fract_y
 _atom_site_fract_z
 _atom_site_occupancy
  Sm  Sm0  1  0.331592  0.917506  0.075106  1
  Sm  Sm1  1  0.329019  0.566000  0.097082  1
  Sm  Sm2  1  0.664427  0.059670  0.402724  1
  Sm  Sm3  1  0.659086  0.412686  0.420213  1
  Sm  Sm4  1  0.335654  0.587543  0.577642  1
  Sm  Sm5  1  0.337267  0.941532  0.601332  1
  Sm  Sm6  1  0.664295  0.438658  0.900986  1
  Ho  Ho7  1  0.658697  0.091237  0.919423  1
  Si  Si8  1  0.835045  0.709945  0.079554  1
  Si  Si9  1  0.676033  0.228623  0.158076  1
  Si  Si10  1  0.196530  0.208790  0.174669  1
  Si  Si11  1  0.005138  0.481564  0.251852  1
  Si  Si12  1  0.992044  0.981032  0.247661  1
  Si  Si13  1  0.802496  0.711394  0.324698  1
  Si  Si14  1  0.324699  0.731887  0.340168  1
  Si  Si15  1  0.162658  0.210200  0.420146  1
  Si  Si16  1  0.834745  0.789348  0.579781  1
  Si  Si17  1  0.673867  0.269150  0.660210  1
  Si  Si18  1  0.194635  0.289452  0.674872  1
  Si  Si19  1  0.010323  0.019393  0.753638  1
  Si  Si20  1  0.993341  0.518031  0.749413  1
  Si  Si21  1  0.807692  0.789122  0.826905  1
  Si  Si22  1  0.327488  0.772132  0.839870  1
  Si  Si23  1  0.164611  0.287077  0.920476  1
  C  C24  1  0.978027  0.793563  0.245405  1
  C  C25  1  0.022789  0.293565  0.254219  1
  C  C26  1  0.979918  0.706900  0.746176  1
  C  C27  1  0.019871  0.206553  0.753763  1
  N  N28  1  0.502452  0.286801  0.000091  1
  N  N29  1  0.037792  0.216203  0.009081  1
  N  N30  1  0.930862  0.542337  0.102646  1
  N  N31  1  0.702866  0.056309  0.136574  1
  N  N32  1  0.229930  0.039663  0.217147  1
  N  N33  1  0.512545  0.264630  0.241574  1
  N  N34  1  0.488395  0.769508  0.256856  1
  N  N35  1  0.770890  0.540867  0.285025  1
  N  N36  1  0.299453  0.558144  0.358326  1
  N  N37  1  0.059974  0.043269  0.396477  1
  N  N38  1  0.959781  0.723437  0.489528  1
  N  N39  1  0.496698  0.792746  0.497612  1
  N  N40  1  0.500723  0.207809  0.503366  1
  N  N41  1  0.037990  0.277682  0.510202  1
  N  N42  1  0.935335  0.956298  0.604547  1
  N  N43  1  0.698360  0.442773  0.642499  1
  N  N44  1  0.226186  0.459705  0.715039  1
  N  N45  1  0.509799  0.231107  0.743528  1
  N  N46  1  0.490061  0.735252  0.756550  1
  N  N47  1  0.784962  0.961341  0.794352  1
  N  N48  1  0.309289  0.946823  0.857197  1
  N  N49  1  0.065620  0.454394  0.898424  1
  N  N50  1  0.969970  0.768139  0.990558  1
  N  N51  1  0.498081  0.712206  0.996738  1
