# generated using pymatgen
data_Tb2ErAl12Os3Rh
_symmetry_space_group_name_H-M   'P 1'
_cell_length_a   8.84870100
_cell_length_b   8.83723285
_cell_length_c   9.56585100
_cell_angle_alpha   90.00000000
_cell_angle_beta   90.00000000
_cell_angle_gamma   120.04293340
_symmetry_Int_Tables_number   1
_chemical_formula_structural   Tb2ErAl12Os3Rh
_chemical_formula_sum   'Tb4 Er2 Al24 Os6 Rh2'
_cell_volume   647.53315908
_cell_formula_units_Z   2
loop_
 _symmetry_equiv_pos_site_id
 _symmetry_equiv_pos_as_xyz
  1  'x, y, z'
loop_
 _atom_site_type_symbol
 _atom_site_label
 _atom_site_symmetry_multiplicity
 _atom_site_fract_x
 _atom_site_fract_y
 _atom_site_fract_z
 _atom_site_occupancy
  Tb  Tb0  1  0.615567  0.802857  0.250000  1
  Tb  Tb1  1  0.384433  0.197143  0.750000  1
  Tb  Tb2  1  0.187291  0.802857  0.250000  1
  Tb  Tb3  1  0.812709  0.197143  0.750000  1
  Er  Er4  1  0.194858  0.389716  0.250000  1
  Er  Er5  1  0.805142  0.610284  0.750000  1
  Al  Al6  1  0.333100  0.666200  0.020317  1
  Al  Al7  1  0.666900  0.333800  0.979683  1
  Al  Al8  1  0.666900  0.333800  0.520317  1
  Al  Al9  1  0.333100  0.666200  0.479683  1
  Al  Al10  1  0.164188  0.328376  0.575519  1
  Al  Al11  1  0.835812  0.671624  0.424481  1
  Al  Al12  1  0.673747  0.835365  0.577026  1
  Al  Al13  1  0.835812  0.671624  0.075519  1
  Al  Al14  1  0.326253  0.164635  0.422974  1
  Al  Al15  1  0.164188  0.328376  0.924481  1
  Al  Al16  1  0.161619  0.835365  0.577026  1
  Al  Al17  1  0.326253  0.164635  0.077026  1
  Al  Al18  1  0.838381  0.164635  0.422974  1
  Al  Al19  1  0.673747  0.835365  0.922974  1
  Al  Al20  1  0.838381  0.164635  0.077026  1
  Al  Al21  1  0.161619  0.835365  0.922974  1
  Al  Al22  1  0.560154  0.120307  0.250000  1
  Al  Al23  1  0.439846  0.879693  0.750000  1
  Al  Al24  1  0.875342  0.436524  0.250000  1
  Al  Al25  1  0.124658  0.563476  0.750000  1
  Al  Al26  1  0.561182  0.436524  0.250000  1
  Al  Al27  1  0.438818  0.563476  0.750000  1
  Al  Al28  1  0.999894  0.999787  0.250000  1
  Al  Al29  1  0.000106  0.000213  0.750000  1
  Os  Os30  1  0.000000  0.500000  0.000000  1
  Os  Os31  1  0.500000  0.500000  0.000000  1
  Os  Os32  1  0.000000  0.500000  0.500000  1
  Os  Os33  1  0.500000  0.500000  0.500000  1
  Os  Os34  1  0.000000  0.000000  0.000000  1
  Os  Os35  1  0.000000  0.000000  0.500000  1
  Rh  Rh36  1  0.500000  0.000000  0.000000  1
  Rh  Rh37  1  0.500000  0.000000  0.500000  1
