# generated using pymatgen
data_Tm10IrRu2Pt3
_symmetry_space_group_name_H-M   'P 1'
_cell_length_a   10.78773072
_cell_length_b   10.78362000
_cell_length_c   6.37466943
_cell_angle_alpha   90.00000000
_cell_angle_beta   89.95799815
_cell_angle_gamma   90.00000000
_symmetry_Int_Tables_number   1
_chemical_formula_structural   Tm10IrRu2Pt3
_chemical_formula_sum   'Tm20 Ir2 Ru4 Pt6'
_cell_volume   741.57012365
_cell_formula_units_Z   2
loop_
 _symmetry_equiv_pos_site_id
 _symmetry_equiv_pos_as_xyz
  1  'x, y, z'
loop_
 _atom_site_type_symbol
 _atom_site_label
 _atom_site_symmetry_multiplicity
 _atom_site_fract_x
 _atom_site_fract_y
 _atom_site_fract_z
 _atom_site_occupancy
  Tm  Tm0  1  0.296755  0.088234  0.374053  1
  Tm  Tm1  1  0.296755  0.911766  0.874053  1
  Tm  Tm2  1  0.703098  0.085128  0.873744  1
  Tm  Tm3  1  0.703098  0.914872  0.373744  1
  Tm  Tm4  1  0.582715  0.794699  0.873464  1
  Tm  Tm5  1  0.582715  0.205301  0.373464  1
  Tm  Tm6  1  0.413075  0.794818  0.377726  1
  Tm  Tm7  1  0.413075  0.205182  0.877726  1
  Tm  Tm8  1  0.207013  0.415696  0.623651  1
  Tm  Tm9  1  0.207013  0.584304  0.123651  1
  Tm  Tm10  1  0.796747  0.414525  0.125161  1
  Tm  Tm11  1  0.796747  0.585475  0.625161  1
  Tm  Tm12  1  0.915163  0.703107  0.125921  1
  Tm  Tm13  1  0.915163  0.296893  0.625921  1
  Tm  Tm14  1  0.088663  0.703238  0.626385  1
  Tm  Tm15  1  0.088663  0.296762  0.126385  1
  Tm  Tm16  1  0.999959  0.999852  0.499975  1
  Tm  Tm17  1  0.999959  0.000148  0.999975  1
  Tm  Tm18  1  0.496716  0.499830  0.999913  1
  Tm  Tm19  1  0.496716  0.500170  0.499913  1
  Ir  Ir20  1  0.347157  0.346190  0.250049  1
  Ir  Ir21  1  0.347157  0.653810  0.750049  1
  Ru  Ru22  1  0.500344  0.000208  0.125830  1
  Ru  Ru23  1  0.500344  0.999792  0.625830  1
  Ru  Ru24  1  0.999408  0.500141  0.874057  1
  Ru  Ru25  1  0.999408  0.499859  0.374057  1
  Pt  Pt26  1  0.846405  0.153289  0.250219  1
  Pt  Pt27  1  0.846405  0.846711  0.750219  1
  Pt  Pt28  1  0.152751  0.153044  0.749753  1
  Pt  Pt29  1  0.152751  0.846956  0.249753  1
  Pt  Pt30  1  0.654034  0.346691  0.750100  1
  Pt  Pt31  1  0.654034  0.653309  0.250100  1
