# generated using pymatgen
data_Dy5Lu6Th5Mg2(TlRu2)2
_symmetry_space_group_name_H-M   'P 1'
_cell_length_a   9.66903727
_cell_length_b   9.70596640
_cell_length_c   9.70596500
_cell_angle_alpha   59.80841239
_cell_angle_beta   60.12577026
_cell_angle_gamma   60.12577363
_symmetry_Int_Tables_number   1
_chemical_formula_structural   Dy5Lu6Th5Mg2(TlRu2)2
_chemical_formula_sum   'Dy5 Lu6 Th5 Mg2 Tl2 Ru4'
_cell_volume   644.36745930
_cell_formula_units_Z   1
loop_
 _symmetry_equiv_pos_site_id
 _symmetry_equiv_pos_as_xyz
  1  'x, y, z'
loop_
 _atom_site_type_symbol
 _atom_site_label
 _atom_site_symmetry_multiplicity
 _atom_site_fract_x
 _atom_site_fract_y
 _atom_site_fract_z
 _atom_site_occupancy
  Dy  Dy0  1  0.561507  0.940291  0.937018  1
  Dy  Dy1  1  0.561402  0.936879  0.564870  1
  Dy  Dy2  1  0.939136  0.564934  0.934486  1
  Dy  Dy3  1  0.559873  0.564845  0.936620  1
  Dy  Dy4  1  0.938068  0.934884  0.565101  1
  Lu  Lu5  1  0.181690  0.815682  0.817901  1
  Lu  Lu6  1  0.190143  0.809115  0.185264  1
  Lu  Lu7  1  0.815116  0.182579  0.811241  1
  Lu  Lu8  1  0.189212  0.183118  0.811466  1
  Lu  Lu9  1  0.812943  0.807773  0.186152  1
  Lu  Lu10  1  0.935649  0.567672  0.563319  1
  Th  Th11  1  0.340832  0.349073  0.351068  1
  Th  Th12  1  0.347086  0.349541  0.956075  1
  Th  Th13  1  0.347158  0.955178  0.350400  1
  Th  Th14  1  0.957668  0.349763  0.350727  1
  Th  Th15  1  0.817079  0.181211  0.184077  1
  Mg  Mg16  1  0.579867  0.264773  0.577274  1
  Mg  Mg17  1  0.263484  0.578151  0.577478  1
  Tl  Tl18  1  0.587309  0.581323  0.587153  1
  Tl  Tl19  1  0.582473  0.582814  0.247227  1
  Ru  Ru20  1  0.130545  0.144891  0.144740  1
  Ru  Ru21  1  0.143031  0.140790  0.571468  1
  Ru  Ru22  1  0.142495  0.569988  0.142942  1
  Ru  Ru23  1  0.576241  0.144729  0.145932  1
