# generated using pymatgen
data_Pr3Y4Sn23Ir6
_symmetry_space_group_name_H-M   'P 1'
_cell_length_a   9.93632203
_cell_length_b   9.93632271
_cell_length_c   10.18039400
_cell_angle_alpha   89.99972683
_cell_angle_beta   90.00027323
_cell_angle_gamma   120.05214457
_symmetry_Int_Tables_number   1
_chemical_formula_structural   Pr3Y4Sn23Ir6
_chemical_formula_sum   'Pr3 Y4 Sn23 Ir6'
_cell_volume   869.99774551
_cell_formula_units_Z   1
loop_
 _symmetry_equiv_pos_site_id
 _symmetry_equiv_pos_as_xyz
  1  'x, y, z'
loop_
 _atom_site_type_symbol
 _atom_site_label
 _atom_site_symmetry_multiplicity
 _atom_site_fract_x
 _atom_site_fract_y
 _atom_site_fract_z
 _atom_site_occupancy
  Pr  Pr0  1  0.999910  0.000090  0.999814  1
  Pr  Pr1  1  0.043720  0.521924  0.307667  1
  Pr  Pr2  1  0.478076  0.956280  0.307667  1
  Y  Y3  1  0.479378  0.520622  0.307364  1
  Y  Y4  1  0.958724  0.479402  0.693398  1
  Y  Y5  1  0.520598  0.041276  0.693398  1
  Y  Y6  1  0.520699  0.479301  0.693121  1
  Sn  Sn7  1  0.999883  0.000117  0.500428  1
  Sn  Sn8  1  0.116794  0.883206  0.283845  1
  Sn  Sn9  1  0.764023  0.880872  0.284024  1
  Sn  Sn10  1  0.119128  0.235977  0.284024  1
  Sn  Sn11  1  0.881446  0.118554  0.716032  1
  Sn  Sn12  1  0.237727  0.119003  0.715987  1
  Sn  Sn13  1  0.880997  0.762273  0.715987  1
  Sn  Sn14  1  0.352698  0.000623  0.999239  1
  Sn  Sn15  1  0.646871  0.647267  0.999557  1
  Sn  Sn16  1  0.000198  0.352652  0.999110  1
  Sn  Sn17  1  0.352733  0.353129  0.999557  1
  Sn  Sn18  1  0.999377  0.647302  0.999239  1
  Sn  Sn19  1  0.647348  0.999802  0.999110  1
  Sn  Sn20  1  0.775873  0.556300  0.455671  1
  Sn  Sn21  1  0.778215  0.221785  0.456861  1
  Sn  Sn22  1  0.443700  0.224127  0.455671  1
  Sn  Sn23  1  0.223128  0.443938  0.546919  1
  Sn  Sn24  1  0.221823  0.778177  0.548176  1
  Sn  Sn25  1  0.556062  0.776872  0.546919  1
  Sn  Sn26  1  0.666317  0.333683  0.174109  1
  Sn  Sn27  1  0.333389  0.666611  0.824780  1
  Sn  Sn28  1  0.666631  0.333369  0.878962  1
  Sn  Sn29  1  0.335176  0.664824  0.116634  1
  Ir  Ir30  1  0.168923  0.831077  0.801617  1
  Ir  Ir31  1  0.662084  0.830924  0.801260  1
  Ir  Ir32  1  0.169076  0.337916  0.801260  1
  Ir  Ir33  1  0.831957  0.168043  0.197227  1
  Ir  Ir34  1  0.337905  0.170588  0.197681  1
  Ir  Ir35  1  0.829412  0.662095  0.197681  1
