# generated using pymatgen
data_Dy15ErIn3HgRh4
_symmetry_space_group_name_H-M   'P 1'
_cell_length_a   9.63304537
_cell_length_b   9.64582086
_cell_length_c   9.63736514
_cell_angle_alpha   60.00512363
_cell_angle_beta   60.01482080
_cell_angle_gamma   60.04380276
_symmetry_Int_Tables_number   1
_chemical_formula_structural   Dy15ErIn3HgRh4
_chemical_formula_sum   'Dy15 Er1 In3 Hg1 Rh4'
_cell_volume   633.51245602
_cell_formula_units_Z   1
loop_
 _symmetry_equiv_pos_site_id
 _symmetry_equiv_pos_as_xyz
  1  'x, y, z'
loop_
 _atom_site_type_symbol
 _atom_site_label
 _atom_site_symmetry_multiplicity
 _atom_site_fract_x
 _atom_site_fract_y
 _atom_site_fract_z
 _atom_site_occupancy
  Dy  Dy0  1  0.688540  0.689046  0.311386  1
  Dy  Dy1  1  0.311028  0.689046  0.311386  1
  Dy  Dy2  1  0.937395  0.937869  0.558908  1
  Dy  Dy3  1  0.150616  0.148864  0.549904  1
  Dy  Dy4  1  0.565829  0.937869  0.558908  1
  Dy  Dy5  1  0.151739  0.150351  0.149508  1
  Dy  Dy6  1  0.309577  0.311108  0.689802  1
  Dy  Dy7  1  0.938549  0.563935  0.558967  1
  Dy  Dy8  1  0.563644  0.562814  0.936086  1
  Dy  Dy9  1  0.564197  0.937072  0.934535  1
  Dy  Dy10  1  0.937457  0.562814  0.936086  1
  Dy  Dy11  1  0.150470  0.550633  0.148426  1
  Dy  Dy12  1  0.309938  0.690189  0.689937  1
  Dy  Dy13  1  0.689514  0.311108  0.689802  1
  Dy  Dy14  1  0.548399  0.150351  0.149508  1
  Er  Er15  1  0.689008  0.311970  0.310013  1
  In  In16  1  0.246222  0.917445  0.919621  1
  In  In17  1  0.916865  0.246155  0.920116  1
  In  In18  1  0.916712  0.917445  0.919621  1
  Hg  Hg19  1  0.913585  0.914434  0.258396  1
  Rh  Rh20  1  0.358117  0.357139  0.357407  1
  Rh  Rh21  1  0.927338  0.357139  0.357407  1
  Rh  Rh22  1  0.357794  0.358328  0.926085  1
  Rh  Rh23  1  0.357471  0.926879  0.358182  1
