# generated using pymatgen
data_PrAl7Ag5
_symmetry_space_group_name_H-M   'P 1'
_cell_length_a   7.10102112
_cell_length_b   7.10102232
_cell_length_c   7.10102210
_cell_angle_alpha   133.67085512
_cell_angle_beta   100.11419207
_cell_angle_gamma   97.69355781
_symmetry_Int_Tables_number   1
_chemical_formula_structural   PrAl7Ag5
_chemical_formula_sum   'Pr1 Al7 Ag5'
_cell_volume   238.04233517
_cell_formula_units_Z   1
loop_
 _symmetry_equiv_pos_site_id
 _symmetry_equiv_pos_as_xyz
  1  'x, y, z'
loop_
 _atom_site_type_symbol
 _atom_site_label
 _atom_site_symmetry_multiplicity
 _atom_site_fract_x
 _atom_site_fract_y
 _atom_site_fract_z
 _atom_site_occupancy
  Pr  Pr0  1  0.999702  0.000000  0.999702  1
  Al  Al1  1  0.643007  0.000000  0.643007  1
  Al  Al2  1  0.352864  0.000000  0.352864  1
  Al  Al3  1  0.349607  0.354211  0.995394  1
  Al  Al4  1  0.641184  0.645789  0.995394  1
  Al  Al5  1  0.775513  0.500000  0.275513  1
  Al  Al6  1  0.790123  0.285053  0.505069  1
  Al  Al7  1  0.220017  0.714947  0.505069  1
  Ag  Ag8  1  0.511388  0.506879  0.501296  1
  Ag  Ag9  1  0.511388  0.010091  0.004509  1
  Ag  Ag10  1  0.994416  0.989909  0.501296  1
  Ag  Ag11  1  0.994416  0.493121  0.004509  1
  Ag  Ag12  1  0.216375  0.500000  0.716375  1
