# generated using pymatgen
data_Ba4CeMn2NiO12
_symmetry_space_group_name_H-M   'P 1'
_cell_length_a   5.87147965
_cell_length_b   5.87148043
_cell_length_c   10.26091285
_cell_angle_alpha   73.37485493
_cell_angle_beta   73.37485056
_cell_angle_gamma   60.00000246
_symmetry_Int_Tables_number   1
_chemical_formula_structural   Ba4CeMn2NiO12
_chemical_formula_sum   'Ba4 Ce1 Mn2 Ni1 O12'
_cell_volume   289.14485276
_cell_formula_units_Z   1
loop_
 _symmetry_equiv_pos_site_id
 _symmetry_equiv_pos_as_xyz
  1  'x, y, z'
loop_
 _atom_site_type_symbol
 _atom_site_label
 _atom_site_symmetry_multiplicity
 _atom_site_fract_x
 _atom_site_fract_y
 _atom_site_fract_z
 _atom_site_occupancy
  Ba  Ba0  1  0.282465  0.282465  0.152606  1
  Ba  Ba1  1  0.131261  0.131261  0.606216  1
  Ba  Ba2  1  0.717535  0.717535  0.847394  1
  Ba  Ba3  1  0.868739  0.868739  0.393784  1
  Ce  Ce4  1  0.000000  0.000000  0.000000  1
  Mn  Mn5  1  0.413708  0.413708  0.758876  1
  Mn  Mn6  1  0.586292  0.586292  0.241124  1
  Ni  Ni7  1  0.500000  0.500000  0.500000  1
  O  O8  1  0.778826  0.778826  0.133950  1
  O  O9  1  0.221174  0.221174  0.866050  1
  O  O10  1  0.778826  0.308399  0.133950  1
  O  O11  1  0.831207  0.396230  0.376333  1
  O  O12  1  0.221174  0.691601  0.866050  1
  O  O13  1  0.396230  0.831207  0.376333  1
  O  O14  1  0.396230  0.396230  0.376333  1
  O  O15  1  0.603770  0.168793  0.623667  1
  O  O16  1  0.603770  0.603770  0.623667  1
  O  O17  1  0.308399  0.778826  0.133950  1
  O  O18  1  0.168793  0.603770  0.623667  1
  O  O19  1  0.691601  0.221174  0.866050  1
