# generated using pymatgen
data_Na2PuH2F8
_symmetry_space_group_name_H-M   'P 1'
_cell_length_a   5.75168913
_cell_length_b   5.75170819
_cell_length_c   5.97716623
_cell_angle_alpha   74.60008265
_cell_angle_beta   74.59953519
_cell_angle_gamma   98.89872497
_symmetry_Int_Tables_number   1
_chemical_formula_structural   Na2PuH2F8
_chemical_formula_sum   'Na2 Pu1 H2 F8'
_cell_volume   178.31545572
_cell_formula_units_Z   1
loop_
 _symmetry_equiv_pos_site_id
 _symmetry_equiv_pos_as_xyz
  1  'x, y, z'
loop_
 _atom_site_type_symbol
 _atom_site_label
 _atom_site_symmetry_multiplicity
 _atom_site_fract_x
 _atom_site_fract_y
 _atom_site_fract_z
 _atom_site_occupancy
  Na  Na0  1  0.719517  0.280482  0.500001  1
  Na  Na1  1  0.280483  0.719518  0.499999  1
  Pu  Pu2  1  0.000000  0.000000  0.000000  1
  H  H3  1  0.347723  0.347720  0.245897  1
  H  H4  1  0.652277  0.652280  0.754103  1
  F  F5  1  0.658304  0.006874  0.249752  1
  F  F6  1  0.164825  0.164823  0.234052  1
  F  F7  1  0.993126  0.341695  0.750249  1
  F  F8  1  0.470515  0.470514  0.274833  1
  F  F9  1  0.529485  0.529486  0.725167  1
  F  F10  1  0.006874  0.658305  0.249751  1
  F  F11  1  0.835175  0.835177  0.765948  1
  F  F12  1  0.341696  0.993126  0.750248  1
