# generated using pymatgen
data_Pr8Sm2Si5Pb
_symmetry_space_group_name_H-M   'P 1'
_cell_length_a   7.81868827
_cell_length_b   7.81868860
_cell_length_c   9.25555995
_cell_angle_alpha   114.98481353
_cell_angle_beta   114.98481068
_cell_angle_gamma   90.00000335
_symmetry_Int_Tables_number   1
_chemical_formula_structural   Pr8Sm2Si5Pb
_chemical_formula_sum   'Pr8 Sm2 Si5 Pb1'
_cell_volume   453.77584924
_cell_formula_units_Z   1
loop_
 _symmetry_equiv_pos_site_id
 _symmetry_equiv_pos_as_xyz
  1  'x, y, z'
loop_
 _atom_site_type_symbol
 _atom_site_label
 _atom_site_symmetry_multiplicity
 _atom_site_fract_x
 _atom_site_fract_y
 _atom_site_fract_z
 _atom_site_occupancy
  Pr  Pr0  1  0.976214  0.828735  0.279302  1
  Pr  Pr1  1  0.303088  0.450566  0.279302  1
  Pr  Pr2  1  0.828735  0.303088  0.279302  1
  Pr  Pr3  1  0.450566  0.976214  0.279302  1
  Pr  Pr4  1  0.049434  0.196912  0.720698  1
  Pr  Pr5  1  0.671265  0.523786  0.720698  1
  Pr  Pr6  1  0.196912  0.671265  0.720698  1
  Pr  Pr7  1  0.523786  0.049434  0.720698  1
  Sm  Sm8  1  0.520520  0.520520  0.041041  1
  Sm  Sm9  1  0.979480  0.979480  0.958959  1
  Si  Si10  1  0.250000  0.250000  0.500000  1
  Si  Si11  1  0.616302  0.883698  0.000000  1
  Si  Si12  1  0.383698  0.116302  0.000000  1
  Si  Si13  1  0.883698  0.383698  0.000000  1
  Si  Si14  1  0.116302  0.616302  0.000000  1
  Pb  Pb15  1  0.750000  0.750000  0.500000  1
