# generated using pymatgen
data_BaLiCeS3
_symmetry_space_group_name_H-M   'P 1'
_cell_length_a   4.20723603
_cell_length_b   7.12369135
_cell_length_c   10.71078233
_cell_angle_alpha   91.02719766
_cell_angle_beta   90.00840816
_cell_angle_gamma   107.16297424
_symmetry_Int_Tables_number   1
_chemical_formula_structural   BaLiCeS3
_chemical_formula_sum   'Ba2 Li2 Ce2 S6'
_cell_volume   306.66418015
_cell_formula_units_Z   2
loop_
 _symmetry_equiv_pos_site_id
 _symmetry_equiv_pos_as_xyz
  1  'x, y, z'
loop_
 _atom_site_type_symbol
 _atom_site_label
 _atom_site_symmetry_multiplicity
 _atom_site_fract_x
 _atom_site_fract_y
 _atom_site_fract_z
 _atom_site_occupancy
  Ba  Ba0  1  0.254417  0.508801  0.256781  1
  Ba  Ba1  1  0.745583  0.491195  0.743229  1
  Li  Li2  1  0.528875  0.057787  0.252242  1
  Li  Li3  1  0.471114  0.942209  0.747757  1
  Ce  Ce4  1  0.000015  0.000021  0.999995  1
  Ce  Ce5  1  0.999984  0.999985  0.500001  1
  S  S6  1  0.630926  0.262163  0.073050  1
  S  S7  1  0.931452  0.862769  0.249622  1
  S  S8  1  0.632107  0.264287  0.436213  1
  S  S9  1  0.367868  0.735676  0.563793  1
  S  S10  1  0.068545  0.137238  0.750368  1
  S  S11  1  0.369095  0.737871  0.926952  1
