# generated using pymatgen
data_Dy2YEr3(AlC3)2
_symmetry_space_group_name_H-M   'P 1'
_cell_length_a   3.55501300
_cell_length_b   7.01512089
_cell_length_c   9.95773605
_cell_angle_alpha   90.05454617
_cell_angle_beta   90.00000000
_cell_angle_gamma   90.00000000
_symmetry_Int_Tables_number   1
_chemical_formula_structural   Dy2YEr3(AlC3)2
_chemical_formula_sum   'Dy2 Y1 Er3 Al2 C6'
_cell_volume   248.33433305
_cell_formula_units_Z   1
loop_
 _symmetry_equiv_pos_site_id
 _symmetry_equiv_pos_as_xyz
  1  'x, y, z'
loop_
 _atom_site_type_symbol
 _atom_site_label
 _atom_site_symmetry_multiplicity
 _atom_site_fract_x
 _atom_site_fract_y
 _atom_site_fract_z
 _atom_site_occupancy
  Dy  Dy0  1  0.000000  0.750157  0.458660  1
  Dy  Dy1  1  0.000000  0.250420  0.541610  1
  Y  Y2  1  0.500000  0.008114  0.800241  1
  Er  Er3  1  0.500000  0.510965  0.201366  1
  Er  Er4  1  0.500000  0.488898  0.799180  1
  Er  Er5  1  0.500000  0.988028  0.199914  1
  Al  Al6  1  0.000000  0.746780  0.005696  1
  Al  Al7  1  0.000000  0.252714  0.995391  1
  C  C8  1  0.500000  0.509611  0.566385  1
  C  C9  1  0.500000  0.490781  0.433815  1
  C  C10  1  0.500000  0.990894  0.564750  1
  C  C11  1  0.500000  0.009904  0.432319  1
  C  C12  1  0.000000  0.749676  0.208644  1
  C  C13  1  0.000000  0.253057  0.792030  1
