# generated using pymatgen
data_Ti2Nb8Si6B
_symmetry_space_group_name_H-M   'P 1'
_cell_length_a   7.59476600
_cell_length_b   7.59476575
_cell_length_c   5.24245900
_cell_angle_alpha   90.00000000
_cell_angle_beta   90.00000000
_cell_angle_gamma   120.00000110
_symmetry_Int_Tables_number   1
_chemical_formula_structural   Ti2Nb8Si6B
_chemical_formula_sum   'Ti2 Nb8 Si6 B1'
_cell_volume   261.87524707
_cell_formula_units_Z   1
loop_
 _symmetry_equiv_pos_site_id
 _symmetry_equiv_pos_as_xyz
  1  'x, y, z'
loop_
 _atom_site_type_symbol
 _atom_site_label
 _atom_site_symmetry_multiplicity
 _atom_site_fract_x
 _atom_site_fract_y
 _atom_site_fract_z
 _atom_site_occupancy
  Ti  Ti0  1  0.666667  0.333333  0.000000  1
  Ti  Ti1  1  0.333333  0.666667  0.000000  1
  Nb  Nb2  1  0.000000  0.753734  0.249108  1
  Nb  Nb3  1  0.246266  0.246266  0.249108  1
  Nb  Nb4  1  0.753734  0.000000  0.249108  1
  Nb  Nb5  1  0.000000  0.246266  0.750892  1
  Nb  Nb6  1  0.753734  0.753734  0.750892  1
  Nb  Nb7  1  0.246266  0.000000  0.750892  1
  Nb  Nb8  1  0.333333  0.666667  0.500000  1
  Nb  Nb9  1  0.666667  0.333333  0.500000  1
  Si  Si10  1  0.000000  0.399401  0.241060  1
  Si  Si11  1  0.600599  0.600599  0.241060  1
  Si  Si12  1  0.399401  0.000000  0.241060  1
  Si  Si13  1  0.000000  0.600599  0.758940  1
  Si  Si14  1  0.399401  0.399401  0.758940  1
  Si  Si15  1  0.600599  0.000000  0.758940  1
  B  B16  1  0.000000  0.000000  0.500000  1
