# generated using pymatgen
data_Hf12Zn10Pd2CN3
_symmetry_space_group_name_H-M   'P 1'
_cell_length_a   8.50846361
_cell_length_b   8.50846297
_cell_length_c   8.57346183
_cell_angle_alpha   60.25048092
_cell_angle_beta   60.25047347
_cell_angle_gamma   60.00000022
_symmetry_Int_Tables_number   1
_chemical_formula_structural   Hf12Zn10Pd2CN3
_chemical_formula_sum   'Hf12 Zn10 Pd2 C1 N3'
_cell_volume   440.53190731
_cell_formula_units_Z   1
loop_
 _symmetry_equiv_pos_site_id
 _symmetry_equiv_pos_as_xyz
  1  'x, y, z'
loop_
 _atom_site_type_symbol
 _atom_site_label
 _atom_site_symmetry_multiplicity
 _atom_site_fract_x
 _atom_site_fract_y
 _atom_site_fract_z
 _atom_site_occupancy
  Hf  Hf0  1  0.814984  0.190329  0.179702  1
  Hf  Hf1  1  0.190329  0.814984  0.179702  1
  Hf  Hf2  1  0.814984  0.814984  0.179702  1
  Hf  Hf3  1  0.189206  0.808844  0.812744  1
  Hf  Hf4  1  0.808844  0.189206  0.812744  1
  Hf  Hf5  1  0.189206  0.189206  0.812744  1
  Hf  Hf6  1  0.435830  0.059582  0.068758  1
  Hf  Hf7  1  0.059582  0.435830  0.068758  1
  Hf  Hf8  1  0.435830  0.435830  0.068758  1
  Hf  Hf9  1  0.063479  0.436786  0.436255  1
  Hf  Hf10  1  0.436786  0.063479  0.436255  1
  Hf  Hf11  1  0.063479  0.063479  0.436255  1
  Zn  Zn12  1  0.417597  0.417597  0.420035  1
  Zn  Zn13  1  0.744770  0.417597  0.420035  1
  Zn  Zn14  1  0.417597  0.744770  0.420035  1
  Zn  Zn15  1  0.834184  0.834184  0.497448  1
  Zn  Zn16  1  0.832683  0.832683  0.831803  1
  Zn  Zn17  1  0.502833  0.832683  0.831803  1
  Zn  Zn18  1  0.832683  0.502833  0.831803  1
  Zn  Zn19  1  0.627989  0.627989  0.621713  1
  Zn  Zn20  1  0.122310  0.627989  0.621713  1
  Zn  Zn21  1  0.627989  0.122310  0.621713  1
  Pd  Pd22  1  0.412949  0.412949  0.761153  1
  Pd  Pd23  1  0.624808  0.624808  0.125574  1
  C  C24  1  0.124593  0.124593  0.626221  1
  N  N25  1  0.124852  0.124852  0.125523  1
  N  N26  1  0.624773  0.124852  0.125523  1
  N  N27  1  0.124852  0.624773  0.125523  1
