# generated using pymatgen
data_Tb5Sn3Te
_symmetry_space_group_name_H-M   'P 1'
_cell_length_a   8.13991400
_cell_length_b   8.18576900
_cell_length_c   15.49775300
_cell_angle_alpha   90.00000000
_cell_angle_beta   90.00000000
_cell_angle_gamma   90.00000000
_symmetry_Int_Tables_number   1
_chemical_formula_structural   Tb5Sn3Te
_chemical_formula_sum   'Tb20 Sn12 Te4'
_cell_volume   1032.63784222
_cell_formula_units_Z   4
loop_
 _symmetry_equiv_pos_site_id
 _symmetry_equiv_pos_as_xyz
  1  'x, y, z'
loop_
 _atom_site_type_symbol
 _atom_site_label
 _atom_site_symmetry_multiplicity
 _atom_site_fract_x
 _atom_site_fract_y
 _atom_site_fract_z
 _atom_site_occupancy
  Tb  Tb0  1  0.383713  0.840419  0.878646  1
  Tb  Tb1  1  0.883713  0.659581  0.621354  1
  Tb  Tb2  1  0.616287  0.159581  0.378646  1
  Tb  Tb3  1  0.116287  0.340419  0.121354  1
  Tb  Tb4  1  0.621797  0.161816  0.121459  1
  Tb  Tb5  1  0.121797  0.338184  0.378541  1
  Tb  Tb6  1  0.378203  0.838184  0.621459  1
  Tb  Tb7  1  0.878203  0.661816  0.878541  1
  Tb  Tb8  1  0.555792  0.328212  0.891870  1
  Tb  Tb9  1  0.055792  0.171788  0.608130  1
  Tb  Tb10  1  0.444208  0.671788  0.391870  1
  Tb  Tb11  1  0.944208  0.828212  0.108130  1
  Tb  Tb12  1  0.472221  0.675816  0.102810  1
  Tb  Tb13  1  0.972221  0.824184  0.397190  1
  Tb  Tb14  1  0.527779  0.324184  0.602810  1
  Tb  Tb15  1  0.027779  0.175816  0.897190  1
  Tb  Tb16  1  0.209241  0.498967  0.746454  1
  Tb  Tb17  1  0.709241  0.001033  0.753546  1
  Tb  Tb18  1  0.790759  0.501033  0.246454  1
  Tb  Tb19  1  0.290759  0.998967  0.253546  1
  Sn  Sn20  1  0.718094  0.969036  0.957225  1
  Sn  Sn21  1  0.218094  0.530964  0.542775  1
  Sn  Sn22  1  0.281906  0.030964  0.457225  1
  Sn  Sn23  1  0.781906  0.469036  0.042775  1
  Sn  Sn24  1  0.576088  0.624633  0.748448  1
  Sn  Sn25  1  0.076088  0.875367  0.751552  1
  Sn  Sn26  1  0.423912  0.375367  0.248448  1
  Sn  Sn27  1  0.923912  0.124633  0.251552  1
  Sn  Sn28  1  0.345957  0.144930  0.753070  1
  Sn  Sn29  1  0.845957  0.355070  0.746930  1
  Sn  Sn30  1  0.654043  0.855070  0.253070  1
  Sn  Sn31  1  0.154043  0.644930  0.246930  1
  Te  Te32  1  0.266147  0.019503  0.047223  1
  Te  Te33  1  0.766147  0.480497  0.452777  1
  Te  Te34  1  0.733853  0.980497  0.547223  1
  Te  Te35  1  0.233853  0.519503  0.952777  1
