# generated using pymatgen
data_Zr4Si3AsRh4
_symmetry_space_group_name_H-M   'P 1'
_cell_length_a   3.94793500
_cell_length_b   6.62134061
_cell_length_c   7.54902303
_cell_angle_alpha   89.53089814
_cell_angle_beta   90.00000000
_cell_angle_gamma   90.00000000
_symmetry_Int_Tables_number   1
_chemical_formula_structural   Zr4Si3AsRh4
_chemical_formula_sum   'Zr4 Si3 As1 Rh4'
_cell_volume   197.32954598
_cell_formula_units_Z   1
loop_
 _symmetry_equiv_pos_site_id
 _symmetry_equiv_pos_as_xyz
  1  'x, y, z'
loop_
 _atom_site_type_symbol
 _atom_site_label
 _atom_site_symmetry_multiplicity
 _atom_site_fract_x
 _atom_site_fract_y
 _atom_site_fract_z
 _atom_site_occupancy
  Zr  Zr0  1  0.250000  0.521040  0.183670  1
  Zr  Zr1  1  0.750000  0.474644  0.814044  1
  Zr  Zr2  1  0.250000  0.021391  0.318078  1
  Zr  Zr3  1  0.750000  0.980086  0.684111  1
  Si  Si4  1  0.750000  0.228307  0.119584  1
  Si  Si5  1  0.250000  0.272571  0.615025  1
  Si  Si6  1  0.750000  0.726726  0.384025  1
  As  As7  1  0.250000  0.765768  0.878276  1
  Rh  Rh8  1  0.750000  0.857498  0.074154  1
  Rh  Rh9  1  0.250000  0.155033  0.938876  1
  Rh  Rh10  1  0.750000  0.352822  0.435041  1
  Rh  Rh11  1  0.250000  0.644114  0.555114  1
