# generated using pymatgen
data_Eu2Sc2(Ga8Pt3)3
_symmetry_space_group_name_H-M   'P 1'
_cell_length_a   7.53657869
_cell_length_b   7.53671686
_cell_length_c   13.21550600
_cell_angle_alpha   84.63131267
_cell_angle_beta   79.25376130
_cell_angle_gamma   59.96924075
_symmetry_Int_Tables_number   1
_chemical_formula_structural   Eu2Sc2(Ga8Pt3)3
_chemical_formula_sum   'Eu2 Sc2 Ga24 Pt9'
_cell_volume   638.48720530
_cell_formula_units_Z   1
loop_
 _symmetry_equiv_pos_site_id
 _symmetry_equiv_pos_as_xyz
  1  'x, y, z'
loop_
 _atom_site_type_symbol
 _atom_site_label
 _atom_site_symmetry_multiplicity
 _atom_site_fract_x
 _atom_site_fract_y
 _atom_site_fract_z
 _atom_site_occupancy
  Eu  Eu0  1  0.394816  0.166615  0.810963  1
  Eu  Eu1  1  0.605184  0.833385  0.189037  1
  Sc  Sc2  1  0.730880  0.499676  0.809076  1
  Sc  Sc3  1  0.269120  0.500324  0.190924  1
  Ga  Ga4  1  0.685636  0.827549  0.937946  1
  Ga  Ga5  1  0.314364  0.172451  0.062054  1
  Ga  Ga6  1  0.146473  0.832504  0.561224  1
  Ga  Ga7  1  0.853527  0.167496  0.438776  1
  Ga  Ga8  1  0.478980  0.166579  0.557933  1
  Ga  Ga9  1  0.521020  0.833421  0.442067  1
  Ga  Ga10  1  0.222493  0.168620  0.322552  1
  Ga  Ga11  1  0.777507  0.831380  0.677448  1
  Ga  Ga12  1  0.439666  0.503972  0.676938  1
  Ga  Ga13  1  0.560334  0.496028  0.323062  1
  Ga  Ga14  1  0.102742  0.166417  0.677155  1
  Ga  Ga15  1  0.897258  0.833583  0.322845  1
  Ga  Ga16  1  0.361966  0.497174  0.939314  1
  Ga  Ga17  1  0.638034  0.502826  0.060686  1
  Ga  Ga18  1  0.014097  0.174292  0.943394  1
  Ga  Ga19  1  0.985903  0.825708  0.056606  1
  Ga  Ga20  1  0.186315  0.500018  0.440881  1
  Ga  Ga21  1  0.813685  0.499982  0.559119  1
  Ga  Ga22  1  0.733462  0.169746  0.182412  1
  Ga  Ga23  1  0.266538  0.830254  0.817588  1
  Ga  Ga24  1  0.057140  0.631085  0.816978  1
  Ga  Ga25  1  0.942860  0.368915  0.183022  1
  Ga  Ga26  1  0.856128  0.043337  0.817030  1
  Ga  Ga27  1  0.143872  0.956663  0.182970  1
  Pt  Pt28  1  0.118935  0.494802  0.638585  1
  Pt  Pt29  1  0.881065  0.505198  0.361415  1
  Pt  Pt30  1  0.662637  0.167248  0.999834  1
  Pt  Pt31  1  0.337363  0.832752  0.000166  1
  Pt  Pt32  1  0.540766  0.167229  0.361011  1
  Pt  Pt33  1  0.459234  0.832771  0.638989  1
  Pt  Pt34  1  0.780862  0.172900  0.637047  1
  Pt  Pt35  1  0.219138  0.827100  0.362953  1
  Pt  Pt36  1  0.000000  0.500000  0.000000  1
