# generated using pymatgen
data_Sc10GaSi4Se
_symmetry_space_group_name_H-M   'P 1'
_cell_length_a   7.94732448
_cell_length_b   7.93484660
_cell_length_c   5.84531200
_cell_angle_alpha   90.00000000
_cell_angle_beta   90.00000000
_cell_angle_gamma   119.98228347
_symmetry_Int_Tables_number   1
_chemical_formula_structural   Sc10GaSi4Se
_chemical_formula_sum   'Sc10 Ga1 Si4 Se1'
_cell_volume   319.28264540
_cell_formula_units_Z   1
loop_
 _symmetry_equiv_pos_site_id
 _symmetry_equiv_pos_as_xyz
  1  'x, y, z'
loop_
 _atom_site_type_symbol
 _atom_site_label
 _atom_site_symmetry_multiplicity
 _atom_site_fract_x
 _atom_site_fract_y
 _atom_site_fract_z
 _atom_site_occupancy
  Sc  Sc0  1  0.329168  0.663912  0.996109  1
  Sc  Sc1  1  0.668672  0.337048  0.503909  1
  Sc  Sc2  1  0.668672  0.337048  0.996091  1
  Sc  Sc3  1  0.329168  0.663912  0.503891  1
  Sc  Sc4  1  0.236801  0.998778  0.250000  1
  Sc  Sc5  1  0.239897  0.242087  0.750000  1
  Sc  Sc6  1  0.997175  0.756438  0.750000  1
  Sc  Sc7  1  0.006587  0.247431  0.250000  1
  Sc  Sc8  1  0.763139  0.754817  0.250000  1
  Sc  Sc9  1  0.757979  0.999038  0.750000  1
  Ga  Ga10  1  0.398238  0.397769  0.250000  1
  Si  Si11  1  0.603626  0.606207  0.750000  1
  Si  Si12  1  0.997432  0.392805  0.750000  1
  Si  Si13  1  0.000117  0.603313  0.250000  1
  Si  Si14  1  0.390344  0.999869  0.750000  1
  Se  Se15  1  0.612983  0.999525  0.250000  1
