# generated using pymatgen
data_ErFe4P3Ru
_symmetry_space_group_name_H-M   'P 1'
_cell_length_a   3.70374300
_cell_length_b   10.34293800
_cell_length_c   11.80450100
_cell_angle_alpha   90.00000000
_cell_angle_beta   90.00000000
_cell_angle_gamma   90.00000000
_symmetry_Int_Tables_number   1
_chemical_formula_structural   ErFe4P3Ru
_chemical_formula_sum   'Er4 Fe16 P12 Ru4'
_cell_volume   452.20191620
_cell_formula_units_Z   4
loop_
 _symmetry_equiv_pos_site_id
 _symmetry_equiv_pos_as_xyz
  1  'x, y, z'
loop_
 _atom_site_type_symbol
 _atom_site_label
 _atom_site_symmetry_multiplicity
 _atom_site_fract_x
 _atom_site_fract_y
 _atom_site_fract_z
 _atom_site_occupancy
  Er  Er0  1  0.250000  0.581631  0.704026  1
  Er  Er1  1  0.250000  0.918369  0.204026  1
  Er  Er2  1  0.750000  0.418369  0.295974  1
  Er  Er3  1  0.750000  0.081631  0.795974  1
  Fe  Fe4  1  0.250000  0.405698  0.489387  1
  Fe  Fe5  1  0.250000  0.094303  0.989387  1
  Fe  Fe6  1  0.750000  0.594302  0.510613  1
  Fe  Fe7  1  0.750000  0.905698  0.010613  1
  Fe  Fe8  1  0.250000  0.219818  0.175910  1
  Fe  Fe9  1  0.250000  0.280182  0.675910  1
  Fe  Fe10  1  0.750000  0.780182  0.824090  1
  Fe  Fe11  1  0.750000  0.719818  0.324090  1
  Fe  Fe12  1  0.250000  0.877980  0.703456  1
  Fe  Fe13  1  0.250000  0.622020  0.203456  1
  Fe  Fe14  1  0.750000  0.122020  0.296544  1
  Fe  Fe15  1  0.750000  0.377980  0.796544  1
  Fe  Fe16  1  0.250000  0.462554  0.932632  1
  Fe  Fe17  1  0.250000  0.037446  0.432632  1
  Fe  Fe18  1  0.750000  0.537446  0.067368  1
  Fe  Fe19  1  0.750000  0.962554  0.567368  1
  P  P20  1  0.250000  0.424366  0.114840  1
  P  P21  1  0.250000  0.075634  0.614840  1
  P  P22  1  0.750000  0.575634  0.885160  1
  P  P23  1  0.750000  0.924366  0.385160  1
  P  P24  1  0.250000  0.265788  0.867556  1
  P  P25  1  0.250000  0.234212  0.367556  1
  P  P26  1  0.750000  0.734212  0.132444  1
  P  P27  1  0.750000  0.765788  0.632444  1
  P  P28  1  0.250000  0.595455  0.394318  1
  P  P29  1  0.250000  0.904545  0.894318  1
  P  P30  1  0.750000  0.404545  0.605682  1
  P  P31  1  0.750000  0.095455  0.105682  1
  Ru  Ru32  1  0.250000  0.707918  0.987858  1
  Ru  Ru33  1  0.250000  0.792082  0.487858  1
  Ru  Ru34  1  0.750000  0.292082  0.012142  1
  Ru  Ru35  1  0.750000  0.207918  0.512142  1
