# generated using pymatgen
data_La4GaGePd28
_symmetry_space_group_name_H-M   'P 1'
_cell_length_a   9.03625000
_cell_length_b   9.03625000
_cell_length_c   7.24446000
_cell_angle_alpha   90.00000000
_cell_angle_beta   90.00000000
_cell_angle_gamma   90.00000000
_symmetry_Int_Tables_number   1
_chemical_formula_structural   La4GaGePd28
_chemical_formula_sum   'La4 Ga1 Ge1 Pd28'
_cell_volume   591.53778982
_cell_formula_units_Z   1
loop_
 _symmetry_equiv_pos_site_id
 _symmetry_equiv_pos_as_xyz
  1  'x, y, z'
loop_
 _atom_site_type_symbol
 _atom_site_label
 _atom_site_symmetry_multiplicity
 _atom_site_fract_x
 _atom_site_fract_y
 _atom_site_fract_z
 _atom_site_occupancy
  La  La0  1  0.500000  0.000000  0.937240  1
  La  La1  1  0.000000  0.500000  0.061706  1
  La  La2  1  0.000000  0.000000  0.499675  1
  La  La3  1  0.500000  0.500000  0.499675  1
  Ga  Ga4  1  0.500000  0.000000  0.449279  1
  Ge  Ge5  1  0.000000  0.500000  0.550268  1
  Pd  Pd6  1  0.329020  0.829020  0.622684  1
  Pd  Pd7  1  0.329020  0.170980  0.622684  1
  Pd  Pd8  1  0.670980  0.829020  0.622684  1
  Pd  Pd9  1  0.670980  0.170980  0.622684  1
  Pd  Pd10  1  0.169362  0.669362  0.378654  1
  Pd  Pd11  1  0.169362  0.330638  0.378654  1
  Pd  Pd12  1  0.830638  0.669362  0.378654  1
  Pd  Pd13  1  0.830638  0.330638  0.378654  1
  Pd  Pd14  1  0.500000  0.765033  0.252730  1
  Pd  Pd15  1  0.500000  0.234967  0.252730  1
  Pd  Pd16  1  0.265033  0.000000  0.252730  1
  Pd  Pd17  1  0.734967  0.000000  0.252730  1
  Pd  Pd18  1  0.000000  0.733085  0.746414  1
  Pd  Pd19  1  0.000000  0.266915  0.746414  1
  Pd  Pd20  1  0.233085  0.500000  0.746414  1
  Pd  Pd21  1  0.766915  0.500000  0.746414  1
  Pd  Pd22  1  0.500000  0.349352  0.856725  1
  Pd  Pd23  1  0.500000  0.650648  0.856725  1
  Pd  Pd24  1  0.849352  0.000000  0.856725  1
  Pd  Pd25  1  0.150648  0.000000  0.856725  1
  Pd  Pd26  1  0.000000  0.151178  0.142818  1
  Pd  Pd27  1  0.000000  0.848822  0.142818  1
  Pd  Pd28  1  0.651178  0.500000  0.142818  1
  Pd  Pd29  1  0.348822  0.500000  0.142818  1
  Pd  Pd30  1  0.250020  0.750020  0.000514  1
  Pd  Pd31  1  0.250020  0.249980  0.000514  1
  Pd  Pd32  1  0.749980  0.750020  0.000514  1
  Pd  Pd33  1  0.749980  0.249980  0.000514  1
