# generated using pymatgen
data_Ce2Al20Tc3Ir
_symmetry_space_group_name_H-M   'P 1'
_cell_length_a   6.91455264
_cell_length_b   6.92951947
_cell_length_c   9.22308668
_cell_angle_alpha   90.15135538
_cell_angle_beta   90.19037374
_cell_angle_gamma   97.11720978
_symmetry_Int_Tables_number   1
_chemical_formula_structural   Ce2Al20Tc3Ir
_chemical_formula_sum   'Ce2 Al20 Tc3 Ir1'
_cell_volume   438.51024552
_cell_formula_units_Z   1
loop_
 _symmetry_equiv_pos_site_id
 _symmetry_equiv_pos_as_xyz
  1  'x, y, z'
loop_
 _atom_site_type_symbol
 _atom_site_label
 _atom_site_symmetry_multiplicity
 _atom_site_fract_x
 _atom_site_fract_y
 _atom_site_fract_z
 _atom_site_occupancy
  Ce  Ce0  1  0.877242  0.130093  0.748384  1
  Ce  Ce1  1  0.122758  0.869907  0.251616  1
  Al  Al2  1  0.591598  0.861140  0.250740  1
  Al  Al3  1  0.779577  0.520216  0.248872  1
  Al  Al4  1  0.156478  0.841281  0.899135  1
  Al  Al5  1  0.408402  0.138860  0.749260  1
  Al  Al6  1  0.623866  0.379257  0.952333  1
  Al  Al7  1  0.840601  0.158143  0.399574  1
  Al  Al8  1  0.774984  0.773400  0.001019  1
  Al  Al9  1  0.861171  0.591048  0.749934  1
  Al  Al10  1  0.843522  0.158719  0.100865  1
  Al  Al11  1  0.220423  0.479784  0.751128  1
  Al  Al12  1  0.159399  0.841857  0.600426  1
  Al  Al13  1  0.773087  0.772812  0.500350  1
  Al  Al14  1  0.478083  0.218907  0.252820  1
  Al  Al15  1  0.622776  0.376756  0.547018  1
  Al  Al16  1  0.226913  0.227188  0.499650  1
  Al  Al17  1  0.377224  0.623244  0.452982  1
  Al  Al18  1  0.138829  0.408952  0.250066  1
  Al  Al19  1  0.521917  0.781093  0.747180  1
  Al  Al20  1  0.376134  0.620743  0.047667  1
  Al  Al21  1  0.225016  0.226600  0.998981  1
  Tc  Tc22  1  0.500000  0.000000  0.500000  1
  Tc  Tc23  1  0.000000  0.500000  0.000000  1
  Tc  Tc24  1  0.000000  0.500000  0.500000  1
  Ir  Ir25  1  0.500000  0.000000  0.000000  1
