# generated using pymatgen
data_YbNbOsF12
_symmetry_space_group_name_H-M   'P 1'
_cell_length_a   11.47531385
_cell_length_b   5.71638541
_cell_length_c   5.73359700
_cell_angle_alpha   57.51992341
_cell_angle_beta   57.42010022
_cell_angle_gamma   57.39883487
_symmetry_Int_Tables_number   1
_chemical_formula_structural   YbNbOsF12
_chemical_formula_sum   'Yb1 Nb1 Os1 F12'
_cell_volume   250.32364790
_cell_formula_units_Z   1
loop_
 _symmetry_equiv_pos_site_id
 _symmetry_equiv_pos_as_xyz
  1  'x, y, z'
loop_
 _atom_site_type_symbol
 _atom_site_label
 _atom_site_symmetry_multiplicity
 _atom_site_fract_x
 _atom_site_fract_y
 _atom_site_fract_z
 _atom_site_occupancy
  Yb  Yb0  1  0.750076  0.495831  0.503913  1
  Nb  Nb1  1  0.479327  0.020255  0.008353  1
  Os  Os2  1  0.010879  0.987989  0.996507  1
  F  F3  1  0.171087  0.119326  0.770932  1
  F  F4  1  0.662350  0.132647  0.776073  1
  F  F5  1  0.063805  0.770602  0.333283  1
  F  F6  1  0.567512  0.768981  0.325771  1
  F  F7  1  0.117346  0.657819  0.878318  1
  F  F8  1  0.615124  0.672583  0.868212  1
  F  F9  1  0.439823  0.226922  0.655055  1
  F  F10  1  0.940002  0.224086  0.664052  1
  F  F11  1  0.324758  0.872170  0.242719  1
  F  F12  1  0.836317  0.869070  0.227386  1
  F  F13  1  0.383332  0.350404  0.123376  1
  F  F14  1  0.888261  0.331312  0.126050  1
