# generated using pymatgen
data_Sr3CdSnO6
_symmetry_space_group_name_H-M   'P 1'
_cell_length_a   6.96200720
_cell_length_b   6.96200705
_cell_length_c   6.96200615
_cell_angle_alpha   91.31157821
_cell_angle_beta   91.31157045
_cell_angle_gamma   91.31157337
_symmetry_Int_Tables_number   1
_chemical_formula_structural   Sr3CdSnO6
_chemical_formula_sum   'Sr6 Cd2 Sn2 O12'
_cell_volume   337.17591266
_cell_formula_units_Z   2
loop_
 _symmetry_equiv_pos_site_id
 _symmetry_equiv_pos_as_xyz
  1  'x, y, z'
loop_
 _atom_site_type_symbol
 _atom_site_label
 _atom_site_symmetry_multiplicity
 _atom_site_fract_x
 _atom_site_fract_y
 _atom_site_fract_z
 _atom_site_occupancy
  Sr  Sr0  1  0.394637  0.105363  0.750000  1
  Sr  Sr1  1  0.105363  0.750000  0.394637  1
  Sr  Sr2  1  0.750000  0.394637  0.105363  1
  Sr  Sr3  1  0.605363  0.894637  0.250000  1
  Sr  Sr4  1  0.250000  0.605363  0.894637  1
  Sr  Sr5  1  0.894637  0.250000  0.605363  1
  Cd  Cd6  1  0.750000  0.750000  0.750000  1
  Cd  Cd7  1  0.250000  0.250000  0.250000  1
  Sn  Sn8  1  0.500000  0.500000  0.500000  1
  Sn  Sn9  1  0.000000  0.000000  0.000000  1
  O  O10  1  0.949032  0.082075  0.287685  1
  O  O11  1  0.287685  0.949032  0.082075  1
  O  O12  1  0.082075  0.287685  0.949032  1
  O  O13  1  0.550968  0.212315  0.417925  1
  O  O14  1  0.417925  0.550968  0.212315  1
  O  O15  1  0.212315  0.417925  0.550968  1
  O  O16  1  0.050968  0.917925  0.712315  1
  O  O17  1  0.712315  0.050968  0.917925  1
  O  O18  1  0.917925  0.712315  0.050968  1
  O  O19  1  0.449032  0.787685  0.582075  1
  O  O20  1  0.787685  0.582075  0.449032  1
  O  O21  1  0.582075  0.449032  0.787685  1
