# generated using pymatgen
data_TbFe2MoP3Rh2
_symmetry_space_group_name_H-M   'P 1'
_cell_length_a   3.81806400
_cell_length_b   10.62467600
_cell_length_c   12.31129300
_cell_angle_alpha   90.00000000
_cell_angle_beta   90.00000000
_cell_angle_gamma   90.00000000
_symmetry_Int_Tables_number   1
_chemical_formula_structural   TbFe2MoP3Rh2
_chemical_formula_sum   'Tb4 Fe8 Mo4 P12 Rh8'
_cell_volume   499.41613162
_cell_formula_units_Z   4
loop_
 _symmetry_equiv_pos_site_id
 _symmetry_equiv_pos_as_xyz
  1  'x, y, z'
loop_
 _atom_site_type_symbol
 _atom_site_label
 _atom_site_symmetry_multiplicity
 _atom_site_fract_x
 _atom_site_fract_y
 _atom_site_fract_z
 _atom_site_occupancy
  Tb  Tb0  1  0.250000  0.578932  0.708943  1
  Tb  Tb1  1  0.250000  0.921068  0.208943  1
  Tb  Tb2  1  0.750000  0.421068  0.291057  1
  Tb  Tb3  1  0.750000  0.078932  0.791057  1
  Fe  Fe4  1  0.250000  0.881537  0.696074  1
  Fe  Fe5  1  0.250000  0.618463  0.196074  1
  Fe  Fe6  1  0.750000  0.118463  0.303926  1
  Fe  Fe7  1  0.750000  0.381537  0.803926  1
  Fe  Fe8  1  0.250000  0.462907  0.936926  1
  Fe  Fe9  1  0.250000  0.037093  0.436926  1
  Fe  Fe10  1  0.750000  0.537093  0.063074  1
  Fe  Fe11  1  0.750000  0.962907  0.563074  1
  Mo  Mo12  1  0.250000  0.699904  0.990121  1
  Mo  Mo13  1  0.250000  0.800096  0.490121  1
  Mo  Mo14  1  0.750000  0.300096  0.009879  1
  Mo  Mo15  1  0.750000  0.199904  0.509879  1
  P  P16  1  0.250000  0.433926  0.112410  1
  P  P17  1  0.250000  0.066074  0.612410  1
  P  P18  1  0.750000  0.566074  0.887590  1
  P  P19  1  0.750000  0.933926  0.387590  1
  P  P20  1  0.250000  0.273817  0.866904  1
  P  P21  1  0.250000  0.226183  0.366904  1
  P  P22  1  0.750000  0.726183  0.133096  1
  P  P23  1  0.750000  0.773817  0.633096  1
  P  P24  1  0.250000  0.601937  0.383616  1
  P  P25  1  0.250000  0.898063  0.883616  1
  P  P26  1  0.750000  0.398063  0.616384  1
  P  P27  1  0.750000  0.101937  0.116384  1
  Rh  Rh28  1  0.250000  0.405317  0.482629  1
  Rh  Rh29  1  0.250000  0.094683  0.982629  1
  Rh  Rh30  1  0.750000  0.594683  0.517371  1
  Rh  Rh31  1  0.750000  0.905317  0.017371  1
  Rh  Rh32  1  0.250000  0.227685  0.178557  1
  Rh  Rh33  1  0.250000  0.272315  0.678557  1
  Rh  Rh34  1  0.750000  0.772315  0.821443  1
  Rh  Rh35  1  0.750000  0.727685  0.321443  1
