# generated using pymatgen
data_Lu2Si14TcIr5
_symmetry_space_group_name_H-M   'P 1'
_cell_length_a   7.98011040
_cell_length_b   7.98011149
_cell_length_c   8.06432705
_cell_angle_alpha   56.85385912
_cell_angle_beta   56.85384975
_cell_angle_gamma   57.07440640
_symmetry_Int_Tables_number   1
_chemical_formula_structural   Lu2Si14TcIr5
_chemical_formula_sum   'Lu2 Si14 Tc1 Ir5'
_cell_volume   337.39704923
_cell_formula_units_Z   1
loop_
 _symmetry_equiv_pos_site_id
 _symmetry_equiv_pos_as_xyz
  1  'x, y, z'
loop_
 _atom_site_type_symbol
 _atom_site_label
 _atom_site_symmetry_multiplicity
 _atom_site_fract_x
 _atom_site_fract_y
 _atom_site_fract_z
 _atom_site_occupancy
  Lu  Lu0  1  0.000830  0.002967  0.997147  1
  Lu  Lu1  1  0.497033  0.499170  0.502853  1
  Si  Si2  1  0.754319  0.745681  0.750000  1
  Si  Si3  1  0.249376  0.250624  0.250000  1
  Si  Si4  1  0.848799  0.065123  0.672880  1
  Si  Si5  1  0.671622  0.852880  0.063495  1
  Si  Si6  1  0.061682  0.670692  0.851958  1
  Si  Si7  1  0.647120  0.828378  0.436505  1
  Si  Si8  1  0.434877  0.651201  0.827120  1
  Si  Si9  1  0.829308  0.438318  0.648042  1
  Si  Si10  1  0.171884  0.562139  0.355633  1
  Si  Si11  1  0.566869  0.350505  0.170845  1
  Si  Si12  1  0.351996  0.174743  0.563299  1
  Si  Si13  1  0.937861  0.328116  0.144367  1
  Si  Si14  1  0.325257  0.148004  0.936701  1
  Si  Si15  1  0.149495  0.933131  0.329155  1
  Tc  Tc16  1  0.078295  0.421705  0.750000  1
  Ir  Ir17  1  0.249930  0.926729  0.572491  1
  Ir  Ir18  1  0.573271  0.250070  0.927509  1
  Ir  Ir19  1  0.923790  0.576210  0.250000  1
  Ir  Ir20  1  0.427013  0.750627  0.072460  1
  Ir  Ir21  1  0.749373  0.072987  0.427540  1
