# generated using pymatgen
data_TbY2Co8P6Ru
_symmetry_space_group_name_H-M   'P 1'
_cell_length_a   3.70470300
_cell_length_b   10.51589500
_cell_length_c   12.23964700
_cell_angle_alpha   90.00000000
_cell_angle_beta   90.00000000
_cell_angle_gamma   90.00000000
_symmetry_Int_Tables_number   1
_chemical_formula_structural   TbY2Co8P6Ru
_chemical_formula_sum   'Tb2 Y4 Co16 P12 Ru2'
_cell_volume   476.83544504
_cell_formula_units_Z   2
loop_
 _symmetry_equiv_pos_site_id
 _symmetry_equiv_pos_as_xyz
  1  'x, y, z'
loop_
 _atom_site_type_symbol
 _atom_site_label
 _atom_site_symmetry_multiplicity
 _atom_site_fract_x
 _atom_site_fract_y
 _atom_site_fract_z
 _atom_site_occupancy
  Tb  Tb0  1  0.000000  0.500000  0.524260  1
  Tb  Tb1  1  0.500000  0.000000  0.475740  1
  Y  Y2  1  0.500000  0.817017  0.206663  1
  Y  Y3  1  0.500000  0.182983  0.206663  1
  Y  Y4  1  0.000000  0.682983  0.793337  1
  Y  Y5  1  0.000000  0.317017  0.793337  1
  Co  Co6  1  0.500000  0.500000  0.704179  1
  Co  Co7  1  0.000000  0.000000  0.295821  1
  Co  Co8  1  0.000000  0.500000  0.986379  1
  Co  Co9  1  0.500000  0.000000  0.013621  1
  Co  Co10  1  0.500000  0.332513  0.990735  1
  Co  Co11  1  0.500000  0.667487  0.990735  1
  Co  Co12  1  0.000000  0.167487  0.009265  1
  Co  Co13  1  0.000000  0.832513  0.009265  1
  Co  Co14  1  0.500000  0.297042  0.430871  1
  Co  Co15  1  0.500000  0.702958  0.430871  1
  Co  Co16  1  0.000000  0.202958  0.569129  1
  Co  Co17  1  0.000000  0.797042  0.569129  1
  Co  Co18  1  0.500000  0.879325  0.708230  1
  Co  Co19  1  0.500000  0.120675  0.708230  1
  Co  Co20  1  0.000000  0.620675  0.291770  1
  Co  Co21  1  0.000000  0.379325  0.291770  1
  P  P22  1  0.500000  0.500000  0.882231  1
  P  P23  1  0.000000  0.000000  0.117769  1
  P  P24  1  0.500000  0.500000  0.349284  1
  P  P25  1  0.000000  0.000000  0.650716  1
  P  P26  1  0.500000  0.310918  0.616067  1
  P  P27  1  0.500000  0.689082  0.616067  1
  P  P28  1  0.000000  0.189082  0.383933  1
  P  P29  1  0.000000  0.810918  0.383933  1
  P  P30  1  0.500000  0.846660  0.893802  1
  P  P31  1  0.500000  0.153340  0.893802  1
  P  P32  1  0.000000  0.653340  0.106198  1
  P  P33  1  0.000000  0.346660  0.106198  1
  Ru  Ru34  1  0.500000  0.500000  0.159042  1
  Ru  Ru35  1  0.000000  0.000000  0.840958  1
