# generated using pymatgen
data_Yb2Ga9CoIr2
_symmetry_space_group_name_H-M   'P 1'
_cell_length_a   7.47594169
_cell_length_b   7.47593966
_cell_length_c   9.60908700
_cell_angle_alpha   90.00000000
_cell_angle_beta   90.00000000
_cell_angle_gamma   120.02030508
_symmetry_Int_Tables_number   1
_chemical_formula_structural   Yb2Ga9CoIr2
_chemical_formula_sum   'Yb4 Ga18 Co2 Ir4'
_cell_volume   465.00278452
_cell_formula_units_Z   2
loop_
 _symmetry_equiv_pos_site_id
 _symmetry_equiv_pos_as_xyz
  1  'x, y, z'
loop_
 _atom_site_type_symbol
 _atom_site_label
 _atom_site_symmetry_multiplicity
 _atom_site_fract_x
 _atom_site_fract_y
 _atom_site_fract_z
 _atom_site_occupancy
  Yb  Yb0  1  0.998248  0.657496  0.250000  1
  Yb  Yb1  1  0.001752  0.342504  0.750000  1
  Yb  Yb2  1  0.657495  0.998248  0.250000  1
  Yb  Yb3  1  0.342505  0.001752  0.750000  1
  Ga  Ga4  1  0.107721  0.107721  0.250000  1
  Ga  Ga5  1  0.892279  0.892279  0.750000  1
  Ga  Ga6  1  0.000918  0.323002  0.073553  1
  Ga  Ga7  1  0.999082  0.676998  0.926447  1
  Ga  Ga8  1  0.999082  0.676998  0.573553  1
  Ga  Ga9  1  0.323002  0.000918  0.426448  1
  Ga  Ga10  1  0.000918  0.323002  0.426447  1
  Ga  Ga11  1  0.676998  0.999082  0.573552  1
  Ga  Ga12  1  0.676998  0.999082  0.926448  1
  Ga  Ga13  1  0.323002  0.000918  0.073552  1
  Ga  Ga14  1  0.325662  0.325662  0.561539  1
  Ga  Ga15  1  0.674338  0.674338  0.438461  1
  Ga  Ga16  1  0.674338  0.674338  0.061539  1
  Ga  Ga17  1  0.325662  0.325662  0.938461  1
  Ga  Ga18  1  0.336497  0.541154  0.250000  1
  Ga  Ga19  1  0.663503  0.458846  0.750000  1
  Ga  Ga20  1  0.541154  0.336497  0.250000  1
  Ga  Ga21  1  0.458846  0.663503  0.750000  1
  Co  Co22  1  0.000000  0.000000  0.000000  1
  Co  Co23  1  0.000000  0.000000  0.500000  1
  Ir  Ir24  1  0.672118  0.327882  0.000000  1
  Ir  Ir25  1  0.327882  0.672118  0.000000  1
  Ir  Ir26  1  0.327882  0.672118  0.500000  1
  Ir  Ir27  1  0.672118  0.327882  0.500000  1
