# generated using pymatgen
data_Lu2NpO6
_symmetry_space_group_name_H-M   'P 1'
_cell_length_a   9.36829400
_cell_length_b   9.36829349
_cell_length_c   5.01998500
_cell_angle_alpha   90.00000000
_cell_angle_beta   90.00000000
_cell_angle_gamma   120.00000182
_symmetry_Int_Tables_number   1
_chemical_formula_structural   Lu2NpO6
_chemical_formula_sum   'Lu6 Np3 O18'
_cell_volume   381.55227059
_cell_formula_units_Z   3
loop_
 _symmetry_equiv_pos_site_id
 _symmetry_equiv_pos_as_xyz
  1  'x, y, z'
loop_
 _atom_site_type_symbol
 _atom_site_label
 _atom_site_symmetry_multiplicity
 _atom_site_fract_x
 _atom_site_fract_y
 _atom_site_fract_z
 _atom_site_occupancy
  Lu  Lu0  1  0.000000  0.631410  0.000000  1
  Lu  Lu1  1  0.000000  0.294004  0.500000  1
  Lu  Lu2  1  0.368590  0.368590  0.000000  1
  Lu  Lu3  1  0.294004  0.000000  0.500000  1
  Lu  Lu4  1  0.705996  0.705996  0.500000  1
  Lu  Lu5  1  0.631410  0.000000  0.000000  1
  Np  Np6  1  0.333333  0.666667  0.504160  1
  Np  Np7  1  0.000000  0.000000  0.000000  1
  Np  Np8  1  0.666667  0.333333  0.495840  1
  O  O9  1  0.091262  0.876796  0.779631  1
  O  O10  1  0.217050  0.765983  0.280304  1
  O  O11  1  0.119620  0.537391  0.728510  1
  O  O12  1  0.417771  0.880380  0.728510  1
  O  O13  1  0.234017  0.451067  0.280304  1
  O  O14  1  0.123204  0.214466  0.779631  1
  O  O15  1  0.214466  0.123204  0.220369  1
  O  O16  1  0.548933  0.782950  0.280304  1
  O  O17  1  0.462609  0.582229  0.728510  1
  O  O18  1  0.785534  0.908738  0.779631  1
  O  O19  1  0.451067  0.234017  0.719696  1
  O  O20  1  0.582229  0.462609  0.271490  1
  O  O21  1  0.537391  0.119620  0.271490  1
  O  O22  1  0.782950  0.548933  0.719696  1
  O  O23  1  0.908738  0.785534  0.220369  1
  O  O24  1  0.765983  0.217050  0.719696  1
  O  O25  1  0.880380  0.417771  0.271490  1
  O  O26  1  0.876796  0.091262  0.220369  1
