# generated using pymatgen
data_HfGa(MoC)2
_symmetry_space_group_name_H-M   'P 1'
_cell_length_a   3.10178000
_cell_length_b   3.10177976
_cell_length_c   18.82584700
_cell_angle_alpha   90.00000000
_cell_angle_beta   90.00000000
_cell_angle_gamma   120.00000256
_symmetry_Int_Tables_number   1
_chemical_formula_structural   HfGa(MoC)2
_chemical_formula_sum   'Hf2 Ga2 Mo4 C4'
_cell_volume   156.85815211
_cell_formula_units_Z   2
loop_
 _symmetry_equiv_pos_site_id
 _symmetry_equiv_pos_as_xyz
  1  'x, y, z'
loop_
 _atom_site_type_symbol
 _atom_site_label
 _atom_site_symmetry_multiplicity
 _atom_site_fract_x
 _atom_site_fract_y
 _atom_site_fract_z
 _atom_site_occupancy
  Hf  Hf0  1  0.000000  0.000000  0.000000  1
  Hf  Hf1  1  0.000000  0.000000  0.500000  1
  Ga  Ga2  1  0.000000  0.000000  0.250000  1
  Ga  Ga3  1  0.000000  0.000000  0.750000  1
  Mo  Mo4  1  0.333334  0.666668  0.137727  1
  Mo  Mo5  1  0.333334  0.666668  0.362273  1
  Mo  Mo6  1  0.666667  0.333332  0.637727  1
  Mo  Mo7  1  0.666667  0.333332  0.862273  1
  C  C8  1  0.666667  0.333332  0.074559  1
  C  C9  1  0.666667  0.333332  0.425441  1
  C  C10  1  0.333334  0.666668  0.574558  1
  C  C11  1  0.333334  0.666668  0.925442  1
