# generated using pymatgen
data_Tb4NiHg
_symmetry_space_group_name_H-M   'P 1'
_cell_length_a   9.54851117
_cell_length_b   9.54851168
_cell_length_c   9.54851100
_cell_angle_alpha   59.99999888
_cell_angle_beta   59.99999712
_cell_angle_gamma   59.99999784
_symmetry_Int_Tables_number   1
_chemical_formula_structural   Tb4NiHg
_chemical_formula_sum   'Tb16 Ni4 Hg4'
_cell_volume   615.59059861
_cell_formula_units_Z   4
loop_
 _symmetry_equiv_pos_site_id
 _symmetry_equiv_pos_as_xyz
  1  'x, y, z'
loop_
 _atom_site_type_symbol
 _atom_site_label
 _atom_site_symmetry_multiplicity
 _atom_site_fract_x
 _atom_site_fract_y
 _atom_site_fract_z
 _atom_site_occupancy
  Tb  Tb0  1  0.349695  0.349695  0.349695  1
  Tb  Tb1  1  0.349695  0.349695  0.950914  1
  Tb  Tb2  1  0.349695  0.950914  0.349695  1
  Tb  Tb3  1  0.950914  0.349695  0.349695  1
  Tb  Tb4  1  0.810121  0.189879  0.189879  1
  Tb  Tb5  1  0.189879  0.810121  0.810121  1
  Tb  Tb6  1  0.189879  0.810121  0.189879  1
  Tb  Tb7  1  0.810121  0.189879  0.810121  1
  Tb  Tb8  1  0.189879  0.189879  0.810121  1
  Tb  Tb9  1  0.810121  0.810121  0.189879  1
  Tb  Tb10  1  0.936858  0.563142  0.563142  1
  Tb  Tb11  1  0.563142  0.936858  0.936858  1
  Tb  Tb12  1  0.563142  0.936858  0.563142  1
  Tb  Tb13  1  0.936858  0.563142  0.936858  1
  Tb  Tb14  1  0.563142  0.563142  0.936858  1
  Tb  Tb15  1  0.936858  0.936858  0.563142  1
  Ni  Ni16  1  0.142617  0.142617  0.142617  1
  Ni  Ni17  1  0.142617  0.142617  0.572150  1
  Ni  Ni18  1  0.142617  0.572150  0.142617  1
  Ni  Ni19  1  0.572150  0.142617  0.142617  1
  Hg  Hg20  1  0.584748  0.584748  0.584748  1
  Hg  Hg21  1  0.584748  0.584748  0.245756  1
  Hg  Hg22  1  0.584748  0.245756  0.584748  1
  Hg  Hg23  1  0.245756  0.584748  0.584748  1
