# generated using pymatgen
data_Zr24As3PtSe8
_symmetry_space_group_name_H-M   'P 1'
_cell_length_a   3.73403700
_cell_length_b   12.63748647
_cell_length_c   15.63161800
_cell_angle_alpha   89.85321368
_cell_angle_beta   90.00000000
_cell_angle_gamma   90.00000000
_symmetry_Int_Tables_number   1
_chemical_formula_structural   Zr24As3PtSe8
_chemical_formula_sum   'Zr24 As3 Pt1 Se8'
_cell_volume   737.63553247
_cell_formula_units_Z   1
loop_
 _symmetry_equiv_pos_site_id
 _symmetry_equiv_pos_as_xyz
  1  'x, y, z'
loop_
 _atom_site_type_symbol
 _atom_site_label
 _atom_site_symmetry_multiplicity
 _atom_site_fract_x
 _atom_site_fract_y
 _atom_site_fract_z
 _atom_site_occupancy
  Zr  Zr0  1  0.000000  0.345086  0.478455  1
  Zr  Zr1  1  0.000000  0.648012  0.522645  1
  Zr  Zr2  1  0.500000  0.152395  0.979537  1
  Zr  Zr3  1  0.500000  0.848594  0.020745  1
  Zr  Zr4  1  0.000000  0.083706  0.577291  1
  Zr  Zr5  1  0.000000  0.915130  0.420833  1
  Zr  Zr6  1  0.500000  0.416191  0.076840  1
  Zr  Zr7  1  0.500000  0.583989  0.924018  1
  Zr  Zr8  1  0.000000  0.694083  0.294843  1
  Zr  Zr9  1  0.000000  0.306155  0.704182  1
  Zr  Zr10  1  0.500000  0.807572  0.796637  1
  Zr  Zr11  1  0.500000  0.194692  0.203685  1
  Zr  Zr12  1  0.000000  0.030933  0.109152  1
  Zr  Zr13  1  0.000000  0.969431  0.890104  1
  Zr  Zr14  1  0.500000  0.469186  0.607868  1
  Zr  Zr15  1  0.500000  0.527248  0.393775  1
  Zr  Zr16  1  0.000000  0.618412  0.077681  1
  Zr  Zr17  1  0.000000  0.380961  0.922495  1
  Zr  Zr18  1  0.500000  0.883257  0.579548  1
  Zr  Zr19  1  0.500000  0.118988  0.423460  1
  Zr  Zr20  1  0.000000  0.408639  0.240791  1
  Zr  Zr21  1  0.000000  0.589054  0.758222  1
  Zr  Zr22  1  0.500000  0.088225  0.743180  1
  Zr  Zr23  1  0.500000  0.918300  0.250831  1
  As  As24  1  0.000000  0.256773  0.085089  1
  As  As25  1  0.000000  0.743760  0.914746  1
  As  As26  1  0.500000  0.243314  0.584903  1
  Pt  Pt27  1  0.500000  0.759625  0.414994  1
  Se  Se28  1  0.000000  0.814743  0.150347  1
  Se  Se29  1  0.000000  0.185112  0.849621  1
  Se  Se30  1  0.500000  0.685141  0.652784  1
  Se  Se31  1  0.500000  0.312979  0.349291  1
  Se  Se32  1  0.000000  0.072659  0.292089  1
  Se  Se33  1  0.000000  0.930365  0.708984  1
  Se  Se34  1  0.500000  0.431003  0.791769  1
  Se  Se35  1  0.500000  0.566288  0.208570  1
