# generated using pymatgen
data_CeCrFeB6
_symmetry_space_group_name_H-M   'P 1'
_cell_length_a   5.43936793
_cell_length_b   5.43936875
_cell_length_c   5.43936908
_cell_angle_alpha   146.64802709
_cell_angle_beta   108.38942346
_cell_angle_gamma   81.32770417
_symmetry_Int_Tables_number   1
_chemical_formula_structural   CeCrFeB6
_chemical_formula_sum   'Ce1 Cr1 Fe1 B6'
_cell_volume   81.97607114
_cell_formula_units_Z   1
loop_
 _symmetry_equiv_pos_site_id
 _symmetry_equiv_pos_as_xyz
  1  'x, y, z'
loop_
 _atom_site_type_symbol
 _atom_site_label
 _atom_site_symmetry_multiplicity
 _atom_site_fract_x
 _atom_site_fract_y
 _atom_site_fract_z
 _atom_site_occupancy
  Ce  Ce0  1  0.001254  0.001254  0.000000  1
  Cr  Cr1  1  0.342418  0.842419  0.500000  1
  Fe  Fe2  1  0.652341  0.152341  0.500000  1
  B  B3  1  0.544748  0.303599  0.241149  1
  B  B4  1  0.466396  0.697503  0.768893  1
  B  B5  1  0.928609  0.697503  0.231107  1
  B  B6  1  0.359976  0.500892  0.859084  1
  B  B7  1  0.641808  0.500892  0.140916  1
  B  B8  1  0.062450  0.303599  0.758851  1
