# generated using pymatgen
data_Eu5YHfO12
_symmetry_space_group_name_H-M   'P 1'
_cell_length_a   6.65470885
_cell_length_b   6.62019812
_cell_length_c   6.59802233
_cell_angle_alpha   98.79650986
_cell_angle_beta   98.96747272
_cell_angle_gamma   99.09596834
_symmetry_Int_Tables_number   1
_chemical_formula_structural   Eu5YHfO12
_chemical_formula_sum   'Eu5 Y1 Hf1 O12'
_cell_volume   278.77754421
_cell_formula_units_Z   1
loop_
 _symmetry_equiv_pos_site_id
 _symmetry_equiv_pos_as_xyz
  1  'x, y, z'
loop_
 _atom_site_type_symbol
 _atom_site_label
 _atom_site_symmetry_multiplicity
 _atom_site_fract_x
 _atom_site_fract_y
 _atom_site_fract_z
 _atom_site_occupancy
  Eu  Eu0  1  0.395587  0.864900  0.704791  1
  Eu  Eu1  1  0.702669  0.397857  0.861413  1
  Eu  Eu2  1  0.294648  0.601294  0.136542  1
  Eu  Eu3  1  0.603627  0.136124  0.296801  1
  Eu  Eu4  1  0.865754  0.703477  0.398133  1
  Y  Y5  1  0.132754  0.291501  0.609926  1
  Hf  Hf6  1  0.999176  0.001458  0.002663  1
  O  O7  1  0.068557  0.307016  0.946374  1
  O  O8  1  0.049812  0.937248  0.691411  1
  O  O9  1  0.403946  0.562785  0.820914  1
  O  O10  1  0.176994  0.584614  0.435396  1
  O  O11  1  0.693906  0.047634  0.932433  1
  O  O12  1  0.434027  0.176864  0.588890  1
  O  O13  1  0.565648  0.821806  0.410472  1
  O  O14  1  0.307776  0.951533  0.066204  1
  O  O15  1  0.822841  0.410023  0.565464  1
  O  O16  1  0.591350  0.435459  0.175088  1
  O  O17  1  0.958235  0.074732  0.308607  1
  O  O18  1  0.932691  0.693672  0.048477  1
