# generated using pymatgen
data_LaMnSe2F
_symmetry_space_group_name_H-M   'P 1'
_cell_length_a   6.53731007
_cell_length_b   6.53731054
_cell_length_c   8.56836493
_cell_angle_alpha   88.83987109
_cell_angle_beta   88.83987093
_cell_angle_gamma   35.93835475
_symmetry_Int_Tables_number   1
_chemical_formula_structural   LaMnSe2F
_chemical_formula_sum   'La2 Mn2 Se4 F2'
_cell_volume   214.86841471
_cell_formula_units_Z   2
loop_
 _symmetry_equiv_pos_site_id
 _symmetry_equiv_pos_as_xyz
  1  'x, y, z'
loop_
 _atom_site_type_symbol
 _atom_site_label
 _atom_site_symmetry_multiplicity
 _atom_site_fract_x
 _atom_site_fract_y
 _atom_site_fract_z
 _atom_site_occupancy
  La  La0  1  0.244168  0.244168  0.229706  1
  La  La1  1  0.755832  0.755832  0.770294  1
  Mn  Mn2  1  0.500000  0.500000  0.000000  1
  Mn  Mn3  1  0.000000  0.000000  0.500000  1
  Se  Se4  1  0.940489  0.940489  0.194930  1
  Se  Se5  1  0.643142  0.643142  0.448895  1
  Se  Se6  1  0.356858  0.356858  0.551104  1
  Se  Se7  1  0.059511  0.059511  0.805070  1
  F  F8  1  0.683290  0.683290  0.068779  1
  F  F9  1  0.316710  0.316710  0.931221  1
