# generated using pymatgen
data_Dy5Y14ThSn16
_symmetry_space_group_name_H-M   'P 1'
_cell_length_a   8.06970170
_cell_length_b   8.20561540
_cell_length_c   15.52050900
_cell_angle_alpha   90.01210069
_cell_angle_beta   89.84194422
_cell_angle_gamma   89.94193912
_symmetry_Int_Tables_number   1
_chemical_formula_structural   Dy5Y14ThSn16
_chemical_formula_sum   'Dy5 Y14 Th1 Sn16'
_cell_volume   1027.71504328
_cell_formula_units_Z   1
loop_
 _symmetry_equiv_pos_site_id
 _symmetry_equiv_pos_as_xyz
  1  'x, y, z'
loop_
 _atom_site_type_symbol
 _atom_site_label
 _atom_site_symmetry_multiplicity
 _atom_site_fract_x
 _atom_site_fract_y
 _atom_site_fract_z
 _atom_site_occupancy
  Dy  Dy0  1  0.366188  0.836272  0.877385  1
  Dy  Dy1  1  0.867185  0.663533  0.621743  1
  Dy  Dy2  1  0.632676  0.163050  0.377731  1
  Dy  Dy3  1  0.134189  0.336853  0.122628  1
  Dy  Dy4  1  0.634161  0.163174  0.122717  1
  Y  Y5  1  0.133071  0.337284  0.377819  1
  Y  Y6  1  0.367362  0.836853  0.622035  1
  Y  Y7  1  0.866185  0.662846  0.877618  1
  Y  Y8  1  0.520739  0.322158  0.902860  1
  Y  Y9  1  0.021592  0.178683  0.597889  1
  Y  Y10  1  0.479295  0.678303  0.402515  1
  Y  Y11  1  0.980397  0.821369  0.097696  1
  Y  Y12  1  0.480506  0.678772  0.097498  1
  Y  Y13  1  0.979424  0.821233  0.402520  1
  Y  Y14  1  0.520480  0.321934  0.596594  1
  Y  Y15  1  0.198005  0.501461  0.749415  1
  Y  Y16  1  0.697639  0.997216  0.749290  1
  Y  Y17  1  0.801933  0.497939  0.250350  1
  Y  Y18  1  0.302103  0.001975  0.250207  1
  Th  Th19  1  0.017777  0.179585  0.903903  1
  Sn  Sn20  1  0.295299  0.035926  0.042132  1
  Sn  Sn21  1  0.792725  0.463179  0.458267  1
  Sn  Sn22  1  0.707414  0.964287  0.541675  1
  Sn  Sn23  1  0.207253  0.537536  0.958507  1
  Sn  Sn24  1  0.703363  0.960839  0.959172  1
  Sn  Sn25  1  0.206621  0.536933  0.541743  1
  Sn  Sn26  1  0.293327  0.036623  0.458378  1
  Sn  Sn27  1  0.794088  0.462142  0.041367  1
  Sn  Sn28  1  0.564479  0.619691  0.749939  1
  Sn  Sn29  1  0.064480  0.879817  0.750365  1
  Sn  Sn30  1  0.435407  0.381172  0.249904  1
  Sn  Sn31  1  0.935103  0.118856  0.249969  1
  Sn  Sn32  1  0.331332  0.147583  0.749965  1
  Sn  Sn33  1  0.827829  0.354917  0.748447  1
  Sn  Sn34  1  0.670345  0.852851  0.249912  1
  Sn  Sn35  1  0.170024  0.647152  0.249849  1
