# generated using pymatgen
data_TmThAl3Re
_symmetry_space_group_name_H-M   'P 1'
_cell_length_a   5.50375900
_cell_length_b   5.50375829
_cell_length_c   9.06821500
_cell_angle_alpha   90.00000000
_cell_angle_beta   90.00000000
_cell_angle_gamma   120.00001029
_symmetry_Int_Tables_number   1
_chemical_formula_structural   TmThAl3Re
_chemical_formula_sum   'Tm2 Th2 Al6 Re2'
_cell_volume   237.88724469
_cell_formula_units_Z   2
loop_
 _symmetry_equiv_pos_site_id
 _symmetry_equiv_pos_as_xyz
  1  'x, y, z'
loop_
 _atom_site_type_symbol
 _atom_site_label
 _atom_site_symmetry_multiplicity
 _atom_site_fract_x
 _atom_site_fract_y
 _atom_site_fract_z
 _atom_site_occupancy
  Tm  Tm0  1  0.666667  0.333333  0.443326  1
  Tm  Tm1  1  0.333333  0.666667  0.556674  1
  Th  Th2  1  0.333333  0.666667  0.956284  1
  Th  Th3  1  0.666667  0.333333  0.043716  1
  Al  Al4  1  0.674889  0.837444  0.257643  1
  Al  Al5  1  0.162556  0.837444  0.257643  1
  Al  Al6  1  0.162556  0.325111  0.257643  1
  Al  Al7  1  0.325111  0.162556  0.742357  1
  Al  Al8  1  0.837444  0.162556  0.742357  1
  Al  Al9  1  0.837444  0.674889  0.742357  1
  Re  Re10  1  0.000000  0.000000  0.500000  1
  Re  Re11  1  0.000000  0.000000  0.000000  1
