# generated using pymatgen
data_Er10In8AgPt3
_symmetry_space_group_name_H-M   'P 1'
_cell_length_a   3.59932200
_cell_length_b   8.15097898
_cell_length_c   18.23295217
_cell_angle_alpha   89.94399707
_cell_angle_beta   90.00000000
_cell_angle_gamma   90.00000000
_symmetry_Int_Tables_number   1
_chemical_formula_structural   Er10In8AgPt3
_chemical_formula_sum   'Er10 In8 Ag1 Pt3'
_cell_volume   534.91805791
_cell_formula_units_Z   1
loop_
 _symmetry_equiv_pos_site_id
 _symmetry_equiv_pos_as_xyz
  1  'x, y, z'
loop_
 _atom_site_type_symbol
 _atom_site_label
 _atom_site_symmetry_multiplicity
 _atom_site_fract_x
 _atom_site_fract_y
 _atom_site_fract_z
 _atom_site_occupancy
  Er  Er0  1  0.000000  0.121139  0.422987  1
  Er  Er1  1  0.000000  0.884973  0.586037  1
  Er  Er2  1  0.000000  0.384757  0.914411  1
  Er  Er3  1  0.000000  0.618325  0.082422  1
  Er  Er4  1  0.000000  0.254886  0.214895  1
  Er  Er5  1  0.000000  0.757087  0.779280  1
  Er  Er6  1  0.000000  0.257507  0.721457  1
  Er  Er7  1  0.000000  0.721661  0.280519  1
  Er  Er8  1  0.000000  0.999222  0.999077  1
  Er  Er9  1  0.000000  0.501273  0.500864  1
  In  In10  1  0.500000  0.414021  0.352822  1
  In  In11  1  0.500000  0.576871  0.648432  1
  In  In12  1  0.500000  0.077339  0.851582  1
  In  In13  1  0.500000  0.921996  0.148711  1
  In  In14  1  0.500000  0.292040  0.063676  1
  In  In15  1  0.500000  0.708809  0.932498  1
  In  In16  1  0.500000  0.211269  0.568707  1
  In  In17  1  0.500000  0.792813  0.433539  1
  Ag  Ag18  1  0.500000  0.025336  0.302349  1
  Pt  Pt19  1  0.500000  0.975618  0.697185  1
  Pt  Pt20  1  0.500000  0.476133  0.803435  1
  Pt  Pt21  1  0.500000  0.526927  0.195114  1
