# generated using pymatgen
data_Nd2ThIn3Ni2Rh
_symmetry_space_group_name_H-M   'P 1'
_cell_length_a   7.50697155
_cell_length_b   7.54103280
_cell_length_c   4.00991100
_cell_angle_alpha   90.00000000
_cell_angle_beta   90.00000000
_cell_angle_gamma   118.52452454
_symmetry_Int_Tables_number   1
_chemical_formula_structural   Nd2ThIn3Ni2Rh
_chemical_formula_sum   'Nd2 Th1 In3 Ni2 Rh1'
_cell_volume   199.44715963
_cell_formula_units_Z   1
loop_
 _symmetry_equiv_pos_site_id
 _symmetry_equiv_pos_as_xyz
  1  'x, y, z'
loop_
 _atom_site_type_symbol
 _atom_site_label
 _atom_site_symmetry_multiplicity
 _atom_site_fract_x
 _atom_site_fract_y
 _atom_site_fract_z
 _atom_site_occupancy
  Nd  Nd0  1  0.411301  0.000258  0.500000  1
  Nd  Nd1  1  0.999105  0.411195  0.500000  1
  Th  Th2  1  0.582455  0.585358  0.500000  1
  In  In3  1  0.757195  0.010702  0.000000  1
  In  In4  1  0.003098  0.752697  0.000000  1
  In  In5  1  0.238269  0.235695  0.000000  1
  Ni  Ni6  1  0.662488  0.351835  0.000000  1
  Ni  Ni7  1  0.990995  0.989251  0.500000  1
  Rh  Rh8  1  0.355094  0.663009  0.000000  1
