# generated using pymatgen
data_Tm9Th7(CdTc)4
_symmetry_space_group_name_H-M   'P 1'
_cell_length_a   9.68932008
_cell_length_b   9.67440423
_cell_length_c   9.74950368
_cell_angle_alpha   59.71615277
_cell_angle_beta   60.06215301
_cell_angle_gamma   60.41439862
_symmetry_Int_Tables_number   1
_chemical_formula_structural   Tm9Th7(CdTc)4
_chemical_formula_sum   'Tm9 Th7 Cd4 Tc4'
_cell_volume   647.11970465
_cell_formula_units_Z   1
loop_
 _symmetry_equiv_pos_site_id
 _symmetry_equiv_pos_as_xyz
  1  'x, y, z'
loop_
 _atom_site_type_symbol
 _atom_site_label
 _atom_site_symmetry_multiplicity
 _atom_site_fract_x
 _atom_site_fract_y
 _atom_site_fract_z
 _atom_site_occupancy
  Tm  Tm0  1  0.808444  0.189942  0.808676  1
  Tm  Tm1  1  0.191558  0.195274  0.804400  1
  Tm  Tm2  1  0.802829  0.808627  0.189993  1
  Tm  Tm3  1  0.932993  0.565801  0.567765  1
  Tm  Tm4  1  0.566897  0.934408  0.933696  1
  Tm  Tm5  1  0.563356  0.935422  0.566569  1
  Tm  Tm6  1  0.935917  0.562703  0.937816  1
  Tm  Tm7  1  0.562430  0.560260  0.937734  1
  Tm  Tm8  1  0.937044  0.940190  0.562526  1
  Th  Th9  1  0.346548  0.344680  0.351993  1
  Th  Th10  1  0.351211  0.344458  0.954963  1
  Th  Th11  1  0.353984  0.953951  0.345883  1
  Th  Th12  1  0.955320  0.350603  0.349792  1
  Th  Th13  1  0.811930  0.187751  0.184273  1
  Th  Th14  1  0.181198  0.817085  0.812146  1
  Th  Th15  1  0.187016  0.812672  0.186975  1
  Cd  Cd16  1  0.585895  0.581770  0.582018  1
  Cd  Cd17  1  0.583600  0.583091  0.251050  1
  Cd  Cd18  1  0.581000  0.252179  0.584032  1
  Cd  Cd19  1  0.252129  0.579841  0.583676  1
  Tc  Tc20  1  0.133068  0.132876  0.149137  1
  Tc  Tc21  1  0.146529  0.127241  0.578051  1
  Tc  Tc22  1  0.150761  0.587552  0.131633  1
  Tc  Tc23  1  0.578344  0.151624  0.145205  1
