# generated using pymatgen
data_Dy6Er10CdHg3Ir4
_symmetry_space_group_name_H-M   'P 1'
_cell_length_a   9.55282911
_cell_length_b   9.55454561
_cell_length_c   9.55454600
_cell_angle_alpha   59.99999866
_cell_angle_beta   59.99405454
_cell_angle_gamma   59.99405932
_symmetry_Int_Tables_number   1
_chemical_formula_structural   Dy6Er10CdHg3Ir4
_chemical_formula_sum   'Dy6 Er10 Cd1 Hg3 Ir4'
_cell_volume   616.59227873
_cell_formula_units_Z   1
loop_
 _symmetry_equiv_pos_site_id
 _symmetry_equiv_pos_as_xyz
  1  'x, y, z'
loop_
 _atom_site_type_symbol
 _atom_site_label
 _atom_site_symmetry_multiplicity
 _atom_site_fract_x
 _atom_site_fract_y
 _atom_site_fract_z
 _atom_site_occupancy
  Dy  Dy0  1  0.187031  0.812129  0.812129  1
  Dy  Dy1  1  0.811618  0.188109  0.188109  1
  Dy  Dy2  1  0.811618  0.188109  0.812165  1
  Dy  Dy3  1  0.187031  0.812129  0.188712  1
  Dy  Dy4  1  0.811618  0.812165  0.188109  1
  Dy  Dy5  1  0.187031  0.188712  0.812129  1
  Er  Er6  1  0.600374  0.599812  0.599812  1
  Er  Er7  1  0.600374  0.599812  0.200003  1
  Er  Er8  1  0.600374  0.200003  0.599812  1
  Er  Er9  1  0.197609  0.600797  0.600797  1
  Er  Er10  1  0.060551  0.439359  0.439359  1
  Er  Er11  1  0.438313  0.061335  0.061335  1
  Er  Er12  1  0.438313  0.061335  0.439018  1
  Er  Er13  1  0.060551  0.439359  0.060731  1
  Er  Er14  1  0.438313  0.439018  0.061335  1
  Er  Er15  1  0.060551  0.060731  0.439359  1
  Cd  Cd16  1  0.510941  0.829686  0.829686  1
  Hg  Hg17  1  0.833011  0.834767  0.834767  1
  Hg  Hg18  1  0.833011  0.834767  0.497454  1
  Hg  Hg19  1  0.833011  0.497454  0.834767  1
  Ir  Ir20  1  0.391733  0.392417  0.392417  1
  Ir  Ir21  1  0.391733  0.392417  0.823434  1
  Ir  Ir22  1  0.391733  0.823434  0.392417  1
  Ir  Ir23  1  0.823559  0.392147  0.392147  1
