# generated using pymatgen
data_HfMgSb2PdPt
_symmetry_space_group_name_H-M   'P 1'
_cell_length_a   7.85414270
_cell_length_b   7.83216418
_cell_length_c   6.36622217
_cell_angle_alpha   114.17258501
_cell_angle_beta   114.11515660
_cell_angle_gamma   47.93371376
_symmetry_Int_Tables_number   1
_chemical_formula_structural   HfMgSb2PdPt
_chemical_formula_sum   'Hf2 Mg2 Sb4 Pd2 Pt2'
_cell_volume   259.97289544
_cell_formula_units_Z   2
loop_
 _symmetry_equiv_pos_site_id
 _symmetry_equiv_pos_as_xyz
  1  'x, y, z'
loop_
 _atom_site_type_symbol
 _atom_site_label
 _atom_site_symmetry_multiplicity
 _atom_site_fract_x
 _atom_site_fract_y
 _atom_site_fract_z
 _atom_site_occupancy
  Hf  Hf0  1  0.750544  0.499697  0.374461  1
  Hf  Hf1  1  0.500717  0.249151  0.624477  1
  Mg  Mg2  1  0.998422  0.751513  0.125045  1
  Mg  Mg3  1  0.249876  0.000053  0.876487  1
  Sb  Sb4  1  0.494871  0.247938  0.121448  1
  Sb  Sb5  1  0.246297  0.996441  0.372914  1
  Sb  Sb6  1  0.007199  0.750195  0.628516  1
  Sb  Sb7  1  0.753864  0.503439  0.875142  1
  Pd  Pd8  1  0.385528  0.614722  0.499692  1
  Pd  Pd9  1  0.125590  0.374705  0.739666  1
  Pt  Pt10  1  0.862002  0.137653  0.999537  1
  Pt  Pt11  1  0.625089  0.874498  0.262616  1
