# generated using pymatgen
data_Zr4BeAs
_symmetry_space_group_name_H-M   'P 1'
_cell_length_a   5.34174700
_cell_length_b   5.34174759
_cell_length_c   13.91536200
_cell_angle_alpha   90.00000000
_cell_angle_beta   90.00000000
_cell_angle_gamma   120.00000251
_symmetry_Int_Tables_number   1
_chemical_formula_structural   Zr4BeAs
_chemical_formula_sum   'Zr12 Be3 As3'
_cell_volume   343.86803530
_cell_formula_units_Z   3
loop_
 _symmetry_equiv_pos_site_id
 _symmetry_equiv_pos_as_xyz
  1  'x, y, z'
loop_
 _atom_site_type_symbol
 _atom_site_label
 _atom_site_symmetry_multiplicity
 _atom_site_fract_x
 _atom_site_fract_y
 _atom_site_fract_z
 _atom_site_occupancy
  Zr  Zr0  1  0.177537  0.355075  0.000000  1
  Zr  Zr1  1  0.822463  0.644925  0.000000  1
  Zr  Zr2  1  0.500001  0.000000  0.104055  1
  Zr  Zr3  1  0.500001  0.500001  0.229278  1
  Zr  Zr4  1  0.822462  0.177537  0.333333  1
  Zr  Zr5  1  0.177537  0.822462  0.333333  1
  Zr  Zr6  1  0.500001  0.500001  0.437388  1
  Zr  Zr7  1  0.000000  0.500001  0.562612  1
  Zr  Zr8  1  0.355075  0.177537  0.666667  1
  Zr  Zr9  1  0.644926  0.822462  0.666667  1
  Zr  Zr10  1  0.000000  0.500001  0.770722  1
  Zr  Zr11  1  0.500001  0.000000  0.895945  1
  Be  Be12  1  0.000000  0.500001  0.166667  1
  Be  Be13  1  0.500001  0.000000  0.500000  1
  Be  Be14  1  0.500001  0.500001  0.833333  1
  As  As15  1  0.000000  0.000000  0.166667  1
  As  As16  1  0.000000  0.000000  0.500000  1
  As  As17  1  0.000000  0.000000  0.833333  1
