# generated using pymatgen
data_NaUBr6
_symmetry_space_group_name_H-M   'P 1'
_cell_length_a   7.38899784
_cell_length_b   7.38899735
_cell_length_c   13.70453227
_cell_angle_alpha   83.84838621
_cell_angle_beta   83.84838559
_cell_angle_gamma   119.03429544
_symmetry_Int_Tables_number   1
_chemical_formula_structural   NaUBr6
_chemical_formula_sum   'Na2 U2 Br12'
_cell_volume   639.43664787
_cell_formula_units_Z   2
loop_
 _symmetry_equiv_pos_site_id
 _symmetry_equiv_pos_as_xyz
  1  'x, y, z'
loop_
 _atom_site_type_symbol
 _atom_site_label
 _atom_site_symmetry_multiplicity
 _atom_site_fract_x
 _atom_site_fract_y
 _atom_site_fract_z
 _atom_site_occupancy
  Na  Na0  1  0.084119  0.915881  0.250000  1
  Na  Na1  1  0.915881  0.084119  0.750000  1
  U  U2  1  0.419175  0.580825  0.250000  1
  U  U3  1  0.580825  0.419175  0.750000  1
  Br  Br4  1  0.323424  0.461277  0.635549  1
  Br  Br5  1  0.461277  0.323424  0.135549  1
  Br  Br6  1  0.239509  0.079999  0.866728  1
  Br  Br7  1  0.079999  0.239509  0.366728  1
  Br  Br8  1  0.171367  0.633689  0.132045  1
  Br  Br9  1  0.633689  0.171367  0.632045  1
  Br  Br10  1  0.366311  0.828633  0.367955  1
  Br  Br11  1  0.828633  0.366311  0.867955  1
  Br  Br12  1  0.760491  0.920001  0.133272  1
  Br  Br13  1  0.920001  0.760491  0.633272  1
  Br  Br14  1  0.538723  0.676576  0.864451  1
  Br  Br15  1  0.676576  0.538723  0.364451  1
