# generated using pymatgen
data_DyHoNi10
_symmetry_space_group_name_H-M   'P 1'
_cell_length_a   3.95272600
_cell_length_b   4.87675900
_cell_length_c   8.43473100
_cell_angle_alpha   90.00000000
_cell_angle_beta   90.00000000
_cell_angle_gamma   90.00000000
_symmetry_Int_Tables_number   1
_chemical_formula_structural   DyHoNi10
_chemical_formula_sum   'Dy1 Ho1 Ni10'
_cell_volume   162.59202545
_cell_formula_units_Z   1
loop_
 _symmetry_equiv_pos_site_id
 _symmetry_equiv_pos_as_xyz
  1  'x, y, z'
loop_
 _atom_site_type_symbol
 _atom_site_label
 _atom_site_symmetry_multiplicity
 _atom_site_fract_x
 _atom_site_fract_y
 _atom_site_fract_z
 _atom_site_occupancy
  Dy  Dy0  1  0.000000  0.500000  0.000000  1
  Ho  Ho1  1  0.000000  0.000000  0.500000  1
  Ni  Ni2  1  0.000000  0.500000  0.332738  1
  Ni  Ni3  1  0.000000  0.000000  0.833885  1
  Ni  Ni4  1  0.000000  0.000000  0.166115  1
  Ni  Ni5  1  0.000000  0.500000  0.667262  1
  Ni  Ni6  1  0.500000  0.500000  0.500000  1
  Ni  Ni7  1  0.500000  0.000000  0.000000  1
  Ni  Ni8  1  0.500000  0.749914  0.249560  1
  Ni  Ni9  1  0.500000  0.250086  0.750440  1
  Ni  Ni10  1  0.500000  0.250086  0.249560  1
  Ni  Ni11  1  0.500000  0.749914  0.750440  1
