# generated using pymatgen
data_Tm3Ni8P6Rh
_symmetry_space_group_name_H-M   'P 1'
_cell_length_a   3.75398900
_cell_length_b   10.48369500
_cell_length_c   12.32216800
_cell_angle_alpha   90.00000000
_cell_angle_beta   90.00000000
_cell_angle_gamma   90.00000000
_symmetry_Int_Tables_number   1
_chemical_formula_structural   Tm3Ni8P6Rh
_chemical_formula_sum   'Tm6 Ni16 P12 Rh2'
_cell_volume   484.94724784
_cell_formula_units_Z   2
loop_
 _symmetry_equiv_pos_site_id
 _symmetry_equiv_pos_as_xyz
  1  'x, y, z'
loop_
 _atom_site_type_symbol
 _atom_site_label
 _atom_site_symmetry_multiplicity
 _atom_site_fract_x
 _atom_site_fract_y
 _atom_site_fract_z
 _atom_site_occupancy
  Tm  Tm0  1  0.000000  0.500000  0.524690  1
  Tm  Tm1  1  0.500000  0.000000  0.475310  1
  Tm  Tm2  1  0.500000  0.817087  0.206966  1
  Tm  Tm3  1  0.500000  0.182913  0.206966  1
  Tm  Tm4  1  0.000000  0.682913  0.793034  1
  Tm  Tm5  1  0.000000  0.317087  0.793034  1
  Ni  Ni6  1  0.500000  0.500000  0.700963  1
  Ni  Ni7  1  0.000000  0.000000  0.299037  1
  Ni  Ni8  1  0.000000  0.500000  0.984441  1
  Ni  Ni9  1  0.500000  0.000000  0.015559  1
  Ni  Ni10  1  0.500000  0.331389  0.990980  1
  Ni  Ni11  1  0.500000  0.668611  0.990980  1
  Ni  Ni12  1  0.000000  0.168611  0.009020  1
  Ni  Ni13  1  0.000000  0.831389  0.009020  1
  Ni  Ni14  1  0.500000  0.301505  0.430122  1
  Ni  Ni15  1  0.500000  0.698495  0.430122  1
  Ni  Ni16  1  0.000000  0.198495  0.569878  1
  Ni  Ni17  1  0.000000  0.801505  0.569878  1
  Ni  Ni18  1  0.500000  0.876778  0.708591  1
  Ni  Ni19  1  0.500000  0.123222  0.708591  1
  Ni  Ni20  1  0.000000  0.623222  0.291409  1
  Ni  Ni21  1  0.000000  0.376778  0.291409  1
  P  P22  1  0.500000  0.500000  0.875949  1
  P  P23  1  0.000000  0.000000  0.124051  1
  P  P24  1  0.500000  0.500000  0.352597  1
  P  P25  1  0.000000  0.000000  0.647403  1
  P  P26  1  0.500000  0.315175  0.615188  1
  P  P27  1  0.500000  0.684825  0.615188  1
  P  P28  1  0.000000  0.184825  0.384812  1
  P  P29  1  0.000000  0.815175  0.384812  1
  P  P30  1  0.500000  0.846673  0.891332  1
  P  P31  1  0.500000  0.153327  0.891332  1
  P  P32  1  0.000000  0.653327  0.108668  1
  P  P33  1  0.000000  0.346673  0.108668  1
  Rh  Rh34  1  0.500000  0.500000  0.160518  1
  Rh  Rh35  1  0.000000  0.000000  0.839482  1
