# generated using pymatgen
data_Dy2Sc4SiTe2
_symmetry_space_group_name_H-M   'P 1'
_cell_length_a   4.05468400
_cell_length_b   7.68133716
_cell_length_c   7.68134700
_cell_angle_alpha   119.57287783
_cell_angle_beta   90.00000000
_cell_angle_gamma   90.00000000
_symmetry_Int_Tables_number   1
_chemical_formula_structural   Dy2Sc4SiTe2
_chemical_formula_sum   'Dy2 Sc4 Si1 Te2'
_cell_volume   208.07265208
_cell_formula_units_Z   1
loop_
 _symmetry_equiv_pos_site_id
 _symmetry_equiv_pos_as_xyz
  1  'x, y, z'
loop_
 _atom_site_type_symbol
 _atom_site_label
 _atom_site_symmetry_multiplicity
 _atom_site_fract_x
 _atom_site_fract_y
 _atom_site_fract_z
 _atom_site_occupancy
  Dy  Dy0  1  0.000000  0.000025  0.603207  1
  Dy  Dy1  1  0.000000  0.603206  0.000028  1
  Sc  Sc2  1  0.500000  0.770745  0.770747  1
  Sc  Sc3  1  0.500000  0.001192  0.236606  1
  Sc  Sc4  1  0.500000  0.236609  0.001192  1
  Sc  Sc5  1  0.000000  0.386670  0.386670  1
  Si  Si6  1  0.000000  0.007478  0.007477  1
  Te  Te7  1  0.500000  0.658003  0.336071  1
  Te  Te8  1  0.500000  0.336073  0.658005  1
