# generated using pymatgen
data_Dy4Al5GaPt8
_symmetry_space_group_name_H-M   'P 1'
_cell_length_a   8.13784313
_cell_length_b   8.13784376
_cell_length_c   7.63295997
_cell_angle_alpha   89.98030252
_cell_angle_beta   89.98029923
_cell_angle_gamma   140.04921148
_symmetry_Int_Tables_number   1
_chemical_formula_structural   Dy4Al5GaPt8
_chemical_formula_sum   'Dy4 Al5 Ga1 Pt8'
_cell_volume   324.58914472
_cell_formula_units_Z   1
loop_
 _symmetry_equiv_pos_site_id
 _symmetry_equiv_pos_as_xyz
  1  'x, y, z'
loop_
 _atom_site_type_symbol
 _atom_site_label
 _atom_site_symmetry_multiplicity
 _atom_site_fract_x
 _atom_site_fract_y
 _atom_site_fract_z
 _atom_site_occupancy
  Dy  Dy0  1  0.607032  0.393366  0.907516  1
  Dy  Dy1  1  0.393181  0.606587  0.092605  1
  Dy  Dy2  1  0.893413  0.106819  0.407395  1
  Dy  Dy3  1  0.106634  0.892968  0.592484  1
  Al  Al4  1  0.499972  0.499652  0.499750  1
  Al  Al5  1  0.000348  0.000028  0.000250  1
  Al  Al6  1  0.977216  0.522784  0.250000  1
  Al  Al7  1  0.476946  0.023054  0.250000  1
  Al  Al8  1  0.023358  0.476642  0.750000  1
  Ga  Ga9  1  0.521477  0.978523  0.750000  1
  Pt  Pt10  1  0.692720  0.807280  0.750000  1
  Pt  Pt11  1  0.809278  0.690722  0.250000  1
  Pt  Pt12  1  0.309182  0.190818  0.250000  1
  Pt  Pt13  1  0.190687  0.309313  0.750000  1
  Pt  Pt14  1  0.688220  0.322717  0.525221  1
  Pt  Pt15  1  0.313675  0.680622  0.469498  1
  Pt  Pt16  1  0.819378  0.186325  0.030502  1
  Pt  Pt17  1  0.177283  0.811780  0.974779  1
