# generated using pymatgen
data_Zr(SeF6)2
_symmetry_space_group_name_H-M   'P 1'
_cell_length_a   6.43837100
_cell_length_b   8.15756300
_cell_length_c   10.28606700
_cell_angle_alpha   90.00000000
_cell_angle_beta   90.00000000
_cell_angle_gamma   90.00000000
_symmetry_Int_Tables_number   1
_chemical_formula_structural   Zr(SeF6)2
_chemical_formula_sum   'Zr2 Se4 F24'
_cell_volume   540.23881471
_cell_formula_units_Z   2
loop_
 _symmetry_equiv_pos_site_id
 _symmetry_equiv_pos_as_xyz
  1  'x, y, z'
loop_
 _atom_site_type_symbol
 _atom_site_label
 _atom_site_symmetry_multiplicity
 _atom_site_fract_x
 _atom_site_fract_y
 _atom_site_fract_z
 _atom_site_occupancy
  Zr  Zr0  1  0.000000  0.500000  0.000000  1
  Zr  Zr1  1  0.500000  0.000000  0.500000  1
  Se  Se2  1  0.500000  0.585997  0.240345  1
  Se  Se3  1  0.500000  0.414003  0.759655  1
  Se  Se4  1  0.000000  0.085997  0.259655  1
  Se  Se5  1  0.000000  0.914003  0.740345  1
  F  F6  1  0.225797  0.372777  0.902266  1
  F  F7  1  0.225797  0.627223  0.097734  1
  F  F8  1  0.274203  0.872777  0.597734  1
  F  F9  1  0.274203  0.127223  0.402266  1
  F  F10  1  0.774203  0.627223  0.097734  1
  F  F11  1  0.774203  0.372777  0.902266  1
  F  F12  1  0.804848  0.967632  0.850042  1
  F  F13  1  0.804848  0.032368  0.149958  1
  F  F14  1  0.695152  0.467632  0.649958  1
  F  F15  1  0.695152  0.532368  0.350042  1
  F  F16  1  0.195152  0.032368  0.149958  1
  F  F17  1  0.195152  0.967632  0.850042  1
  F  F18  1  0.304848  0.532368  0.350042  1
  F  F19  1  0.304848  0.467632  0.649958  1
  F  F20  1  0.000000  0.671298  0.854737  1
  F  F21  1  0.000000  0.328702  0.145263  1
  F  F22  1  0.500000  0.171298  0.645263  1
  F  F23  1  0.500000  0.828702  0.354737  1
  F  F24  1  0.500000  0.610611  0.828061  1
  F  F25  1  0.500000  0.389389  0.171939  1
  F  F26  1  0.000000  0.110611  0.671939  1
  F  F27  1  0.000000  0.889389  0.328061  1
  F  F28  1  0.725797  0.872777  0.597734  1
  F  F29  1  0.725797  0.127223  0.402266  1
