# generated using pymatgen
data_TbPaRh2Pb
_symmetry_space_group_name_H-M   'P 1'
_cell_length_a   7.90036400
_cell_length_b   7.71287000
_cell_length_c   3.63059200
_cell_angle_alpha   90.00000000
_cell_angle_beta   90.00000000
_cell_angle_gamma   90.00000000
_symmetry_Int_Tables_number   1
_chemical_formula_structural   TbPaRh2Pb
_chemical_formula_sum   'Tb2 Pa2 Rh4 Pb2'
_cell_volume   221.22823737
_cell_formula_units_Z   2
loop_
 _symmetry_equiv_pos_site_id
 _symmetry_equiv_pos_as_xyz
  1  'x, y, z'
loop_
 _atom_site_type_symbol
 _atom_site_label
 _atom_site_symmetry_multiplicity
 _atom_site_fract_x
 _atom_site_fract_y
 _atom_site_fract_z
 _atom_site_occupancy
  Tb  Tb0  1  0.828831  0.670187  0.500000  1
  Tb  Tb1  1  0.328831  0.829813  0.500000  1
  Pa  Pa2  1  0.676933  0.163243  0.500000  1
  Pa  Pa3  1  0.176933  0.336757  0.500000  1
  Rh  Rh4  1  0.359948  0.158011  0.000000  1
  Rh  Rh5  1  0.125729  0.594527  0.000000  1
  Rh  Rh6  1  0.625729  0.905473  0.000000  1
  Rh  Rh7  1  0.859948  0.341989  0.000000  1
  Pb  Pb8  1  0.008559  0.990111  0.000000  1
  Pb  Pb9  1  0.508559  0.509889  0.000000  1
