# generated using pymatgen
data_Tb2Sm2Re3Os5
_symmetry_space_group_name_H-M   'P 1'
_cell_length_a   5.35371500
_cell_length_b   5.36190477
_cell_length_c   9.05847701
_cell_angle_alpha   89.99999788
_cell_angle_beta   90.00440478
_cell_angle_gamma   120.05060539
_symmetry_Int_Tables_number   1
_chemical_formula_structural   Tb2Sm2Re3Os5
_chemical_formula_sum   'Tb2 Sm2 Re3 Os5'
_cell_volume   225.08081238
_cell_formula_units_Z   1
loop_
 _symmetry_equiv_pos_site_id
 _symmetry_equiv_pos_as_xyz
  1  'x, y, z'
loop_
 _atom_site_type_symbol
 _atom_site_label
 _atom_site_symmetry_multiplicity
 _atom_site_fract_x
 _atom_site_fract_y
 _atom_site_fract_z
 _atom_site_occupancy
  Tb  Tb0  1  0.339115  0.669559  0.435452  1
  Tb  Tb1  1  0.669530  0.334764  0.562695  1
  Sm  Sm2  1  0.670148  0.335074  0.937586  1
  Sm  Sm3  1  0.338935  0.669469  0.064250  1
  Re  Re4  1  0.163306  0.334439  0.747603  1
  Re  Re5  1  0.163306  0.828867  0.747603  1
  Re  Re6  1  0.326808  0.163404  0.251967  1
  Os  Os7  1  0.819248  0.647914  0.252915  1
  Os  Os8  1  0.643697  0.821849  0.747013  1
  Os  Os9  1  0.023104  0.011551  0.001229  1
  Os  Os10  1  0.819248  0.171334  0.252915  1
  Os  Os11  1  0.023556  0.011777  0.498772  1
