# generated using pymatgen
data_La2Gd(OsO5)2
_symmetry_space_group_name_H-M   'P 1'
_cell_length_a   5.54331943
_cell_length_b   5.54331973
_cell_length_c   7.01115935
_cell_angle_alpha   72.86600080
_cell_angle_beta   72.86600805
_cell_angle_gamma   90.00080003
_symmetry_Int_Tables_number   1
_chemical_formula_structural   La2Gd(OsO5)2
_chemical_formula_sum   'La2 Gd1 Os2 O10'
_cell_volume   195.85181505
_cell_formula_units_Z   1
loop_
 _symmetry_equiv_pos_site_id
 _symmetry_equiv_pos_as_xyz
  1  'x, y, z'
loop_
 _atom_site_type_symbol
 _atom_site_label
 _atom_site_symmetry_multiplicity
 _atom_site_fract_x
 _atom_site_fract_y
 _atom_site_fract_z
 _atom_site_occupancy
  La  La0  1  0.753588  0.246412  0.500000  1
  La  La1  1  0.246412  0.753588  0.500000  1
  Gd  Gd2  1  0.500000  0.500000  0.000000  1
  Os  Os3  1  0.130101  0.130101  0.827074  1
  Os  Os4  1  0.869899  0.869899  0.172926  1
  O  O5  1  0.825650  0.825650  0.471006  1
  O  O6  1  0.174350  0.174350  0.528994  1
  O  O7  1  0.594960  0.594960  0.275460  1
  O  O8  1  0.405040  0.405040  0.724540  1
  O  O9  1  0.379672  0.890937  0.794694  1
  O  O10  1  0.852874  0.852874  0.896922  1
  O  O11  1  0.147126  0.147126  0.103078  1
  O  O12  1  0.890937  0.379672  0.794694  1
  O  O13  1  0.620328  0.109063  0.205306  1
  O  O14  1  0.109063  0.620328  0.205306  1
