# generated using pymatgen
data_Ba4AlCrO8
_symmetry_space_group_name_H-M   'P 1'
_cell_length_a   7.69376800
_cell_length_b   6.09525673
_cell_length_c   11.90579259
_cell_angle_alpha   62.13422117
_cell_angle_beta   90.00000000
_cell_angle_gamma   90.00000000
_symmetry_Int_Tables_number   1
_chemical_formula_structural   Ba4AlCrO8
_chemical_formula_sum   'Ba8 Al2 Cr2 O16'
_cell_volume   493.58704362
_cell_formula_units_Z   2
loop_
 _symmetry_equiv_pos_site_id
 _symmetry_equiv_pos_as_xyz
  1  'x, y, z'
loop_
 _atom_site_type_symbol
 _atom_site_label
 _atom_site_symmetry_multiplicity
 _atom_site_fract_x
 _atom_site_fract_y
 _atom_site_fract_z
 _atom_site_occupancy
  Ba  Ba0  1  0.998286  0.960107  0.306049  1
  Ba  Ba1  1  0.498286  0.039893  0.193951  1
  Ba  Ba2  1  0.999144  0.026295  0.695827  1
  Ba  Ba3  1  0.499144  0.973705  0.804173  1
  Ba  Ba4  1  0.658764  0.307171  0.443692  1
  Ba  Ba5  1  0.158764  0.692829  0.056308  1
  Ba  Ba6  1  0.334792  0.662849  0.603741  1
  Ba  Ba7  1  0.834792  0.337151  0.896259  1
  Al  Al8  1  0.777746  0.670399  0.576312  1
  Al  Al9  1  0.277746  0.329601  0.923688  1
  Cr  Cr10  1  0.223925  0.343100  0.413774  1
  Cr  Cr11  1  0.723925  0.656900  0.086226  1
  O  O12  1  0.312694  0.247589  0.564831  1
  O  O13  1  0.812694  0.752411  0.935169  1
  O  O14  1  0.684476  0.765392  0.421768  1
  O  O15  1  0.184476  0.234608  0.078232  1
  O  O16  1  0.323803  0.152813  0.363045  1
  O  O17  1  0.823803  0.847187  0.136955  1
  O  O18  1  0.676131  0.846599  0.644458  1
  O  O19  1  0.176131  0.153401  0.855542  1
  O  O20  1  0.269658  0.651890  0.316171  1
  O  O21  1  0.769658  0.348110  0.183829  1
  O  O22  1  0.731412  0.345645  0.670674  1
  O  O23  1  0.231412  0.654355  0.829326  1
  O  O24  1  0.506111  0.269185  0.934907  1
  O  O25  1  0.006111  0.730815  0.565093  1
  O  O26  1  0.503057  0.688475  0.082043  1
  O  O27  1  0.003057  0.311525  0.417957  1
