# generated using pymatgen
data_Tm3Np5(B6Mo)4
_symmetry_space_group_name_H-M   'P 1'
_cell_length_a   3.63411900
_cell_length_b   9.28923802
_cell_length_c   11.34452201
_cell_angle_alpha   89.99476914
_cell_angle_beta   90.00000000
_cell_angle_gamma   90.00000000
_symmetry_Int_Tables_number   1
_chemical_formula_structural   Tm3Np5(B6Mo)4
_chemical_formula_sum   'Tm3 Np5 B24 Mo4'
_cell_volume   382.97059999
_cell_formula_units_Z   1
loop_
 _symmetry_equiv_pos_site_id
 _symmetry_equiv_pos_as_xyz
  1  'x, y, z'
loop_
 _atom_site_type_symbol
 _atom_site_label
 _atom_site_symmetry_multiplicity
 _atom_site_fract_x
 _atom_site_fract_y
 _atom_site_fract_z
 _atom_site_occupancy
  Tm  Tm0  1  0.000000  0.338408  0.407687  1
  Tm  Tm1  1  0.000000  0.661666  0.591816  1
  Tm  Tm2  1  0.000000  0.836946  0.093145  1
  Np  Np3  1  0.000000  0.161224  0.907645  1
  Np  Np4  1  0.000000  0.957978  0.399278  1
  Np  Np5  1  0.000000  0.041209  0.600063  1
  Np  Np6  1  0.000000  0.459133  0.100527  1
  Np  Np7  1  0.000000  0.542106  0.900632  1
  B  B8  1  0.500000  0.551357  0.432422  1
  B  B9  1  0.500000  0.448397  0.567977  1
  B  B10  1  0.500000  0.052649  0.066860  1
  B  B11  1  0.500000  0.949525  0.931338  1
  B  B12  1  0.500000  0.745478  0.424017  1
  B  B13  1  0.500000  0.255256  0.575700  1
  B  B14  1  0.500000  0.245535  0.075632  1
  B  B15  1  0.500000  0.754306  0.923856  1
  B  B16  1  0.500000  0.805922  0.275028  1
  B  B17  1  0.500000  0.193745  0.725935  1
  B  B18  1  0.500000  0.305983  0.225389  1
  B  B19  1  0.500000  0.693957  0.774862  1
  B  B20  1  0.500000  0.644309  0.187423  1
  B  B21  1  0.500000  0.354877  0.813182  1
  B  B22  1  0.500000  0.144338  0.312741  1
  B  B23  1  0.500000  0.854402  0.687014  1
  B  B24  1  0.500000  0.988047  0.221122  1
  B  B25  1  0.500000  0.012933  0.779296  1
  B  B26  1  0.500000  0.487737  0.279245  1
  B  B27  1  0.500000  0.512017  0.720796  1
  B  B28  1  0.500000  0.640021  0.039039  1
  B  B29  1  0.500000  0.359424  0.960946  1
  B  B30  1  0.500000  0.139565  0.460872  1
  B  B31  1  0.500000  0.860345  0.538587  1
  Mo  Mo32  1  0.000000  0.647658  0.317850  1
  Mo  Mo33  1  0.000000  0.351432  0.683631  1
  Mo  Mo34  1  0.000000  0.147251  0.179422  1
  Mo  Mo35  1  0.000000  0.854865  0.819026  1
