# generated using pymatgen
data_Yb5CeGd2(B6Os)4
_symmetry_space_group_name_H-M   'P 1'
_cell_length_a   3.68017100
_cell_length_b   9.09069388
_cell_length_c   11.46120217
_cell_angle_alpha   90.03238776
_cell_angle_beta   90.00000000
_cell_angle_gamma   90.00000000
_symmetry_Int_Tables_number   1
_chemical_formula_structural   Yb5CeGd2(B6Os)4
_chemical_formula_sum   'Yb5 Ce1 Gd2 B24 Os4'
_cell_volume   383.43798717
_cell_formula_units_Z   1
loop_
 _symmetry_equiv_pos_site_id
 _symmetry_equiv_pos_as_xyz
  1  'x, y, z'
loop_
 _atom_site_type_symbol
 _atom_site_label
 _atom_site_symmetry_multiplicity
 _atom_site_fract_x
 _atom_site_fract_y
 _atom_site_fract_z
 _atom_site_occupancy
  Yb  Yb0  1  0.000000  0.176305  0.911973  1
  Yb  Yb1  1  0.000000  0.942535  0.369013  1
  Yb  Yb2  1  0.000000  0.058814  0.633493  1
  Yb  Yb3  1  0.000000  0.441080  0.131522  1
  Yb  Yb4  1  0.000000  0.557546  0.867813  1
  Ce  Ce5  1  0.000000  0.822163  0.085319  1
  Gd  Gd6  1  0.000000  0.322172  0.414490  1
  Gd  Gd7  1  0.000000  0.676279  0.587969  1
  B  B8  1  0.500000  0.555196  0.432161  1
  B  B9  1  0.500000  0.445410  0.567599  1
  B  B10  1  0.500000  0.055007  0.067492  1
  B  B11  1  0.500000  0.945728  0.931186  1
  B  B12  1  0.500000  0.750529  0.418550  1
  B  B13  1  0.500000  0.249605  0.582572  1
  B  B14  1  0.500000  0.250676  0.081934  1
  B  B15  1  0.500000  0.750414  0.916711  1
  B  B16  1  0.500000  0.790641  0.266314  1
  B  B17  1  0.500000  0.209240  0.734913  1
  B  B18  1  0.500000  0.290637  0.234515  1
  B  B19  1  0.500000  0.708902  0.764943  1
  B  B20  1  0.500000  0.629465  0.185975  1
  B  B21  1  0.500000  0.370564  0.814278  1
  B  B22  1  0.500000  0.129727  0.314936  1
  B  B23  1  0.500000  0.870992  0.685788  1
  B  B24  1  0.500000  0.984183  0.212204  1
  B  B25  1  0.500000  0.017253  0.787483  1
  B  B26  1  0.500000  0.483154  0.287678  1
  B  B27  1  0.500000  0.516664  0.712008  1
  B  B28  1  0.500000  0.593604  0.026041  1
  B  B29  1  0.500000  0.405656  0.973376  1
  B  B30  1  0.500000  0.095304  0.474062  1
  B  B31  1  0.500000  0.904897  0.527090  1
  Os  Os32  1  0.000000  0.639424  0.319555  1
  Os  Os33  1  0.000000  0.362107  0.679218  1
  Os  Os34  1  0.000000  0.138119  0.178997  1
  Os  Os35  1  0.000000  0.860005  0.820831  1
