# generated using pymatgen
data_Tb4YHo3(B6Os)4
_symmetry_space_group_name_H-M   'P 1'
_cell_length_a   3.65740800
_cell_length_b   9.16193703
_cell_length_c   11.54609803
_cell_angle_alpha   90.00858245
_cell_angle_beta   90.00000000
_cell_angle_gamma   90.00000000
_symmetry_Int_Tables_number   1
_chemical_formula_structural   Tb4YHo3(B6Os)4
_chemical_formula_sum   'Tb4 Y1 Ho3 B24 Os4'
_cell_volume   386.89752234
_cell_formula_units_Z   1
loop_
 _symmetry_equiv_pos_site_id
 _symmetry_equiv_pos_as_xyz
  1  'x, y, z'
loop_
 _atom_site_type_symbol
 _atom_site_label
 _atom_site_symmetry_multiplicity
 _atom_site_fract_x
 _atom_site_fract_y
 _atom_site_fract_z
 _atom_site_occupancy
  Tb  Tb0  1  0.000000  0.322549  0.413809  1
  Tb  Tb1  1  0.000000  0.677465  0.586305  1
  Tb  Tb2  1  0.000000  0.822377  0.086126  1
  Tb  Tb3  1  0.000000  0.177619  0.913791  1
  Y  Y4  1  0.000000  0.944223  0.373216  1
  Ho  Ho5  1  0.000000  0.055978  0.627274  1
  Ho  Ho6  1  0.000000  0.444108  0.126999  1
  Ho  Ho7  1  0.000000  0.555880  0.872928  1
  B  B8  1  0.500000  0.554082  0.432729  1
  B  B9  1  0.500000  0.445775  0.567332  1
  B  B10  1  0.500000  0.054214  0.067202  1
  B  B11  1  0.500000  0.945794  0.932674  1
  B  B12  1  0.500000  0.747733  0.419757  1
  B  B13  1  0.500000  0.251888  0.580374  1
  B  B14  1  0.500000  0.248244  0.080272  1
  B  B15  1  0.500000  0.751822  0.919663  1
  B  B16  1  0.500000  0.790777  0.266616  1
  B  B17  1  0.500000  0.208920  0.733213  1
  B  B18  1  0.500000  0.291255  0.233146  1
  B  B19  1  0.500000  0.708880  0.766824  1
  B  B20  1  0.500000  0.631620  0.185345  1
  B  B21  1  0.500000  0.368280  0.814571  1
  B  B22  1  0.500000  0.132124  0.314434  1
  B  B23  1  0.500000  0.868243  0.685506  1
  B  B24  1  0.500000  0.983822  0.212991  1
  B  B25  1  0.500000  0.016316  0.786689  1
  B  B26  1  0.500000  0.483580  0.286618  1
  B  B27  1  0.500000  0.516320  0.713336  1
  B  B28  1  0.500000  0.607483  0.029741  1
  B  B29  1  0.500000  0.392516  0.970203  1
  B  B30  1  0.500000  0.108111  0.470411  1
  B  B31  1  0.500000  0.892172  0.530201  1
  Os  Os32  1  0.000000  0.637360  0.321059  1
  Os  Os33  1  0.000000  0.362197  0.678921  1
  Os  Os34  1  0.000000  0.138115  0.178598  1
  Os  Os35  1  0.000000  0.862156  0.821123  1
