# generated using pymatgen
data_Hf18Re5Rh2W3
_symmetry_space_group_name_H-M   'P 1'
_cell_length_a   8.71665205
_cell_length_b   8.71665197
_cell_length_c   8.51371400
_cell_angle_alpha   90.00000000
_cell_angle_beta   90.00000000
_cell_angle_gamma   120.13807825
_symmetry_Int_Tables_number   1
_chemical_formula_structural   Hf18Re5Rh2W3
_chemical_formula_sum   'Hf18 Re5 Rh2 W3'
_cell_volume   559.42665878
_cell_formula_units_Z   1
loop_
 _symmetry_equiv_pos_site_id
 _symmetry_equiv_pos_as_xyz
  1  'x, y, z'
loop_
 _atom_site_type_symbol
 _atom_site_label
 _atom_site_symmetry_multiplicity
 _atom_site_fract_x
 _atom_site_fract_y
 _atom_site_fract_z
 _atom_site_occupancy
  Hf  Hf0  1  0.197337  0.802663  0.446646  1
  Hf  Hf1  1  0.197232  0.394370  0.447415  1
  Hf  Hf2  1  0.605630  0.802768  0.447415  1
  Hf  Hf3  1  0.802635  0.197365  0.554543  1
  Hf  Hf4  1  0.802713  0.605577  0.554011  1
  Hf  Hf5  1  0.394423  0.197287  0.554011  1
  Hf  Hf6  1  0.802635  0.197365  0.945457  1
  Hf  Hf7  1  0.802713  0.605577  0.945989  1
  Hf  Hf8  1  0.394423  0.197287  0.945989  1
  Hf  Hf9  1  0.197337  0.802663  0.053354  1
  Hf  Hf10  1  0.197232  0.394370  0.052585  1
  Hf  Hf11  1  0.605630  0.802768  0.052585  1
  Hf  Hf12  1  0.541742  0.458258  0.250000  1
  Hf  Hf13  1  0.541038  0.083665  0.250000  1
  Hf  Hf14  1  0.916335  0.458962  0.250000  1
  Hf  Hf15  1  0.458046  0.541954  0.750000  1
  Hf  Hf16  1  0.457551  0.915719  0.750000  1
  Hf  Hf17  1  0.084281  0.542449  0.750000  1
  Re  Re18  1  0.888447  0.776637  0.250000  1
  Re  Re19  1  0.223363  0.111553  0.250000  1
  Re  Re20  1  0.111113  0.888887  0.750000  1
  Re  Re21  1  0.111688  0.222940  0.750000  1
  Re  Re22  1  0.777060  0.888312  0.750000  1
  Rh  Rh23  1  0.333298  0.666702  0.250000  1
  Rh  Rh24  1  0.666318  0.333682  0.750000  1
  W  W25  1  0.888789  0.111211  0.250000  1
  W  W26  1  0.000496  0.999504  0.499831  1
  W  W27  1  0.000496  0.999504  0.000169  1
