# generated using pymatgen
data_BeNb2Fe3
_symmetry_space_group_name_H-M   'P 1'
_cell_length_a   4.74600332
_cell_length_b   4.77097334
_cell_length_c   4.77097400
_cell_angle_alpha   59.99999545
_cell_angle_beta   59.82580073
_cell_angle_gamma   59.82578728
_symmetry_Int_Tables_number   1
_chemical_formula_structural   BeNb2Fe3
_chemical_formula_sum   'Be1 Nb2 Fe3'
_cell_volume   76.18658053
_cell_formula_units_Z   1
loop_
 _symmetry_equiv_pos_site_id
 _symmetry_equiv_pos_as_xyz
  1  'x, y, z'
loop_
 _atom_site_type_symbol
 _atom_site_label
 _atom_site_symmetry_multiplicity
 _atom_site_fract_x
 _atom_site_fract_y
 _atom_site_fract_z
 _atom_site_occupancy
  Be  Be0  1  0.875000  0.375000  0.375000  1
  Nb  Nb1  1  0.748308  0.750564  0.750564  1
  Nb  Nb2  1  0.001692  0.999436  0.999436  1
  Fe  Fe3  1  0.375000  0.875000  0.375000  1
  Fe  Fe4  1  0.375000  0.375000  0.875000  1
  Fe  Fe5  1  0.375000  0.375000  0.375000  1
