# generated using pymatgen
data_TbY7Hf9Si16W3
_symmetry_space_group_name_H-M   'P 1'
_cell_length_a   7.19156554
_cell_length_b   7.19148771
_cell_length_c   13.16722503
_cell_angle_alpha   90.11011133
_cell_angle_beta   90.10812171
_cell_angle_gamma   90.09173920
_symmetry_Int_Tables_number   1
_chemical_formula_structural   TbY7Hf9Si16W3
_chemical_formula_sum   'Tb1 Y7 Hf9 Si16 W3'
_cell_volume   680.97992364
_cell_formula_units_Z   1
loop_
 _symmetry_equiv_pos_site_id
 _symmetry_equiv_pos_as_xyz
  1  'x, y, z'
loop_
 _atom_site_type_symbol
 _atom_site_label
 _atom_site_symmetry_multiplicity
 _atom_site_fract_x
 _atom_site_fract_y
 _atom_site_fract_z
 _atom_site_occupancy
  Tb  Tb0  1  0.655983  0.000610  0.284606  1
  Y  Y1  1  0.999418  0.344037  0.215370  1
  Y  Y2  1  0.003295  0.656813  0.714777  1
  Y  Y3  1  0.155157  0.499844  0.464137  1
  Y  Y4  1  0.500144  0.844838  0.035847  1
  Y  Y5  1  0.845876  0.501805  0.967709  1
  Y  Y6  1  0.498180  0.154121  0.532294  1
  Y  Y7  1  0.343185  0.996708  0.785227  1
  Hf  Hf8  1  0.675111  0.324885  0.750005  1
  Hf  Hf9  1  0.147430  0.992814  0.373551  1
  Hf  Hf10  1  0.854403  0.004838  0.876519  1
  Hf  Hf11  1  0.505819  0.649803  0.621464  1
  Hf  Hf12  1  0.350182  0.494180  0.878543  1
  Hf  Hf13  1  0.492686  0.351973  0.125472  1
  Hf  Hf14  1  0.648019  0.507301  0.374527  1
  Hf  Hf15  1  0.995188  0.145607  0.623488  1
  Hf  Hf16  1  0.007166  0.852612  0.126447  1
  Si  Si17  1  0.361051  0.298112  0.316542  1
  Si  Si18  1  0.637687  0.705350  0.817324  1
  Si  Si19  1  0.203191  0.861613  0.565785  1
  Si  Si20  1  0.138385  0.796819  0.934210  1
  Si  Si21  1  0.797613  0.138161  0.067007  1
  Si  Si22  1  0.861861  0.202438  0.433025  1
  Si  Si23  1  0.294650  0.362321  0.682680  1
  Si  Si24  1  0.701898  0.638902  0.183446  1
  Si  Si25  1  0.295880  0.050127  0.184021  1
  Si  Si26  1  0.704886  0.947763  0.682076  1
  Si  Si27  1  0.449466  0.795405  0.432391  1
  Si  Si28  1  0.204590  0.550489  0.067628  1
  Si  Si29  1  0.546692  0.202959  0.936150  1
  Si  Si30  1  0.797055  0.453317  0.563844  1
  Si  Si31  1  0.052241  0.295112  0.817930  1
  Si  Si32  1  0.949900  0.704063  0.315949  1
  W  W33  1  0.176596  0.175140  0.001404  1
  W  W34  1  0.824862  0.823387  0.498609  1
  W  W35  1  0.324255  0.675734  0.249996  1
