# generated using pymatgen
data_TbLu3Mg3ZnPt4
_symmetry_space_group_name_H-M   'P 1'
_cell_length_a   4.14832100
_cell_length_b   6.94860404
_cell_length_c   8.51026913
_cell_angle_alpha   88.67461865
_cell_angle_beta   90.00000000
_cell_angle_gamma   90.00000000
_symmetry_Int_Tables_number   1
_chemical_formula_structural   TbLu3Mg3ZnPt4
_chemical_formula_sum   'Tb1 Lu3 Mg3 Zn1 Pt4'
_cell_volume   245.24321883
_cell_formula_units_Z   1
loop_
 _symmetry_equiv_pos_site_id
 _symmetry_equiv_pos_as_xyz
  1  'x, y, z'
loop_
 _atom_site_type_symbol
 _atom_site_label
 _atom_site_symmetry_multiplicity
 _atom_site_fract_x
 _atom_site_fract_y
 _atom_site_fract_z
 _atom_site_occupancy
  Tb  Tb0  1  0.750000  0.450406  0.830391  1
  Lu  Lu1  1  0.250000  0.538265  0.172102  1
  Lu  Lu2  1  0.750000  0.959519  0.677511  1
  Lu  Lu3  1  0.250000  0.043166  0.321838  1
  Mg  Mg4  1  0.250000  0.636303  0.559310  1
  Mg  Mg5  1  0.750000  0.362989  0.439313  1
  Mg  Mg6  1  0.750000  0.873859  0.056249  1
  Zn  Zn7  1  0.250000  0.135088  0.942162  1
  Pt  Pt8  1  0.250000  0.751972  0.871468  1
  Pt  Pt9  1  0.750000  0.252753  0.133188  1
  Pt  Pt10  1  0.750000  0.757115  0.370474  1
  Pt  Pt11  1  0.250000  0.238563  0.625993  1
