# generated using pymatgen
data_FeWBr8
_symmetry_space_group_name_H-M   'P 1'
_cell_length_a   9.94068547
_cell_length_b   9.94068505
_cell_length_c   9.23723400
_cell_angle_alpha   90.00000000
_cell_angle_beta   90.00000000
_cell_angle_gamma   125.06168473
_symmetry_Int_Tables_number   1
_chemical_formula_structural   FeWBr8
_chemical_formula_sum   'Fe2 W2 Br16'
_cell_volume   747.15609848
_cell_formula_units_Z   2
loop_
 _symmetry_equiv_pos_site_id
 _symmetry_equiv_pos_as_xyz
  1  'x, y, z'
loop_
 _atom_site_type_symbol
 _atom_site_label
 _atom_site_symmetry_multiplicity
 _atom_site_fract_x
 _atom_site_fract_y
 _atom_site_fract_z
 _atom_site_occupancy
  Fe  Fe0  1  0.804679  0.195321  0.250000  1
  Fe  Fe1  1  0.195321  0.804679  0.750000  1
  W  W2  1  0.624043  0.375957  0.250000  1
  W  W3  1  0.375957  0.624043  0.750000  1
  Br  Br4  1  0.510001  0.061202  0.250000  1
  Br  Br5  1  0.061202  0.510001  0.750000  1
  Br  Br6  1  0.489999  0.938798  0.750000  1
  Br  Br7  1  0.938798  0.489999  0.250000  1
  Br  Br8  1  0.639684  0.360316  0.987156  1
  Br  Br9  1  0.360316  0.639684  0.012844  1
  Br  Br10  1  0.639684  0.360316  0.512844  1
  Br  Br11  1  0.360316  0.639684  0.487156  1
  Br  Br12  1  0.338153  0.286633  0.250000  1
  Br  Br13  1  0.286633  0.338153  0.750000  1
  Br  Br14  1  0.661847  0.713367  0.750000  1
  Br  Br15  1  0.713367  0.661847  0.250000  1
  Br  Br16  1  0.878115  0.121885  0.456841  1
  Br  Br17  1  0.121885  0.878115  0.543159  1
  Br  Br18  1  0.878115  0.121885  0.043159  1
  Br  Br19  1  0.121885  0.878115  0.956841  1
