# generated using pymatgen
data_Zr5CN4
_symmetry_space_group_name_H-M   'P 1'
_cell_length_a   13.47072873
_cell_length_b   13.47072858
_cell_length_c   13.47072964
_cell_angle_alpha   14.00450652
_cell_angle_beta   14.00450757
_cell_angle_gamma   14.00451137
_symmetry_Int_Tables_number   1
_chemical_formula_structural   Zr5CN4
_chemical_formula_sum   'Zr5 C1 N4'
_cell_volume   124.59053343
_cell_formula_units_Z   1
loop_
 _symmetry_equiv_pos_site_id
 _symmetry_equiv_pos_as_xyz
  1  'x, y, z'
loop_
 _atom_site_type_symbol
 _atom_site_label
 _atom_site_symmetry_multiplicity
 _atom_site_fract_x
 _atom_site_fract_y
 _atom_site_fract_z
 _atom_site_occupancy
  Zr  Zr0  1  0.601020  0.601020  0.601020  1
  Zr  Zr1  1  0.000000  0.000000  0.000000  1
  Zr  Zr2  1  0.398980  0.398980  0.398980  1
  Zr  Zr3  1  0.199994  0.199994  0.199994  1
  Zr  Zr4  1  0.800006  0.800006  0.800006  1
  C  C5  1  0.500000  0.500000  0.500000  1
  N  N6  1  0.098824  0.098824  0.098824  1
  N  N7  1  0.700119  0.700119  0.700119  1
  N  N8  1  0.299881  0.299881  0.299881  1
  N  N9  1  0.901176  0.901176  0.901176  1
