# generated using pymatgen
data_AcCd3Rh
_symmetry_space_group_name_H-M   'P 1'
_cell_length_a   7.38274868
_cell_length_b   7.38274864
_cell_length_c   7.38274745
_cell_angle_alpha   145.93124355
_cell_angle_beta   145.93125849
_cell_angle_gamma   48.94889493
_symmetry_Int_Tables_number   1
_chemical_formula_structural   AcCd3Rh
_chemical_formula_sum   'Ac1 Cd3 Rh1'
_cell_volume   125.71833355
_cell_formula_units_Z   1
loop_
 _symmetry_equiv_pos_site_id
 _symmetry_equiv_pos_as_xyz
  1  'x, y, z'
loop_
 _atom_site_type_symbol
 _atom_site_label
 _atom_site_symmetry_multiplicity
 _atom_site_fract_x
 _atom_site_fract_y
 _atom_site_fract_z
 _atom_site_occupancy
  Ac  Ac0  1  0.957366  0.957366  0.000000  1
  Cd  Cd1  1  0.243872  0.743872  0.500000  1
  Cd  Cd2  1  0.743872  0.243872  0.500000  1
  Cd  Cd3  1  0.591198  0.591198  0.000000  1
  Rh  Rh4  1  0.389494  0.389494  0.000000  1
