# generated using pymatgen
data_Pd2RuSe8
_symmetry_space_group_name_H-M   'P 1'
_cell_length_a   6.15570147
_cell_length_b   6.17209974
_cell_length_c   6.09301016
_cell_angle_alpha   91.29206282
_cell_angle_beta   90.69927461
_cell_angle_gamma   91.72851111
_symmetry_Int_Tables_number   1
_chemical_formula_structural   Pd2RuSe8
_chemical_formula_sum   'Pd2 Ru1 Se8'
_cell_volume   231.31201291
_cell_formula_units_Z   1
loop_
 _symmetry_equiv_pos_site_id
 _symmetry_equiv_pos_as_xyz
  1  'x, y, z'
loop_
 _atom_site_type_symbol
 _atom_site_label
 _atom_site_symmetry_multiplicity
 _atom_site_fract_x
 _atom_site_fract_y
 _atom_site_fract_z
 _atom_site_occupancy
  Pd  Pd0  1  0.000000  0.500000  0.500000  1
  Pd  Pd1  1  0.500000  0.000000  0.500000  1
  Ru  Ru2  1  0.500000  0.500000  0.000000  1
  Se  Se3  1  0.386559  0.874560  0.103143  1
  Se  Se4  1  0.117950  0.388194  0.887041  1
  Se  Se5  1  0.887381  0.104432  0.382691  1
  Se  Se6  1  0.613441  0.125440  0.896857  1
  Se  Se7  1  0.882050  0.611806  0.112959  1
  Se  Se8  1  0.112619  0.895568  0.617309  1
  Se  Se9  1  0.612745  0.614064  0.630607  1
  Se  Se10  1  0.387255  0.385936  0.369393  1
