# generated using pymatgen
data_Tb2YbTm(Ga2Ag)4
_symmetry_space_group_name_H-M   'P 1'
_cell_length_a   4.36647000
_cell_length_b   6.98117709
_cell_length_c   10.26785520
_cell_angle_alpha   90.23132258
_cell_angle_beta   90.00000000
_cell_angle_gamma   90.00000000
_symmetry_Int_Tables_number   1
_chemical_formula_structural   Tb2YbTm(Ga2Ag)4
_chemical_formula_sum   'Tb2 Yb1 Tm1 Ga8 Ag4'
_cell_volume   312.99350909
_cell_formula_units_Z   1
loop_
 _symmetry_equiv_pos_site_id
 _symmetry_equiv_pos_as_xyz
  1  'x, y, z'
loop_
 _atom_site_type_symbol
 _atom_site_label
 _atom_site_symmetry_multiplicity
 _atom_site_fract_x
 _atom_site_fract_y
 _atom_site_fract_z
 _atom_site_occupancy
  Tb  Tb0  1  0.250000  0.779319  0.826915  1
  Tb  Tb1  1  0.750000  0.223329  0.172797  1
  Yb  Yb2  1  0.250000  0.275788  0.671471  1
  Tm  Tm3  1  0.750000  0.721628  0.328885  1
  Ga  Ga4  1  0.250000  0.703751  0.535211  1
  Ga  Ga5  1  0.750000  0.299583  0.464297  1
  Ga  Ga6  1  0.750000  0.792512  0.039107  1
  Ga  Ga7  1  0.250000  0.201465  0.963647  1
  Ga  Ga8  1  0.250000  0.925396  0.155330  1
  Ga  Ga9  1  0.750000  0.072311  0.848927  1
  Ga  Ga10  1  0.750000  0.571322  0.650621  1
  Ga  Ga11  1  0.250000  0.430899  0.344977  1
  Ag  Ag12  1  0.250000  0.544181  0.097361  1
  Ag  Ag13  1  0.750000  0.455810  0.901399  1
  Ag  Ag14  1  0.750000  0.958514  0.596737  1
  Ag  Ag15  1  0.250000  0.044192  0.402317  1
