# generated using pymatgen
data_K(CrSb3)4
_symmetry_space_group_name_H-M   'P 1'
_cell_length_a   8.30305153
_cell_length_b   8.30305107
_cell_length_c   8.30305100
_cell_angle_alpha   109.47122290
_cell_angle_beta   109.47122178
_cell_angle_gamma   109.47122751
_symmetry_Int_Tables_number   1
_chemical_formula_structural   K(CrSb3)4
_chemical_formula_sum   'K1 Cr4 Sb12'
_cell_volume   440.64739011
_cell_formula_units_Z   1
loop_
 _symmetry_equiv_pos_site_id
 _symmetry_equiv_pos_as_xyz
  1  'x, y, z'
loop_
 _atom_site_type_symbol
 _atom_site_label
 _atom_site_symmetry_multiplicity
 _atom_site_fract_x
 _atom_site_fract_y
 _atom_site_fract_z
 _atom_site_occupancy
  K  K0  1  0.000000  0.000000  0.000000  1
  Cr  Cr1  1  0.500000  0.500000  0.500000  1
  Cr  Cr2  1  0.500000  0.000000  0.000000  1
  Cr  Cr3  1  0.000000  0.500000  0.000000  1
  Cr  Cr4  1  0.000000  0.000000  0.500000  1
  Sb  Sb5  1  0.153432  0.497979  0.344547  1
  Sb  Sb6  1  0.502021  0.655453  0.846568  1
  Sb  Sb7  1  0.344547  0.846568  0.191117  1
  Sb  Sb8  1  0.808883  0.655453  0.153432  1
  Sb  Sb9  1  0.655453  0.846568  0.502021  1
  Sb  Sb10  1  0.191117  0.344547  0.846568  1
  Sb  Sb11  1  0.655453  0.153432  0.808883  1
  Sb  Sb12  1  0.344547  0.153432  0.497979  1
  Sb  Sb13  1  0.497979  0.344547  0.153432  1
  Sb  Sb14  1  0.846568  0.502021  0.655453  1
  Sb  Sb15  1  0.846568  0.191117  0.344547  1
  Sb  Sb16  1  0.153432  0.808883  0.655453  1
