# generated using pymatgen
data_Sm2Al3Tc14C3
_symmetry_space_group_name_H-M   'P 1'
_cell_length_a   6.96342400
_cell_length_b   6.96342614
_cell_length_c   6.96342578
_cell_angle_alpha   82.28440789
_cell_angle_beta   82.28440681
_cell_angle_gamma   82.28440121
_symmetry_Int_Tables_number   1
_chemical_formula_structural   Sm2Al3Tc14C3
_chemical_formula_sum   'Sm2 Al3 Tc14 C3'
_cell_volume   329.23466839
_cell_formula_units_Z   1
loop_
 _symmetry_equiv_pos_site_id
 _symmetry_equiv_pos_as_xyz
  1  'x, y, z'
loop_
 _atom_site_type_symbol
 _atom_site_label
 _atom_site_symmetry_multiplicity
 _atom_site_fract_x
 _atom_site_fract_y
 _atom_site_fract_z
 _atom_site_occupancy
  Sm  Sm0  1  0.657990  0.657990  0.657990  1
  Sm  Sm1  1  0.342010  0.342010  0.342010  1
  Al  Al2  1  0.000000  0.000000  0.500000  1
  Al  Al3  1  0.500000  0.000000  0.000000  1
  Al  Al4  1  0.000000  0.500000  0.000000  1
  Tc  Tc5  1  0.723014  0.276986  0.000000  1
  Tc  Tc6  1  0.000000  0.723014  0.276986  1
  Tc  Tc7  1  0.276986  0.000000  0.723014  1
  Tc  Tc8  1  0.000000  0.276986  0.723014  1
  Tc  Tc9  1  0.723014  0.000000  0.276986  1
  Tc  Tc10  1  0.276986  0.723014  0.000000  1
  Tc  Tc11  1  0.351010  0.351010  0.850174  1
  Tc  Tc12  1  0.850174  0.351010  0.351010  1
  Tc  Tc13  1  0.351010  0.850174  0.351010  1
  Tc  Tc14  1  0.648990  0.648990  0.149826  1
  Tc  Tc15  1  0.149826  0.648990  0.648990  1
  Tc  Tc16  1  0.648990  0.149826  0.648990  1
  Tc  Tc17  1  0.904808  0.904808  0.904808  1
  Tc  Tc18  1  0.095192  0.095192  0.095192  1
  C  C19  1  0.500000  0.500000  0.000000  1
  C  C20  1  0.000000  0.500000  0.500000  1
  C  C21  1  0.500000  0.000000  0.500000  1
