# generated using pymatgen
data_NdZn3P7N12
_symmetry_space_group_name_H-M   'P 1'
_cell_length_a   7.28357200
_cell_length_b   7.30354370
_cell_length_c   7.28357242
_cell_angle_alpha   109.52677793
_cell_angle_beta   109.41561798
_cell_angle_gamma   109.52677329
_symmetry_Int_Tables_number   1
_chemical_formula_structural   NdZn3P7N12
_chemical_formula_sum   'Nd1 Zn3 P7 N12'
_cell_volume   298.05906141
_cell_formula_units_Z   1
loop_
 _symmetry_equiv_pos_site_id
 _symmetry_equiv_pos_as_xyz
  1  'x, y, z'
loop_
 _atom_site_type_symbol
 _atom_site_label
 _atom_site_symmetry_multiplicity
 _atom_site_fract_x
 _atom_site_fract_y
 _atom_site_fract_z
 _atom_site_occupancy
  Nd  Nd0  1  0.000000  0.312405  0.000000  1
  Zn  Zn1  1  0.665285  0.663534  0.665285  1
  Zn  Zn2  1  0.334715  0.998249  0.000000  1
  Zn  Zn3  1  0.000000  0.998249  0.334715  1
  P  P4  1  0.744913  0.253370  0.492748  1
  P  P5  1  0.252165  0.760622  0.507252  1
  P  P6  1  0.507252  0.760622  0.252165  1
  P  P7  1  0.492748  0.253370  0.744913  1
  P  P8  1  0.747835  0.508457  0.255087  1
  P  P9  1  0.255087  0.508457  0.747835  1
  P  P10  1  0.000000  0.935106  0.000000  1
  N  N11  1  0.570583  0.282088  0.000000  1
  N  N12  1  0.434127  0.438617  0.704279  1
  N  N13  1  0.000000  0.282088  0.570583  1
  N  N14  1  0.270152  0.004490  0.565873  1
  N  N15  1  0.704279  0.438617  0.434127  1
  N  N16  1  0.000000  0.570768  0.295316  1
  N  N17  1  0.565873  0.004490  0.270152  1
  N  N18  1  0.429417  0.711505  0.429417  1
  N  N19  1  0.295316  0.570768  0.000000  1
  N  N20  1  0.704684  0.275452  0.704684  1
  N  N21  1  0.729848  0.734338  0.295721  1
  N  N22  1  0.295721  0.734338  0.729848  1
