# generated using pymatgen
data_Ce7Y3(Ir2Os)2
_symmetry_space_group_name_H-M   'P 1'
_cell_length_a   11.01854416
_cell_length_b   11.05983900
_cell_length_c   6.29432800
_cell_angle_alpha   90.00000000
_cell_angle_beta   89.70287404
_cell_angle_gamma   90.00000000
_symmetry_Int_Tables_number   1
_chemical_formula_structural   Ce7Y3(Ir2Os)2
_chemical_formula_sum   'Ce14 Y6 Ir8 Os4'
_cell_volume   767.03742105
_cell_formula_units_Z   2
loop_
 _symmetry_equiv_pos_site_id
 _symmetry_equiv_pos_as_xyz
  1  'x, y, z'
loop_
 _atom_site_type_symbol
 _atom_site_label
 _atom_site_symmetry_multiplicity
 _atom_site_fract_x
 _atom_site_fract_y
 _atom_site_fract_z
 _atom_site_occupancy
  Ce  Ce0  1  0.292774  0.089378  0.378335  1
  Ce  Ce1  1  0.292774  0.910622  0.878335  1
  Ce  Ce2  1  0.708885  0.090038  0.879879  1
  Ce  Ce3  1  0.708885  0.909962  0.379879  1
  Ce  Ce4  1  0.589813  0.790316  0.881141  1
  Ce  Ce5  1  0.589813  0.209684  0.381141  1
  Ce  Ce6  1  0.408350  0.790173  0.380597  1
  Ce  Ce7  1  0.408350  0.209827  0.880597  1
  Ce  Ce8  1  0.204861  0.412352  0.618959  1
  Ce  Ce9  1  0.204861  0.587648  0.118959  1
  Ce  Ce10  1  0.793864  0.409463  0.120388  1
  Ce  Ce11  1  0.793864  0.590537  0.620388  1
  Ce  Ce12  1  0.912144  0.708696  0.118941  1
  Ce  Ce13  1  0.912144  0.291304  0.618941  1
  Y  Y14  1  0.088285  0.712083  0.622928  1
  Y  Y15  1  0.088285  0.287917  0.122928  1
  Y  Y16  1  0.999807  0.998911  0.496380  1
  Y  Y17  1  0.999807  0.001089  0.996380  1
  Y  Y18  1  0.500508  0.499180  0.004671  1
  Y  Y19  1  0.500508  0.500820  0.504671  1
  Ir  Ir20  1  0.842607  0.155590  0.252025  1
  Ir  Ir21  1  0.842607  0.844410  0.752025  1
  Ir  Ir22  1  0.157762  0.153854  0.738620  1
  Ir  Ir23  1  0.157762  0.846146  0.238620  1
  Ir  Ir24  1  0.657503  0.342729  0.751183  1
  Ir  Ir25  1  0.657503  0.657271  0.251183  1
  Ir  Ir26  1  0.344838  0.342840  0.256375  1
  Ir  Ir27  1  0.344838  0.657160  0.756375  1
  Os  Os28  1  0.500301  0.000282  0.125266  1
  Os  Os29  1  0.500301  0.999718  0.625266  1
  Os  Os30  1  0.997698  0.497905  0.874313  1
  Os  Os31  1  0.997698  0.502095  0.374313  1
