# generated using pymatgen
data_Tm3Pa3(Sb4Pt3)2
_symmetry_space_group_name_H-M   'P 1'
_cell_length_a   8.43354077
_cell_length_b   8.42083749
_cell_length_c   8.42083783
_cell_angle_alpha   109.49850552
_cell_angle_beta   108.90372455
_cell_angle_gamma   109.95215286
_symmetry_Int_Tables_number   1
_chemical_formula_structural   Tm3Pa3(Sb4Pt3)2
_chemical_formula_sum   'Tm3 Pa3 Sb8 Pt6'
_cell_volume   460.66852622
_cell_formula_units_Z   1
loop_
 _symmetry_equiv_pos_site_id
 _symmetry_equiv_pos_as_xyz
  1  'x, y, z'
loop_
 _atom_site_type_symbol
 _atom_site_label
 _atom_site_symmetry_multiplicity
 _atom_site_fract_x
 _atom_site_fract_y
 _atom_site_fract_z
 _atom_site_occupancy
  Tm  Tm0  1  0.875259  0.249960  0.125507  1
  Tm  Tm1  1  0.624741  0.750248  0.374701  1
  Tm  Tm2  1  0.250000  0.125369  0.875369  1
  Pa  Pa3  1  0.750000  0.373742  0.623742  1
  Pa  Pa4  1  0.123498  0.874536  0.250466  1
  Pa  Pa5  1  0.376502  0.626967  0.751038  1
  Sb  Sb6  1  0.672973  0.498661  0.001236  1
  Sb  Sb7  1  0.499567  0.996956  0.676010  1
  Sb  Sb8  1  0.000433  0.676443  0.497389  1
  Sb  Sb9  1  0.827027  0.828262  0.825687  1
  Sb  Sb10  1  0.499552  0.001708  0.173107  1
  Sb  Sb11  1  0.177636  0.499302  0.000908  1
  Sb  Sb12  1  0.000448  0.173555  0.502156  1
  Sb  Sb13  1  0.322364  0.323272  0.321666  1
  Pt  Pt14  1  0.379416  0.251271  0.622680  1
  Pt  Pt15  1  0.120584  0.743264  0.871855  1
  Pt  Pt16  1  0.250000  0.624519  0.374519  1
  Pt  Pt17  1  0.750000  0.874643  0.124643  1
  Pt  Pt18  1  0.629149  0.378410  0.258060  1
  Pt  Pt19  1  0.870851  0.128911  0.749262  1
