# generated using pymatgen
data_Zr16Co4CuHg3N4
_symmetry_space_group_name_H-M   'P 1'
_cell_length_a   8.81541921
_cell_length_b   8.81541926
_cell_length_c   8.81541961
_cell_angle_alpha   60.35528645
_cell_angle_beta   60.35528704
_cell_angle_gamma   60.35528596
_symmetry_Int_Tables_number   1
_chemical_formula_structural   Zr16Co4CuHg3N4
_chemical_formula_sum   'Zr16 Co4 Cu1 Hg3 N4'
_cell_volume   488.30413482
_cell_formula_units_Z   1
loop_
 _symmetry_equiv_pos_site_id
 _symmetry_equiv_pos_as_xyz
  1  'x, y, z'
loop_
 _atom_site_type_symbol
 _atom_site_label
 _atom_site_symmetry_multiplicity
 _atom_site_fract_x
 _atom_site_fract_y
 _atom_site_fract_z
 _atom_site_occupancy
  Zr  Zr0  1  0.058443  0.645585  0.645585  1
  Zr  Zr1  1  0.645585  0.058443  0.645585  1
  Zr  Zr2  1  0.645585  0.645585  0.058443  1
  Zr  Zr3  1  0.648934  0.648934  0.648934  1
  Zr  Zr4  1  0.818362  0.818362  0.180983  1
  Zr  Zr5  1  0.181790  0.181790  0.818369  1
  Zr  Zr6  1  0.818362  0.180983  0.818362  1
  Zr  Zr7  1  0.181790  0.818369  0.181790  1
  Zr  Zr8  1  0.180983  0.818362  0.818362  1
  Zr  Zr9  1  0.818369  0.181790  0.181790  1
  Zr  Zr10  1  0.432395  0.432395  0.074210  1
  Zr  Zr11  1  0.068642  0.068642  0.432058  1
  Zr  Zr12  1  0.432395  0.074210  0.432395  1
  Zr  Zr13  1  0.068642  0.432058  0.068642  1
  Zr  Zr14  1  0.074210  0.432395  0.432395  1
  Zr  Zr15  1  0.432058  0.068642  0.068642  1
  Co  Co16  1  0.437125  0.854747  0.854747  1
  Co  Co17  1  0.854747  0.437125  0.854747  1
  Co  Co18  1  0.854747  0.854747  0.437125  1
  Co  Co19  1  0.852852  0.852852  0.852852  1
  Cu  Cu20  1  0.414012  0.414012  0.414012  1
  Hg  Hg21  1  0.750388  0.414147  0.414147  1
  Hg  Hg22  1  0.414147  0.750388  0.414147  1
  Hg  Hg23  1  0.414147  0.414147  0.750388  1
  N  N24  1  0.623504  0.125827  0.125827  1
  N  N25  1  0.125827  0.623504  0.125827  1
  N  N26  1  0.125827  0.125827  0.623504  1
  N  N27  1  0.126130  0.126130  0.126130  1
