# generated using pymatgen
data_Tb17Ho2TmPb16
_symmetry_space_group_name_H-M   'P 1'
_cell_length_a   8.22354778
_cell_length_b   15.71446800
_cell_length_c   8.31478915
_cell_angle_alpha   90.00000000
_cell_angle_beta   90.03574072
_cell_angle_gamma   90.00000000
_symmetry_Int_Tables_number   1
_chemical_formula_structural   Tb17Ho2TmPb16
_chemical_formula_sum   'Tb17 Ho2 Tm1 Pb16'
_cell_volume   1074.50900383
_cell_formula_units_Z   1
loop_
 _symmetry_equiv_pos_site_id
 _symmetry_equiv_pos_as_xyz
  1  'x, y, z'
loop_
 _atom_site_type_symbol
 _atom_site_label
 _atom_site_symmetry_multiplicity
 _atom_site_fract_x
 _atom_site_fract_y
 _atom_site_fract_z
 _atom_site_occupancy
  Tb  Tb0  1  0.622531  0.620235  0.159334  1
  Tb  Tb1  1  0.123105  0.879790  0.340249  1
  Tb  Tb2  1  0.377160  0.120224  0.840477  1
  Tb  Tb3  1  0.877180  0.379698  0.659511  1
  Tb  Tb4  1  0.377160  0.379776  0.840477  1
  Tb  Tb5  1  0.877180  0.120302  0.659511  1
  Tb  Tb6  1  0.622531  0.879765  0.159334  1
  Tb  Tb7  1  0.123105  0.620210  0.340249  1
  Tb  Tb8  1  0.466352  0.600134  0.677187  1
  Tb  Tb9  1  0.966681  0.899831  0.823186  1
  Tb  Tb10  1  0.533505  0.100218  0.322995  1
  Tb  Tb11  1  0.033457  0.399852  0.177009  1
  Tb  Tb12  1  0.533505  0.399782  0.322995  1
  Tb  Tb13  1  0.033457  0.100148  0.177009  1
  Tb  Tb14  1  0.466352  0.899866  0.677187  1
  Tb  Tb15  1  0.966681  0.600169  0.823186  1
  Tb  Tb16  1  0.791340  0.750000  0.496707  1
  Ho  Ho17  1  0.208889  0.250000  0.503467  1
  Ho  Ho18  1  0.708903  0.250000  0.996657  1
  Tm  Tm19  1  0.290975  0.750000  0.003521  1
  Pb  Pb20  1  0.718912  0.457177  0.967207  1
  Pb  Pb21  1  0.218905  0.042823  0.532731  1
  Pb  Pb22  1  0.281120  0.957046  0.032746  1
  Pb  Pb23  1  0.781082  0.542587  0.467181  1
  Pb  Pb24  1  0.281120  0.542954  0.032746  1
  Pb  Pb25  1  0.781082  0.957413  0.467181  1
  Pb  Pb26  1  0.718912  0.042823  0.967207  1
  Pb  Pb27  1  0.218905  0.457177  0.532731  1
  Pb  Pb28  1  0.427017  0.750000  0.372689  1
  Pb  Pb29  1  0.928064  0.750000  0.126361  1
  Pb  Pb30  1  0.572332  0.250000  0.626911  1
  Pb  Pb31  1  0.072337  0.250000  0.873117  1
  Pb  Pb32  1  0.654715  0.750000  0.848980  1
  Pb  Pb33  1  0.155235  0.750000  0.652221  1
  Pb  Pb34  1  0.345068  0.250000  0.151591  1
  Pb  Pb35  1  0.845149  0.250000  0.348152  1
