# generated using pymatgen
data_Sc11GaOs3
_symmetry_space_group_name_H-M   'P 1'
_cell_length_a   9.60807790
_cell_length_b   9.46772038
_cell_length_c   9.60807696
_cell_angle_alpha   60.48207493
_cell_angle_beta   59.03586162
_cell_angle_gamma   60.48207326
_symmetry_Int_Tables_number   1
_chemical_formula_structural   Sc11GaOs3
_chemical_formula_sum   'Sc22 Ga2 Os6'
_cell_volume   617.76131742
_cell_formula_units_Z   2
loop_
 _symmetry_equiv_pos_site_id
 _symmetry_equiv_pos_as_xyz
  1  'x, y, z'
loop_
 _atom_site_type_symbol
 _atom_site_label
 _atom_site_symmetry_multiplicity
 _atom_site_fract_x
 _atom_site_fract_y
 _atom_site_fract_z
 _atom_site_occupancy
  Sc  Sc0  1  0.837211  0.855166  0.837211  1
  Sc  Sc1  1  0.529587  0.162789  0.144834  1
  Sc  Sc2  1  0.144834  0.162789  0.529587  1
  Sc  Sc3  1  0.162789  0.529587  0.162789  1
  Sc  Sc4  1  0.855166  0.837211  0.470413  1
  Sc  Sc5  1  0.837211  0.470413  0.837211  1
  Sc  Sc6  1  0.470413  0.837211  0.855166  1
  Sc  Sc7  1  0.162789  0.144834  0.162789  1
  Sc  Sc8  1  0.197983  0.802017  0.197983  1
  Sc  Sc9  1  0.197231  0.802769  0.802769  1
  Sc  Sc10  1  0.802769  0.197231  0.197231  1
  Sc  Sc11  1  0.802769  0.802769  0.197231  1
  Sc  Sc12  1  0.197231  0.197231  0.802769  1
  Sc  Sc13  1  0.802017  0.197983  0.802017  1
  Sc  Sc14  1  0.379643  0.391541  0.379643  1
  Sc  Sc15  1  0.150828  0.620357  0.608459  1
  Sc  Sc16  1  0.620357  0.150828  0.620357  1
  Sc  Sc17  1  0.608459  0.620357  0.150828  1
  Sc  Sc18  1  0.379643  0.849172  0.379643  1
  Sc  Sc19  1  0.391541  0.379643  0.849172  1
  Sc  Sc20  1  0.849172  0.379643  0.391541  1
  Sc  Sc21  1  0.620357  0.608459  0.620357  1
  Ga  Ga22  1  0.500000  0.000000  0.500000  1
  Ga  Ga23  1  0.000000  0.500000  0.000000  1
  Os  Os24  1  0.500000  0.500000  0.000000  1
  Os  Os25  1  0.000000  0.000000  0.500000  1
  Os  Os26  1  0.000000  0.500000  0.500000  1
  Os  Os27  1  0.500000  0.000000  0.000000  1
  Os  Os28  1  0.500000  0.500000  0.500000  1
  Os  Os29  1  0.000000  0.000000  0.000000  1
