# generated using pymatgen
data_Ba2AsPIr2
_symmetry_space_group_name_H-M   'P 1'
_cell_length_a   6.65743700
_cell_length_b   6.66687102
_cell_length_c   6.66016311
_cell_angle_alpha   89.77309567
_cell_angle_beta   90.00000000
_cell_angle_gamma   90.00000000
_symmetry_Int_Tables_number   1
_chemical_formula_structural   Ba2AsPIr2
_chemical_formula_sum   'Ba4 As2 P2 Ir4'
_cell_volume   295.60418484
_cell_formula_units_Z   2
loop_
 _symmetry_equiv_pos_site_id
 _symmetry_equiv_pos_as_xyz
  1  'x, y, z'
loop_
 _atom_site_type_symbol
 _atom_site_label
 _atom_site_symmetry_multiplicity
 _atom_site_fract_x
 _atom_site_fract_y
 _atom_site_fract_z
 _atom_site_occupancy
  Ba  Ba0  1  0.629353  0.373964  0.871326  1
  Ba  Ba1  1  0.372741  0.869920  0.627623  1
  Ba  Ba2  1  0.129353  0.126036  0.128674  1
  Ba  Ba3  1  0.872741  0.630080  0.372377  1
  As  As4  1  0.156525  0.346058  0.660180  1
  As  As5  1  0.656525  0.153942  0.339820  1
  P  P6  1  0.345637  0.658091  0.150362  1
  P  P7  1  0.845637  0.841909  0.849638  1
  Ir  Ir8  1  0.593510  0.892713  0.084040  1
  Ir  Ir9  1  0.093510  0.607287  0.915960  1
  Ir  Ir10  1  0.402233  0.418177  0.392402  1
  Ir  Ir11  1  0.902233  0.081823  0.607598  1
