# generated using pymatgen
data_Hf2TiMoP2
_symmetry_space_group_name_H-M   'P 1'
_cell_length_a   3.50375900
_cell_length_b   6.75159200
_cell_length_c   8.09746900
_cell_angle_alpha   90.00000000
_cell_angle_beta   90.00000000
_cell_angle_gamma   90.00000000
_symmetry_Int_Tables_number   1
_chemical_formula_structural   Hf2TiMoP2
_chemical_formula_sum   'Hf4 Ti2 Mo2 P4'
_cell_volume   191.55333179
_cell_formula_units_Z   2
loop_
 _symmetry_equiv_pos_site_id
 _symmetry_equiv_pos_as_xyz
  1  'x, y, z'
loop_
 _atom_site_type_symbol
 _atom_site_label
 _atom_site_symmetry_multiplicity
 _atom_site_fract_x
 _atom_site_fract_y
 _atom_site_fract_z
 _atom_site_occupancy
  Hf  Hf0  1  0.250000  0.037144  0.833933  1
  Hf  Hf1  1  0.250000  0.537144  0.666067  1
  Hf  Hf2  1  0.750000  0.966205  0.170205  1
  Hf  Hf3  1  0.750000  0.466205  0.329795  1
  Ti  Ti4  1  0.250000  0.134662  0.441020  1
  Ti  Ti5  1  0.250000  0.634662  0.058980  1
  Mo  Mo6  1  0.750000  0.863110  0.561234  1
  Mo  Mo7  1  0.750000  0.363110  0.938766  1
  P  P8  1  0.250000  0.760198  0.357616  1
  P  P9  1  0.250000  0.260198  0.142384  1
  P  P10  1  0.750000  0.238680  0.640268  1
  P  P11  1  0.750000  0.738680  0.859732  1
