# generated using pymatgen
data_TmMnAl10Rh
_symmetry_space_group_name_H-M   'P 1'
_cell_length_a   6.80896914
_cell_length_b   6.80896924
_cell_length_c   9.06714070
_cell_angle_alpha   90.60415748
_cell_angle_beta   90.60415922
_cell_angle_gamma   96.62011243
_symmetry_Int_Tables_number   1
_chemical_formula_structural   TmMnAl10Rh
_chemical_formula_sum   'Tm2 Mn2 Al20 Rh2'
_cell_volume   417.51596890
_cell_formula_units_Z   2
loop_
 _symmetry_equiv_pos_site_id
 _symmetry_equiv_pos_as_xyz
  1  'x, y, z'
loop_
 _atom_site_type_symbol
 _atom_site_label
 _atom_site_symmetry_multiplicity
 _atom_site_fract_x
 _atom_site_fract_y
 _atom_site_fract_z
 _atom_site_occupancy
  Tm  Tm0  1  0.872538  0.127462  0.750000  1
  Tm  Tm1  1  0.127462  0.872538  0.250000  1
  Mn  Mn2  1  0.000000  0.500000  0.000000  1
  Mn  Mn3  1  0.500000  0.000000  0.500000  1
  Al  Al4  1  0.619888  0.372168  0.548700  1
  Al  Al5  1  0.380112  0.627832  0.451300  1
  Al  Al6  1  0.372168  0.619888  0.048700  1
  Al  Al7  1  0.627832  0.380112  0.951300  1
  Al  Al8  1  0.228958  0.221125  0.495928  1
  Al  Al9  1  0.771042  0.778875  0.504072  1
  Al  Al10  1  0.778875  0.771042  0.004072  1
  Al  Al11  1  0.221125  0.228958  0.995928  1
  Al  Al12  1  0.849198  0.160445  0.098511  1
  Al  Al13  1  0.150802  0.839555  0.901489  1
  Al  Al14  1  0.160445  0.849198  0.598511  1
  Al  Al15  1  0.839555  0.150802  0.401489  1
  Al  Al16  1  0.861197  0.586669  0.753957  1
  Al  Al17  1  0.138803  0.413331  0.246043  1
  Al  Al18  1  0.413331  0.138803  0.746043  1
  Al  Al19  1  0.586669  0.861197  0.253957  1
  Al  Al20  1  0.221359  0.478235  0.755782  1
  Al  Al21  1  0.778641  0.521765  0.244218  1
  Al  Al22  1  0.521765  0.778641  0.744218  1
  Al  Al23  1  0.478235  0.221359  0.255782  1
  Rh  Rh24  1  0.000000  0.500000  0.500000  1
  Rh  Rh25  1  0.500000  0.000000  0.000000  1
