# generated using pymatgen
data_AcLa(Ga3Ni2)2
_symmetry_space_group_name_H-M   'P 1'
_cell_length_a   6.44391263
_cell_length_b   6.44391361
_cell_length_c   5.18424200
_cell_angle_alpha   90.00000000
_cell_angle_beta   90.00000000
_cell_angle_gamma   104.24119793
_symmetry_Int_Tables_number   1
_chemical_formula_structural   AcLa(Ga3Ni2)2
_chemical_formula_sum   'Ac1 La1 Ga6 Ni4'
_cell_volume   208.65500838
_cell_formula_units_Z   1
loop_
 _symmetry_equiv_pos_site_id
 _symmetry_equiv_pos_as_xyz
  1  'x, y, z'
loop_
 _atom_site_type_symbol
 _atom_site_label
 _atom_site_symmetry_multiplicity
 _atom_site_fract_x
 _atom_site_fract_y
 _atom_site_fract_z
 _atom_site_occupancy
  Ac  Ac0  1  0.653165  0.653165  0.250000  1
  La  La1  1  0.335208  0.335208  0.750000  1
  Ga  Ga2  1  0.064520  0.064520  0.250000  1
  Ga  Ga3  1  0.937005  0.937005  0.750000  1
  Ga  Ga4  1  0.090976  0.472297  0.250000  1
  Ga  Ga5  1  0.916925  0.526771  0.750000  1
  Ga  Ga6  1  0.472297  0.090976  0.250000  1
  Ga  Ga7  1  0.526771  0.916925  0.750000  1
  Ni  Ni8  1  0.796881  0.204686  0.000313  1
  Ni  Ni9  1  0.204686  0.796881  0.000313  1
  Ni  Ni10  1  0.204686  0.796881  0.499687  1
  Ni  Ni11  1  0.796881  0.204686  0.499687  1
