# generated using pymatgen
data_TbY15(AlRh)4
_symmetry_space_group_name_H-M   'P 1'
_cell_length_a   9.58187200
_cell_length_b   9.58177162
_cell_length_c   9.58172775
_cell_angle_alpha   60.00259004
_cell_angle_beta   60.00294802
_cell_angle_gamma   60.00301079
_symmetry_Int_Tables_number   1
_chemical_formula_structural   TbY15(AlRh)4
_chemical_formula_sum   'Tb1 Y15 Al4 Rh4'
_cell_volume   622.08978019
_cell_formula_units_Z   1
loop_
 _symmetry_equiv_pos_site_id
 _symmetry_equiv_pos_as_xyz
  1  'x, y, z'
loop_
 _atom_site_type_symbol
 _atom_site_label
 _atom_site_symmetry_multiplicity
 _atom_site_fract_x
 _atom_site_fract_y
 _atom_site_fract_z
 _atom_site_occupancy
  Tb  Tb0  1  0.599992  0.599998  0.600004  1
  Y  Y1  1  0.605377  0.605379  0.188291  1
  Y  Y2  1  0.605371  0.188307  0.605376  1
  Y  Y3  1  0.188292  0.605370  0.605381  1
  Y  Y4  1  0.056482  0.442695  0.442688  1
  Y  Y5  1  0.442049  0.058150  0.058161  1
  Y  Y6  1  0.442694  0.056476  0.442692  1
  Y  Y7  1  0.058146  0.442042  0.058162  1
  Y  Y8  1  0.442699  0.442691  0.056481  1
  Y  Y9  1  0.058157  0.058162  0.442040  1
  Y  Y10  1  0.187597  0.813455  0.813455  1
  Y  Y11  1  0.813626  0.187952  0.187964  1
  Y  Y12  1  0.813471  0.187592  0.813446  1
  Y  Y13  1  0.187967  0.813620  0.187963  1
  Y  Y14  1  0.813465  0.813450  0.187591  1
  Y  Y15  1  0.187955  0.187946  0.813626  1
  Al  Al16  1  0.828437  0.828434  0.828429  1
  Al  Al17  1  0.826611  0.826609  0.516983  1
  Al  Al18  1  0.826619  0.516970  0.826609  1
  Al  Al19  1  0.516980  0.826612  0.826607  1
  Rh  Rh20  1  0.393494  0.393504  0.393495  1
  Rh  Rh21  1  0.391757  0.391780  0.821009  1
  Rh  Rh22  1  0.391769  0.821008  0.391776  1
  Rh  Rh23  1  0.820995  0.391801  0.391770  1
