# generated using pymatgen
data_Er4Th2CoTc
_symmetry_space_group_name_H-M   'P 1'
_cell_length_a   6.27695100
_cell_length_b   7.09712700
_cell_length_c   9.48286400
_cell_angle_alpha   90.00000000
_cell_angle_beta   90.00000000
_cell_angle_gamma   90.00000000
_symmetry_Int_Tables_number   1
_chemical_formula_structural   Er4Th2CoTc
_chemical_formula_sum   'Er8 Th4 Co2 Tc2'
_cell_volume   422.44564500
_cell_formula_units_Z   2
loop_
 _symmetry_equiv_pos_site_id
 _symmetry_equiv_pos_as_xyz
  1  'x, y, z'
loop_
 _atom_site_type_symbol
 _atom_site_label
 _atom_site_symmetry_multiplicity
 _atom_site_fract_x
 _atom_site_fract_y
 _atom_site_fract_z
 _atom_site_occupancy
  Er  Er0  1  0.329077  0.675891  0.064243  1
  Er  Er1  1  0.170923  0.175891  0.435757  1
  Er  Er2  1  0.666840  0.327586  0.569497  1
  Er  Er3  1  0.833160  0.827586  0.930503  1
  Er  Er4  1  0.666840  0.327586  0.930503  1
  Er  Er5  1  0.833160  0.827586  0.569497  1
  Er  Er6  1  0.329077  0.675891  0.435757  1
  Er  Er7  1  0.170923  0.175891  0.064243  1
  Th  Th8  1  0.859955  0.546008  0.250000  1
  Th  Th9  1  0.640045  0.046008  0.250000  1
  Th  Th10  1  0.155973  0.443250  0.750000  1
  Th  Th11  1  0.344027  0.943250  0.750000  1
  Co  Co12  1  0.967961  0.129780  0.750000  1
  Co  Co13  1  0.532039  0.629780  0.750000  1
  Tc  Tc14  1  0.023055  0.874007  0.250000  1
  Tc  Tc15  1  0.476945  0.374007  0.250000  1
