# generated using pymatgen
data_Y4Co8P12Ru11Rh
_symmetry_space_group_name_H-M   'P 1'
_cell_length_a   3.79026200
_cell_length_b   10.64740010
_cell_length_c   12.08869044
_cell_angle_alpha   89.84980611
_cell_angle_beta   90.00000000
_cell_angle_gamma   90.00000000
_symmetry_Int_Tables_number   1
_chemical_formula_structural   Y4Co8P12Ru11Rh
_chemical_formula_sum   'Y4 Co8 P12 Ru11 Rh1'
_cell_volume   487.85478568
_cell_formula_units_Z   1
loop_
 _symmetry_equiv_pos_site_id
 _symmetry_equiv_pos_as_xyz
  1  'x, y, z'
loop_
 _atom_site_type_symbol
 _atom_site_label
 _atom_site_symmetry_multiplicity
 _atom_site_fract_x
 _atom_site_fract_y
 _atom_site_fract_z
 _atom_site_occupancy
  Y  Y0  1  0.250000  0.914897  0.207044  1
  Y  Y1  1  0.750000  0.083962  0.793226  1
  Y  Y2  1  0.750000  0.416446  0.293976  1
  Y  Y3  1  0.250000  0.584726  0.706380  1
  Co  Co4  1  0.250000  0.613068  0.196210  1
  Co  Co5  1  0.750000  0.387412  0.804289  1
  Co  Co6  1  0.750000  0.112378  0.302152  1
  Co  Co7  1  0.250000  0.888324  0.696014  1
  Co  Co8  1  0.250000  0.037612  0.434475  1
  Co  Co9  1  0.750000  0.962792  0.564509  1
  Co  Co10  1  0.750000  0.536798  0.065110  1
  Co  Co11  1  0.250000  0.462353  0.934689  1
  P  P12  1  0.250000  0.073968  0.612533  1
  P  P13  1  0.750000  0.926184  0.386997  1
  P  P14  1  0.750000  0.573906  0.886997  1
  P  P15  1  0.250000  0.429451  0.112425  1
  P  P16  1  0.250000  0.228557  0.374070  1
  P  P17  1  0.750000  0.771943  0.627825  1
  P  P18  1  0.750000  0.727678  0.128442  1
  P  P19  1  0.250000  0.271838  0.872395  1
  P  P20  1  0.250000  0.898386  0.886910  1
  P  P21  1  0.750000  0.097091  0.110994  1
  P  P22  1  0.750000  0.398566  0.613367  1
  P  P23  1  0.250000  0.602022  0.387529  1
  Ru  Ru24  1  0.250000  0.793563  0.486718  1
  Ru  Ru25  1  0.750000  0.207297  0.512509  1
  Ru  Ru26  1  0.750000  0.291700  0.013955  1
  Ru  Ru27  1  0.250000  0.706198  0.986093  1
  Ru  Ru28  1  0.250000  0.094229  0.987347  1
  Ru  Ru29  1  0.750000  0.903918  0.013159  1
  Ru  Ru30  1  0.750000  0.594524  0.514116  1
  Ru  Ru31  1  0.250000  0.405970  0.486136  1
  Ru  Ru32  1  0.250000  0.275543  0.680860  1
  Ru  Ru33  1  0.750000  0.724268  0.319643  1
  Ru  Ru34  1  0.750000  0.775353  0.818697  1
  Rh  Rh35  1  0.250000  0.227078  0.182210  1
