# generated using pymatgen
data_Dy7Tm3(SiSn3)2
_symmetry_space_group_name_H-M   'P 1'
_cell_length_a   9.19582100
_cell_length_b   9.19582247
_cell_length_c   6.43805800
_cell_angle_alpha   90.00000000
_cell_angle_beta   90.00000000
_cell_angle_gamma   119.99999832
_symmetry_Int_Tables_number   1
_chemical_formula_structural   Dy7Tm3(SiSn3)2
_chemical_formula_sum   'Dy7 Tm3 Si2 Sn6'
_cell_volume   471.48362201
_cell_formula_units_Z   1
loop_
 _symmetry_equiv_pos_site_id
 _symmetry_equiv_pos_as_xyz
  1  'x, y, z'
loop_
 _atom_site_type_symbol
 _atom_site_label
 _atom_site_symmetry_multiplicity
 _atom_site_fract_x
 _atom_site_fract_y
 _atom_site_fract_z
 _atom_site_occupancy
  Dy  Dy0  1  0.666667  0.333333  0.000000  1
  Dy  Dy1  1  0.746939  0.747081  0.750213  1
  Dy  Dy2  1  0.252919  0.999858  0.750213  1
  Dy  Dy3  1  0.000142  0.253061  0.750213  1
  Dy  Dy4  1  0.252919  0.253061  0.249787  1
  Dy  Dy5  1  0.746939  0.999858  0.249787  1
  Dy  Dy6  1  0.000142  0.747081  0.249787  1
  Tm  Tm7  1  0.333333  0.666667  0.000000  1
  Tm  Tm8  1  0.333333  0.666667  0.500000  1
  Tm  Tm9  1  0.666667  0.333333  0.500000  1
  Si  Si10  1  0.000000  0.000000  0.000000  1
  Si  Si11  1  0.000000  0.000000  0.500000  1
  Sn  Sn12  1  0.392559  0.392946  0.749845  1
  Sn  Sn13  1  0.607054  0.999613  0.749845  1
  Sn  Sn14  1  0.000387  0.607441  0.749845  1
  Sn  Sn15  1  0.607054  0.607441  0.250155  1
  Sn  Sn16  1  0.392559  0.999613  0.250155  1
  Sn  Sn17  1  0.000387  0.392946  0.250155  1
