# generated using pymatgen
data_Li2Ac2GeSb
_symmetry_space_group_name_H-M   'P 1'
_cell_length_a   9.59218884
_cell_length_b   9.59222045
_cell_length_c   8.00459500
_cell_angle_alpha   90.05706749
_cell_angle_beta   89.94244252
_cell_angle_gamma   120.07032773
_symmetry_Int_Tables_number   1
_chemical_formula_structural   Li2Ac2GeSb
_chemical_formula_sum   'Li8 Ac8 Ge4 Sb4'
_cell_volume   637.37990835
_cell_formula_units_Z   4
loop_
 _symmetry_equiv_pos_site_id
 _symmetry_equiv_pos_as_xyz
  1  'x, y, z'
loop_
 _atom_site_type_symbol
 _atom_site_label
 _atom_site_symmetry_multiplicity
 _atom_site_fract_x
 _atom_site_fract_y
 _atom_site_fract_z
 _atom_site_occupancy
  Li  Li0  1  0.831507  0.168469  0.731660  1
  Li  Li1  1  0.824616  0.659390  0.725504  1
  Li  Li2  1  0.340614  0.175399  0.725492  1
  Li  Li3  1  0.171158  0.828848  0.225637  1
  Li  Li4  1  0.173395  0.343266  0.220852  1
  Li  Li5  1  0.656751  0.826624  0.220844  1
  Li  Li6  1  0.665461  0.334527  0.324749  1
  Li  Li7  1  0.336378  0.663615  0.816226  1
  Ac  Ac8  1  0.484206  0.515805  0.509349  1
  Ac  Ac9  1  0.494853  0.975502  0.507252  1
  Ac  Ac10  1  0.024486  0.505137  0.507260  1
  Ac  Ac11  1  0.507791  0.492229  0.995431  1
  Ac  Ac12  1  0.512957  0.016473  0.998562  1
  Ac  Ac13  1  0.983518  0.487033  0.998558  1
  Ac  Ac14  1  0.996443  0.003552  0.507494  1
  Ac  Ac15  1  0.995652  0.004347  0.992714  1
  Ge  Ge16  1  0.166220  0.332693  0.763406  1
  Ge  Ge17  1  0.667303  0.833778  0.763418  1
  Ge  Ge18  1  0.667277  0.332719  0.739238  1
  Ge  Ge19  1  0.332968  0.667039  0.238502  1
  Sb  Sb20  1  0.833092  0.166905  0.260669  1
  Sb  Sb21  1  0.834273  0.667162  0.261970  1
  Sb  Sb22  1  0.332841  0.165735  0.261973  1
  Sb  Sb23  1  0.166241  0.833755  0.761249  1
