# generated using pymatgen
data_Tm16In4IrPt3
_symmetry_space_group_name_H-M   'P 1'
_cell_length_a   9.58280336
_cell_length_b   9.58280356
_cell_length_c   9.58280480
_cell_angle_alpha   59.96106982
_cell_angle_beta   59.96106969
_cell_angle_gamma   59.96107335
_symmetry_Int_Tables_number   1
_chemical_formula_structural   Tm16In4IrPt3
_chemical_formula_sum   'Tm16 In4 Ir1 Pt3'
_cell_volume   621.69765087
_cell_formula_units_Z   1
loop_
 _symmetry_equiv_pos_site_id
 _symmetry_equiv_pos_as_xyz
  1  'x, y, z'
loop_
 _atom_site_type_symbol
 _atom_site_label
 _atom_site_symmetry_multiplicity
 _atom_site_fract_x
 _atom_site_fract_y
 _atom_site_fract_z
 _atom_site_occupancy
  Tm  Tm0  1  0.808695  0.191909  0.808695  1
  Tm  Tm1  1  0.936073  0.562704  0.562704  1
  Tm  Tm2  1  0.562704  0.936073  0.562704  1
  Tm  Tm3  1  0.812810  0.190233  0.190233  1
  Tm  Tm4  1  0.190233  0.812810  0.190233  1
  Tm  Tm5  1  0.349430  0.947989  0.349430  1
  Tm  Tm6  1  0.938863  0.938863  0.559316  1
  Tm  Tm7  1  0.559316  0.938863  0.938863  1
  Tm  Tm8  1  0.191909  0.808695  0.808695  1
  Tm  Tm9  1  0.349430  0.349430  0.947989  1
  Tm  Tm10  1  0.562704  0.562704  0.936073  1
  Tm  Tm11  1  0.350843  0.350843  0.350843  1
  Tm  Tm12  1  0.190233  0.190233  0.812810  1
  Tm  Tm13  1  0.808695  0.808695  0.191909  1
  Tm  Tm14  1  0.938863  0.559316  0.938863  1
  Tm  Tm15  1  0.947989  0.349430  0.349430  1
  In  In16  1  0.584116  0.584116  0.584116  1
  In  In17  1  0.583285  0.250650  0.583285  1
  In  In18  1  0.583285  0.583285  0.250650  1
  In  In19  1  0.250650  0.583285  0.583285  1
  Ir  Ir20  1  0.142449  0.142449  0.142449  1
  Pt  Pt21  1  0.142119  0.142119  0.573194  1
  Pt  Pt22  1  0.573194  0.142119  0.142119  1
  Pt  Pt23  1  0.142119  0.573194  0.142119  1
