# generated using pymatgen
data_Zr8In4Pt5Au3
_symmetry_space_group_name_H-M   'P 1'
_cell_length_a   7.57426496
_cell_length_b   7.58947327
_cell_length_c   7.04533510
_cell_angle_alpha   90.03098871
_cell_angle_beta   90.08264609
_cell_angle_gamma   90.11767327
_symmetry_Int_Tables_number   1
_chemical_formula_structural   Zr8In4Pt5Au3
_chemical_formula_sum   'Zr8 In4 Pt5 Au3'
_cell_volume   404.99750893
_cell_formula_units_Z   1
loop_
 _symmetry_equiv_pos_site_id
 _symmetry_equiv_pos_as_xyz
  1  'x, y, z'
loop_
 _atom_site_type_symbol
 _atom_site_label
 _atom_site_symmetry_multiplicity
 _atom_site_fract_x
 _atom_site_fract_y
 _atom_site_fract_z
 _atom_site_occupancy
  Zr  Zr0  1  0.135593  0.155391  0.005183  1
  Zr  Zr1  1  0.838551  0.857043  0.998326  1
  Zr  Zr2  1  0.656870  0.350920  0.495556  1
  Zr  Zr3  1  0.364792  0.644124  0.494411  1
  Zr  Zr4  1  0.693182  0.311019  0.004116  1
  Zr  Zr5  1  0.320792  0.685734  0.003509  1
  Zr  Zr6  1  0.801752  0.810457  0.499887  1
  Zr  Zr7  1  0.184604  0.195806  0.495117  1
  In  In8  1  0.500781  0.003534  0.249236  1
  In  In9  1  0.500794  0.999131  0.749614  1
  In  In10  1  0.000647  0.500777  0.249342  1
  In  In11  1  0.996389  0.499905  0.749603  1
  Pt  Pt12  1  0.369688  0.368366  0.213850  1
  Pt  Pt13  1  0.630373  0.628603  0.786270  1
  Pt  Pt14  1  0.632640  0.629792  0.209243  1
  Pt  Pt15  1  0.870068  0.129331  0.712650  1
  Pt  Pt16  1  0.870000  0.128731  0.289302  1
  Au  Au17  1  0.369621  0.366221  0.793275  1
  Au  Au18  1  0.130578  0.867325  0.290639  1
  Au  Au19  1  0.132283  0.867793  0.710871  1
