# generated using pymatgen
data_Tb7Co5TcSn23
_symmetry_space_group_name_H-M   'P 1'
_cell_length_a   9.74795049
_cell_length_b   9.74795016
_cell_length_c   10.02533996
_cell_angle_alpha   90.11205211
_cell_angle_beta   89.88794472
_cell_angle_gamma   119.85424711
_symmetry_Int_Tables_number   1
_chemical_formula_structural   Tb7Co5TcSn23
_chemical_formula_sum   'Tb7 Co5 Tc1 Sn23'
_cell_volume   826.21147703
_cell_formula_units_Z   1
loop_
 _symmetry_equiv_pos_site_id
 _symmetry_equiv_pos_as_xyz
  1  'x, y, z'
loop_
 _atom_site_type_symbol
 _atom_site_label
 _atom_site_symmetry_multiplicity
 _atom_site_fract_x
 _atom_site_fract_y
 _atom_site_fract_z
 _atom_site_occupancy
  Tb  Tb0  1  0.995805  0.004195  0.004243  1
  Tb  Tb1  1  0.479479  0.520521  0.306999  1
  Tb  Tb2  1  0.521165  0.478835  0.693480  1
  Tb  Tb3  1  0.480211  0.958061  0.305830  1
  Tb  Tb4  1  0.519987  0.042251  0.694317  1
  Tb  Tb5  1  0.041939  0.519789  0.305830  1
  Tb  Tb6  1  0.957749  0.480013  0.694317  1
  Co  Co7  1  0.167770  0.832230  0.802329  1
  Co  Co8  1  0.832085  0.663150  0.196343  1
  Co  Co9  1  0.169895  0.336516  0.801537  1
  Co  Co10  1  0.336850  0.167915  0.196343  1
  Co  Co11  1  0.663484  0.830105  0.801537  1
  Tc  Tc12  1  0.833491  0.166509  0.198773  1
  Sn  Sn13  1  0.344175  0.999108  0.999780  1
  Sn  Sn14  1  0.649801  0.996156  0.995299  1
  Sn  Sn15  1  0.003844  0.350199  0.995299  1
  Sn  Sn16  1  0.000892  0.655825  0.999780  1
  Sn  Sn17  1  0.653587  0.653191  0.999732  1
  Sn  Sn18  1  0.346809  0.346413  0.999732  1
  Sn  Sn19  1  0.333329  0.666671  0.816986  1
  Sn  Sn20  1  0.665380  0.334620  0.182722  1
  Sn  Sn21  1  0.999135  0.000865  0.501614  1
  Sn  Sn22  1  0.779795  0.220205  0.457465  1
  Sn  Sn23  1  0.217995  0.782005  0.549116  1
  Sn  Sn24  1  0.781567  0.563723  0.450714  1
  Sn  Sn25  1  0.218854  0.436710  0.548792  1
  Sn  Sn26  1  0.436277  0.218433  0.450714  1
  Sn  Sn27  1  0.563290  0.781146  0.548792  1
  Sn  Sn28  1  0.333290  0.666710  0.115520  1
  Sn  Sn29  1  0.666444  0.333556  0.882929  1
  Sn  Sn30  1  0.116943  0.883057  0.273274  1
  Sn  Sn31  1  0.882395  0.117605  0.726706  1
  Sn  Sn32  1  0.125245  0.236555  0.274715  1
  Sn  Sn33  1  0.882977  0.765378  0.726862  1
  Sn  Sn34  1  0.763445  0.874755  0.274715  1
  Sn  Sn35  1  0.234622  0.117023  0.726862  1
