# generated using pymatgen
data_Tb4Zn4Ir3Pt
_symmetry_space_group_name_H-M   'P 1'
_cell_length_a   4.08797100
_cell_length_b   7.00559079
_cell_length_c   8.17882392
_cell_angle_alpha   89.99990649
_cell_angle_beta   90.00000000
_cell_angle_gamma   90.00000000
_symmetry_Int_Tables_number   1
_chemical_formula_structural   Tb4Zn4Ir3Pt
_chemical_formula_sum   'Tb4 Zn4 Ir3 Pt1'
_cell_volume   234.23049202
_cell_formula_units_Z   1
loop_
 _symmetry_equiv_pos_site_id
 _symmetry_equiv_pos_as_xyz
  1  'x, y, z'
loop_
 _atom_site_type_symbol
 _atom_site_label
 _atom_site_symmetry_multiplicity
 _atom_site_fract_x
 _atom_site_fract_y
 _atom_site_fract_z
 _atom_site_occupancy
  Tb  Tb0  1  0.250000  0.036152  0.321211  1
  Tb  Tb1  1  0.250000  0.545764  0.183911  1
  Tb  Tb2  1  0.750000  0.960016  0.682651  1
  Tb  Tb3  1  0.750000  0.463513  0.812746  1
  Zn  Zn4  1  0.250000  0.636907  0.564573  1
  Zn  Zn5  1  0.250000  0.134002  0.932719  1
  Zn  Zn6  1  0.750000  0.364327  0.438209  1
  Zn  Zn7  1  0.750000  0.860828  0.064666  1
  Ir  Ir8  1  0.250000  0.255001  0.622129  1
  Ir  Ir9  1  0.250000  0.754875  0.878994  1
  Ir  Ir10  1  0.750000  0.744145  0.377306  1
  Pt  Pt11  1  0.750000  0.244469  0.120886  1
