# generated using pymatgen
data_Dy5GeSe4
_symmetry_space_group_name_H-M   'P 1'
_cell_length_a   7.10001878
_cell_length_b   7.10001919
_cell_length_c   7.10001891
_cell_angle_alpha   99.56031195
_cell_angle_beta   99.56030881
_cell_angle_gamma   131.89970526
_symmetry_Int_Tables_number   1
_chemical_formula_structural   Dy5GeSe4
_chemical_formula_sum   'Dy5 Ge1 Se4'
_cell_volume   243.27416093
_cell_formula_units_Z   1
loop_
 _symmetry_equiv_pos_site_id
 _symmetry_equiv_pos_as_xyz
  1  'x, y, z'
loop_
 _atom_site_type_symbol
 _atom_site_label
 _atom_site_symmetry_multiplicity
 _atom_site_fract_x
 _atom_site_fract_y
 _atom_site_fract_z
 _atom_site_occupancy
  Dy  Dy0  1  0.403531  0.791299  0.194830  1
  Dy  Dy1  1  0.000000  0.000000  0.000000  1
  Dy  Dy2  1  0.596469  0.208701  0.805170  1
  Dy  Dy3  1  0.208701  0.403531  0.612231  1
  Dy  Dy4  1  0.791299  0.596469  0.387769  1
  Ge  Ge5  1  0.500000  0.500000  0.000000  1
  Se  Se6  1  0.097339  0.698360  0.795698  1
  Se  Se7  1  0.698360  0.902661  0.601022  1
  Se  Se8  1  0.301640  0.097339  0.398978  1
  Se  Se9  1  0.902661  0.301640  0.204302  1
