# generated using pymatgen
data_Tb2Dy6Re3TcB24
_symmetry_space_group_name_H-M   'P 1'
_cell_length_a   3.69255400
_cell_length_b   9.18800401
_cell_length_c   11.57751200
_cell_angle_alpha   90.02644177
_cell_angle_beta   90.00000000
_cell_angle_gamma   90.00000000
_symmetry_Int_Tables_number   1
_chemical_formula_structural   Tb2Dy6Re3TcB24
_chemical_formula_sum   'Tb2 Dy6 Re3 Tc1 B24'
_cell_volume   392.79253462
_cell_formula_units_Z   1
loop_
 _symmetry_equiv_pos_site_id
 _symmetry_equiv_pos_as_xyz
  1  'x, y, z'
loop_
 _atom_site_type_symbol
 _atom_site_label
 _atom_site_symmetry_multiplicity
 _atom_site_fract_x
 _atom_site_fract_y
 _atom_site_fract_z
 _atom_site_occupancy
  Tb  Tb0  1  0.000000  0.323843  0.413844  1
  Tb  Tb1  1  0.000000  0.676368  0.585975  1
  Dy  Dy2  1  0.000000  0.823820  0.085937  1
  Dy  Dy3  1  0.000000  0.176500  0.913994  1
  Dy  Dy4  1  0.000000  0.941770  0.369480  1
  Dy  Dy5  1  0.000000  0.057138  0.629982  1
  Dy  Dy6  1  0.000000  0.443391  0.130777  1
  Dy  Dy7  1  0.000000  0.557145  0.870158  1
  Re  Re8  1  0.000000  0.361522  0.679317  1
  Re  Re9  1  0.000000  0.138323  0.179163  1
  Re  Re10  1  0.000000  0.861767  0.820910  1
  Tc  Tc11  1  0.000000  0.638617  0.320571  1
  B  B12  1  0.500000  0.553512  0.432499  1
  B  B13  1  0.500000  0.446663  0.567242  1
  B  B14  1  0.500000  0.053366  0.067093  1
  B  B15  1  0.500000  0.946885  0.932815  1
  B  B16  1  0.500000  0.748343  0.418085  1
  B  B17  1  0.500000  0.251249  0.581711  1
  B  B18  1  0.500000  0.248880  0.081648  1
  B  B19  1  0.500000  0.751446  0.918448  1
  B  B20  1  0.500000  0.791352  0.265371  1
  B  B21  1  0.500000  0.208312  0.734415  1
  B  B22  1  0.500000  0.291552  0.234490  1
  B  B23  1  0.500000  0.708405  0.765717  1
  B  B24  1  0.500000  0.630994  0.185887  1
  B  B25  1  0.500000  0.369229  0.814250  1
  B  B26  1  0.500000  0.130415  0.314128  1
  B  B27  1  0.500000  0.869306  0.685853  1
  B  B28  1  0.500000  0.982255  0.211680  1
  B  B29  1  0.500000  0.017680  0.788107  1
  B  B30  1  0.500000  0.482800  0.288224  1
  B  B31  1  0.500000  0.517498  0.712030  1
  B  B32  1  0.500000  0.600510  0.028268  1
  B  B33  1  0.500000  0.399793  0.972192  1
  B  B34  1  0.500000  0.099636  0.471796  1
  B  B35  1  0.500000  0.899718  0.527944  1
