# generated using pymatgen
data_Ag2RuPtO7
_symmetry_space_group_name_H-M   'P 1'
_cell_length_a   7.21247831
_cell_length_b   7.21247852
_cell_length_c   7.24903600
_cell_angle_alpha   59.83218853
_cell_angle_beta   59.83218752
_cell_angle_gamma   59.92208860
_symmetry_Int_Tables_number   1
_chemical_formula_structural   Ag2RuPtO7
_chemical_formula_sum   'Ag4 Ru2 Pt2 O14'
_cell_volume   265.81102878
_cell_formula_units_Z   2
loop_
 _symmetry_equiv_pos_site_id
 _symmetry_equiv_pos_as_xyz
  1  'x, y, z'
loop_
 _atom_site_type_symbol
 _atom_site_label
 _atom_site_symmetry_multiplicity
 _atom_site_fract_x
 _atom_site_fract_y
 _atom_site_fract_z
 _atom_site_occupancy
  Ag  Ag0  1  0.625000  0.625000  0.125000  1
  Ag  Ag1  1  0.625000  0.125000  0.625000  1
  Ag  Ag2  1  0.125000  0.625000  0.625000  1
  Ag  Ag3  1  0.625000  0.625000  0.625000  1
  Ru  Ru4  1  0.125000  0.125000  0.625000  1
  Ru  Ru5  1  0.125000  0.125000  0.125000  1
  Pt  Pt6  1  0.125000  0.625000  0.125000  1
  Pt  Pt7  1  0.625000  0.125000  0.125000  1
  O  O8  1  0.498106  0.498106  0.501894  1
  O  O9  1  0.751894  0.751894  0.748106  1
  O  O10  1  0.447069  0.060657  0.455922  1
  O  O11  1  0.189343  0.802931  0.213648  1
  O  O12  1  0.467294  0.467294  0.032706  1
  O  O13  1  0.060657  0.447069  0.455922  1
  O  O14  1  0.447069  0.060657  0.036352  1
  O  O15  1  0.073669  0.073669  0.426331  1
  O  O16  1  0.060657  0.447069  0.036352  1
  O  O17  1  0.802931  0.189343  0.213648  1
  O  O18  1  0.189343  0.802931  0.794078  1
  O  O19  1  0.802931  0.189343  0.794078  1
  O  O20  1  0.176331  0.176331  0.823669  1
  O  O21  1  0.782706  0.782706  0.217294  1
