# generated using pymatgen
data_Sc8V11Si16Pt
_symmetry_space_group_name_H-M   'P 1'
_cell_length_a   6.63823549
_cell_length_b   6.63823549
_cell_length_c   12.26192383
_cell_angle_alpha   90.16898305
_cell_angle_beta   89.83101695
_cell_angle_gamma   89.63190118
_symmetry_Int_Tables_number   1
_chemical_formula_structural   Sc8V11Si16Pt
_chemical_formula_sum   'Sc8 V11 Si16 Pt1'
_cell_volume   540.32014406
_cell_formula_units_Z   1
loop_
 _symmetry_equiv_pos_site_id
 _symmetry_equiv_pos_as_xyz
  1  'x, y, z'
loop_
 _atom_site_type_symbol
 _atom_site_label
 _atom_site_symmetry_multiplicity
 _atom_site_fract_x
 _atom_site_fract_y
 _atom_site_fract_z
 _atom_site_occupancy
  Sc  Sc0  1  0.999988  0.663457  0.029031  1
  Sc  Sc1  1  0.836513  0.500374  0.280264  1
  Sc  Sc2  1  0.161662  0.499241  0.779191  1
  Sc  Sc3  1  0.500374  0.836513  0.719736  1
  Sc  Sc4  1  0.499241  0.161662  0.220809  1
  Sc  Sc5  1  0.998872  0.337682  0.529851  1
  Sc  Sc6  1  0.663457  0.999988  0.970969  1
  Sc  Sc7  1  0.337682  0.998872  0.470149  1
  V  V8  1  0.169132  0.832930  0.249106  1
  V  V9  1  0.832930  0.169132  0.750894  1
  V  V10  1  0.668140  0.668140  0.500000  1
  V  V11  1  0.999919  0.154127  0.127415  1
  V  V12  1  0.344747  0.505499  0.375499  1
  V  V13  1  0.664911  0.495684  0.875632  1
  V  V14  1  0.505499  0.344747  0.624501  1
  V  V15  1  0.495684  0.664911  0.124368  1
  V  V16  1  0.992629  0.844052  0.626634  1
  V  V17  1  0.154127  0.999919  0.872585  1
  V  V18  1  0.844052  0.992629  0.373366  1
  Si  Si19  1  0.287509  0.954949  0.064227  1
  Si  Si20  1  0.539085  0.794381  0.315481  1
  Si  Si21  1  0.461720  0.205096  0.812803  1
  Si  Si22  1  0.794381  0.539085  0.684519  1
  Si  Si23  1  0.205096  0.461720  0.187197  1
  Si  Si24  1  0.705928  0.040549  0.564836  1
  Si  Si25  1  0.954949  0.287509  0.935773  1
  Si  Si26  1  0.040549  0.705928  0.435164  1
  Si  Si27  1  0.708328  0.375977  0.071653  1
  Si  Si28  1  0.131010  0.202951  0.319617  1
  Si  Si29  1  0.869171  0.796383  0.818556  1
  Si  Si30  1  0.202951  0.131010  0.680383  1
  Si  Si31  1  0.796383  0.869171  0.181444  1
  Si  Si32  1  0.296165  0.630253  0.569626  1
  Si  Si33  1  0.375977  0.708328  0.928347  1
  Si  Si34  1  0.630253  0.296165  0.430374  1
  Pt  Pt35  1  0.330987  0.330987  0.000000  1
