# generated using pymatgen
data_Ba4DyY(CoO5)2
_symmetry_space_group_name_H-M   'P 1'
_cell_length_a   6.17155300
_cell_length_b   7.97654995
_cell_length_c   12.50859819
_cell_angle_alpha   91.44873052
_cell_angle_beta   90.00000000
_cell_angle_gamma   90.00000000
_symmetry_Int_Tables_number   1
_chemical_formula_structural   Ba4DyY(CoO5)2
_chemical_formula_sum   'Ba8 Dy2 Y2 Co4 O20'
_cell_volume   615.57269677
_cell_formula_units_Z   2
loop_
 _symmetry_equiv_pos_site_id
 _symmetry_equiv_pos_as_xyz
  1  'x, y, z'
loop_
 _atom_site_type_symbol
 _atom_site_label
 _atom_site_symmetry_multiplicity
 _atom_site_fract_x
 _atom_site_fract_y
 _atom_site_fract_z
 _atom_site_occupancy
  Ba  Ba0  1  0.759430  0.491481  0.360117  1
  Ba  Ba1  1  0.740570  0.991481  0.860117  1
  Ba  Ba2  1  0.240565  0.508734  0.639816  1
  Ba  Ba3  1  0.259435  0.008734  0.139816  1
  Ba  Ba4  1  0.753974  0.992653  0.383488  1
  Ba  Ba5  1  0.746026  0.492653  0.883488  1
  Ba  Ba6  1  0.246018  0.007130  0.616428  1
  Ba  Ba7  1  0.253982  0.507130  0.116428  1
  Dy  Dy8  1  0.251785  0.737272  0.371409  1
  Dy  Dy9  1  0.248215  0.237272  0.871409  1
  Y  Y10  1  0.748046  0.262802  0.628684  1
  Y  Y11  1  0.751954  0.762802  0.128684  1
  Co  Co12  1  0.740356  0.745453  0.592128  1
  Co  Co13  1  0.759644  0.245453  0.092128  1
  Co  Co14  1  0.259589  0.254514  0.407685  1
  Co  Co15  1  0.240411  0.754514  0.907685  1
  O  O16  1  0.757379  0.970184  0.633822  1
  O  O17  1  0.742621  0.470184  0.133822  1
  O  O18  1  0.242701  0.029507  0.366241  1
  O  O19  1  0.257299  0.529507  0.866241  1
  O  O20  1  0.735316  0.054307  0.170164  1
  O  O21  1  0.764684  0.554307  0.670164  1
  O  O22  1  0.264622  0.945968  0.829990  1
  O  O23  1  0.235378  0.445968  0.329990  1
  O  O24  1  0.544111  0.746555  0.272218  1
  O  O25  1  0.955889  0.246555  0.772218  1
  O  O26  1  0.455186  0.253434  0.728055  1
  O  O27  1  0.044814  0.753434  0.228055  1
  O  O28  1  0.533583  0.229995  0.986362  1
  O  O29  1  0.966417  0.729995  0.486362  1
  O  O30  1  0.466322  0.770017  0.013561  1
  O  O31  1  0.033678  0.270017  0.513561  1
  O  O32  1  0.033090  0.234582  0.020525  1
  O  O33  1  0.466910  0.734582  0.520525  1
  O  O34  1  0.966955  0.765411  0.979307  1
  O  O35  1  0.533045  0.265411  0.479307  1
