# generated using pymatgen
data_PaAl3GaCo
_symmetry_space_group_name_H-M   'P 1'
_cell_length_a   7.81612030
_cell_length_b   7.81611965
_cell_length_c   6.70704700
_cell_angle_alpha   90.00000000
_cell_angle_beta   90.00000000
_cell_angle_gamma   150.02282912
_symmetry_Int_Tables_number   1
_chemical_formula_structural   PaAl3GaCo
_chemical_formula_sum   'Pa2 Al6 Ga2 Co2'
_cell_volume   204.73115349
_cell_formula_units_Z   2
loop_
 _symmetry_equiv_pos_site_id
 _symmetry_equiv_pos_as_xyz
  1  'x, y, z'
loop_
 _atom_site_type_symbol
 _atom_site_label
 _atom_site_symmetry_multiplicity
 _atom_site_fract_x
 _atom_site_fract_y
 _atom_site_fract_z
 _atom_site_occupancy
  Pa  Pa0  1  0.882162  0.117838  0.750000  1
  Pa  Pa1  1  0.117838  0.882162  0.250000  1
  Al  Al2  1  0.689441  0.310559  0.942959  1
  Al  Al3  1  0.310559  0.689441  0.057041  1
  Al  Al4  1  0.310559  0.689441  0.442959  1
  Al  Al5  1  0.689441  0.310559  0.557041  1
  Al  Al6  1  0.921759  0.078241  0.250000  1
  Al  Al7  1  0.078241  0.921759  0.750000  1
  Ga  Ga8  1  0.500000  0.500000  0.500000  1
  Ga  Ga9  1  0.500000  0.500000  0.000000  1
  Co  Co10  1  0.766827  0.233173  0.250000  1
  Co  Co11  1  0.233173  0.766827  0.750000  1
