# generated using pymatgen
data_Tb4Ho(SnSb)2
_symmetry_space_group_name_H-M   'P 1'
_cell_length_a   8.09345000
_cell_length_b   8.16155400
_cell_length_c   15.43464800
_cell_angle_alpha   90.00000000
_cell_angle_beta   90.00000000
_cell_angle_gamma   90.00000000
_symmetry_Int_Tables_number   1
_chemical_formula_structural   Tb4Ho(SnSb)2
_chemical_formula_sum   'Tb16 Ho4 Sn8 Sb8'
_cell_volume   1019.53766813
_cell_formula_units_Z   4
loop_
 _symmetry_equiv_pos_site_id
 _symmetry_equiv_pos_as_xyz
  1  'x, y, z'
loop_
 _atom_site_type_symbol
 _atom_site_label
 _atom_site_symmetry_multiplicity
 _atom_site_fract_x
 _atom_site_fract_y
 _atom_site_fract_z
 _atom_site_occupancy
  Tb  Tb0  1  0.377049  0.838917  0.878502  1
  Tb  Tb1  1  0.877049  0.661083  0.621498  1
  Tb  Tb2  1  0.622951  0.161083  0.378502  1
  Tb  Tb3  1  0.122951  0.338917  0.121498  1
  Tb  Tb4  1  0.622951  0.161083  0.121498  1
  Tb  Tb5  1  0.122951  0.338917  0.378502  1
  Tb  Tb6  1  0.377049  0.838917  0.621498  1
  Tb  Tb7  1  0.877049  0.661083  0.878502  1
  Tb  Tb8  1  0.538770  0.324624  0.896562  1
  Tb  Tb9  1  0.038770  0.175376  0.603438  1
  Tb  Tb10  1  0.461230  0.675376  0.396562  1
  Tb  Tb11  1  0.961230  0.824624  0.103438  1
  Tb  Tb12  1  0.461230  0.675376  0.103438  1
  Tb  Tb13  1  0.961230  0.824624  0.396562  1
  Tb  Tb14  1  0.538770  0.324624  0.603438  1
  Tb  Tb15  1  0.038770  0.175376  0.896562  1
  Ho  Ho16  1  0.204591  0.498618  0.750000  1
  Ho  Ho17  1  0.704591  0.001382  0.750000  1
  Ho  Ho18  1  0.795409  0.501382  0.250000  1
  Ho  Ho19  1  0.295409  0.998618  0.250000  1
  Sn  Sn20  1  0.570847  0.622054  0.750000  1
  Sn  Sn21  1  0.070847  0.877946  0.750000  1
  Sn  Sn22  1  0.429153  0.377946  0.250000  1
  Sn  Sn23  1  0.929153  0.122054  0.250000  1
  Sn  Sn24  1  0.341896  0.146150  0.750000  1
  Sn  Sn25  1  0.841896  0.353850  0.750000  1
  Sn  Sn26  1  0.658104  0.853850  0.250000  1
  Sn  Sn27  1  0.158104  0.646150  0.250000  1
  Sb  Sb28  1  0.277649  0.025573  0.045797  1
  Sb  Sb29  1  0.777649  0.474427  0.454203  1
  Sb  Sb30  1  0.722351  0.974427  0.545797  1
  Sb  Sb31  1  0.222351  0.525573  0.954203  1
  Sb  Sb32  1  0.722351  0.974427  0.954203  1
  Sb  Sb33  1  0.222351  0.525573  0.545797  1
  Sb  Sb34  1  0.277649  0.025573  0.454203  1
  Sb  Sb35  1  0.777649  0.474427  0.045797  1
