# generated using pymatgen
data_NdSm5(CCl5)2
_symmetry_space_group_name_H-M   'P 1'
_cell_length_a   7.32898262
_cell_length_b   8.68037829
_cell_length_c   8.83618812
_cell_angle_alpha   107.91184379
_cell_angle_beta   96.93180575
_cell_angle_gamma   105.90700769
_symmetry_Int_Tables_number   1
_chemical_formula_structural   NdSm5(CCl5)2
_chemical_formula_sum   'Nd1 Sm5 C2 Cl10'
_cell_volume   501.34291332
_cell_formula_units_Z   1
loop_
 _symmetry_equiv_pos_site_id
 _symmetry_equiv_pos_as_xyz
  1  'x, y, z'
loop_
 _atom_site_type_symbol
 _atom_site_label
 _atom_site_symmetry_multiplicity
 _atom_site_fract_x
 _atom_site_fract_y
 _atom_site_fract_z
 _atom_site_occupancy
  Nd  Nd0  1  0.879543  0.950370  0.235103  1
  Sm  Sm1  1  0.119812  0.049329  0.767308  1
  Sm  Sm2  1  0.026755  0.712322  0.912885  1
  Sm  Sm3  1  0.973075  0.287110  0.086412  1
  Sm  Sm4  1  0.603717  0.841989  0.791491  1
  Sm  Sm5  1  0.396059  0.158148  0.209007  1
  C  C6  1  0.904793  0.965226  0.950494  1
  C  C7  1  0.096329  0.034497  0.047376  1
  Cl  Cl8  1  0.757541  0.916537  0.541533  1
  Cl  Cl9  1  0.247254  0.085434  0.462666  1
  Cl  Cl10  1  0.453846  0.822776  0.077765  1
  Cl  Cl11  1  0.541937  0.175518  0.920157  1
  Cl  Cl12  1  0.814780  0.265905  0.350899  1
  Cl  Cl13  1  0.183890  0.739347  0.648949  1
  Cl  Cl14  1  0.910024  0.623043  0.168334  1
  Cl  Cl15  1  0.091287  0.372457  0.829269  1
  Cl  Cl16  1  0.656063  0.535196  0.720774  1
  Cl  Cl17  1  0.343296  0.464795  0.279578  1
