# generated using pymatgen
data_TcSb12Pd2Rh
_symmetry_space_group_name_H-M   'P 1'
_cell_length_a   8.18873035
_cell_length_b   8.18519468
_cell_length_c   9.44708489
_cell_angle_alpha   54.54544584
_cell_angle_beta   54.87820490
_cell_angle_gamma   70.45311159
_symmetry_Int_Tables_number   1
_chemical_formula_structural   TcSb12Pd2Rh
_chemical_formula_sum   'Tc1 Sb12 Pd2 Rh1'
_cell_volume   421.88220437
_cell_formula_units_Z   1
loop_
 _symmetry_equiv_pos_site_id
 _symmetry_equiv_pos_as_xyz
  1  'x, y, z'
loop_
 _atom_site_type_symbol
 _atom_site_label
 _atom_site_symmetry_multiplicity
 _atom_site_fract_x
 _atom_site_fract_y
 _atom_site_fract_z
 _atom_site_occupancy
  Tc  Tc0  1  0.000000  0.500000  0.500000  1
  Sb  Sb1  1  0.668200  0.666168  0.488066  1
  Sb  Sb2  1  0.331800  0.333832  0.511934  1
  Sb  Sb3  1  0.651755  0.650736  0.195377  1
  Sb  Sb4  1  0.348245  0.349264  0.804623  1
  Sb  Sb5  1  0.158405  0.848971  0.652856  1
  Sb  Sb6  1  0.841595  0.151029  0.347144  1
  Sb  Sb7  1  0.849596  0.159161  0.656370  1
  Sb  Sb8  1  0.150404  0.840839  0.343630  1
  Sb  Sb9  1  0.815386  0.492989  0.841249  1
  Sb  Sb10  1  0.184614  0.507011  0.158751  1
  Sb  Sb11  1  0.502428  0.189278  0.157067  1
  Sb  Sb12  1  0.497572  0.810722  0.842933  1
  Pd  Pd13  1  0.000000  0.500000  0.000000  1
  Pd  Pd14  1  0.500000  0.000000  0.000000  1
  Rh  Rh15  1  0.500000  0.000000  0.500000  1
