# generated using pymatgen
data_Tb5Y2FeI12
_symmetry_space_group_name_H-M   'P 1'
_cell_length_a   9.74585550
_cell_length_b   9.77605103
_cell_length_c   9.79418263
_cell_angle_alpha   106.93588224
_cell_angle_beta   106.99945135
_cell_angle_gamma   107.11840457
_symmetry_Int_Tables_number   1
_chemical_formula_structural   Tb5Y2FeI12
_chemical_formula_sum   'Tb5 Y2 Fe1 I12'
_cell_volume   776.75492408
_cell_formula_units_Z   1
loop_
 _symmetry_equiv_pos_site_id
 _symmetry_equiv_pos_as_xyz
  1  'x, y, z'
loop_
 _atom_site_type_symbol
 _atom_site_label
 _atom_site_symmetry_multiplicity
 _atom_site_fract_x
 _atom_site_fract_y
 _atom_site_fract_z
 _atom_site_occupancy
  Tb  Tb0  1  0.714593  0.979930  0.909813  1
  Tb  Tb1  1  0.978080  0.906827  0.706964  1
  Tb  Tb2  1  0.090270  0.288537  0.021408  1
  Tb  Tb3  1  0.285537  0.020145  0.090354  1
  Tb  Tb4  1  0.909783  0.711588  0.978678  1
  Y  Y5  1  0.499972  0.500020  0.500073  1
  Y  Y6  1  0.021987  0.093085  0.293165  1
  Fe  Fe7  1  0.000122  0.000002  0.999654  1
  I  I8  1  0.072564  0.227092  0.678782  1
  I  I9  1  0.385568  0.159675  0.462284  1
  I  I10  1  0.613847  0.840109  0.537676  1
  I  I11  1  0.227101  0.679702  0.072615  1
  I  I12  1  0.772985  0.320364  0.927541  1
  I  I13  1  0.679769  0.072112  0.226153  1
  I  I14  1  0.537695  0.615165  0.839729  1
  I  I15  1  0.839987  0.536762  0.614738  1
  I  I16  1  0.927437  0.773429  0.320432  1
  I  I17  1  0.320948  0.928106  0.774319  1
  I  I18  1  0.462281  0.384856  0.160408  1
  I  I19  1  0.159474  0.462493  0.385214  1
