# generated using pymatgen
data_Er2Co2P6Ir3Rh5
_symmetry_space_group_name_H-M   'P 1'
_cell_length_a   3.86584100
_cell_length_b   10.74387300
_cell_length_c   12.38797000
_cell_angle_alpha   90.00000000
_cell_angle_beta   90.00000000
_cell_angle_gamma   90.00000000
_symmetry_Int_Tables_number   1
_chemical_formula_structural   Er2Co2P6Ir3Rh5
_chemical_formula_sum   'Er4 Co4 P12 Ir6 Rh10'
_cell_volume   514.52324352
_cell_formula_units_Z   2
loop_
 _symmetry_equiv_pos_site_id
 _symmetry_equiv_pos_as_xyz
  1  'x, y, z'
loop_
 _atom_site_type_symbol
 _atom_site_label
 _atom_site_symmetry_multiplicity
 _atom_site_fract_x
 _atom_site_fract_y
 _atom_site_fract_z
 _atom_site_occupancy
  Er  Er0  1  0.250000  0.583863  0.708887  1
  Er  Er1  1  0.250000  0.916137  0.208887  1
  Er  Er2  1  0.750000  0.415199  0.290897  1
  Er  Er3  1  0.750000  0.084801  0.790897  1
  Co  Co4  1  0.250000  0.462120  0.934028  1
  Co  Co5  1  0.250000  0.037880  0.434028  1
  Co  Co6  1  0.750000  0.538463  0.066165  1
  Co  Co7  1  0.750000  0.961537  0.566165  1
  P  P8  1  0.250000  0.424685  0.106080  1
  P  P9  1  0.250000  0.075315  0.606080  1
  P  P10  1  0.750000  0.574179  0.893822  1
  P  P11  1  0.750000  0.925821  0.393822  1
  P  P12  1  0.250000  0.269773  0.872124  1
  P  P13  1  0.250000  0.230227  0.372124  1
  P  P14  1  0.750000  0.730296  0.127917  1
  P  P15  1  0.750000  0.769704  0.627917  1
  P  P16  1  0.250000  0.596866  0.387319  1
  P  P17  1  0.250000  0.903134  0.887319  1
  P  P18  1  0.750000  0.402481  0.612874  1
  P  P19  1  0.750000  0.097519  0.112874  1
  Ir  Ir20  1  0.750000  0.769100  0.820238  1
  Ir  Ir21  1  0.750000  0.730900  0.320238  1
  Ir  Ir22  1  0.250000  0.886613  0.698572  1
  Ir  Ir23  1  0.250000  0.613387  0.198572  1
  Ir  Ir24  1  0.750000  0.114373  0.301776  1
  Ir  Ir25  1  0.750000  0.385627  0.801776  1
  Rh  Rh26  1  0.250000  0.716764  0.982695  1
  Rh  Rh27  1  0.250000  0.783236  0.482695  1
  Rh  Rh28  1  0.750000  0.284492  0.017039  1
  Rh  Rh29  1  0.750000  0.215508  0.517039  1
  Rh  Rh30  1  0.250000  0.408153  0.479244  1
  Rh  Rh31  1  0.250000  0.091847  0.979244  1
  Rh  Rh32  1  0.750000  0.592431  0.521082  1
  Rh  Rh33  1  0.750000  0.907569  0.021082  1
  Rh  Rh34  1  0.250000  0.230172  0.179241  1
  Rh  Rh35  1  0.250000  0.269828  0.679241  1
