# generated using pymatgen
data_Sc8Be(B8Rh)3
_symmetry_space_group_name_H-M   'P 1'
_cell_length_a   3.43542700
_cell_length_b   8.89876717
_cell_length_c   11.19121271
_cell_angle_alpha   89.92012570
_cell_angle_beta   90.00000000
_cell_angle_gamma   90.00000000
_symmetry_Int_Tables_number   1
_chemical_formula_structural   Sc8Be(B8Rh)3
_chemical_formula_sum   'Sc8 Be1 B24 Rh3'
_cell_volume   342.12695871
_cell_formula_units_Z   1
loop_
 _symmetry_equiv_pos_site_id
 _symmetry_equiv_pos_as_xyz
  1  'x, y, z'
loop_
 _atom_site_type_symbol
 _atom_site_label
 _atom_site_symmetry_multiplicity
 _atom_site_fract_x
 _atom_site_fract_y
 _atom_site_fract_z
 _atom_site_occupancy
  Sc  Sc0  1  0.000000  0.947786  0.370614  1
  Sc  Sc1  1  0.000000  0.055671  0.626947  1
  Sc  Sc2  1  0.000000  0.556070  0.873774  1
  Sc  Sc3  1  0.000000  0.179782  0.919670  1
  Sc  Sc4  1  0.000000  0.825247  0.087812  1
  Sc  Sc5  1  0.000000  0.680729  0.584896  1
  Sc  Sc6  1  0.000000  0.315078  0.409642  1
  Sc  Sc7  1  0.000000  0.439906  0.128137  1
  Be  Be8  1  0.000000  0.138748  0.179543  1
  B  B9  1  0.500000  0.367154  0.819827  1
  B  B10  1  0.500000  0.982941  0.211222  1
  B  B11  1  0.500000  0.553491  0.435165  1
  B  B12  1  0.500000  0.295142  0.237350  1
  B  B13  1  0.500000  0.203598  0.737836  1
  B  B14  1  0.500000  0.102809  0.471301  1
  B  B15  1  0.500000  0.798213  0.261682  1
  B  B16  1  0.500000  0.446091  0.563471  1
  B  B17  1  0.500000  0.247197  0.576878  1
  B  B18  1  0.500000  0.477802  0.286778  1
  B  B19  1  0.500000  0.704113  0.761372  1
  B  B20  1  0.500000  0.755013  0.420549  1
  B  B21  1  0.500000  0.519786  0.713285  1
  B  B22  1  0.500000  0.899533  0.526743  1
  B  B23  1  0.500000  0.054683  0.065790  1
  B  B24  1  0.500000  0.600882  0.027863  1
  B  B25  1  0.500000  0.748584  0.923695  1
  B  B26  1  0.500000  0.019578  0.788406  1
  B  B27  1  0.500000  0.396437  0.973357  1
  B  B28  1  0.500000  0.947705  0.937888  1
  B  B29  1  0.500000  0.630944  0.181688  1
  B  B30  1  0.500000  0.250622  0.079835  1
  B  B31  1  0.500000  0.867594  0.679938  1
  B  B32  1  0.500000  0.132257  0.317337  1
  Rh  Rh33  1  0.000000  0.359291  0.680475  1
  Rh  Rh34  1  0.000000  0.857786  0.818462  1
  Rh  Rh35  1  0.000000  0.641741  0.320772  1
