# generated using pymatgen
data_Tm5ReTcBC6
_symmetry_space_group_name_H-M   'P 1'
_cell_length_a   8.20798782
_cell_length_b   8.20798783
_cell_length_c   3.37634900
_cell_angle_alpha   90.00000000
_cell_angle_beta   90.00000000
_cell_angle_gamma   121.82241722
_symmetry_Int_Tables_number   1
_chemical_formula_structural   Tm5ReTcBC6
_chemical_formula_sum   'Tm5 Re1 Tc1 B1 C6'
_cell_volume   193.27666946
_cell_formula_units_Z   1
loop_
 _symmetry_equiv_pos_site_id
 _symmetry_equiv_pos_as_xyz
  1  'x, y, z'
loop_
 _atom_site_type_symbol
 _atom_site_label
 _atom_site_symmetry_multiplicity
 _atom_site_fract_x
 _atom_site_fract_y
 _atom_site_fract_z
 _atom_site_occupancy
  Tm  Tm0  1  0.500300  0.499700  0.000000  1
  Tm  Tm1  1  0.079492  0.330856  0.500000  1
  Tm  Tm2  1  0.919929  0.667825  0.500000  1
  Tm  Tm3  1  0.669144  0.920508  0.500000  1
  Tm  Tm4  1  0.332175  0.080071  0.500000  1
  Re  Re5  1  0.285252  0.714748  0.000000  1
  Tc  Tc6  1  0.714325  0.285675  0.000000  1
  B  B7  1  0.999830  0.000170  0.000000  1
  C  C8  1  0.625401  0.374599  0.500000  1
  C  C9  1  0.374592  0.625408  0.500000  1
  C  C10  1  0.183603  0.183892  0.000000  1
  C  C11  1  0.816108  0.816397  0.000000  1
  C  C12  1  0.001336  0.501488  0.000000  1
  C  C13  1  0.498512  0.998664  0.000000  1
