# generated using pymatgen
data_Zr2(TaRe8)3
_symmetry_space_group_name_H-M   'P 1'
_cell_length_a   8.44199984
_cell_length_b   8.44199846
_cell_length_c   8.43402500
_cell_angle_alpha   109.45209133
_cell_angle_beta   109.45208804
_cell_angle_gamma   109.49034636
_symmetry_Int_Tables_number   1
_chemical_formula_structural   Zr2(TaRe8)3
_chemical_formula_sum   'Zr2 Ta3 Re24'
_cell_volume   462.81356119
_cell_formula_units_Z   1
loop_
 _symmetry_equiv_pos_site_id
 _symmetry_equiv_pos_as_xyz
  1  'x, y, z'
loop_
 _atom_site_type_symbol
 _atom_site_label
 _atom_site_symmetry_multiplicity
 _atom_site_fract_x
 _atom_site_fract_y
 _atom_site_fract_z
 _atom_site_occupancy
  Zr  Zr0  1  0.000000  0.000000  0.630022  1
  Zr  Zr1  1  0.000000  0.000000  0.000592  1
  Ta  Ta2  1  0.369585  0.369585  0.369450  1
  Ta  Ta3  1  0.000000  0.630415  0.999865  1
  Ta  Ta4  1  0.630415  0.000000  0.999865  1
  Re  Re5  1  0.000000  0.398905  0.682784  1
  Re  Re6  1  0.282789  0.600335  0.599603  1
  Re  Re7  1  0.717211  0.317546  0.316815  1
  Re  Re8  1  0.317546  0.717211  0.316815  1
  Re  Re9  1  0.677684  0.000000  0.396137  1
  Re  Re10  1  0.000000  0.677684  0.396137  1
  Re  Re11  1  0.601095  0.601095  0.283880  1
  Re  Re12  1  0.805650  0.805650  0.182325  1
  Re  Re13  1  0.378913  0.195139  0.001895  1
  Re  Re14  1  0.195139  0.378913  0.001895  1
  Re  Re15  1  0.621087  0.816226  0.622981  1
  Re  Re16  1  0.376559  0.000000  0.195425  1
  Re  Re17  1  0.000000  0.376559  0.195425  1
  Re  Re18  1  0.816226  0.621087  0.622981  1
  Re  Re19  1  0.183774  0.804861  0.806756  1
  Re  Re20  1  0.804861  0.183774  0.806756  1
  Re  Re21  1  0.194350  0.000000  0.376675  1
  Re  Re22  1  0.000000  0.194350  0.376675  1
  Re  Re23  1  0.623441  0.623441  0.818865  1
  Re  Re24  1  0.398905  0.000000  0.682784  1
  Re  Re25  1  0.600335  0.282789  0.599603  1
  Re  Re26  1  0.682454  0.399665  0.999269  1
  Re  Re27  1  0.399665  0.682454  0.999269  1
  Re  Re28  1  0.322316  0.322316  0.718452  1
