# generated using pymatgen
data_Cs14Tl5V2InAs10
_symmetry_space_group_name_H-M   'P 1'
_cell_length_a   8.80068291
_cell_length_b   9.67073191
_cell_length_c   14.75383100
_cell_angle_alpha   85.65106618
_cell_angle_beta   84.82196881
_cell_angle_gamma   85.55585160
_symmetry_Int_Tables_number   1
_chemical_formula_structural   Cs14Tl5V2InAs10
_chemical_formula_sum   'Cs14 Tl5 V2 In1 As10'
_cell_volume   1243.80024269
_cell_formula_units_Z   1
loop_
 _symmetry_equiv_pos_site_id
 _symmetry_equiv_pos_as_xyz
  1  'x, y, z'
loop_
 _atom_site_type_symbol
 _atom_site_label
 _atom_site_symmetry_multiplicity
 _atom_site_fract_x
 _atom_site_fract_y
 _atom_site_fract_z
 _atom_site_occupancy
  Cs  Cs0  1  0.829885  0.366259  0.646513  1
  Cs  Cs1  1  0.813070  0.811067  0.129668  1
  Cs  Cs2  1  0.245011  0.007005  0.468413  1
  Cs  Cs3  1  0.270620  0.252899  0.253331  1
  Cs  Cs4  1  0.738528  0.503515  0.974379  1
  Cs  Cs5  1  0.258181  0.495836  0.025719  1
  Cs  Cs6  1  0.683703  0.080907  0.887184  1
  Cs  Cs7  1  0.753974  0.990750  0.530580  1
  Cs  Cs8  1  0.730583  0.745901  0.746621  1
  Cs  Cs9  1  0.317980  0.340329  0.600937  1
  Cs  Cs10  1  0.169596  0.634089  0.353438  1
  Cs  Cs11  1  0.183484  0.188715  0.870890  1
  Cs  Cs12  1  0.319599  0.917652  0.114049  1
  Cs  Cs13  1  0.677985  0.661940  0.397788  1
  Tl  Tl14  1  0.056929  0.816200  0.872786  1
  Tl  Tl15  1  0.944992  0.183807  0.126554  1
  Tl  Tl16  1  0.369198  0.955044  0.703620  1
  Tl  Tl17  1  0.092822  0.720417  0.619169  1
  Tl  Tl18  1  0.908514  0.281901  0.381836  1
  V  V19  1  0.353267  0.606322  0.772634  1
  V  V20  1  0.648419  0.392852  0.227324  1
  In  In21  1  0.638285  0.055013  0.294730  1
  As  As22  1  0.908982  0.454304  0.210294  1
  As  As23  1  0.617032  0.209547  0.125366  1
  As  As24  1  0.092182  0.546077  0.789393  1
  As  As25  1  0.580232  0.304041  0.384462  1
  As  As26  1  0.421336  0.692195  0.615285  1
  As  As27  1  0.028181  0.007037  0.699460  1
  As  As28  1  0.503677  0.408015  0.807325  1
  As  As29  1  0.494772  0.588977  0.192414  1
  As  As30  1  0.384609  0.786710  0.876508  1
  As  As31  1  0.964373  0.994679  0.301334  1
