# generated using pymatgen
data_Tb2InNiAg
_symmetry_space_group_name_H-M   'P 1'
_cell_length_a   7.81655635
_cell_length_b   7.81655635
_cell_length_c   3.69526500
_cell_angle_alpha   90.00000000
_cell_angle_beta   90.00000000
_cell_angle_gamma   88.25300456
_symmetry_Int_Tables_number   1
_chemical_formula_structural   Tb2InNiAg
_chemical_formula_sum   'Tb4 In2 Ni2 Ag2'
_cell_volume   225.67040291
_cell_formula_units_Z   2
loop_
 _symmetry_equiv_pos_site_id
 _symmetry_equiv_pos_as_xyz
  1  'x, y, z'
loop_
 _atom_site_type_symbol
 _atom_site_label
 _atom_site_symmetry_multiplicity
 _atom_site_fract_x
 _atom_site_fract_y
 _atom_site_fract_z
 _atom_site_occupancy
  Tb  Tb0  1  0.658112  0.158112  0.500000  1
  Tb  Tb1  1  0.341888  0.841888  0.500000  1
  Tb  Tb2  1  0.197334  0.302666  0.500000  1
  Tb  Tb3  1  0.802666  0.697334  0.500000  1
  In  In4  1  0.500000  0.500000  0.000000  1
  In  In5  1  0.000000  0.000000  0.000000  1
  Ni  Ni6  1  0.617303  0.882697  0.000000  1
  Ni  Ni7  1  0.382697  0.117303  0.000000  1
  Ag  Ag8  1  0.125120  0.625120  0.000000  1
  Ag  Ag9  1  0.874880  0.374880  0.000000  1
