# generated using pymatgen
data_Tm2U(GaRu)3
_symmetry_space_group_name_H-M   'P 1'
_cell_length_a   6.87194280
_cell_length_b   6.87194383
_cell_length_c   3.95257000
_cell_angle_alpha   90.00000000
_cell_angle_beta   90.00000000
_cell_angle_gamma   116.27583491
_symmetry_Int_Tables_number   1
_chemical_formula_structural   Tm2U(GaRu)3
_chemical_formula_sum   'Tm2 U1 Ga3 Ru3'
_cell_volume   167.36818511
_cell_formula_units_Z   1
loop_
 _symmetry_equiv_pos_site_id
 _symmetry_equiv_pos_as_xyz
  1  'x, y, z'
loop_
 _atom_site_type_symbol
 _atom_site_label
 _atom_site_symmetry_multiplicity
 _atom_site_fract_x
 _atom_site_fract_y
 _atom_site_fract_z
 _atom_site_occupancy
  Tm  Tm0  1  0.410722  0.006659  0.500000  1
  Tm  Tm1  1  0.006659  0.410722  0.500000  1
  U  U2  1  0.617919  0.617919  0.500000  1
  Ga  Ga3  1  0.742905  0.035147  0.000000  1
  Ga  Ga4  1  0.035147  0.742905  0.000000  1
  Ga  Ga5  1  0.211342  0.211342  0.000000  1
  Ru  Ru6  1  0.379666  0.636943  0.000000  1
  Ru  Ru7  1  0.636943  0.379666  0.000000  1
  Ru  Ru8  1  0.958698  0.958698  0.500000  1
