# generated using pymatgen
data_U(MnP3)4
_symmetry_space_group_name_H-M   'P 1'
_cell_length_a   6.81566339
_cell_length_b   6.81566380
_cell_length_c   6.81566400
_cell_angle_alpha   109.47122124
_cell_angle_beta   109.47122244
_cell_angle_gamma   109.47122184
_symmetry_Int_Tables_number   1
_chemical_formula_structural   U(MnP3)4
_chemical_formula_sum   'U1 Mn4 P12'
_cell_volume   243.72638964
_cell_formula_units_Z   1
loop_
 _symmetry_equiv_pos_site_id
 _symmetry_equiv_pos_as_xyz
  1  'x, y, z'
loop_
 _atom_site_type_symbol
 _atom_site_label
 _atom_site_symmetry_multiplicity
 _atom_site_fract_x
 _atom_site_fract_y
 _atom_site_fract_z
 _atom_site_occupancy
  U  U0  1  0.000000  0.000000  0.000000  1
  Mn  Mn1  1  0.000000  0.000000  0.500000  1
  Mn  Mn2  1  0.000000  0.500000  0.000000  1
  Mn  Mn3  1  0.500000  0.000000  0.000000  1
  Mn  Mn4  1  0.500000  0.500000  0.500000  1
  P  P5  1  0.650494  0.852432  0.502926  1
  P  P6  1  0.650494  0.147568  0.798062  1
  P  P7  1  0.349506  0.852432  0.201938  1
  P  P8  1  0.147568  0.497074  0.349506  1
  P  P9  1  0.497074  0.349506  0.147568  1
  P  P10  1  0.349506  0.147568  0.497074  1
  P  P11  1  0.852432  0.201938  0.349506  1
  P  P12  1  0.798062  0.650494  0.147568  1
  P  P13  1  0.852432  0.502926  0.650494  1
  P  P14  1  0.201938  0.349506  0.852432  1
  P  P15  1  0.147568  0.798062  0.650494  1
  P  P16  1  0.502926  0.650494  0.852432  1
