# generated using pymatgen
data_La3Ti(Co4P3)2
_symmetry_space_group_name_H-M   'P 1'
_cell_length_a   3.79620200
_cell_length_b   10.80386600
_cell_length_c   12.58495000
_cell_angle_alpha   90.00000000
_cell_angle_beta   90.00000000
_cell_angle_gamma   90.00000000
_symmetry_Int_Tables_number   1
_chemical_formula_structural   La3Ti(Co4P3)2
_chemical_formula_sum   'La6 Ti2 Co16 P12'
_cell_volume   516.15483168
_cell_formula_units_Z   2
loop_
 _symmetry_equiv_pos_site_id
 _symmetry_equiv_pos_as_xyz
  1  'x, y, z'
loop_
 _atom_site_type_symbol
 _atom_site_label
 _atom_site_symmetry_multiplicity
 _atom_site_fract_x
 _atom_site_fract_y
 _atom_site_fract_z
 _atom_site_occupancy
  La  La0  1  0.000000  0.500000  0.525861  1
  La  La1  1  0.500000  0.000000  0.474139  1
  La  La2  1  0.500000  0.820936  0.205992  1
  La  La3  1  0.500000  0.179064  0.205992  1
  La  La4  1  0.000000  0.679064  0.794008  1
  La  La5  1  0.000000  0.320936  0.794008  1
  Ti  Ti6  1  0.500000  0.500000  0.149990  1
  Ti  Ti7  1  0.000000  0.000000  0.850010  1
  Co  Co8  1  0.500000  0.500000  0.704651  1
  Co  Co9  1  0.000000  0.000000  0.295349  1
  Co  Co10  1  0.000000  0.500000  0.988846  1
  Co  Co11  1  0.500000  0.000000  0.011154  1
  Co  Co12  1  0.500000  0.332192  0.995821  1
  Co  Co13  1  0.500000  0.667808  0.995821  1
  Co  Co14  1  0.000000  0.167808  0.004179  1
  Co  Co15  1  0.000000  0.832192  0.004179  1
  Co  Co16  1  0.500000  0.297112  0.431890  1
  Co  Co17  1  0.500000  0.702888  0.431890  1
  Co  Co18  1  0.000000  0.202888  0.568110  1
  Co  Co19  1  0.000000  0.797112  0.568110  1
  Co  Co20  1  0.500000  0.881674  0.707142  1
  Co  Co21  1  0.500000  0.118326  0.707142  1
  Co  Co22  1  0.000000  0.618326  0.292858  1
  Co  Co23  1  0.000000  0.381674  0.292858  1
  P  P24  1  0.500000  0.500000  0.890115  1
  P  P25  1  0.000000  0.000000  0.109885  1
  P  P26  1  0.500000  0.500000  0.346217  1
  P  P27  1  0.000000  0.000000  0.653783  1
  P  P28  1  0.500000  0.301609  0.612536  1
  P  P29  1  0.500000  0.698391  0.612536  1
  P  P30  1  0.000000  0.198391  0.387464  1
  P  P31  1  0.000000  0.801609  0.387464  1
  P  P32  1  0.500000  0.845140  0.895860  1
  P  P33  1  0.500000  0.154860  0.895860  1
  P  P34  1  0.000000  0.654860  0.104140  1
  P  P35  1  0.000000  0.345140  0.104140  1
