# generated using pymatgen
data_Yb5MnMoN7
_symmetry_space_group_name_H-M   'P 1'
_cell_length_a   6.02042943
_cell_length_b   8.56541905
_cell_length_c   8.67660150
_cell_angle_alpha   114.39657111
_cell_angle_beta   97.66884366
_cell_angle_gamma   89.78815039
_symmetry_Int_Tables_number   1
_chemical_formula_structural   Yb5MnMoN7
_chemical_formula_sum   'Yb10 Mn2 Mo2 N14'
_cell_volume   403.17835065
_cell_formula_units_Z   2
loop_
 _symmetry_equiv_pos_site_id
 _symmetry_equiv_pos_as_xyz
  1  'x, y, z'
loop_
 _atom_site_type_symbol
 _atom_site_label
 _atom_site_symmetry_multiplicity
 _atom_site_fract_x
 _atom_site_fract_y
 _atom_site_fract_z
 _atom_site_occupancy
  Yb  Yb0  1  0.840943  0.595104  0.331669  1
  Yb  Yb1  1  0.269416  0.982596  0.564631  1
  Yb  Yb2  1  0.706070  0.409977  0.846463  1
  Yb  Yb3  1  0.293930  0.590023  0.153537  1
  Yb  Yb4  1  0.395679  0.783106  0.906734  1
  Yb  Yb5  1  0.604321  0.216894  0.093266  1
  Yb  Yb6  1  0.159057  0.404896  0.668331  1
  Yb  Yb7  1  0.885032  0.841773  0.749051  1
  Yb  Yb8  1  0.114968  0.158227  0.250949  1
  Yb  Yb9  1  0.730584  0.017404  0.435369  1
  Mn  Mn10  1  0.576147  0.363159  0.477593  1
  Mn  Mn11  1  0.423853  0.636841  0.522407  1
  Mo  Mo12  1  0.119844  0.215234  0.919821  1
  Mo  Mo13  1  0.880156  0.784766  0.080179  1
  N  N14  1  0.545139  0.553565  0.673370  1
  N  N15  1  0.454861  0.446435  0.326630  1
  N  N16  1  0.159693  0.703608  0.565043  1
  N  N17  1  0.840307  0.296392  0.434957  1
  N  N18  1  0.416940  0.195877  0.481137  1
  N  N19  1  0.583060  0.804123  0.518863  1
  N  N20  1  0.941514  0.125488  0.704762  1
  N  N21  1  0.058486  0.874512  0.295238  1
  N  N22  1  0.241938  0.044704  0.978251  1
  N  N23  1  0.758062  0.955296  0.021749  1
  N  N24  1  0.367347  0.334717  0.903396  1
  N  N25  1  0.957446  0.360338  0.091785  1
  N  N26  1  0.042554  0.639662  0.908215  1
  N  N27  1  0.632653  0.665283  0.096604  1
