# generated using pymatgen
data_Ba6LuIn(WO6)3
_symmetry_space_group_name_H-M   'P 1'
_cell_length_a   5.91835048
_cell_length_b   5.91834980
_cell_length_c   14.81767468
_cell_angle_alpha   90.00000010
_cell_angle_beta   78.48024625
_cell_angle_gamma   120.00002280
_symmetry_Int_Tables_number   1
_chemical_formula_structural   Ba6LuIn(WO6)3
_chemical_formula_sum   'Ba6 Lu1 In1 W3 O18'
_cell_volume   437.36739190
_cell_formula_units_Z   1
loop_
 _symmetry_equiv_pos_site_id
 _symmetry_equiv_pos_as_xyz
  1  'x, y, z'
loop_
 _atom_site_type_symbol
 _atom_site_label
 _atom_site_symmetry_multiplicity
 _atom_site_fract_x
 _atom_site_fract_y
 _atom_site_fract_z
 _atom_site_occupancy
  Ba  Ba0  1  0.272040  0.636020  0.091941  1
  Ba  Ba1  1  0.824964  0.912482  0.262554  1
  Ba  Ba2  1  0.375007  0.187503  0.437490  1
  Ba  Ba3  1  0.626255  0.813127  0.560618  1
  Ba  Ba4  1  0.176061  0.088031  0.735909  1
  Ba  Ba5  1  0.726220  0.363110  0.910669  1
  Lu  Lu6  1  0.449028  0.724514  0.826458  1
  In  In7  1  0.551288  0.275644  0.173067  1
  W  W8  1  0.999712  0.999856  0.000432  1
  W  W9  1  0.104978  0.552489  0.342533  1
  W  W10  1  0.895360  0.447680  0.656960  1
  O  O11  1  0.263552  0.131776  0.078160  1
  O  O12  1  0.790063  0.131777  0.078160  1
  O  O13  1  0.790064  0.658288  0.078160  1
  O  O14  1  0.321471  0.426581  0.251948  1
  O  O15  1  0.853165  0.426582  0.251948  1
  O  O16  1  0.321469  0.894887  0.251948  1
  O  O17  1  0.902742  0.213503  0.408021  1
  O  O18  1  0.902742  0.689236  0.408021  1
  O  O19  1  0.378475  0.689237  0.408021  1
  O  O20  1  0.097893  0.310254  0.591854  1
  O  O21  1  0.620509  0.310255  0.591854  1
  O  O22  1  0.097893  0.787637  0.591854  1
  O  O23  1  0.678639  0.105034  0.747755  1
  O  O24  1  0.147212  0.573604  0.747755  1
  O  O25  1  0.678640  0.573605  0.747755  1
  O  O26  1  0.208130  0.338980  0.922719  1
  O  O27  1  0.208130  0.869151  0.922719  1
  O  O28  1  0.738300  0.869151  0.922719  1
