# generated using pymatgen
data_ScBe2Cu3
_symmetry_space_group_name_H-M   'P 1'
_cell_length_a   4.63095553
_cell_length_b   4.64662091
_cell_length_c   4.64661817
_cell_angle_alpha   62.40886698
_cell_angle_beta   60.11145283
_cell_angle_gamma   60.11144360
_symmetry_Int_Tables_number   1
_chemical_formula_structural   ScBe2Cu3
_chemical_formula_sum   'Sc1 Be2 Cu3'
_cell_volume   72.02347717
_cell_formula_units_Z   1
loop_
 _symmetry_equiv_pos_site_id
 _symmetry_equiv_pos_as_xyz
  1  'x, y, z'
loop_
 _atom_site_type_symbol
 _atom_site_label
 _atom_site_symmetry_multiplicity
 _atom_site_fract_x
 _atom_site_fract_y
 _atom_site_fract_z
 _atom_site_occupancy
  Sc  Sc0  1  0.999983  0.000017  0.000017  1
  Be  Be1  1  0.367263  0.382185  0.382185  1
  Be  Be2  1  0.868368  0.382185  0.382185  1
  Cu  Cu3  1  0.376427  0.872790  0.374358  1
  Cu  Cu4  1  0.761534  0.738466  0.738466  1
  Cu  Cu5  1  0.376427  0.374358  0.872790  1
