# generated using pymatgen
data_Zr6CoBiPb
_symmetry_space_group_name_H-M   'P 1'
_cell_length_a   3.60775600
_cell_length_b   8.01676995
_cell_length_c   8.01676900
_cell_angle_alpha   119.99999194
_cell_angle_beta   90.00000000
_cell_angle_gamma   90.00000000
_symmetry_Int_Tables_number   1
_chemical_formula_structural   Zr6CoBiPb
_chemical_formula_sum   'Zr6 Co1 Bi1 Pb1'
_cell_volume   200.80134422
_cell_formula_units_Z   1
loop_
 _symmetry_equiv_pos_site_id
 _symmetry_equiv_pos_as_xyz
  1  'x, y, z'
loop_
 _atom_site_type_symbol
 _atom_site_label
 _atom_site_symmetry_multiplicity
 _atom_site_fract_x
 _atom_site_fract_y
 _atom_site_fract_z
 _atom_site_occupancy
  Zr  Zr0  1  0.500000  0.763758  0.762805  1
  Zr  Zr1  1  0.500000  0.999047  0.236242  1
  Zr  Zr2  1  0.500000  0.237195  0.000953  1
  Zr  Zr3  1  0.000000  0.389782  0.391432  1
  Zr  Zr4  1  0.000000  0.001651  0.610218  1
  Zr  Zr5  1  0.000000  0.608568  0.998349  1
  Co  Co6  1  0.000000  0.000000  0.000000  1
  Bi  Bi7  1  0.500000  0.333333  0.666667  1
  Pb  Pb8  1  0.500000  0.666667  0.333333  1
