# generated using pymatgen
data_Rb3Al2(PS4)3
_symmetry_space_group_name_H-M   'P 1'
_cell_length_a   12.62221700
_cell_length_b   9.96996811
_cell_length_c   19.54456900
_cell_angle_alpha   66.31447524
_cell_angle_beta   90.00000000
_cell_angle_gamma   90.00000000
_symmetry_Int_Tables_number   1
_chemical_formula_structural   Rb3Al2(PS4)3
_chemical_formula_sum   'Rb12 Al8 P12 S48'
_cell_volume   2252.36686336
_cell_formula_units_Z   4
loop_
 _symmetry_equiv_pos_site_id
 _symmetry_equiv_pos_as_xyz
  1  'x, y, z'
loop_
 _atom_site_type_symbol
 _atom_site_label
 _atom_site_symmetry_multiplicity
 _atom_site_fract_x
 _atom_site_fract_y
 _atom_site_fract_z
 _atom_site_occupancy
  Rb  Rb0  1  0.132849  0.804750  0.199014  1
  Rb  Rb1  1  0.578854  0.306757  0.610342  1
  Rb  Rb2  1  0.437988  0.720636  0.044335  1
  Rb  Rb3  1  0.921146  0.306757  0.110342  1
  Rb  Rb4  1  0.421146  0.693243  0.389658  1
  Rb  Rb5  1  0.562012  0.279364  0.955665  1
  Rb  Rb6  1  0.367151  0.804750  0.699014  1
  Rb  Rb7  1  0.632849  0.195250  0.300986  1
  Rb  Rb8  1  0.078854  0.693243  0.889658  1
  Rb  Rb9  1  0.937988  0.279364  0.455665  1
  Rb  Rb10  1  0.867151  0.195250  0.800986  1
  Rb  Rb11  1  0.062012  0.720636  0.544335  1
  Al  Al12  1  0.769999  0.760361  0.292882  1
  Al  Al13  1  0.230001  0.239639  0.707118  1
  Al  Al14  1  0.269999  0.239639  0.207118  1
  Al  Al15  1  0.781997  0.775613  0.100720  1
  Al  Al16  1  0.730001  0.760361  0.792882  1
  Al  Al17  1  0.718003  0.775613  0.600720  1
  Al  Al18  1  0.281997  0.224387  0.399280  1
  Al  Al19  1  0.218003  0.224387  0.899280  1
  P  P20  1  0.630328  0.523060  0.745537  1
  P  P21  1  0.869672  0.523060  0.245537  1
  P  P22  1  0.815867  0.020551  0.648278  1
  P  P23  1  0.184133  0.979449  0.351722  1
  P  P24  1  0.130328  0.476940  0.754463  1
  P  P25  1  0.260324  0.247207  0.550937  1
  P  P26  1  0.739676  0.752793  0.449063  1
  P  P27  1  0.239676  0.247207  0.050937  1
  P  P28  1  0.369672  0.476940  0.254463  1
  P  P29  1  0.684133  0.020551  0.148278  1
  P  P30  1  0.760324  0.752793  0.949063  1
  P  P31  1  0.315867  0.979449  0.851722  1
  S  S32  1  0.073383  0.384784  0.683836  1
  S  S33  1  0.363739  0.059144  0.929447  1
  S  S34  1  0.341250  0.117269  0.133159  1
  S  S35  1  0.926617  0.615216  0.316164  1
  S  S36  1  0.573383  0.615216  0.816164  1
  S  S37  1  0.063379  0.370884  0.859756  1
  S  S38  1  0.676307  0.612394  0.406019  1
  S  S39  1  0.787173  0.605516  0.727195  1
  S  S40  1  0.170576  0.763876  0.384942  1
  S  S41  1  0.158750  0.117269  0.633159  1
  S  S42  1  0.436621  0.370884  0.359756  1
  S  S43  1  0.329424  0.763876  0.884942  1
  S  S44  1  0.131529  0.121492  0.022749  1
  S  S45  1  0.868471  0.878508  0.977251  1
  S  S46  1  0.658750  0.882731  0.866841  1
  S  S47  1  0.287173  0.394484  0.772805  1
  S  S48  1  0.384299  0.093330  0.748985  1
  S  S49  1  0.176307  0.387606  0.093981  1
  S  S50  1  0.670576  0.236124  0.115058  1
  S  S51  1  0.323693  0.387606  0.593981  1
  S  S52  1  0.341129  0.063822  0.333191  1
  S  S53  1  0.158871  0.063822  0.833191  1
  S  S54  1  0.829424  0.236124  0.615058  1
  S  S55  1  0.841129  0.936178  0.166809  1
  S  S56  1  0.636261  0.940856  0.070553  1
  S  S57  1  0.936621  0.629116  0.140244  1
  S  S58  1  0.615701  0.906670  0.251015  1
  S  S59  1  0.191028  0.372825  0.450262  1
  S  S60  1  0.115701  0.093330  0.248985  1
  S  S61  1  0.116829  0.693274  0.715032  1
  S  S62  1  0.563379  0.629116  0.640244  1
  S  S63  1  0.368471  0.121492  0.522749  1
  S  S64  1  0.823693  0.612394  0.906019  1
  S  S65  1  0.808972  0.627175  0.549738  1
  S  S66  1  0.883171  0.306726  0.284968  1
  S  S67  1  0.383171  0.693274  0.215032  1
  S  S68  1  0.426617  0.384784  0.183836  1
  S  S69  1  0.308972  0.372825  0.950262  1
  S  S70  1  0.863739  0.940856  0.570553  1
  S  S71  1  0.658871  0.936178  0.666809  1
  S  S72  1  0.616829  0.306726  0.784968  1
  S  S73  1  0.691028  0.627175  0.049738  1
  S  S74  1  0.712827  0.605516  0.227195  1
  S  S75  1  0.841250  0.882731  0.366841  1
  S  S76  1  0.631529  0.878508  0.477251  1
  S  S77  1  0.212827  0.394484  0.272805  1
  S  S78  1  0.884299  0.906670  0.751015  1
  S  S79  1  0.136261  0.059144  0.429447  1
