# generated using pymatgen
data_TbCo2(PRh)3
_symmetry_space_group_name_H-M   'P 1'
_cell_length_a   3.81100400
_cell_length_b   10.66624300
_cell_length_c   12.23932000
_cell_angle_alpha   90.00000000
_cell_angle_beta   90.00000000
_cell_angle_gamma   90.00000000
_symmetry_Int_Tables_number   1
_chemical_formula_structural   TbCo2(PRh)3
_chemical_formula_sum   'Tb4 Co8 P12 Rh12'
_cell_volume   497.51727821
_cell_formula_units_Z   4
loop_
 _symmetry_equiv_pos_site_id
 _symmetry_equiv_pos_as_xyz
  1  'x, y, z'
loop_
 _atom_site_type_symbol
 _atom_site_label
 _atom_site_symmetry_multiplicity
 _atom_site_fract_x
 _atom_site_fract_y
 _atom_site_fract_z
 _atom_site_occupancy
  Tb  Tb0  1  0.250000  0.583575  0.708679  1
  Tb  Tb1  1  0.250000  0.916425  0.208679  1
  Tb  Tb2  1  0.750000  0.416425  0.291321  1
  Tb  Tb3  1  0.750000  0.083575  0.791321  1
  Co  Co4  1  0.250000  0.884305  0.696607  1
  Co  Co5  1  0.250000  0.615695  0.196607  1
  Co  Co6  1  0.750000  0.115695  0.303393  1
  Co  Co7  1  0.750000  0.384305  0.803393  1
  Co  Co8  1  0.250000  0.463947  0.933078  1
  Co  Co9  1  0.250000  0.036053  0.433078  1
  Co  Co10  1  0.750000  0.536053  0.066922  1
  Co  Co11  1  0.750000  0.963947  0.566922  1
  P  P12  1  0.250000  0.430563  0.110488  1
  P  P13  1  0.250000  0.069437  0.610488  1
  P  P14  1  0.750000  0.569437  0.889512  1
  P  P15  1  0.750000  0.930563  0.389512  1
  P  P16  1  0.250000  0.275007  0.871214  1
  P  P17  1  0.250000  0.224993  0.371214  1
  P  P18  1  0.750000  0.724993  0.128786  1
  P  P19  1  0.750000  0.775007  0.628786  1
  P  P20  1  0.250000  0.600373  0.381563  1
  P  P21  1  0.250000  0.899627  0.881563  1
  P  P22  1  0.750000  0.399627  0.618437  1
  P  P23  1  0.750000  0.100373  0.118437  1
  Rh  Rh24  1  0.250000  0.716026  0.990753  1
  Rh  Rh25  1  0.250000  0.783974  0.490753  1
  Rh  Rh26  1  0.750000  0.283974  0.009247  1
  Rh  Rh27  1  0.750000  0.216026  0.509247  1
  Rh  Rh28  1  0.250000  0.408583  0.479904  1
  Rh  Rh29  1  0.250000  0.091417  0.979904  1
  Rh  Rh30  1  0.750000  0.591417  0.520096  1
  Rh  Rh31  1  0.750000  0.908583  0.020096  1
  Rh  Rh32  1  0.250000  0.225331  0.180107  1
  Rh  Rh33  1  0.250000  0.274669  0.680107  1
  Rh  Rh34  1  0.750000  0.774669  0.819893  1
  Rh  Rh35  1  0.750000  0.725331  0.319893  1
