# generated using pymatgen
data_Na2Li2HfNi9As7
_symmetry_space_group_name_H-M   'P 1'
_cell_length_a   9.57570591
_cell_length_b   9.55323079
_cell_length_c   3.83784800
_cell_angle_alpha   90.00000000
_cell_angle_beta   90.00000000
_cell_angle_gamma   119.66275402
_symmetry_Int_Tables_number   1
_chemical_formula_structural   Na2Li2HfNi9As7
_chemical_formula_sum   'Na2 Li2 Hf1 Ni9 As7'
_cell_volume   305.07409527
_cell_formula_units_Z   1
loop_
 _symmetry_equiv_pos_site_id
 _symmetry_equiv_pos_as_xyz
  1  'x, y, z'
loop_
 _atom_site_type_symbol
 _atom_site_label
 _atom_site_symmetry_multiplicity
 _atom_site_fract_x
 _atom_site_fract_y
 _atom_site_fract_z
 _atom_site_occupancy
  Na  Na0  1  0.340200  0.667255  0.000000  1
  Na  Na1  1  0.664137  0.328698  0.500000  1
  Li  Li2  1  0.221694  0.116889  0.500000  1
  Li  Li3  1  0.887344  0.108968  0.500000  1
  Hf  Hf4  1  0.900370  0.780419  0.500000  1
  Ni  Ni5  1  0.121404  0.291724  0.000000  1
  Ni  Ni6  1  0.713258  0.836436  0.000000  1
  Ni  Ni7  1  0.165330  0.877369  0.000000  1
  Ni  Ni8  1  0.421013  0.369263  0.000000  1
  Ni  Ni9  1  0.625194  0.051962  0.000000  1
  Ni  Ni10  1  0.945385  0.574233  0.000000  1
  Ni  Ni11  1  0.041046  0.431914  0.500000  1
  Ni  Ni12  1  0.560190  0.611563  0.500000  1
  Ni  Ni13  1  0.388985  0.955352  0.500000  1
  As  As14  1  0.286587  0.412678  0.500000  1
  As  As15  1  0.590141  0.879471  0.500000  1
  As  As16  1  0.137241  0.709224  0.500000  1
  As  As17  1  0.417777  0.115998  0.000000  1
  As  As18  1  0.880636  0.300184  0.000000  1
  As  As19  1  0.689779  0.573541  0.000000  1
  As  As20  1  0.002287  0.006858  0.000000  1
