# generated using pymatgen
data_TmTi4(ReTc)12
_symmetry_space_group_name_H-M   'P 1'
_cell_length_a   8.38089917
_cell_length_b   8.38073708
_cell_length_c   8.38124000
_cell_angle_alpha   109.47692007
_cell_angle_beta   109.46758018
_cell_angle_gamma   109.47033911
_symmetry_Int_Tables_number   1
_chemical_formula_structural   TmTi4(ReTc)12
_chemical_formula_sum   'Tm1 Ti4 Re12 Tc12'
_cell_volume   453.16139486
_cell_formula_units_Z   1
loop_
 _symmetry_equiv_pos_site_id
 _symmetry_equiv_pos_as_xyz
  1  'x, y, z'
loop_
 _atom_site_type_symbol
 _atom_site_label
 _atom_site_symmetry_multiplicity
 _atom_site_fract_x
 _atom_site_fract_y
 _atom_site_fract_z
 _atom_site_occupancy
  Tm  Tm0  1  0.000014  0.000014  0.000002  1
  Ti  Ti1  1  0.626549  0.000042  0.999853  1
  Ti  Ti2  1  0.000082  0.626655  0.000072  1
  Ti  Ti3  1  0.999946  0.999976  0.626608  1
  Ti  Ti4  1  0.373442  0.373380  0.373472  1
  Re  Re5  1  0.378519  0.194546  0.000002  1
  Re  Re6  1  0.183858  0.805416  0.805482  1
  Re  Re7  1  0.378380  0.999989  0.194497  1
  Re  Re8  1  0.194604  0.378474  0.000000  1
  Re  Re9  1  0.000009  0.378405  0.194542  1
  Re  Re10  1  0.805547  0.183903  0.805502  1
  Re  Re11  1  0.805407  0.805403  0.183873  1
  Re  Re12  1  0.000000  0.194609  0.378401  1
  Re  Re13  1  0.194461  0.999977  0.378375  1
  Re  Re14  1  0.621513  0.621515  0.816098  1
  Re  Re15  1  0.816167  0.621630  0.621580  1
  Re  Re16  1  0.621568  0.816118  0.621630  1
  Tc  Tc17  1  0.401567  0.681389  0.000021  1
  Tc  Tc18  1  0.720192  0.318581  0.318648  1
  Tc  Tc19  1  0.401543  0.999931  0.681374  1
  Tc  Tc20  1  0.681380  0.401486  0.999978  1
  Tc  Tc21  1  0.000046  0.401617  0.681446  1
  Tc  Tc22  1  0.318580  0.720228  0.318568  1
  Tc  Tc23  1  0.318566  0.318607  0.720118  1
  Tc  Tc24  1  0.999962  0.681398  0.401567  1
  Tc  Tc25  1  0.681438  0.000021  0.401647  1
  Tc  Tc26  1  0.598467  0.598475  0.279880  1
  Tc  Tc27  1  0.279817  0.598429  0.598404  1
  Tc  Tc28  1  0.598376  0.279785  0.598362  1
