# generated using pymatgen
data_Yb3Pt4AuO14
_symmetry_space_group_name_H-M   'P 1'
_cell_length_a   7.29286494
_cell_length_b   7.17035662
_cell_length_c   7.29286600
_cell_angle_alpha   59.43318712
_cell_angle_beta   59.99999520
_cell_angle_gamma   59.43318608
_symmetry_Int_Tables_number   1
_chemical_formula_structural   Yb3Pt4AuO14
_chemical_formula_sum   'Yb3 Pt4 Au1 O14'
_cell_volume   267.33003761
_cell_formula_units_Z   1
loop_
 _symmetry_equiv_pos_site_id
 _symmetry_equiv_pos_as_xyz
  1  'x, y, z'
loop_
 _atom_site_type_symbol
 _atom_site_label
 _atom_site_symmetry_multiplicity
 _atom_site_fract_x
 _atom_site_fract_y
 _atom_site_fract_z
 _atom_site_occupancy
  Yb  Yb0  1  0.125000  0.125000  0.625000  1
  Yb  Yb1  1  0.625000  0.125000  0.125000  1
  Yb  Yb2  1  0.125000  0.125000  0.125000  1
  Pt  Pt3  1  0.625000  0.625000  0.125000  1
  Pt  Pt4  1  0.625000  0.125000  0.625000  1
  Pt  Pt5  1  0.125000  0.625000  0.625000  1
  Pt  Pt6  1  0.625000  0.625000  0.625000  1
  Au  Au7  1  0.125000  0.625000  0.125000  1
  O  O8  1  0.239795  0.280615  0.239795  1
  O  O9  1  0.010205  0.969385  0.010205  1
  O  O10  1  0.538446  0.963105  0.538446  1
  O  O11  1  0.294108  0.707141  0.294108  1
  O  O12  1  0.545357  0.542859  0.955892  1
  O  O13  1  0.955892  0.542859  0.545357  1
  O  O14  1  0.538446  0.963105  0.960003  1
  O  O15  1  0.960003  0.963105  0.538446  1
  O  O16  1  0.955892  0.542859  0.955892  1
  O  O17  1  0.711554  0.286895  0.289997  1
  O  O18  1  0.294108  0.707141  0.704643  1
  O  O19  1  0.711554  0.286895  0.711554  1
  O  O20  1  0.289997  0.286895  0.711554  1
  O  O21  1  0.704643  0.707141  0.294108  1
