# generated using pymatgen
data_Tb3Y13Cd4(IrPt)2
_symmetry_space_group_name_H-M   'P 1'
_cell_length_a   9.70074820
_cell_length_b   9.70674686
_cell_length_c   9.68809700
_cell_angle_alpha   60.06354017
_cell_angle_beta   60.04313487
_cell_angle_gamma   60.14714892
_symmetry_Int_Tables_number   1
_chemical_formula_structural   Tb3Y13Cd4(IrPt)2
_chemical_formula_sum   'Tb3 Y13 Cd4 Ir2 Pt2'
_cell_volume   646.29897601
_cell_formula_units_Z   1
loop_
 _symmetry_equiv_pos_site_id
 _symmetry_equiv_pos_as_xyz
  1  'x, y, z'
loop_
 _atom_site_type_symbol
 _atom_site_label
 _atom_site_symmetry_multiplicity
 _atom_site_fract_x
 _atom_site_fract_y
 _atom_site_fract_z
 _atom_site_occupancy
  Tb  Tb0  1  0.350511  0.350670  0.346388  1
  Tb  Tb1  1  0.350511  0.350670  0.952432  1
  Tb  Tb2  1  0.356116  0.943702  0.350090  1
  Y  Y3  1  0.942368  0.356480  0.350575  1
  Y  Y4  1  0.806533  0.190537  0.190526  1
  Y  Y5  1  0.190486  0.806658  0.812401  1
  Y  Y6  1  0.190486  0.806658  0.190455  1
  Y  Y7  1  0.806533  0.190537  0.812404  1
  Y  Y8  1  0.191483  0.191557  0.808480  1
  Y  Y9  1  0.811256  0.811213  0.188766  1
  Y  Y10  1  0.938290  0.564580  0.561360  1
  Y  Y11  1  0.564353  0.938150  0.936146  1
  Y  Y12  1  0.564353  0.938150  0.561350  1
  Y  Y13  1  0.938290  0.564580  0.935769  1
  Y  Y14  1  0.563584  0.563574  0.936421  1
  Y  Y15  1  0.937987  0.937334  0.562340  1
  Cd  Cd16  1  0.581293  0.580829  0.581930  1
  Cd  Cd17  1  0.581293  0.580829  0.255950  1
  Cd  Cd18  1  0.580803  0.255869  0.581665  1
  Cd  Cd19  1  0.256089  0.580397  0.581758  1
  Ir  Ir20  1  0.140939  0.572918  0.143072  1
  Ir  Ir21  1  0.572352  0.140771  0.143439  1
  Pt  Pt22  1  0.142047  0.141669  0.145511  1
  Pt  Pt23  1  0.142047  0.141669  0.570773  1
