# generated using pymatgen
data_Hf3Sn(SeO3)8
_symmetry_space_group_name_H-M   'P 1'
_cell_length_a   8.60220339
_cell_length_b   8.60220339
_cell_length_c   8.60220339
_cell_angle_alpha   89.74589474
_cell_angle_beta   90.25410526
_cell_angle_gamma   89.74589474
_symmetry_Int_Tables_number   1
_chemical_formula_structural   Hf3Sn(SeO3)8
_chemical_formula_sum   'Hf3 Sn1 Se8 O24'
_cell_volume   636.52617823
_cell_formula_units_Z   1
loop_
 _symmetry_equiv_pos_site_id
 _symmetry_equiv_pos_as_xyz
  1  'x, y, z'
loop_
 _atom_site_type_symbol
 _atom_site_label
 _atom_site_symmetry_multiplicity
 _atom_site_fract_x
 _atom_site_fract_y
 _atom_site_fract_z
 _atom_site_occupancy
  Hf  Hf0  1  0.500000  0.500000  0.000000  1
  Hf  Hf1  1  0.500000  0.000000  0.500000  1
  Hf  Hf2  1  0.000000  0.000000  0.000000  1
  Sn  Sn3  1  0.000000  0.500000  0.500000  1
  Se  Se4  1  0.822255  0.195162  0.677368  1
  Se  Se5  1  0.177745  0.804838  0.322632  1
  Se  Se6  1  0.695162  0.677368  0.677745  1
  Se  Se7  1  0.177368  0.677745  0.804838  1
  Se  Se8  1  0.315824  0.184176  0.815824  1
  Se  Se9  1  0.822632  0.322255  0.195162  1
  Se  Se10  1  0.684176  0.815824  0.184176  1
  Se  Se11  1  0.304838  0.322632  0.322255  1
  O  O12  1  0.234940  0.452711  0.460732  1
  O  O13  1  0.946435  0.223235  0.074347  1
  O  O14  1  0.039268  0.734940  0.452711  1
  O  O15  1  0.454029  0.274068  0.929497  1
  O  O16  1  0.276765  0.925653  0.446435  1
  O  O17  1  0.574347  0.553565  0.776765  1
  O  O18  1  0.935372  0.060851  0.775013  1
  O  O19  1  0.545971  0.725932  0.070503  1
  O  O20  1  0.570503  0.954029  0.274068  1
  O  O21  1  0.429497  0.045971  0.725932  1
  O  O22  1  0.774068  0.929497  0.045971  1
  O  O23  1  0.275013  0.564628  0.939149  1
  O  O24  1  0.047289  0.539268  0.734940  1
  O  O25  1  0.064628  0.939149  0.224987  1
  O  O26  1  0.225932  0.070503  0.954029  1
  O  O27  1  0.425653  0.446435  0.223235  1
  O  O28  1  0.765060  0.547289  0.539268  1
  O  O29  1  0.952711  0.460732  0.265060  1
  O  O30  1  0.053565  0.776765  0.925653  1
  O  O31  1  0.439149  0.224987  0.435372  1
  O  O32  1  0.560851  0.775013  0.564628  1
  O  O33  1  0.960732  0.265060  0.547289  1
  O  O34  1  0.723235  0.074347  0.553565  1
  O  O35  1  0.724987  0.435372  0.060851  1
