# generated using pymatgen
data_Er12InFe4Au
_symmetry_space_group_name_H-M   'P 1'
_cell_length_a   8.26144843
_cell_length_b   8.26144894
_cell_length_c   8.26144831
_cell_angle_alpha   111.05011923
_cell_angle_beta   110.75010625
_cell_angle_gamma   106.64989807
_symmetry_Int_Tables_number   1
_chemical_formula_structural   Er12InFe4Au
_chemical_formula_sum   'Er12 In1 Fe4 Au1'
_cell_volume   433.26936615
_cell_formula_units_Z   1
loop_
 _symmetry_equiv_pos_site_id
 _symmetry_equiv_pos_as_xyz
  1  'x, y, z'
loop_
 _atom_site_type_symbol
 _atom_site_label
 _atom_site_symmetry_multiplicity
 _atom_site_fract_x
 _atom_site_fract_y
 _atom_site_fract_z
 _atom_site_occupancy
  Er  Er0  1  0.187371  0.289288  0.476660  1
  Er  Er1  1  0.812629  0.710712  0.523340  1
  Er  Er2  1  0.187371  0.710712  0.898084  1
  Er  Er3  1  0.812629  0.289288  0.101916  1
  Er  Er4  1  0.314013  0.615250  0.301238  1
  Er  Er5  1  0.685987  0.384750  0.698762  1
  Er  Er6  1  0.314013  0.012775  0.698762  1
  Er  Er7  1  0.685987  0.987225  0.301238  1
  Er  Er8  1  0.426554  0.222384  0.204170  1
  Er  Er9  1  0.573446  0.777616  0.795830  1
  Er  Er10  1  0.018215  0.222384  0.795830  1
  Er  Er11  1  0.981785  0.777616  0.204170  1
  In  In12  1  0.500000  0.500000  0.000000  1
  Fe  Fe13  1  0.108785  0.608785  0.500000  1
  Fe  Fe14  1  0.891215  0.391215  0.500000  1
  Fe  Fe15  1  0.384030  0.000000  0.384030  1
  Fe  Fe16  1  0.615970  0.000000  0.615970  1
  Au  Au17  1  0.000000  0.000000  0.000000  1
