# generated using pymatgen
data_Y2LuCd3Sn2Au
_symmetry_space_group_name_H-M   'P 1'
_cell_length_a   7.44921629
_cell_length_b   7.44921675
_cell_length_c   4.51087000
_cell_angle_alpha   90.00000000
_cell_angle_beta   90.00000000
_cell_angle_gamma   119.69237504
_symmetry_Int_Tables_number   1
_chemical_formula_structural   Y2LuCd3Sn2Au
_chemical_formula_sum   'Y2 Lu1 Cd3 Sn2 Au1'
_cell_volume   217.44531216
_cell_formula_units_Z   1
loop_
 _symmetry_equiv_pos_site_id
 _symmetry_equiv_pos_as_xyz
  1  'x, y, z'
loop_
 _atom_site_type_symbol
 _atom_site_label
 _atom_site_symmetry_multiplicity
 _atom_site_fract_x
 _atom_site_fract_y
 _atom_site_fract_z
 _atom_site_occupancy
  Y  Y0  1  0.591039  0.999555  0.000000  1
  Y  Y1  1  0.999555  0.591039  0.000000  1
  Lu  Lu2  1  0.405802  0.405802  0.000000  1
  Cd  Cd3  1  0.239954  0.999497  0.500000  1
  Cd  Cd4  1  0.999497  0.239954  0.500000  1
  Cd  Cd5  1  0.760897  0.760897  0.500000  1
  Sn  Sn6  1  0.334675  0.664484  0.500000  1
  Sn  Sn7  1  0.664484  0.334675  0.500000  1
  Au  Au8  1  0.004096  0.004096  0.000000  1
