# generated using pymatgen
data_Ce2Sm(InIr)3
_symmetry_space_group_name_H-M   'P 1'
_cell_length_a   7.69271049
_cell_length_b   7.55414967
_cell_length_c   3.96182400
_cell_angle_alpha   90.00000000
_cell_angle_beta   90.00000000
_cell_angle_gamma   119.40593212
_symmetry_Int_Tables_number   1
_chemical_formula_structural   Ce2Sm(InIr)3
_chemical_formula_sum   'Ce2 Sm1 In3 Ir3'
_cell_volume   200.56703952
_cell_formula_units_Z   1
loop_
 _symmetry_equiv_pos_site_id
 _symmetry_equiv_pos_as_xyz
  1  'x, y, z'
loop_
 _atom_site_type_symbol
 _atom_site_label
 _atom_site_symmetry_multiplicity
 _atom_site_fract_x
 _atom_site_fract_y
 _atom_site_fract_z
 _atom_site_occupancy
  Ce  Ce0  1  0.588219  0.587229  0.000000  1
  Ce  Ce1  1  0.411781  0.999009  0.000000  1
  Sm  Sm2  1  0.000000  0.408380  0.000000  1
  In  In3  1  0.000000  0.740192  0.500000  1
  In  In4  1  0.247629  0.253286  0.500000  1
  In  In5  1  0.752371  0.005657  0.500000  1
  Ir  Ir6  1  0.000000  0.993590  0.000000  1
  Ir  Ir7  1  0.648006  0.330331  0.500000  1
  Ir  Ir8  1  0.351994  0.682326  0.500000  1
