# generated using pymatgen
data_Mg4AlSnPt10
_symmetry_space_group_name_H-M   'P 1'
_cell_length_a   4.11029600
_cell_length_b   5.58573116
_cell_length_c   11.03539487
_cell_angle_alpha   89.34734831
_cell_angle_beta   90.00000000
_cell_angle_gamma   90.00000000
_symmetry_Int_Tables_number   1
_chemical_formula_structural   Mg4AlSnPt10
_chemical_formula_sum   'Mg4 Al1 Sn1 Pt10'
_cell_volume   253.34528700
_cell_formula_units_Z   1
loop_
 _symmetry_equiv_pos_site_id
 _symmetry_equiv_pos_as_xyz
  1  'x, y, z'
loop_
 _atom_site_type_symbol
 _atom_site_label
 _atom_site_symmetry_multiplicity
 _atom_site_fract_x
 _atom_site_fract_y
 _atom_site_fract_z
 _atom_site_occupancy
  Mg  Mg0  1  0.500000  0.187884  0.644621  1
  Mg  Mg1  1  0.500000  0.812116  0.355379  1
  Mg  Mg2  1  0.500000  0.685590  0.864537  1
  Mg  Mg3  1  0.500000  0.314410  0.135463  1
  Al  Al4  1  0.000000  0.000000  0.000000  1
  Sn  Sn5  1  0.000000  0.500000  0.500000  1
  Pt  Pt6  1  0.500000  0.286918  0.382141  1
  Pt  Pt7  1  0.500000  0.713082  0.617859  1
  Pt  Pt8  1  0.500000  0.806986  0.104926  1
  Pt  Pt9  1  0.500000  0.193014  0.895074  1
  Pt  Pt10  1  0.000000  0.441285  0.748174  1
  Pt  Pt11  1  0.000000  0.558715  0.251826  1
  Pt  Pt12  1  0.000000  0.942102  0.762366  1
  Pt  Pt13  1  0.000000  0.057898  0.237634  1
  Pt  Pt14  1  0.000000  0.500000  0.000000  1
  Pt  Pt15  1  0.000000  0.000000  0.500000  1
