# generated using pymatgen
data_Ta2CdPbO7
_symmetry_space_group_name_H-M   'P 1'
_cell_length_a   7.54340845
_cell_length_b   7.48191368
_cell_length_c   7.54340902
_cell_angle_alpha   60.26930703
_cell_angle_beta   60.31193883
_cell_angle_gamma   60.26930986
_symmetry_Int_Tables_number   1
_chemical_formula_structural   Ta2CdPbO7
_chemical_formula_sum   'Ta4 Cd2 Pb2 O14'
_cell_volume   302.97762668
_cell_formula_units_Z   2
loop_
 _symmetry_equiv_pos_site_id
 _symmetry_equiv_pos_as_xyz
  1  'x, y, z'
loop_
 _atom_site_type_symbol
 _atom_site_label
 _atom_site_symmetry_multiplicity
 _atom_site_fract_x
 _atom_site_fract_y
 _atom_site_fract_z
 _atom_site_occupancy
  Ta  Ta0  1  0.125000  0.625000  0.125000  1
  Ta  Ta1  1  0.125000  0.125000  0.625000  1
  Ta  Ta2  1  0.625000  0.125000  0.125000  1
  Ta  Ta3  1  0.125000  0.125000  0.125000  1
  Cd  Cd4  1  0.625000  0.625000  0.625000  1
  Cd  Cd5  1  0.625000  0.125000  0.625000  1
  Pb  Pb6  1  0.125000  0.625000  0.625000  1
  Pb  Pb7  1  0.625000  0.625000  0.125000  1
  O  O8  1  0.724977  0.775023  0.724977  1
  O  O9  1  0.186029  0.810979  0.813328  1
  O  O10  1  0.190425  0.809575  0.190425  1
  O  O11  1  0.814876  0.185124  0.814876  1
  O  O12  1  0.186029  0.189665  0.813328  1
  O  O13  1  0.813328  0.810979  0.186029  1
  O  O14  1  0.436672  0.060335  0.063971  1
  O  O15  1  0.813328  0.189665  0.186029  1
  O  O16  1  0.059575  0.440425  0.059575  1
  O  O17  1  0.063971  0.060335  0.436672  1
  O  O18  1  0.436672  0.439021  0.063971  1
  O  O19  1  0.435124  0.064876  0.435124  1
  O  O20  1  0.063971  0.439021  0.436672  1
  O  O21  1  0.525023  0.474977  0.525023  1
