# generated using pymatgen
data_Sr5Ac2Ho13Sn16
_symmetry_space_group_name_H-M   'P 1'
_cell_length_a   8.06442593
_cell_length_b   8.40923686
_cell_length_c   15.91343300
_cell_angle_alpha   90.15377939
_cell_angle_beta   90.74182831
_cell_angle_gamma   89.62048508
_symmetry_Int_Tables_number   1
_chemical_formula_structural   Sr5Ac2Ho13Sn16
_chemical_formula_sum   'Sr5 Ac2 Ho13 Sn16'
_cell_volume   1079.06231821
_cell_formula_units_Z   1
loop_
 _symmetry_equiv_pos_site_id
 _symmetry_equiv_pos_as_xyz
  1  'x, y, z'
loop_
 _atom_site_type_symbol
 _atom_site_label
 _atom_site_symmetry_multiplicity
 _atom_site_fract_x
 _atom_site_fract_y
 _atom_site_fract_z
 _atom_site_occupancy
  Sr  Sr0  1  0.004730  0.173875  0.598494  1
  Sr  Sr1  1  0.499471  0.676005  0.408380  1
  Sr  Sr2  1  0.998899  0.820400  0.089056  1
  Sr  Sr3  1  0.494717  0.677628  0.089114  1
  Sr  Sr4  1  0.999522  0.824244  0.408424  1
  Ac  Ac5  1  0.501612  0.325973  0.597710  1
  Ac  Ac6  1  0.002712  0.176468  0.905347  1
  Ho  Ho7  1  0.336898  0.834449  0.873205  1
  Ho  Ho8  1  0.830965  0.664949  0.626892  1
  Ho  Ho9  1  0.666271  0.163149  0.375365  1
  Ho  Ho10  1  0.159382  0.341905  0.121475  1
  Ho  Ho11  1  0.660424  0.163370  0.124330  1
  Ho  Ho12  1  0.166106  0.335888  0.375897  1
  Ho  Ho13  1  0.331782  0.834953  0.628662  1
  Ho  Ho14  1  0.837688  0.659969  0.876734  1
  Ho  Ho15  1  0.507980  0.320830  0.900022  1
  Ho  Ho16  1  0.172293  0.498221  0.753095  1
  Ho  Ho17  1  0.671163  0.000396  0.751474  1
  Ho  Ho18  1  0.824569  0.504652  0.247530  1
  Ho  Ho19  1  0.327739  0.997601  0.248556  1
  Sn  Sn20  1  0.332517  0.053272  0.035735  1
  Sn  Sn21  1  0.834401  0.455466  0.459881  1
  Sn  Sn22  1  0.665591  0.961161  0.545295  1
  Sn  Sn23  1  0.190085  0.533740  0.951816  1
  Sn  Sn24  1  0.668345  0.967510  0.953843  1
  Sn  Sn25  1  0.165305  0.540337  0.545203  1
  Sn  Sn26  1  0.335579  0.044772  0.461109  1
  Sn  Sn27  1  0.813302  0.449467  0.037917  1
  Sn  Sn28  1  0.534198  0.627308  0.751499  1
  Sn  Sn29  1  0.030651  0.866961  0.751883  1
  Sn  Sn30  1  0.460958  0.368458  0.251084  1
  Sn  Sn31  1  0.964834  0.133062  0.248479  1
  Sn  Sn32  1  0.311472  0.143754  0.755686  1
  Sn  Sn33  1  0.803089  0.360327  0.752732  1
  Sn  Sn34  1  0.697146  0.864020  0.249419  1
  Sn  Sn35  1  0.197607  0.635460  0.248658  1
