# generated using pymatgen
data_HfZr5Al16Ni6Ru
_symmetry_space_group_name_H-M   'P 1'
_cell_length_a   8.56473058
_cell_length_b   8.57533918
_cell_length_c   8.57566891
_cell_angle_alpha   59.91519351
_cell_angle_beta   60.04051245
_cell_angle_gamma   60.03743523
_symmetry_Int_Tables_number   1
_chemical_formula_structural   HfZr5Al16Ni6Ru
_chemical_formula_sum   'Hf1 Zr5 Al16 Ni6 Ru1'
_cell_volume   445.34251414
_cell_formula_units_Z   1
loop_
 _symmetry_equiv_pos_site_id
 _symmetry_equiv_pos_as_xyz
  1  'x, y, z'
loop_
 _atom_site_type_symbol
 _atom_site_label
 _atom_site_symmetry_multiplicity
 _atom_site_fract_x
 _atom_site_fract_y
 _atom_site_fract_z
 _atom_site_occupancy
  Hf  Hf0  1  0.308618  0.691384  0.691379  1
  Zr  Zr1  1  0.691200  0.692046  0.308809  1
  Zr  Zr2  1  0.307953  0.692043  0.308812  1
  Zr  Zr3  1  0.694251  0.305745  0.305748  1
  Zr  Zr4  1  0.307948  0.308805  0.692045  1
  Zr  Zr5  1  0.691196  0.308808  0.692042  1
  Al  Al6  1  0.880184  0.879826  0.359789  1
  Al  Al7  1  0.880195  0.359792  0.879825  1
  Al  Al8  1  0.359382  0.880014  0.880003  1
  Al  Al9  1  0.880597  0.880004  0.880016  1
  Al  Al10  1  0.120004  0.119388  0.640620  1
  Al  Al11  1  0.119992  0.640620  0.119390  1
  Al  Al12  1  0.640207  0.119795  0.119812  1
  Al  Al13  1  0.120191  0.119806  0.119798  1
  Al  Al14  1  0.665956  0.665740  0.002355  1
  Al  Al15  1  0.665948  0.002351  0.665731  1
  Al  Al16  1  0.002846  0.666024  0.666022  1
  Al  Al17  1  0.665103  0.666039  0.666012  1
  Al  Al18  1  0.333981  0.334875  0.997158  1
  Al  Al19  1  0.333992  0.997156  0.334882  1
  Al  Al20  1  0.997645  0.334042  0.334037  1
  Al  Al21  1  0.334282  0.334024  0.334048  1
  Ni  Ni22  1  0.000616  0.999385  0.500977  1
  Ni  Ni23  1  0.499025  0.999384  0.500975  1
  Ni  Ni24  1  0.999708  0.500293  0.500289  1
  Ni  Ni25  1  0.499020  0.500980  0.999384  1
  Ni  Ni26  1  0.000614  0.500981  0.999386  1
  Ni  Ni27  1  0.499709  0.000287  0.000296  1
  Ru  Ru28  1  0.999637  0.000363  0.000362  1
