# generated using pymatgen
data_Rb4Th6BI18
_symmetry_space_group_name_H-M   'P 1'
_cell_length_a   12.13113584
_cell_length_b   12.13113613
_cell_length_c   11.85176823
_cell_angle_alpha   77.50932605
_cell_angle_beta   77.50932806
_cell_angle_gamma   117.82499603
_symmetry_Int_Tables_number   1
_chemical_formula_structural   Rb4Th6BI18
_chemical_formula_sum   'Rb4 Th6 B1 I18'
_cell_volume   1400.65857856
_cell_formula_units_Z   1
loop_
 _symmetry_equiv_pos_site_id
 _symmetry_equiv_pos_as_xyz
  1  'x, y, z'
loop_
 _atom_site_type_symbol
 _atom_site_label
 _atom_site_symmetry_multiplicity
 _atom_site_fract_x
 _atom_site_fract_y
 _atom_site_fract_z
 _atom_site_occupancy
  Rb  Rb0  1  0.772723  0.447236  0.671995  1
  Rb  Rb1  1  0.552764  0.227277  0.328005  1
  Rb  Rb2  1  0.227277  0.552764  0.328005  1
  Rb  Rb3  1  0.447236  0.772723  0.671995  1
  Th  Th4  1  0.129279  0.129279  0.137712  1
  Th  Th5  1  0.870721  0.870721  0.862288  1
  Th  Th6  1  0.950948  0.763548  0.146266  1
  Th  Th7  1  0.236452  0.049052  0.853734  1
  Th  Th8  1  0.049052  0.236452  0.853734  1
  Th  Th9  1  0.763548  0.950948  0.146266  1
  B  B10  1  0.000000  0.000000  0.000000  1
  I  I11  1  0.796352  0.579425  0.010922  1
  I  I12  1  0.420576  0.203648  0.989078  1
  I  I13  1  0.203648  0.420576  0.989078  1
  I  I14  1  0.579424  0.796352  0.010922  1
  I  I15  1  0.215562  0.784438  0.000000  1
  I  I16  1  0.784438  0.215562  0.000000  1
  I  I17  1  0.329550  0.329550  0.664071  1
  I  I18  1  0.670450  0.670450  0.335929  1
  I  I19  1  0.886698  0.480357  0.336173  1
  I  I20  1  0.519643  0.113302  0.663827  1
  I  I21  1  0.113302  0.519643  0.663827  1
  I  I22  1  0.480357  0.886698  0.336173  1
  I  I23  1  0.279389  0.279389  0.303474  1
  I  I24  1  0.720611  0.720611  0.696526  1
  I  I25  1  0.085699  0.874261  0.328539  1
  I  I26  1  0.125739  0.914301  0.671461  1
  I  I27  1  0.914301  0.125739  0.671461  1
  I  I28  1  0.874261  0.085699  0.328539  1
