# generated using pymatgen
data_Sc24Tc7Au
_symmetry_space_group_name_H-M   'P 1'
_cell_length_a   5.81924525
_cell_length_b   8.59071600
_cell_length_c   13.86698576
_cell_angle_alpha   90.00000000
_cell_angle_beta   90.35598875
_cell_angle_gamma   90.00000000
_symmetry_Int_Tables_number   1
_chemical_formula_structural   Sc24Tc7Au
_chemical_formula_sum   'Sc24 Tc7 Au1'
_cell_volume   693.21780621
_cell_formula_units_Z   1
loop_
 _symmetry_equiv_pos_site_id
 _symmetry_equiv_pos_as_xyz
  1  'x, y, z'
loop_
 _atom_site_type_symbol
 _atom_site_label
 _atom_site_symmetry_multiplicity
 _atom_site_fract_x
 _atom_site_fract_y
 _atom_site_fract_z
 _atom_site_occupancy
  Sc  Sc0  1  0.532985  0.750000  0.353855  1
  Sc  Sc1  1  0.027673  0.250000  0.147471  1
  Sc  Sc2  1  0.473509  0.250000  0.646497  1
  Sc  Sc3  1  0.968248  0.750000  0.859359  1
  Sc  Sc4  1  0.791656  0.750000  0.112013  1
  Sc  Sc5  1  0.297056  0.250000  0.384465  1
  Sc  Sc6  1  0.203157  0.250000  0.888533  1
  Sc  Sc7  1  0.693701  0.750000  0.610262  1
  Sc  Sc8  1  0.443869  0.942985  0.794667  1
  Sc  Sc9  1  0.931210  0.068571  0.707346  1
  Sc  Sc10  1  0.559473  0.437953  0.210746  1
  Sc  Sc11  1  0.061594  0.563462  0.290258  1
  Sc  Sc12  1  0.559473  0.062047  0.210746  1
  Sc  Sc13  1  0.061594  0.936538  0.290258  1
  Sc  Sc14  1  0.443869  0.557015  0.794667  1
  Sc  Sc15  1  0.931210  0.431429  0.707346  1
  Sc  Sc16  1  0.250006  0.950293  0.526217  1
  Sc  Sc17  1  0.747414  0.061396  0.969156  1
  Sc  Sc18  1  0.752196  0.439196  0.465518  1
  Sc  Sc19  1  0.253382  0.558609  0.034734  1
  Sc  Sc20  1  0.752196  0.060804  0.465518  1
  Sc  Sc21  1  0.253382  0.941391  0.034734  1
  Sc  Sc22  1  0.250006  0.549707  0.526217  1
  Sc  Sc23  1  0.747414  0.438604  0.969156  1
  Tc  Tc24  1  0.932737  0.750000  0.448739  1
  Tc  Tc25  1  0.426831  0.250000  0.057934  1
  Tc  Tc26  1  0.077867  0.250000  0.555268  1
  Tc  Tc27  1  0.569065  0.750000  0.941921  1
  Tc  Tc28  1  0.350086  0.750000  0.180767  1
  Tc  Tc29  1  0.853179  0.250000  0.319697  1
  Tc  Tc30  1  0.650681  0.250000  0.819978  1
  Au  Au31  1  0.153279  0.750000  0.675953  1
