# generated using pymatgen
data_Dy2Y4B14RuW
_symmetry_space_group_name_H-M   'P 1'
_cell_length_a   8.12707705
_cell_length_b   8.12707622
_cell_length_c   9.40578705
_cell_angle_alpha   90.01160665
_cell_angle_beta   89.98839257
_cell_angle_gamma   155.11587087
_symmetry_Int_Tables_number   1
_chemical_formula_structural   Dy2Y4B14RuW
_chemical_formula_sum   'Dy2 Y4 B14 Ru1 W1'
_cell_volume   261.41085921
_cell_formula_units_Z   1
loop_
 _symmetry_equiv_pos_site_id
 _symmetry_equiv_pos_as_xyz
  1  'x, y, z'
loop_
 _atom_site_type_symbol
 _atom_site_label
 _atom_site_symmetry_multiplicity
 _atom_site_fract_x
 _atom_site_fract_y
 _atom_site_fract_z
 _atom_site_occupancy
  Dy  Dy0  1  0.894119  0.105881  0.062669  1
  Dy  Dy1  1  0.107075  0.892925  0.941551  1
  Y  Y2  1  0.894052  0.105948  0.437201  1
  Y  Y3  1  0.107121  0.892879  0.558625  1
  Y  Y4  1  0.243274  0.756726  0.249976  1
  Y  Y5  1  0.754752  0.245248  0.750018  1
  B  B6  1  0.726531  0.273469  0.465233  1
  B  B7  1  0.272022  0.727978  0.531759  1
  B  B8  1  0.726526  0.273474  0.034738  1
  B  B9  1  0.272033  0.727967  0.968267  1
  B  B10  1  0.631531  0.368469  0.151537  1
  B  B11  1  0.365229  0.634771  0.852939  1
  B  B12  1  0.631538  0.368462  0.348385  1
  B  B13  1  0.365219  0.634781  0.647145  1
  B  B14  1  0.521314  0.478686  0.096692  1
  B  B15  1  0.480360  0.519640  0.909034  1
  B  B16  1  0.521318  0.478682  0.403270  1
  B  B17  1  0.480368  0.519632  0.590993  1
  B  B18  1  0.458853  0.541147  0.249936  1
  B  B19  1  0.545128  0.454872  0.750070  1
  Ru  Ru20  1  0.054328  0.945672  0.249890  1
  W  W21  1  0.947308  0.052692  0.750073  1
