# generated using pymatgen
data_YTh3InNi4Ag
_symmetry_space_group_name_H-M   'P 1'
_cell_length_a   7.55887428
_cell_length_b   7.54239602
_cell_length_c   3.68957800
_cell_angle_alpha   90.00000000
_cell_angle_beta   90.00000000
_cell_angle_gamma   91.16919737
_symmetry_Int_Tables_number   1
_chemical_formula_structural   YTh3InNi4Ag
_chemical_formula_sum   'Y1 Th3 In1 Ni4 Ag1'
_cell_volume   210.30651126
_cell_formula_units_Z   1
loop_
 _symmetry_equiv_pos_site_id
 _symmetry_equiv_pos_as_xyz
  1  'x, y, z'
loop_
 _atom_site_type_symbol
 _atom_site_label
 _atom_site_symmetry_multiplicity
 _atom_site_fract_x
 _atom_site_fract_y
 _atom_site_fract_z
 _atom_site_occupancy
  Y  Y0  1  0.822717  0.670671  0.500000  1
  Th  Th1  1  0.670551  0.178518  0.500000  1
  Th  Th2  1  0.332966  0.819548  0.500000  1
  Th  Th3  1  0.173966  0.331707  0.500000  1
  In  In4  1  0.997084  0.991967  0.000000  1
  Ni  Ni5  1  0.127026  0.623391  0.000000  1
  Ni  Ni6  1  0.880933  0.369634  0.000000  1
  Ni  Ni7  1  0.616612  0.886664  0.000000  1
  Ni  Ni8  1  0.370071  0.124693  0.000000  1
  Ag  Ag9  1  0.508075  0.503206  0.000000  1
