# generated using pymatgen
data_Y3HoTm4In3Co
_symmetry_space_group_name_H-M   'P 1'
_cell_length_a   10.30482700
_cell_length_b   10.30482678
_cell_length_c   7.01831100
_cell_angle_alpha   90.00000000
_cell_angle_beta   90.00000000
_cell_angle_gamma   119.99999749
_symmetry_Int_Tables_number   1
_chemical_formula_structural   Y3HoTm4In3Co
_chemical_formula_sum   'Y6 Ho2 Tm8 In6 Co2'
_cell_volume   645.42331969
_cell_formula_units_Z   2
loop_
 _symmetry_equiv_pos_site_id
 _symmetry_equiv_pos_as_xyz
  1  'x, y, z'
loop_
 _atom_site_type_symbol
 _atom_site_label
 _atom_site_symmetry_multiplicity
 _atom_site_fract_x
 _atom_site_fract_y
 _atom_site_fract_z
 _atom_site_occupancy
  Y  Y0  1  0.534463  0.068926  0.505113  1
  Y  Y1  1  0.931074  0.465537  0.505113  1
  Y  Y2  1  0.534463  0.465537  0.505113  1
  Y  Y3  1  0.465537  0.931074  0.005113  1
  Y  Y4  1  0.068926  0.534463  0.005113  1
  Y  Y5  1  0.465537  0.534463  0.005113  1
  Ho  Ho6  1  0.000000  0.000000  0.493657  1
  Ho  Ho7  1  0.000000  0.000000  0.993657  1
  Tm  Tm8  1  0.178322  0.356643  0.711716  1
  Tm  Tm9  1  0.643357  0.821678  0.711716  1
  Tm  Tm10  1  0.178322  0.821678  0.711716  1
  Tm  Tm11  1  0.821678  0.643357  0.211716  1
  Tm  Tm12  1  0.356643  0.178322  0.211716  1
  Tm  Tm13  1  0.821678  0.178322  0.211716  1
  Tm  Tm14  1  0.666667  0.333333  0.897216  1
  Tm  Tm15  1  0.333333  0.666667  0.397216  1
  In  In16  1  0.837058  0.674117  0.753503  1
  In  In17  1  0.325883  0.162942  0.753503  1
  In  In18  1  0.837058  0.162942  0.753503  1
  In  In19  1  0.162942  0.325883  0.253503  1
  In  In20  1  0.674117  0.837058  0.253503  1
  In  In21  1  0.162942  0.837058  0.253503  1
  Co  Co22  1  0.666667  0.333333  0.277154  1
  Co  Co23  1  0.333333  0.666667  0.777154  1
