# generated using pymatgen
data_Tm5BeSe4
_symmetry_space_group_name_H-M   'P 1'
_cell_length_a   6.97080115
_cell_length_b   6.97079769
_cell_length_c   6.97082466
_cell_angle_alpha   99.51051442
_cell_angle_beta   99.51074810
_cell_angle_gamma   132.03159202
_symmetry_Int_Tables_number   1
_chemical_formula_structural   Tm5BeSe4
_chemical_formula_sum   'Tm5 Be1 Se4'
_cell_volume   229.87414239
_cell_formula_units_Z   1
loop_
 _symmetry_equiv_pos_site_id
 _symmetry_equiv_pos_as_xyz
  1  'x, y, z'
loop_
 _atom_site_type_symbol
 _atom_site_label
 _atom_site_symmetry_multiplicity
 _atom_site_fract_x
 _atom_site_fract_y
 _atom_site_fract_z
 _atom_site_occupancy
  Tm  Tm0  1  0.406446  0.780647  0.187097  1
  Tm  Tm1  1  0.000000  0.000000  0.000000  1
  Tm  Tm2  1  0.593554  0.219353  0.812903  1
  Tm  Tm3  1  0.219352  0.406449  0.625800  1
  Tm  Tm4  1  0.780648  0.593551  0.374200  1
  Be  Be5  1  0.500000  0.500000  0.000000  1
  Se  Se6  1  0.093545  0.695697  0.789240  1
  Se  Se7  1  0.695697  0.906456  0.602153  1
  Se  Se8  1  0.304303  0.093544  0.397847  1
  Se  Se9  1  0.906455  0.304303  0.210760  1
