# generated using pymatgen
data_Cs6TbGdF12
_symmetry_space_group_name_H-M   'P 1'
_cell_length_a   7.05020131
_cell_length_b   6.80516719
_cell_length_c   11.82533700
_cell_angle_alpha   55.24290125
_cell_angle_beta   90.03492099
_cell_angle_gamma   90.00870211
_symmetry_Int_Tables_number   1
_chemical_formula_structural   Cs6TbGdF12
_chemical_formula_sum   'Cs6 Tb1 Gd1 F12'
_cell_volume   466.12420886
_cell_formula_units_Z   1
loop_
 _symmetry_equiv_pos_site_id
 _symmetry_equiv_pos_as_xyz
  1  'x, y, z'
loop_
 _atom_site_type_symbol
 _atom_site_label
 _atom_site_symmetry_multiplicity
 _atom_site_fract_x
 _atom_site_fract_y
 _atom_site_fract_z
 _atom_site_occupancy
  Cs  Cs0  1  0.500000  0.500000  0.000000  1
  Cs  Cs1  1  0.000000  0.500000  0.500000  1
  Cs  Cs2  1  0.047901  0.733989  0.752589  1
  Cs  Cs3  1  0.952099  0.266011  0.247411  1
  Cs  Cs4  1  0.548433  0.264289  0.749803  1
  Cs  Cs5  1  0.451567  0.735711  0.250197  1
  Tb  Tb6  1  0.000000  0.000000  0.000000  1
  Gd  Gd7  1  0.500000  0.000000  0.500000  1
  F  F8  1  0.760657  0.774811  0.563822  1
  F  F9  1  0.239343  0.225189  0.436178  1
  F  F10  1  0.257299  0.222326  0.937698  1
  F  F11  1  0.742701  0.777674  0.062302  1
  F  F12  1  0.452238  0.888129  0.715206  1
  F  F13  1  0.547762  0.111871  0.284794  1
  F  F14  1  0.953313  0.111288  0.787444  1
  F  F15  1  0.046687  0.888712  0.212556  1
  F  F16  1  0.329761  0.688290  0.544834  1
  F  F17  1  0.670239  0.311710  0.455166  1
  F  F18  1  0.830811  0.307226  0.956160  1
  F  F19  1  0.169189  0.692774  0.043840  1
