# generated using pymatgen
data_Na(NdCo)2
_symmetry_space_group_name_H-M   'P 1'
_cell_length_a   3.99656900
_cell_length_b   3.99656801
_cell_length_c   19.67424100
_cell_angle_alpha   90.00000000
_cell_angle_beta   90.00000000
_cell_angle_gamma   119.99998340
_symmetry_Int_Tables_number   1
_chemical_formula_structural   Na(NdCo)2
_chemical_formula_sum   'Na2 Nd4 Co4'
_cell_volume   272.14678870
_cell_formula_units_Z   2
loop_
 _symmetry_equiv_pos_site_id
 _symmetry_equiv_pos_as_xyz
  1  'x, y, z'
loop_
 _atom_site_type_symbol
 _atom_site_label
 _atom_site_symmetry_multiplicity
 _atom_site_fract_x
 _atom_site_fract_y
 _atom_site_fract_z
 _atom_site_occupancy
  Na  Na0  1  0.333333  0.666667  0.250000  1
  Na  Na1  1  0.666667  0.333333  0.750000  1
  Nd  Nd2  1  0.000000  0.000000  0.092545  1
  Nd  Nd3  1  0.000000  0.000000  0.907455  1
  Nd  Nd4  1  0.000000  0.000000  0.592545  1
  Nd  Nd5  1  0.000000  0.000000  0.407455  1
  Co  Co6  1  0.333333  0.666667  0.500008  1
  Co  Co7  1  0.666667  0.333333  0.499992  1
  Co  Co8  1  0.666667  0.333333  0.000008  1
  Co  Co9  1  0.333333  0.666667  0.999992  1
