# generated using pymatgen
data_Ce2Co10Mo2P7
_symmetry_space_group_name_H-M   'P 1'
_cell_length_a   9.07290618
_cell_length_b   9.09275249
_cell_length_c   3.72205300
_cell_angle_alpha   90.00000000
_cell_angle_beta   90.00000000
_cell_angle_gamma   119.82949193
_symmetry_Int_Tables_number   1
_chemical_formula_structural   Ce2Co10Mo2P7
_chemical_formula_sum   'Ce2 Co10 Mo2 P7'
_cell_volume   266.37814895
_cell_formula_units_Z   1
loop_
 _symmetry_equiv_pos_site_id
 _symmetry_equiv_pos_as_xyz
  1  'x, y, z'
loop_
 _atom_site_type_symbol
 _atom_site_label
 _atom_site_symmetry_multiplicity
 _atom_site_fract_x
 _atom_site_fract_y
 _atom_site_fract_z
 _atom_site_occupancy
  Ce  Ce0  1  0.336252  0.666913  0.000000  1
  Ce  Ce1  1  0.669116  0.335915  0.500000  1
  Co  Co2  1  0.433574  0.062560  0.000000  1
  Co  Co3  1  0.157211  0.283536  0.000000  1
  Co  Co4  1  0.936549  0.370461  0.000000  1
  Co  Co5  1  0.629325  0.566016  0.000000  1
  Co  Co6  1  0.122389  0.842445  0.000000  1
  Co  Co7  1  0.722359  0.875302  0.000000  1
  Co  Co8  1  0.385564  0.439168  0.500000  1
  Co  Co9  1  0.049901  0.617408  0.500000  1
  Co  Co10  1  0.872099  0.772950  0.500000  1
  Co  Co11  1  0.562938  0.944185  0.500000  1
  Mo  Mo12  1  0.216677  0.100850  0.500000  1
  Mo  Mo13  1  0.902713  0.120199  0.500000  1
  P  P14  1  0.999994  0.996449  0.000000  1
  P  P15  1  0.697101  0.105262  0.000000  1
  P  P16  1  0.408540  0.301958  0.000000  1
  P  P17  1  0.893308  0.595414  0.000000  1
  P  P18  1  0.111788  0.406922  0.500000  1
  P  P19  1  0.602059  0.709295  0.500000  1
  P  P20  1  0.290560  0.886783  0.500000  1
