# generated using pymatgen
data_Tb4Ho4Tc3B24Ru
_symmetry_space_group_name_H-M   'P 1'
_cell_length_a   3.68307700
_cell_length_b   9.16029572
_cell_length_c   11.55743203
_cell_angle_alpha   89.92480619
_cell_angle_beta   90.00000000
_cell_angle_gamma   90.00000000
_symmetry_Int_Tables_number   1
_chemical_formula_structural   Tb4Ho4Tc3B24Ru
_chemical_formula_sum   'Tb4 Ho4 Tc3 B24 Ru1'
_cell_volume   389.92516674
_cell_formula_units_Z   1
loop_
 _symmetry_equiv_pos_site_id
 _symmetry_equiv_pos_as_xyz
  1  'x, y, z'
loop_
 _atom_site_type_symbol
 _atom_site_label
 _atom_site_symmetry_multiplicity
 _atom_site_fract_x
 _atom_site_fract_y
 _atom_site_fract_z
 _atom_site_occupancy
  Tb  Tb0  1  0.000000  0.323551  0.413945  1
  Tb  Tb1  1  0.000000  0.675244  0.584197  1
  Tb  Tb2  1  0.000000  0.823020  0.087265  1
  Tb  Tb3  1  0.000000  0.177901  0.914452  1
  Ho  Ho4  1  0.000000  0.942433  0.370191  1
  Ho  Ho5  1  0.000000  0.057788  0.630745  1
  Ho  Ho6  1  0.000000  0.443073  0.130154  1
  Ho  Ho7  1  0.000000  0.557881  0.869080  1
  Tc  Tc8  1  0.000000  0.638862  0.320174  1
  Tc  Tc9  1  0.000000  0.361292  0.680297  1
  Tc  Tc10  1  0.000000  0.138401  0.178655  1
  B  B11  1  0.500000  0.553301  0.432398  1
  B  B12  1  0.500000  0.446439  0.567161  1
  B  B13  1  0.500000  0.053332  0.067291  1
  B  B14  1  0.500000  0.945846  0.932372  1
  B  B15  1  0.500000  0.748537  0.418246  1
  B  B16  1  0.500000  0.250688  0.581840  1
  B  B17  1  0.500000  0.249246  0.081651  1
  B  B18  1  0.500000  0.751440  0.917979  1
  B  B19  1  0.500000  0.791539  0.265854  1
  B  B20  1  0.500000  0.208652  0.734875  1
  B  B21  1  0.500000  0.291556  0.234322  1
  B  B22  1  0.500000  0.709445  0.765525  1
  B  B23  1  0.500000  0.630890  0.185750  1
  B  B24  1  0.500000  0.369253  0.814761  1
  B  B25  1  0.500000  0.130300  0.313957  1
  B  B26  1  0.500000  0.869037  0.685938  1
  B  B27  1  0.500000  0.982185  0.212047  1
  B  B28  1  0.500000  0.016299  0.788167  1
  B  B29  1  0.500000  0.482618  0.287697  1
  B  B30  1  0.500000  0.517304  0.711867  1
  B  B31  1  0.500000  0.601697  0.027918  1
  B  B32  1  0.500000  0.399954  0.971732  1
  B  B33  1  0.500000  0.100981  0.472242  1
  B  B34  1  0.500000  0.898712  0.528611  1
  Ru  Ru35  1  0.000000  0.861306  0.820644  1
