# generated using pymatgen
data_Tm3Sc2Si3
_symmetry_space_group_name_H-M   'P 1'
_cell_length_a   8.19143900
_cell_length_b   8.19143802
_cell_length_c   5.97052300
_cell_angle_alpha   90.00000000
_cell_angle_beta   90.00000000
_cell_angle_gamma   119.99999185
_symmetry_Int_Tables_number   1
_chemical_formula_structural   Tm3Sc2Si3
_chemical_formula_sum   'Tm6 Sc4 Si6'
_cell_volume   346.94720567
_cell_formula_units_Z   2
loop_
 _symmetry_equiv_pos_site_id
 _symmetry_equiv_pos_as_xyz
  1  'x, y, z'
loop_
 _atom_site_type_symbol
 _atom_site_label
 _atom_site_symmetry_multiplicity
 _atom_site_fract_x
 _atom_site_fract_y
 _atom_site_fract_z
 _atom_site_occupancy
  Tm  Tm0  1  0.000000  0.755494  0.750000  1
  Tm  Tm1  1  0.000000  0.244506  0.250000  1
  Tm  Tm2  1  0.755494  0.755494  0.250000  1
  Tm  Tm3  1  0.755494  0.000000  0.750000  1
  Tm  Tm4  1  0.244506  0.244506  0.750000  1
  Tm  Tm5  1  0.244506  0.000000  0.250000  1
  Sc  Sc6  1  0.333333  0.666667  0.500000  1
  Sc  Sc7  1  0.666667  0.333333  0.000000  1
  Sc  Sc8  1  0.666667  0.333333  0.500000  1
  Sc  Sc9  1  0.333333  0.666667  0.000000  1
  Si  Si10  1  0.398145  0.000000  0.750000  1
  Si  Si11  1  0.398145  0.398145  0.250000  1
  Si  Si12  1  0.000000  0.601855  0.250000  1
  Si  Si13  1  0.000000  0.398145  0.750000  1
  Si  Si14  1  0.601855  0.601855  0.750000  1
  Si  Si15  1  0.601855  0.000000  0.250000  1
