# generated using pymatgen
data_TbYb3(Ga3Pd)6
_symmetry_space_group_name_H-M   'P 1'
_cell_length_a   7.68623550
_cell_length_b   7.68310712
_cell_length_c   9.56974300
_cell_angle_alpha   90.00000000
_cell_angle_beta   90.00000000
_cell_angle_gamma   119.63335894
_symmetry_Int_Tables_number   1
_chemical_formula_structural   TbYb3(Ga3Pd)6
_chemical_formula_sum   'Tb1 Yb3 Ga18 Pd6'
_cell_volume   491.21787713
_cell_formula_units_Z   1
loop_
 _symmetry_equiv_pos_site_id
 _symmetry_equiv_pos_as_xyz
  1  'x, y, z'
loop_
 _atom_site_type_symbol
 _atom_site_label
 _atom_site_symmetry_multiplicity
 _atom_site_fract_x
 _atom_site_fract_y
 _atom_site_fract_z
 _atom_site_occupancy
  Tb  Tb0  1  0.330556  0.999809  0.750000  1
  Yb  Yb1  1  0.997121  0.668843  0.250000  1
  Yb  Yb2  1  0.001429  0.330424  0.750000  1
  Yb  Yb3  1  0.671610  0.998888  0.250000  1
  Ga  Ga4  1  0.128540  0.129126  0.250000  1
  Ga  Ga5  1  0.872894  0.871433  0.750000  1
  Ga  Ga6  1  0.999000  0.335513  0.080432  1
  Ga  Ga7  1  0.999906  0.662608  0.917238  1
  Ga  Ga8  1  0.999906  0.662608  0.582762  1
  Ga  Ga9  1  0.335306  0.998002  0.417748  1
  Ga  Ga10  1  0.999000  0.335513  0.419568  1
  Ga  Ga11  1  0.667419  0.002834  0.582981  1
  Ga  Ga12  1  0.667419  0.002834  0.917019  1
  Ga  Ga13  1  0.335306  0.998002  0.082252  1
  Ga  Ga14  1  0.328648  0.330181  0.570056  1
  Ga  Ga15  1  0.669722  0.669783  0.434638  1
  Ga  Ga16  1  0.669722  0.669783  0.065362  1
  Ga  Ga17  1  0.328648  0.330181  0.929944  1
  Ga  Ga18  1  0.338672  0.547664  0.250000  1
  Ga  Ga19  1  0.657773  0.453938  0.750000  1
  Ga  Ga20  1  0.544779  0.340078  0.250000  1
  Ga  Ga21  1  0.456398  0.662316  0.750000  1
  Pd  Pd22  1  0.669338  0.329905  0.000907  1
  Pd  Pd23  1  0.330736  0.670721  0.999764  1
  Pd  Pd24  1  0.330736  0.670721  0.500236  1
  Pd  Pd25  1  0.669338  0.329905  0.499093  1
  Pd  Pd26  1  0.000040  0.999194  0.000818  1
  Pd  Pd27  1  0.000040  0.999194  0.499182  1
