# generated using pymatgen
data_PrNd7(Y3Sn4)4
_symmetry_space_group_name_H-M   'P 1'
_cell_length_a   8.14058710
_cell_length_b   8.30559705
_cell_length_c   15.68152311
_cell_angle_alpha   90.00345902
_cell_angle_beta   89.98719404
_cell_angle_gamma   89.98758382
_symmetry_Int_Tables_number   1
_chemical_formula_structural   PrNd7(Y3Sn4)4
_chemical_formula_sum   'Pr1 Nd7 Y12 Sn16'
_cell_volume   1060.26592734
_cell_formula_units_Z   1
loop_
 _symmetry_equiv_pos_site_id
 _symmetry_equiv_pos_as_xyz
  1  'x, y, z'
loop_
 _atom_site_type_symbol
 _atom_site_label
 _atom_site_symmetry_multiplicity
 _atom_site_fract_x
 _atom_site_fract_y
 _atom_site_fract_z
 _atom_site_occupancy
  Pr  Pr0  1  0.016357  0.178859  0.902770  1
  Nd  Nd1  1  0.516407  0.321167  0.902682  1
  Nd  Nd2  1  0.016407  0.178901  0.597338  1
  Nd  Nd3  1  0.483611  0.678881  0.402687  1
  Nd  Nd4  1  0.983620  0.821058  0.097350  1
  Nd  Nd5  1  0.483609  0.678899  0.097321  1
  Nd  Nd6  1  0.983609  0.821109  0.402685  1
  Nd  Nd7  1  0.516390  0.321133  0.597292  1
  Y  Y8  1  0.363413  0.836164  0.877688  1
  Y  Y9  1  0.863379  0.663768  0.622286  1
  Y  Y10  1  0.636619  0.163759  0.377691  1
  Y  Y11  1  0.136663  0.336285  0.122359  1
  Y  Y12  1  0.636622  0.163745  0.122325  1
  Y  Y13  1  0.136624  0.336240  0.377688  1
  Y  Y14  1  0.363379  0.836232  0.622299  1
  Y  Y15  1  0.863343  0.663777  0.877691  1
  Y  Y16  1  0.197892  0.502397  0.749959  1
  Y  Y17  1  0.697760  0.997597  0.749944  1
  Y  Y18  1  0.802157  0.497671  0.250005  1
  Y  Y19  1  0.302173  0.002335  0.249993  1
  Sn  Sn20  1  0.300600  0.039693  0.042208  1
  Sn  Sn21  1  0.800305  0.460186  0.457902  1
  Sn  Sn22  1  0.699705  0.960200  0.542092  1
  Sn  Sn23  1  0.199796  0.540020  0.957940  1
  Sn  Sn24  1  0.699352  0.959959  0.957976  1
  Sn  Sn25  1  0.199695  0.539811  0.542091  1
  Sn  Sn26  1  0.300313  0.039812  0.457905  1
  Sn  Sn27  1  0.800235  0.460269  0.042131  1
  Sn  Sn28  1  0.563249  0.623821  0.749997  1
  Sn  Sn29  1  0.063257  0.876002  0.749946  1
  Sn  Sn30  1  0.436758  0.376178  0.250005  1
  Sn  Sn31  1  0.936753  0.123861  0.250006  1
  Sn  Sn32  1  0.325736  0.141627  0.749918  1
  Sn  Sn33  1  0.825328  0.358596  0.749826  1
  Sn  Sn34  1  0.674445  0.858367  0.249998  1
  Sn  Sn35  1  0.174441  0.641624  0.250002  1
