# generated using pymatgen
data_Ho7Tm9CdIn3Ir4
_symmetry_space_group_name_H-M   'P 1'
_cell_length_a   9.57546193
_cell_length_b   9.58365691
_cell_length_c   9.58169900
_cell_angle_alpha   60.00675439
_cell_angle_beta   59.97844738
_cell_angle_gamma   60.04852889
_symmetry_Int_Tables_number   1
_chemical_formula_structural   Ho7Tm9CdIn3Ir4
_chemical_formula_sum   'Ho7 Tm9 Cd1 In3 Ir4'
_cell_volume   621.91191388
_cell_formula_units_Z   1
loop_
 _symmetry_equiv_pos_site_id
 _symmetry_equiv_pos_as_xyz
  1  'x, y, z'
loop_
 _atom_site_type_symbol
 _atom_site_label
 _atom_site_symmetry_multiplicity
 _atom_site_fract_x
 _atom_site_fract_y
 _atom_site_fract_z
 _atom_site_occupancy
  Ho  Ho0  1  0.059011  0.059583  0.440703  1
  Ho  Ho1  1  0.191014  0.810300  0.811151  1
  Ho  Ho2  1  0.810970  0.189557  0.189030  1
  Ho  Ho3  1  0.810970  0.189557  0.810443  1
  Ho  Ho4  1  0.191014  0.810300  0.187535  1
  Ho  Ho5  1  0.811195  0.809945  0.189430  1
  Ho  Ho6  1  0.190749  0.187769  0.810741  1
  Tm  Tm7  1  0.599190  0.598573  0.598783  1
  Tm  Tm8  1  0.599190  0.598573  0.203455  1
  Tm  Tm9  1  0.598624  0.203917  0.598730  1
  Tm  Tm10  1  0.203089  0.598463  0.599225  1
  Tm  Tm11  1  0.059211  0.441039  0.440571  1
  Tm  Tm12  1  0.440059  0.060535  0.059978  1
  Tm  Tm13  1  0.440059  0.060535  0.439427  1
  Tm  Tm14  1  0.059211  0.441039  0.059178  1
  Tm  Tm15  1  0.439597  0.439428  0.060488  1
  Cd  Cd16  1  0.503567  0.832113  0.832159  1
  In  In17  1  0.831345  0.832787  0.833058  1
  In  In18  1  0.831345  0.832787  0.502809  1
  In  In19  1  0.831355  0.502743  0.832951  1
  Ir  Ir20  1  0.390963  0.391293  0.391402  1
  Ir  Ir21  1  0.390963  0.391293  0.826343  1
  Ir  Ir22  1  0.392215  0.825355  0.391215  1
  Ir  Ir23  1  0.825091  0.392516  0.391198  1
