# generated using pymatgen
data_RbMnAs2O7
_symmetry_space_group_name_H-M   'P 1'
_cell_length_a   6.39688570
_cell_length_b   6.45959822
_cell_length_c   8.93678076
_cell_angle_alpha   96.63536296
_cell_angle_beta   101.90095250
_cell_angle_gamma   103.20804110
_symmetry_Int_Tables_number   1
_chemical_formula_structural   RbMnAs2O7
_chemical_formula_sum   'Rb2 Mn2 As4 O14'
_cell_volume   346.61667547
_cell_formula_units_Z   2
loop_
 _symmetry_equiv_pos_site_id
 _symmetry_equiv_pos_as_xyz
  1  'x, y, z'
loop_
 _atom_site_type_symbol
 _atom_site_label
 _atom_site_symmetry_multiplicity
 _atom_site_fract_x
 _atom_site_fract_y
 _atom_site_fract_z
 _atom_site_occupancy
  Rb  Rb0  1  0.000000  0.500000  0.500000  1
  Rb  Rb1  1  0.000000  0.500000  0.000000  1
  Mn  Mn2  1  0.379460  0.188298  0.729734  1
  Mn  Mn3  1  0.620540  0.811702  0.270266  1
  As  As4  1  0.825734  0.025422  0.690204  1
  As  As5  1  0.487538  0.742841  0.835213  1
  As  As6  1  0.174266  0.974578  0.309796  1
  As  As7  1  0.512462  0.257159  0.164787  1
  O  O8  1  0.227455  0.128542  0.157314  1
  O  O9  1  0.325088  0.878030  0.725775  1
  O  O10  1  0.575123  0.502400  0.281598  1
  O  O11  1  0.911727  0.812684  0.229601  1
  O  O12  1  0.674912  0.121970  0.274225  1
  O  O13  1  0.772545  0.871458  0.842686  1
  O  O14  1  0.325027  0.784782  0.308761  1
  O  O15  1  0.454595  0.739375  0.016489  1
  O  O16  1  0.424877  0.497600  0.718402  1
  O  O17  1  0.218297  0.147128  0.474715  1
  O  O18  1  0.781703  0.852872  0.525285  1
  O  O19  1  0.088273  0.187316  0.770399  1
  O  O20  1  0.545405  0.260625  0.983511  1
  O  O21  1  0.674973  0.215218  0.691239  1
