# generated using pymatgen
data_K2Nd2B2O7
_symmetry_space_group_name_H-M   'P 1'
_cell_length_a   11.43107383
_cell_length_b   6.69053600
_cell_length_c   10.86406400
_cell_angle_alpha   90.00000000
_cell_angle_beta   117.14604690
_cell_angle_gamma   90.00000000
_symmetry_Int_Tables_number   1
_chemical_formula_structural   K2Nd2B2O7
_chemical_formula_sum   'K8 Nd8 B8 O28'
_cell_volume   739.35890709
_cell_formula_units_Z   4
loop_
 _symmetry_equiv_pos_site_id
 _symmetry_equiv_pos_as_xyz
  1  'x, y, z'
loop_
 _atom_site_type_symbol
 _atom_site_label
 _atom_site_symmetry_multiplicity
 _atom_site_fract_x
 _atom_site_fract_y
 _atom_site_fract_z
 _atom_site_occupancy
  K  K0  1  0.966635  0.938975  0.735600  1
  K  K1  1  0.033365  0.438975  0.764400  1
  K  K2  1  0.033365  0.061025  0.264400  1
  K  K3  1  0.966635  0.561025  0.235600  1
  K  K4  1  0.119824  0.755877  0.556358  1
  K  K5  1  0.880176  0.255877  0.943642  1
  K  K6  1  0.880176  0.244123  0.443642  1
  K  K7  1  0.119824  0.744123  0.056358  1
  Nd  Nd8  1  0.516478  0.455385  0.817807  1
  Nd  Nd9  1  0.483522  0.955385  0.682193  1
  Nd  Nd10  1  0.483522  0.544615  0.182193  1
  Nd  Nd11  1  0.516478  0.044615  0.317807  1
  Nd  Nd12  1  0.325849  0.082365  0.919222  1
  Nd  Nd13  1  0.674151  0.582365  0.580778  1
  Nd  Nd14  1  0.674151  0.917635  0.080778  1
  Nd  Nd15  1  0.325849  0.417635  0.419222  1
  B  B16  1  0.199827  0.252537  0.589857  1
  B  B17  1  0.800173  0.752537  0.910143  1
  B  B18  1  0.800173  0.747463  0.410143  1
  B  B19  1  0.199827  0.247463  0.089857  1
  B  B20  1  0.307205  0.655263  0.856152  1
  B  B21  1  0.692795  0.155263  0.643848  1
  B  B22  1  0.692795  0.344737  0.143848  1
  B  B23  1  0.307205  0.844737  0.356152  1
  O  O24  1  0.124185  0.347065  0.464818  1
  O  O25  1  0.875815  0.847065  0.035182  1
  O  O26  1  0.875815  0.652935  0.535182  1
  O  O27  1  0.124185  0.152935  0.964818  1
  O  O28  1  0.150121  0.153819  0.667497  1
  O  O29  1  0.849879  0.653819  0.832503  1
  O  O30  1  0.849879  0.846181  0.332503  1
  O  O31  1  0.150121  0.346181  0.167497  1
  O  O32  1  0.353439  0.466803  0.913824  1
  O  O33  1  0.646561  0.966803  0.586176  1
  O  O34  1  0.646561  0.533197  0.086176  1
  O  O35  1  0.353439  0.033197  0.413824  1
  O  O36  1  0.203370  0.751372  0.861364  1
  O  O37  1  0.796630  0.251372  0.638636  1
  O  O38  1  0.796630  0.248628  0.138636  1
  O  O39  1  0.203370  0.748628  0.361364  1
  O  O40  1  0.630456  0.249496  0.713861  1
  O  O41  1  0.369544  0.749496  0.786139  1
  O  O42  1  0.369544  0.750504  0.286139  1
  O  O43  1  0.630456  0.250504  0.213861  1
  O  O44  1  0.524594  0.121302  0.900989  1
  O  O45  1  0.475406  0.621302  0.599011  1
  O  O46  1  0.475406  0.878698  0.099011  1
  O  O47  1  0.524594  0.378698  0.400989  1
  O  O48  1  0.338182  0.259057  0.635403  1
  O  O49  1  0.661818  0.759057  0.864597  1
  O  O50  1  0.661818  0.740943  0.364597  1
  O  O51  1  0.338182  0.240943  0.135403  1
