# generated using pymatgen
data_Tb3Er4Lu3Cd2(In3Pt2)2
_symmetry_space_group_name_H-M   'P 1'
_cell_length_a   3.60916600
_cell_length_b   8.11779388
_cell_length_c   18.10105800
_cell_angle_alpha   89.83942214
_cell_angle_beta   90.00000000
_cell_angle_gamma   90.00000000
_symmetry_Int_Tables_number   1
_chemical_formula_structural   Tb3Er4Lu3Cd2(In3Pt2)2
_chemical_formula_sum   'Tb3 Er4 Lu3 Cd2 In6 Pt4'
_cell_volume   530.33114363
_cell_formula_units_Z   1
loop_
 _symmetry_equiv_pos_site_id
 _symmetry_equiv_pos_as_xyz
  1  'x, y, z'
loop_
 _atom_site_type_symbol
 _atom_site_label
 _atom_site_symmetry_multiplicity
 _atom_site_fract_x
 _atom_site_fract_y
 _atom_site_fract_z
 _atom_site_occupancy
  Tb  Tb0  1  0.000000  0.739712  0.282282  1
  Tb  Tb1  1  0.000000  0.999488  0.999258  1
  Tb  Tb2  1  0.000000  0.499862  0.500412  1
  Er  Er3  1  0.000000  0.616884  0.085666  1
  Er  Er4  1  0.000000  0.243543  0.220292  1
  Er  Er5  1  0.000000  0.757749  0.780085  1
  Er  Er6  1  0.000000  0.259859  0.718058  1
  Lu  Lu7  1  0.000000  0.117416  0.413361  1
  Lu  Lu8  1  0.000000  0.882424  0.587343  1
  Lu  Lu9  1  0.000000  0.383360  0.912737  1
  Cd  Cd10  1  0.500000  0.419119  0.352282  1
  Cd  Cd11  1  0.500000  0.579876  0.648621  1
  In  In12  1  0.500000  0.079578  0.850169  1
  In  In13  1  0.500000  0.924364  0.149320  1
  In  In14  1  0.500000  0.292907  0.064638  1
  In  In15  1  0.500000  0.704251  0.933900  1
  In  In16  1  0.500000  0.204625  0.564725  1
  In  In17  1  0.500000  0.795094  0.436611  1
  Pt  Pt18  1  0.500000  0.027836  0.304283  1
  Pt  Pt19  1  0.500000  0.975639  0.696105  1
  Pt  Pt20  1  0.500000  0.474226  0.804406  1
  Pt  Pt21  1  0.500000  0.522190  0.195441  1
