# generated using pymatgen
data_Cs6Sc(IrBr6)3
_symmetry_space_group_name_H-M   'P 1'
_cell_length_a   7.83138700
_cell_length_b   7.83138704
_cell_length_c   19.61799100
_cell_angle_alpha   90.00000000
_cell_angle_beta   90.00000000
_cell_angle_gamma   119.99998716
_symmetry_Int_Tables_number   1
_chemical_formula_structural   Cs6Sc(IrBr6)3
_chemical_formula_sum   'Cs6 Sc1 Ir3 Br18'
_cell_volume   1041.98770054
_cell_formula_units_Z   1
loop_
 _symmetry_equiv_pos_site_id
 _symmetry_equiv_pos_as_xyz
  1  'x, y, z'
loop_
 _atom_site_type_symbol
 _atom_site_label
 _atom_site_symmetry_multiplicity
 _atom_site_fract_x
 _atom_site_fract_y
 _atom_site_fract_z
 _atom_site_occupancy
  Cs  Cs0  1  0.333333  0.666667  0.069931  1
  Cs  Cs1  1  0.666667  0.333333  0.932572  1
  Cs  Cs2  1  0.666667  0.333333  0.570993  1
  Cs  Cs3  1  0.333333  0.666667  0.432905  1
  Cs  Cs4  1  0.000000  0.000000  0.250483  1
  Cs  Cs5  1  0.000000  0.000000  0.746403  1
  Sc  Sc6  1  0.333333  0.666667  0.838117  1
  Ir  Ir7  1  0.333333  0.666667  0.668357  1
  Ir  Ir8  1  0.666667  0.333333  0.334631  1
  Ir  Ir9  1  0.666667  0.333333  0.165399  1
  Br  Br10  1  0.182199  0.364398  0.595243  1
  Br  Br11  1  0.818589  0.637177  0.406197  1
  Br  Br12  1  0.635602  0.817801  0.595243  1
  Br  Br13  1  0.818460  0.636920  0.093527  1
  Br  Br14  1  0.362823  0.181411  0.406197  1
  Br  Br15  1  0.171607  0.343214  0.907724  1
  Br  Br16  1  0.182199  0.817801  0.595243  1
  Br  Br17  1  0.363080  0.181540  0.093527  1
  Br  Br18  1  0.818589  0.181411  0.406197  1
  Br  Br19  1  0.656786  0.828393  0.907724  1
  Br  Br20  1  0.818460  0.181540  0.093527  1
  Br  Br21  1  0.171607  0.828393  0.907724  1
  Br  Br22  1  0.523175  0.046350  0.249910  1
  Br  Br23  1  0.486371  0.972741  0.744135  1
  Br  Br24  1  0.953650  0.476825  0.249910  1
  Br  Br25  1  0.027259  0.513629  0.744135  1
  Br  Br26  1  0.523175  0.476825  0.249910  1
  Br  Br27  1  0.486371  0.513629  0.744135  1
