# generated using pymatgen
data_NdPu2(Co3P2)3
_symmetry_space_group_name_H-M   'P 1'
_cell_length_a   10.41752600
_cell_length_b   3.69373900
_cell_length_c   12.31240700
_cell_angle_alpha   90.00000000
_cell_angle_beta   90.00000000
_cell_angle_gamma   90.00000000
_symmetry_Int_Tables_number   1
_chemical_formula_structural   NdPu2(Co3P2)3
_chemical_formula_sum   'Nd2 Pu4 Co18 P12'
_cell_volume   473.77676813
_cell_formula_units_Z   2
loop_
 _symmetry_equiv_pos_site_id
 _symmetry_equiv_pos_as_xyz
  1  'x, y, z'
loop_
 _atom_site_type_symbol
 _atom_site_label
 _atom_site_symmetry_multiplicity
 _atom_site_fract_x
 _atom_site_fract_y
 _atom_site_fract_z
 _atom_site_occupancy
  Nd  Nd0  1  0.250000  0.749999  0.478521  1
  Nd  Nd1  1  0.750000  0.249999  0.521479  1
  Pu  Pu2  1  0.071643  0.749999  0.206851  1
  Pu  Pu3  1  0.428356  0.749999  0.206851  1
  Pu  Pu4  1  0.571644  0.249999  0.793148  1
  Pu  Pu5  1  0.928356  0.249999  0.793148  1
  Co  Co6  1  0.082233  0.249999  0.001932  1
  Co  Co7  1  0.417768  0.249999  0.001932  1
  Co  Co8  1  0.250000  0.749999  0.009524  1
  Co  Co9  1  0.750000  0.749999  0.158659  1
  Co  Co10  1  0.628900  0.249999  0.287805  1
  Co  Co11  1  0.871100  0.249999  0.287805  1
  Co  Co12  1  0.250000  0.249999  0.287390  1
  Co  Co13  1  0.548646  0.749999  0.428420  1
  Co  Co14  1  0.951354  0.749999  0.428420  1
  Co  Co15  1  0.048646  0.249999  0.571579  1
  Co  Co16  1  0.451354  0.249999  0.571579  1
  Co  Co17  1  0.750000  0.749999  0.712611  1
  Co  Co18  1  0.128900  0.749999  0.712195  1
  Co  Co19  1  0.371100  0.749999  0.712195  1
  Co  Co20  1  0.250000  0.249999  0.841341  1
  Co  Co21  1  0.750000  0.249999  0.990477  1
  Co  Co22  1  0.582232  0.749999  0.998068  1
  Co  Co23  1  0.917767  0.749999  0.998068  1
  P  P24  1  0.593067  0.249999  0.107740  1
  P  P25  1  0.906932  0.249999  0.107740  1
  P  P26  1  0.250000  0.249999  0.110308  1
  P  P27  1  0.750000  0.749999  0.339920  1
  P  P28  1  0.057800  0.249999  0.383653  1
  P  P29  1  0.442200  0.249999  0.383653  1
  P  P30  1  0.557801  0.749999  0.616347  1
  P  P31  1  0.942199  0.749999  0.616347  1
  P  P32  1  0.250000  0.249999  0.660081  1
  P  P33  1  0.750000  0.749999  0.889693  1
  P  P34  1  0.093068  0.749999  0.892260  1
  P  P35  1  0.406933  0.749999  0.892260  1
