# generated using pymatgen
data_Sm3Ho3(RuI3)2
_symmetry_space_group_name_H-M   'P 1'
_cell_length_a   4.26255200
_cell_length_b   8.95885059
_cell_length_c   12.39621489
_cell_angle_alpha   86.13649004
_cell_angle_beta   90.00000000
_cell_angle_gamma   90.00000000
_symmetry_Int_Tables_number   1
_chemical_formula_structural   Sm3Ho3(RuI3)2
_chemical_formula_sum   'Sm3 Ho3 Ru2 I6'
_cell_volume   472.30547085
_cell_formula_units_Z   1
loop_
 _symmetry_equiv_pos_site_id
 _symmetry_equiv_pos_as_xyz
  1  'x, y, z'
loop_
 _atom_site_type_symbol
 _atom_site_label
 _atom_site_symmetry_multiplicity
 _atom_site_fract_x
 _atom_site_fract_y
 _atom_site_fract_z
 _atom_site_occupancy
  Sm  Sm0  1  0.250000  0.903856  0.318555  1
  Sm  Sm1  1  0.250000  0.267820  0.896873  1
  Sm  Sm2  1  0.750000  0.731708  0.101259  1
  Ho  Ho3  1  0.750000  0.125593  0.123255  1
  Ho  Ho4  1  0.250000  0.874974  0.875126  1
  Ho  Ho5  1  0.750000  0.096899  0.685654  1
  Ru  Ru6  1  0.750000  0.055020  0.905736  1
  Ru  Ru7  1  0.250000  0.944945  0.092717  1
  I  I8  1  0.250000  0.347519  0.636210  1
  I  I9  1  0.750000  0.645111  0.363105  1
  I  I10  1  0.750000  0.148399  0.392287  1
  I  I11  1  0.250000  0.858930  0.610095  1
  I  I12  1  0.250000  0.422102  0.134826  1
  I  I13  1  0.750000  0.577125  0.864301  1
