# generated using pymatgen
data_IrCl(OF3)2
_symmetry_space_group_name_H-M   'P 1'
_cell_length_a   5.90624100
_cell_length_b   7.56070200
_cell_length_c   7.74782000
_cell_angle_alpha   90.00000000
_cell_angle_beta   90.00000000
_cell_angle_gamma   90.00000000
_symmetry_Int_Tables_number   1
_chemical_formula_structural   IrCl(OF3)2
_chemical_formula_sum   'Ir2 Cl2 O4 F12'
_cell_volume   345.98144448
_cell_formula_units_Z   2
loop_
 _symmetry_equiv_pos_site_id
 _symmetry_equiv_pos_as_xyz
  1  'x, y, z'
loop_
 _atom_site_type_symbol
 _atom_site_label
 _atom_site_symmetry_multiplicity
 _atom_site_fract_x
 _atom_site_fract_y
 _atom_site_fract_z
 _atom_site_occupancy
  Ir  Ir0  1  0.990322  0.000000  0.500000  1
  Ir  Ir1  1  0.009678  0.500000  0.000000  1
  Cl  Cl2  1  0.628440  0.000000  0.000000  1
  Cl  Cl3  1  0.371560  0.500000  0.500000  1
  O  O4  1  0.498947  0.500000  0.659760  1
  O  O5  1  0.501053  0.000000  0.159760  1
  O  O6  1  0.501053  0.000000  0.840240  1
  O  O7  1  0.498947  0.500000  0.340240  1
  F  F8  1  0.765568  0.178836  0.500000  1
  F  F9  1  0.225682  0.173937  0.500000  1
  F  F10  1  0.008781  0.500000  0.755825  1
  F  F11  1  0.765568  0.821164  0.500000  1
  F  F12  1  0.991219  0.000000  0.255825  1
  F  F13  1  0.774318  0.326063  0.000000  1
  F  F14  1  0.991219  0.000000  0.744175  1
  F  F15  1  0.225682  0.826063  0.500000  1
  F  F16  1  0.008781  0.500000  0.244175  1
  F  F17  1  0.774318  0.673937  0.000000  1
  F  F18  1  0.234432  0.321164  0.000000  1
  F  F19  1  0.234432  0.678836  0.000000  1
