# generated using pymatgen
data_Ce3Y(InRh2)2
_symmetry_space_group_name_H-M   'P 1'
_cell_length_a   7.67852543
_cell_length_b   7.67852543
_cell_length_c   3.72639800
_cell_angle_alpha   90.00000000
_cell_angle_beta   90.00000000
_cell_angle_gamma   88.28649320
_symmetry_Int_Tables_number   1
_chemical_formula_structural   Ce3Y(InRh2)2
_chemical_formula_sum   'Ce3 Y1 In2 Rh4'
_cell_volume   219.60926033
_cell_formula_units_Z   1
loop_
 _symmetry_equiv_pos_site_id
 _symmetry_equiv_pos_as_xyz
  1  'x, y, z'
loop_
 _atom_site_type_symbol
 _atom_site_label
 _atom_site_symmetry_multiplicity
 _atom_site_fract_x
 _atom_site_fract_y
 _atom_site_fract_z
 _atom_site_occupancy
  Ce  Ce0  1  0.330920  0.830920  0.500000  1
  Ce  Ce1  1  0.167859  0.328704  0.500000  1
  Ce  Ce2  1  0.828704  0.667859  0.500000  1
  Y  Y3  1  0.668815  0.168815  0.500000  1
  In  In4  1  0.993670  0.001499  0.000000  1
  In  In5  1  0.501499  0.493670  0.000000  1
  Rh  Rh6  1  0.143553  0.643553  0.000000  1
  Rh  Rh7  1  0.877516  0.377516  0.000000  1
  Rh  Rh8  1  0.632845  0.854620  0.000000  1
  Rh  Rh9  1  0.354620  0.132845  0.000000  1
