# generated using pymatgen
data_Nd12OsPd2Pt
_symmetry_space_group_name_H-M   'P 1'
_cell_length_a   6.62437761
_cell_length_b   7.35485306
_cell_length_c   9.96784200
_cell_angle_alpha   90.00000000
_cell_angle_beta   90.00000000
_cell_angle_gamma   89.95274456
_symmetry_Int_Tables_number   1
_chemical_formula_structural   Nd12OsPd2Pt
_chemical_formula_sum   'Nd12 Os1 Pd2 Pt1'
_cell_volume   485.64629373
_cell_formula_units_Z   1
loop_
 _symmetry_equiv_pos_site_id
 _symmetry_equiv_pos_as_xyz
  1  'x, y, z'
loop_
 _atom_site_type_symbol
 _atom_site_label
 _atom_site_symmetry_multiplicity
 _atom_site_fract_x
 _atom_site_fract_y
 _atom_site_fract_z
 _atom_site_occupancy
  Nd  Nd0  1  0.331310  0.681021  0.056678  1
  Nd  Nd1  1  0.165839  0.176190  0.437893  1
  Nd  Nd2  1  0.667082  0.327281  0.565722  1
  Nd  Nd3  1  0.824686  0.817361  0.936304  1
  Nd  Nd4  1  0.667082  0.327281  0.934278  1
  Nd  Nd5  1  0.824686  0.817361  0.563696  1
  Nd  Nd6  1  0.331310  0.681021  0.443322  1
  Nd  Nd7  1  0.165839  0.176190  0.062107  1
  Nd  Nd8  1  0.866564  0.530355  0.250000  1
  Nd  Nd9  1  0.639559  0.027353  0.250000  1
  Nd  Nd10  1  0.143030  0.474941  0.750000  1
  Nd  Nd11  1  0.370351  0.960333  0.750000  1
  Os  Os12  1  0.563185  0.617414  0.750000  1
  Pd  Pd13  1  0.429669  0.388415  0.250000  1
  Pd  Pd14  1  0.939737  0.114653  0.750000  1
  Pt  Pt15  1  0.070069  0.882829  0.250000  1
