# generated using pymatgen
data_PrNd2Er(MoO6)2
_symmetry_space_group_name_H-M   'P 1'
_cell_length_a   10.20781019
_cell_length_b   10.20781053
_cell_length_c   5.51543881
_cell_angle_alpha   74.95820057
_cell_angle_beta   74.95818699
_cell_angle_gamma   68.52207021
_symmetry_Int_Tables_number   1
_chemical_formula_structural   PrNd2Er(MoO6)2
_chemical_formula_sum   'Pr2 Nd4 Er2 Mo4 O24'
_cell_volume   507.74678249
_cell_formula_units_Z   2
loop_
 _symmetry_equiv_pos_site_id
 _symmetry_equiv_pos_as_xyz
  1  'x, y, z'
loop_
 _atom_site_type_symbol
 _atom_site_label
 _atom_site_symmetry_multiplicity
 _atom_site_fract_x
 _atom_site_fract_y
 _atom_site_fract_z
 _atom_site_occupancy
  Pr  Pr0  1  0.862687  0.137313  0.250000  1
  Pr  Pr1  1  0.137313  0.862687  0.750000  1
  Nd  Nd2  1  0.214346  0.447923  0.878079  1
  Nd  Nd3  1  0.447923  0.214346  0.378079  1
  Nd  Nd4  1  0.785654  0.552077  0.121921  1
  Nd  Nd5  1  0.552077  0.785654  0.621921  1
  Er  Er6  1  0.399513  0.600487  0.250000  1
  Er  Er7  1  0.600487  0.399513  0.750000  1
  Mo  Mo8  1  0.991600  0.701895  0.434173  1
  Mo  Mo9  1  0.298105  0.008400  0.065827  1
  Mo  Mo10  1  0.008400  0.298105  0.565827  1
  Mo  Mo11  1  0.701895  0.991600  0.934173  1
  O  O12  1  0.431507  0.393735  0.574944  1
  O  O13  1  0.606265  0.568493  0.925056  1
  O  O14  1  0.568493  0.606265  0.425056  1
  O  O15  1  0.393735  0.431507  0.074944  1
  O  O16  1  0.195970  0.660616  0.556652  1
  O  O17  1  0.339384  0.804030  0.943348  1
  O  O18  1  0.804030  0.339384  0.443348  1
  O  O19  1  0.660616  0.195970  0.056652  1
  O  O20  1  0.109485  0.669832  0.123902  1
  O  O21  1  0.330168  0.890515  0.376098  1
  O  O22  1  0.890515  0.330168  0.876098  1
  O  O23  1  0.669832  0.109485  0.623902  1
  O  O24  1  0.710123  0.821577  0.867131  1
  O  O25  1  0.178423  0.289877  0.632869  1
  O  O26  1  0.289877  0.178423  0.132869  1
  O  O27  1  0.821577  0.710123  0.367131  1
  O  O28  1  0.882646  0.955405  0.979066  1
  O  O29  1  0.044595  0.117354  0.520934  1
  O  O30  1  0.976727  0.573086  0.736812  1
  O  O31  1  0.955405  0.882646  0.479066  1
  O  O32  1  0.573086  0.976727  0.236812  1
  O  O33  1  0.023273  0.426914  0.263188  1
  O  O34  1  0.426914  0.023273  0.763188  1
  O  O35  1  0.117354  0.044595  0.020934  1
