# generated using pymatgen
data_Pr6PuO12
_symmetry_space_group_name_H-M   'P 1'
_cell_length_a   6.85029203
_cell_length_b   6.85029176
_cell_length_c   6.85029125
_cell_angle_alpha   98.60333705
_cell_angle_beta   98.60334052
_cell_angle_gamma   98.60333379
_symmetry_Int_Tables_number   1
_chemical_formula_structural   Pr6PuO12
_chemical_formula_sum   'Pr6 Pu1 O12'
_cell_volume   309.36608629
_cell_formula_units_Z   1
loop_
 _symmetry_equiv_pos_site_id
 _symmetry_equiv_pos_as_xyz
  1  'x, y, z'
loop_
 _atom_site_type_symbol
 _atom_site_label
 _atom_site_symmetry_multiplicity
 _atom_site_fract_x
 _atom_site_fract_y
 _atom_site_fract_z
 _atom_site_occupancy
  Pr  Pr0  1  0.854658  0.389061  0.687181  1
  Pr  Pr1  1  0.687181  0.854658  0.389061  1
  Pr  Pr2  1  0.389061  0.687181  0.854658  1
  Pr  Pr3  1  0.145342  0.610939  0.312819  1
  Pr  Pr4  1  0.312819  0.145342  0.610939  1
  Pr  Pr5  1  0.610939  0.312819  0.145342  1
  Pu  Pu6  1  0.000000  0.000000  0.000000  1
  O  O7  1  0.959913  0.296829  0.067987  1
  O  O8  1  0.067987  0.959913  0.296829  1
  O  O9  1  0.296829  0.067987  0.959913  1
  O  O10  1  0.040087  0.703171  0.932013  1
  O  O11  1  0.932013  0.040087  0.703171  1
  O  O12  1  0.703171  0.932013  0.040087  1
  O  O13  1  0.591643  0.177366  0.437773  1
  O  O14  1  0.437773  0.591643  0.177366  1
  O  O15  1  0.177366  0.437773  0.591643  1
  O  O16  1  0.408357  0.822634  0.562227  1
  O  O17  1  0.562227  0.408357  0.822634  1
  O  O18  1  0.822634  0.562227  0.408357  1
