# generated using pymatgen
data_Y5HoAl14(Si5Os4)2
_symmetry_space_group_name_H-M   'P 1'
_cell_length_a   8.71804923
_cell_length_b   8.71804818
_cell_length_c   9.32107800
_cell_angle_alpha   90.00000000
_cell_angle_beta   90.00000000
_cell_angle_gamma   120.06598694
_symmetry_Int_Tables_number   1
_chemical_formula_structural   Y5HoAl14(Si5Os4)2
_chemical_formula_sum   'Y5 Ho1 Al14 Si10 Os8'
_cell_volume   613.12100789
_cell_formula_units_Z   1
loop_
 _symmetry_equiv_pos_site_id
 _symmetry_equiv_pos_as_xyz
  1  'x, y, z'
loop_
 _atom_site_type_symbol
 _atom_site_label
 _atom_site_symmetry_multiplicity
 _atom_site_fract_x
 _atom_site_fract_y
 _atom_site_fract_z
 _atom_site_occupancy
  Y  Y0  1  0.191480  0.385608  0.250000  1
  Y  Y1  1  0.809332  0.615766  0.750000  1
  Y  Y2  1  0.614392  0.808520  0.250000  1
  Y  Y3  1  0.384234  0.190668  0.750000  1
  Y  Y4  1  0.193564  0.806436  0.250000  1
  Ho  Ho5  1  0.806303  0.193697  0.750000  1
  Al  Al6  1  0.165172  0.331480  0.579418  1
  Al  Al7  1  0.834627  0.671270  0.421408  1
  Al  Al8  1  0.668520  0.834828  0.579418  1
  Al  Al9  1  0.834627  0.671270  0.078592  1
  Al  Al10  1  0.328730  0.165373  0.421408  1
  Al  Al11  1  0.165172  0.331480  0.920582  1
  Al  Al12  1  0.166492  0.833508  0.578125  1
  Al  Al13  1  0.328730  0.165373  0.078592  1
  Al  Al14  1  0.835780  0.164220  0.421644  1
  Al  Al15  1  0.668520  0.834828  0.920582  1
  Al  Al16  1  0.835780  0.164220  0.078356  1
  Al  Al17  1  0.166492  0.833508  0.921875  1
  Al  Al18  1  0.564926  0.435074  0.250000  1
  Al  Al19  1  0.000319  0.999681  0.250000  1
  Si  Si20  1  0.334139  0.665861  0.041660  1
  Si  Si21  1  0.665494  0.334506  0.959002  1
  Si  Si22  1  0.665494  0.334506  0.540998  1
  Si  Si23  1  0.334139  0.665861  0.458340  1
  Si  Si24  1  0.564344  0.125029  0.250000  1
  Si  Si25  1  0.439315  0.875880  0.750000  1
  Si  Si26  1  0.874971  0.435656  0.250000  1
  Si  Si27  1  0.124120  0.560685  0.750000  1
  Si  Si28  1  0.436952  0.563048  0.750000  1
  Si  Si29  1  0.997663  0.002337  0.750000  1
  Os  Os30  1  0.500361  0.999590  0.999312  1
  Os  Os31  1  0.000410  0.499639  0.999312  1
  Os  Os32  1  0.500361  0.999590  0.500688  1
  Os  Os33  1  0.499060  0.500940  0.993385  1
  Os  Os34  1  0.000410  0.499639  0.500688  1
  Os  Os35  1  0.499060  0.500940  0.506615  1
  Os  Os36  1  0.000258  0.999742  0.992336  1
  Os  Os37  1  0.000258  0.999742  0.507664  1
