# generated using pymatgen
data_LiHo4Co19P12
_symmetry_space_group_name_H-M   'P 1'
_cell_length_a   3.64825400
_cell_length_b   10.23813095
_cell_length_c   11.75426951
_cell_angle_alpha   89.89947240
_cell_angle_beta   90.00000000
_cell_angle_gamma   90.00000000
_symmetry_Int_Tables_number   1
_chemical_formula_structural   LiHo4Co19P12
_chemical_formula_sum   'Li1 Ho4 Co19 P12'
_cell_volume   439.03659678
_cell_formula_units_Z   1
loop_
 _symmetry_equiv_pos_site_id
 _symmetry_equiv_pos_as_xyz
  1  'x, y, z'
loop_
 _atom_site_type_symbol
 _atom_site_label
 _atom_site_symmetry_multiplicity
 _atom_site_fract_x
 _atom_site_fract_y
 _atom_site_fract_z
 _atom_site_occupancy
  Li  Li0  1  0.250000  0.703913  0.990440  1
  Ho  Ho1  1  0.250000  0.581817  0.701518  1
  Ho  Ho2  1  0.250000  0.918969  0.203368  1
  Ho  Ho3  1  0.750000  0.417791  0.298003  1
  Ho  Ho4  1  0.750000  0.081130  0.796935  1
  Co  Co5  1  0.250000  0.784088  0.492150  1
  Co  Co6  1  0.750000  0.288623  0.010266  1
  Co  Co7  1  0.750000  0.216336  0.507483  1
  Co  Co8  1  0.250000  0.406304  0.487857  1
  Co  Co9  1  0.250000  0.095730  0.987260  1
  Co  Co10  1  0.750000  0.592981  0.513489  1
  Co  Co11  1  0.750000  0.908505  0.013179  1
  Co  Co12  1  0.250000  0.222917  0.176025  1
  Co  Co13  1  0.250000  0.278472  0.675683  1
  Co  Co14  1  0.750000  0.779949  0.821363  1
  Co  Co15  1  0.750000  0.720360  0.327427  1
  Co  Co16  1  0.250000  0.883902  0.697309  1
  Co  Co17  1  0.250000  0.618979  0.200245  1
  Co  Co18  1  0.750000  0.117933  0.300454  1
  Co  Co19  1  0.750000  0.380473  0.800919  1
  Co  Co20  1  0.250000  0.465113  0.932068  1
  Co  Co21  1  0.250000  0.032908  0.431232  1
  Co  Co22  1  0.750000  0.533399  0.067178  1
  Co  Co23  1  0.750000  0.968411  0.566981  1
  P  P24  1  0.250000  0.421305  0.112925  1
  P  P25  1  0.250000  0.081341  0.611618  1
  P  P26  1  0.750000  0.578721  0.883969  1
  P  P27  1  0.750000  0.919082  0.387599  1
  P  P28  1  0.250000  0.268750  0.868188  1
  P  P29  1  0.250000  0.230289  0.369238  1
  P  P30  1  0.750000  0.730402  0.137097  1
  P  P31  1  0.750000  0.770998  0.630470  1
  P  P32  1  0.250000  0.601051  0.393038  1
  P  P33  1  0.250000  0.898723  0.890879  1
  P  P34  1  0.750000  0.397655  0.608537  1
  P  P35  1  0.750000  0.102680  0.107611  1
