# generated using pymatgen
data_HoEr2InSi2Ag3
_symmetry_space_group_name_H-M   'P 1'
_cell_length_a   7.18361400
_cell_length_b   7.18759617
_cell_length_c   4.24558800
_cell_angle_alpha   90.00000000
_cell_angle_beta   90.00000000
_cell_angle_gamma   119.98167442
_symmetry_Int_Tables_number   1
_chemical_formula_structural   HoEr2InSi2Ag3
_chemical_formula_sum   'Ho1 Er2 In1 Si2 Ag3'
_cell_volume   189.87828603
_cell_formula_units_Z   1
loop_
 _symmetry_equiv_pos_site_id
 _symmetry_equiv_pos_as_xyz
  1  'x, y, z'
loop_
 _atom_site_type_symbol
 _atom_site_label
 _atom_site_symmetry_multiplicity
 _atom_site_fract_x
 _atom_site_fract_y
 _atom_site_fract_z
 _atom_site_occupancy
  Ho  Ho0  1  0.432700  0.000000  0.500000  1
  Er  Er1  1  0.000021  0.432842  0.500000  1
  Er  Er2  1  0.567179  0.567158  0.500000  1
  In  In3  1  0.999765  0.000000  0.500000  1
  Si  Si4  1  0.333278  0.666400  0.000000  1
  Si  Si5  1  0.666878  0.333600  0.000000  1
  Ag  Ag6  1  0.736100  0.000000  0.000000  1
  Ag  Ag7  1  0.999904  0.735729  0.000000  1
  Ag  Ag8  1  0.264175  0.264271  0.000000  1
