# generated using pymatgen
data_Er8In2CoNi
_symmetry_space_group_name_H-M   'P 1'
_cell_length_a   9.50625965
_cell_length_b   9.50625974
_cell_length_c   9.52179600
_cell_angle_alpha   59.94592243
_cell_angle_beta   59.94592212
_cell_angle_gamma   60.02053151
_symmetry_Int_Tables_number   1
_chemical_formula_structural   Er8In2CoNi
_chemical_formula_sum   'Er16 In4 Co2 Ni2'
_cell_volume   608.04397081
_cell_formula_units_Z   2
loop_
 _symmetry_equiv_pos_site_id
 _symmetry_equiv_pos_as_xyz
  1  'x, y, z'
loop_
 _atom_site_type_symbol
 _atom_site_label
 _atom_site_symmetry_multiplicity
 _atom_site_fract_x
 _atom_site_fract_y
 _atom_site_fract_z
 _atom_site_occupancy
  Er  Er0  1  0.597840  0.597840  0.592733  1
  Er  Er1  1  0.597840  0.597840  0.211588  1
  Er  Er2  1  0.601079  0.206767  0.596077  1
  Er  Er3  1  0.206767  0.601079  0.596077  1
  Er  Er4  1  0.057668  0.439153  0.438067  1
  Er  Er5  1  0.439153  0.057668  0.065112  1
  Er  Er6  1  0.439153  0.057668  0.438067  1
  Er  Er7  1  0.057668  0.439153  0.065112  1
  Er  Er8  1  0.438963  0.438963  0.061037  1
  Er  Er9  1  0.061121  0.061121  0.438879  1
  Er  Er10  1  0.189024  0.813124  0.809530  1
  Er  Er11  1  0.813124  0.189024  0.188322  1
  Er  Er12  1  0.813124  0.189024  0.809530  1
  Er  Er13  1  0.189024  0.813124  0.188322  1
  Er  Er14  1  0.811455  0.811455  0.188545  1
  Er  Er15  1  0.189027  0.189027  0.810973  1
  In  In16  1  0.832607  0.832607  0.833394  1
  In  In17  1  0.832607  0.832607  0.501390  1
  In  In18  1  0.831831  0.502950  0.832609  1
  In  In19  1  0.502950  0.831831  0.832609  1
  Co  Co20  1  0.390225  0.825848  0.391964  1
  Co  Co21  1  0.825848  0.390225  0.391964  1
  Ni  Ni22  1  0.390951  0.390951  0.392713  1
  Ni  Ni23  1  0.390951  0.390951  0.825385  1
