# generated using pymatgen
data_Li6AlSi5Ni12
_symmetry_space_group_name_H-M   'P 1'
_cell_length_a   3.94859700
_cell_length_b   5.52032600
_cell_length_c   11.84805801
_cell_angle_alpha   89.99516680
_cell_angle_beta   90.00097214
_cell_angle_gamma   89.99993987
_symmetry_Int_Tables_number   1
_chemical_formula_structural   Li6AlSi5Ni12
_chemical_formula_sum   'Li6 Al1 Si5 Ni12'
_cell_volume   258.25854949
_cell_formula_units_Z   1
loop_
 _symmetry_equiv_pos_site_id
 _symmetry_equiv_pos_as_xyz
  1  'x, y, z'
loop_
 _atom_site_type_symbol
 _atom_site_label
 _atom_site_symmetry_multiplicity
 _atom_site_fract_x
 _atom_site_fract_y
 _atom_site_fract_z
 _atom_site_occupancy
  Li  Li0  1  0.000004  0.999783  0.999840  1
  Li  Li1  1  0.500084  0.500470  0.169347  1
  Li  Li2  1  0.000120  0.999478  0.333521  1
  Li  Li3  1  0.499995  0.500435  0.497451  1
  Li  Li4  1  0.999866  0.999723  0.666581  1
  Li  Li5  1  0.499934  0.500134  0.833220  1
  Al  Al6  1  0.499932  0.000038  0.833308  1
  Si  Si7  1  0.000014  0.499967  0.000740  1
  Si  Si8  1  0.500064  0.999970  0.167570  1
  Si  Si9  1  0.000094  0.500007  0.333395  1
  Si  Si10  1  0.499993  0.999959  0.499123  1
  Si  Si11  1  0.999892  0.500015  0.665872  1
  Ni  Ni12  1  0.500013  0.255067  0.005003  1
  Ni  Ni13  1  0.500009  0.744935  0.004935  1
  Ni  Ni14  1  0.000085  0.250001  0.167209  1
  Ni  Ni15  1  0.000080  0.750033  0.167149  1
  Ni  Ni16  1  0.500107  0.249529  0.333403  1
  Ni  Ni17  1  0.500107  0.750452  0.333429  1
  Ni  Ni18  1  0.999994  0.250088  0.499478  1
  Ni  Ni19  1  0.999993  0.749916  0.499530  1
  Ni  Ni20  1  0.499881  0.255057  0.661623  1
  Ni  Ni21  1  0.499878  0.744947  0.661665  1
  Ni  Ni22  1  0.999931  0.260165  0.833305  1
  Ni  Ni23  1  0.999932  0.739827  0.833306  1
