# generated using pymatgen
data_Tb5Sm(GdB10)2
_symmetry_space_group_name_H-M   'P 1'
_cell_length_a   7.13985455
_cell_length_b   7.13393134
_cell_length_c   7.16616388
_cell_angle_alpha   77.19228076
_cell_angle_beta   89.89175565
_cell_angle_gamma   90.09605157
_symmetry_Int_Tables_number   1
_chemical_formula_structural   Tb5Sm(GdB10)2
_chemical_formula_sum   'Tb5 Sm1 Gd2 B20'
_cell_volume   355.92712612
_cell_formula_units_Z   1
loop_
 _symmetry_equiv_pos_site_id
 _symmetry_equiv_pos_as_xyz
  1  'x, y, z'
loop_
 _atom_site_type_symbol
 _atom_site_label
 _atom_site_symmetry_multiplicity
 _atom_site_fract_x
 _atom_site_fract_y
 _atom_site_fract_z
 _atom_site_occupancy
  Tb  Tb0  1  0.315713  0.757151  0.254454  1
  Tb  Tb1  1  0.814740  0.242990  0.245776  1
  Tb  Tb2  1  0.684276  0.242862  0.745321  1
  Tb  Tb3  1  0.185079  0.756420  0.753970  1
  Tb  Tb4  1  0.692895  0.766006  0.629631  1
  Sm  Sm5  1  0.190120  0.228682  0.873124  1
  Gd  Gd6  1  0.308066  0.231826  0.371802  1
  Gd  Gd7  1  0.808278  0.768648  0.128490  1
  B  B8  1  0.502662  0.314745  0.040131  1
  B  B9  1  0.001965  0.685425  0.460051  1
  B  B10  1  0.498537  0.685325  0.960273  1
  B  B11  1  0.997419  0.314794  0.538905  1
  B  B12  1  0.492105  0.924213  0.927213  1
  B  B13  1  0.989899  0.075155  0.572513  1
  B  B14  1  0.510358  0.075321  0.073175  1
  B  B15  1  0.008416  0.924570  0.426438  1
  B  B16  1  0.326673  0.497342  0.040151  1
  B  B17  1  0.826204  0.503165  0.460135  1
  B  B18  1  0.673692  0.503535  0.960258  1
  B  B19  1  0.173333  0.497098  0.539357  1
  B  B20  1  0.910334  0.499724  0.910333  1
  B  B21  1  0.410735  0.502095  0.589269  1
  B  B22  1  0.089337  0.502296  0.089145  1
  B  B23  1  0.589508  0.499327  0.410569  1
  B  B24  1  0.961028  0.497321  0.673599  1
  B  B25  1  0.462082  0.503431  0.826083  1
  B  B26  1  0.038120  0.503623  0.325702  1
  B  B27  1  0.538427  0.496910  0.174131  1
