# generated using pymatgen
data_Ir5Pt(RhS4)3
_symmetry_space_group_name_H-M   'P 1'
_cell_length_a   7.59918417
_cell_length_b   7.59289637
_cell_length_c   6.33771888
_cell_angle_alpha   77.13076167
_cell_angle_beta   77.00078163
_cell_angle_gamma   91.81391756
_symmetry_Int_Tables_number   1
_chemical_formula_structural   Ir5Pt(RhS4)3
_chemical_formula_sum   'Ir5 Pt1 Rh3 S12'
_cell_volume   346.07468875
_cell_formula_units_Z   1
loop_
 _symmetry_equiv_pos_site_id
 _symmetry_equiv_pos_as_xyz
  1  'x, y, z'
loop_
 _atom_site_type_symbol
 _atom_site_label
 _atom_site_symmetry_multiplicity
 _atom_site_fract_x
 _atom_site_fract_y
 _atom_site_fract_z
 _atom_site_occupancy
  Ir  Ir0  1  0.162851  0.838577  0.999396  1
  Ir  Ir1  1  0.838144  0.161406  0.000318  1
  Ir  Ir2  1  0.001060  0.000983  0.499263  1
  Ir  Ir3  1  0.348345  0.348365  0.945737  1
  Ir  Ir4  1  0.650861  0.649577  0.055189  1
  Pt  Pt5  1  0.775841  0.489997  0.453129  1
  Rh  Rh6  1  0.508385  0.219514  0.548212  1
  Rh  Rh7  1  0.219839  0.510494  0.548633  1
  Rh  Rh8  1  0.488726  0.780121  0.452435  1
  S  S9  1  0.856541  0.438541  0.097043  1
  S  S10  1  0.560476  0.143010  0.898648  1
  S  S11  1  0.146741  0.562238  0.895999  1
  S  S12  1  0.438752  0.854663  0.103667  1
  S  S13  1  0.115684  0.115718  0.109988  1
  S  S14  1  0.885222  0.884441  0.889387  1
  S  S15  1  0.035449  0.719086  0.386445  1
  S  S16  1  0.285418  0.969335  0.611854  1
  S  S17  1  0.970612  0.282026  0.614050  1
  S  S18  1  0.579195  0.585317  0.737141  1
  S  S19  1  0.414657  0.415454  0.266591  1
  S  S20  1  0.717200  0.031136  0.386875  1
