# generated using pymatgen
data_Tm3Zr5Pt4
_symmetry_space_group_name_H-M   'P 1'
_cell_length_a   4.65177500
_cell_length_b   6.93802426
_cell_length_c   8.23463609
_cell_angle_alpha   89.64209380
_cell_angle_beta   90.00000000
_cell_angle_gamma   90.00000000
_symmetry_Int_Tables_number   1
_chemical_formula_structural   Tm3Zr5Pt4
_chemical_formula_sum   'Tm3 Zr5 Pt4'
_cell_volume   265.76051230
_cell_formula_units_Z   1
loop_
 _symmetry_equiv_pos_site_id
 _symmetry_equiv_pos_as_xyz
  1  'x, y, z'
loop_
 _atom_site_type_symbol
 _atom_site_label
 _atom_site_symmetry_multiplicity
 _atom_site_fract_x
 _atom_site_fract_y
 _atom_site_fract_z
 _atom_site_occupancy
  Tm  Tm0  1  0.250000  0.484313  0.181125  1
  Tm  Tm1  1  0.750000  0.013375  0.676771  1
  Tm  Tm2  1  0.750000  0.513750  0.818600  1
  Zr  Zr3  1  0.250000  0.847184  0.922295  1
  Zr  Zr4  1  0.250000  0.346379  0.580579  1
  Zr  Zr5  1  0.750000  0.146928  0.083942  1
  Zr  Zr6  1  0.750000  0.656939  0.417619  1
  Zr  Zr7  1  0.250000  0.989097  0.327366  1
  Pt  Pt8  1  0.250000  0.233916  0.907119  1
  Pt  Pt9  1  0.250000  0.740351  0.590504  1
  Pt  Pt10  1  0.750000  0.762020  0.090777  1
  Pt  Pt11  1  0.750000  0.265747  0.403302  1
