# generated using pymatgen
data_HoLu3MgInAu4
_symmetry_space_group_name_H-M   'P 1'
_cell_length_a   7.96716026
_cell_length_b   7.96564025
_cell_length_c   3.61138800
_cell_angle_alpha   90.00000000
_cell_angle_beta   90.00000000
_cell_angle_gamma   90.21677241
_symmetry_Int_Tables_number   1
_chemical_formula_structural   HoLu3MgInAu4
_chemical_formula_sum   'Ho1 Lu3 Mg1 In1 Au4'
_cell_volume   229.18979912
_cell_formula_units_Z   1
loop_
 _symmetry_equiv_pos_site_id
 _symmetry_equiv_pos_as_xyz
  1  'x, y, z'
loop_
 _atom_site_type_symbol
 _atom_site_label
 _atom_site_symmetry_multiplicity
 _atom_site_fract_x
 _atom_site_fract_y
 _atom_site_fract_z
 _atom_site_occupancy
  Ho  Ho0  1  0.848404  0.678824  0.500000  1
  Lu  Lu1  1  0.678135  0.151562  0.500000  1
  Lu  Lu2  1  0.321610  0.848718  0.500000  1
  Lu  Lu3  1  0.151907  0.321185  0.500000  1
  Mg  Mg4  1  0.499528  0.499634  0.000000  1
  In  In5  1  0.000553  0.001083  0.000000  1
  Au  Au6  1  0.147167  0.619551  0.000000  1
  Au  Au7  1  0.855123  0.377680  0.000000  1
  Au  Au8  1  0.618004  0.856302  0.000000  1
  Au  Au9  1  0.379569  0.145461  0.000000  1
