# generated using pymatgen
data_Dy3Al3CuNi2
_symmetry_space_group_name_H-M   'P 1'
_cell_length_a   7.06032000
_cell_length_b   7.06031959
_cell_length_c   3.86636000
_cell_angle_alpha   90.00000000
_cell_angle_beta   90.00000000
_cell_angle_gamma   120.00000194
_symmetry_Int_Tables_number   1
_chemical_formula_structural   Dy3Al3CuNi2
_chemical_formula_sum   'Dy3 Al3 Cu1 Ni2'
_cell_volume   166.90973110
_cell_formula_units_Z   1
loop_
 _symmetry_equiv_pos_site_id
 _symmetry_equiv_pos_as_xyz
  1  'x, y, z'
loop_
 _atom_site_type_symbol
 _atom_site_label
 _atom_site_symmetry_multiplicity
 _atom_site_fract_x
 _atom_site_fract_y
 _atom_site_fract_z
 _atom_site_occupancy
  Dy  Dy0  1  0.993314  0.581615  0.500000  1
  Dy  Dy1  1  0.418385  0.411699  0.500000  1
  Dy  Dy2  1  0.588301  0.006686  0.500000  1
  Al  Al3  1  0.767987  0.765206  0.000000  1
  Al  Al4  1  0.234794  0.002780  0.000000  1
  Al  Al5  1  0.997220  0.232013  0.000000  1
  Cu  Cu6  1  0.333333  0.666667  0.000000  1
  Ni  Ni7  1  0.666667  0.333333  0.000000  1
  Ni  Ni8  1  0.000000  0.000000  0.500000  1
