# generated using pymatgen
data_Tb3Mg2PaIr3
_symmetry_space_group_name_H-M   'P 1'
_cell_length_a   7.57884909
_cell_length_b   7.50034343
_cell_length_c   4.03448100
_cell_angle_alpha   90.00000000
_cell_angle_beta   90.00000000
_cell_angle_gamma   119.65793716
_symmetry_Int_Tables_number   1
_chemical_formula_structural   Tb3Mg2PaIr3
_chemical_formula_sum   'Tb3 Mg2 Pa1 Ir3'
_cell_volume   199.29177188
_cell_formula_units_Z   1
loop_
 _symmetry_equiv_pos_site_id
 _symmetry_equiv_pos_as_xyz
  1  'x, y, z'
loop_
 _atom_site_type_symbol
 _atom_site_label
 _atom_site_symmetry_multiplicity
 _atom_site_fract_x
 _atom_site_fract_y
 _atom_site_fract_z
 _atom_site_occupancy
  Tb  Tb0  1  0.441176  0.408356  0.000000  1
  Tb  Tb1  1  0.558824  0.967180  0.000000  1
  Tb  Tb2  1  0.000000  0.622300  0.000000  1
  Mg  Mg3  1  0.748030  0.752239  0.500000  1
  Mg  Mg4  1  0.251970  0.004209  0.500000  1
  Pa  Pa5  1  0.000000  0.262875  0.500000  1
  Ir  Ir6  1  0.000000  0.017466  0.000000  1
  Ir  Ir7  1  0.315987  0.640681  0.500000  1
  Ir  Ir8  1  0.684013  0.324693  0.500000  1
