# generated using pymatgen
data_Hf4Zr3Sc15Os8
_symmetry_space_group_name_H-M   'P 1'
_cell_length_a   9.45287347
_cell_length_b   9.45287316
_cell_length_c   9.45287356
_cell_angle_alpha   60.42210455
_cell_angle_beta   60.42210697
_cell_angle_gamma   60.42210936
_symmetry_Int_Tables_number   1
_chemical_formula_structural   Hf4Zr3Sc15Os8
_chemical_formula_sum   'Hf4 Zr3 Sc15 Os8'
_cell_volume   602.97867824
_cell_formula_units_Z   1
loop_
 _symmetry_equiv_pos_site_id
 _symmetry_equiv_pos_as_xyz
  1  'x, y, z'
loop_
 _atom_site_type_symbol
 _atom_site_label
 _atom_site_symmetry_multiplicity
 _atom_site_fract_x
 _atom_site_fract_y
 _atom_site_fract_z
 _atom_site_occupancy
  Hf  Hf0  1  0.842370  0.842370  0.842370  1
  Hf  Hf1  1  0.525760  0.157812  0.157812  1
  Hf  Hf2  1  0.157812  0.157812  0.525760  1
  Hf  Hf3  1  0.157812  0.525760  0.157812  1
  Zr  Zr4  1  0.843879  0.843879  0.470959  1
  Zr  Zr5  1  0.843879  0.470959  0.843879  1
  Zr  Zr6  1  0.470959  0.843879  0.843879  1
  Sc  Sc7  1  0.157409  0.157409  0.157409  1
  Sc  Sc8  1  0.198276  0.800994  0.198276  1
  Sc  Sc9  1  0.198229  0.800785  0.800785  1
  Sc  Sc10  1  0.800994  0.198276  0.198276  1
  Sc  Sc11  1  0.800785  0.800785  0.198229  1
  Sc  Sc12  1  0.198276  0.198276  0.800994  1
  Sc  Sc13  1  0.800785  0.198229  0.800785  1
  Sc  Sc14  1  0.383114  0.383114  0.383114  1
  Sc  Sc15  1  0.150292  0.616952  0.616952  1
  Sc  Sc16  1  0.616952  0.150292  0.616952  1
  Sc  Sc17  1  0.616952  0.616952  0.150292  1
  Sc  Sc18  1  0.382258  0.852367  0.382258  1
  Sc  Sc19  1  0.382258  0.382258  0.852367  1
  Sc  Sc20  1  0.852367  0.382258  0.382258  1
  Sc  Sc21  1  0.617162  0.617162  0.617162  1
  Os  Os22  1  0.498294  0.498294  0.002200  1
  Os  Os23  1  0.999159  0.999159  0.504458  1
  Os  Os24  1  0.498294  0.002200  0.498294  1
  Os  Os25  1  0.002200  0.498294  0.498294  1
  Os  Os26  1  0.504458  0.999159  0.999159  1
  Os  Os27  1  0.999159  0.504458  0.999159  1
  Os  Os28  1  0.500515  0.500515  0.500515  1
  Os  Os29  1  0.999339  0.999339  0.999339  1
