# generated using pymatgen
data_Ho3CoSn3Rh2
_symmetry_space_group_name_H-M   'P 1'
_cell_length_a   7.52446500
_cell_length_b   7.52446402
_cell_length_c   3.77946800
_cell_angle_alpha   90.00000000
_cell_angle_beta   90.00000000
_cell_angle_gamma   119.99999990
_symmetry_Int_Tables_number   1
_chemical_formula_structural   Ho3CoSn3Rh2
_chemical_formula_sum   'Ho3 Co1 Sn3 Rh2'
_cell_volume   185.31582235
_cell_formula_units_Z   1
loop_
 _symmetry_equiv_pos_site_id
 _symmetry_equiv_pos_as_xyz
  1  'x, y, z'
loop_
 _atom_site_type_symbol
 _atom_site_label
 _atom_site_symmetry_multiplicity
 _atom_site_fract_x
 _atom_site_fract_y
 _atom_site_fract_z
 _atom_site_occupancy
  Ho  Ho0  1  0.000000  0.403469  0.000000  1
  Ho  Ho1  1  0.596531  0.596531  0.000000  1
  Ho  Ho2  1  0.403469  0.000000  0.000000  1
  Co  Co3  1  0.000000  0.000000  0.000000  1
  Sn  Sn4  1  0.253556  0.253556  0.500000  1
  Sn  Sn5  1  0.000000  0.746444  0.500000  1
  Sn  Sn6  1  0.746444  0.000000  0.500000  1
  Rh  Rh7  1  0.666667  0.333333  0.500000  1
  Rh  Rh8  1  0.333333  0.666667  0.500000  1
