# generated using pymatgen
data_Tb11Pr5Cd4TcPt3
_symmetry_space_group_name_H-M   'P 1'
_cell_length_a   9.85687083
_cell_length_b   9.85225814
_cell_length_c   9.85225803
_cell_angle_alpha   59.45978716
_cell_angle_beta   59.49473121
_cell_angle_gamma   59.49472621
_symmetry_Int_Tables_number   1
_chemical_formula_structural   Tb11Pr5Cd4TcPt3
_chemical_formula_sum   'Tb11 Pr5 Cd4 Tc1 Pt3'
_cell_volume   668.58884232
_cell_formula_units_Z   1
loop_
 _symmetry_equiv_pos_site_id
 _symmetry_equiv_pos_as_xyz
  1  'x, y, z'
loop_
 _atom_site_type_symbol
 _atom_site_label
 _atom_site_symmetry_multiplicity
 _atom_site_fract_x
 _atom_site_fract_y
 _atom_site_fract_z
 _atom_site_occupancy
  Tb  Tb0  1  0.351526  0.351402  0.351402  1
  Tb  Tb1  1  0.347555  0.349518  0.954364  1
  Tb  Tb2  1  0.347555  0.954364  0.349518  1
  Tb  Tb3  1  0.952691  0.349044  0.349044  1
  Tb  Tb4  1  0.817036  0.186421  0.186421  1
  Tb  Tb5  1  0.185593  0.810960  0.810960  1
  Tb  Tb6  1  0.185521  0.816240  0.187983  1
  Tb  Tb7  1  0.811002  0.187098  0.810278  1
  Tb  Tb8  1  0.185521  0.187983  0.816240  1
  Tb  Tb9  1  0.811002  0.810278  0.187098  1
  Tb  Tb10  1  0.940346  0.559286  0.559286  1
  Pr  Pr11  1  0.553391  0.941159  0.941159  1
  Pr  Pr12  1  0.564392  0.935659  0.562336  1
  Pr  Pr13  1  0.940407  0.554628  0.937813  1
  Pr  Pr14  1  0.564392  0.562336  0.935659  1
  Pr  Pr15  1  0.940407  0.937813  0.554628  1
  Cd  Cd16  1  0.582076  0.578561  0.578561  1
  Cd  Cd17  1  0.578819  0.579541  0.260274  1
  Cd  Cd18  1  0.578819  0.260274  0.579541  1
  Cd  Cd19  1  0.257980  0.579112  0.579112  1
  Tc  Tc20  1  0.143385  0.142945  0.142945  1
  Pt  Pt21  1  0.143258  0.147038  0.574027  1
  Pt  Pt22  1  0.143258  0.574027  0.147038  1
  Pt  Pt23  1  0.574064  0.144312  0.144312  1
