# generated using pymatgen
data_CsSnRhS4
_symmetry_space_group_name_H-M   'P 1'
_cell_length_a   6.41659200
_cell_length_b   7.42794500
_cell_length_c   16.28062500
_cell_angle_alpha   90.00000000
_cell_angle_beta   90.00000000
_cell_angle_gamma   90.00000000
_symmetry_Int_Tables_number   1
_chemical_formula_structural   CsSnRhS4
_chemical_formula_sum   'Cs4 Sn4 Rh4 S16'
_cell_volume   775.96865411
_cell_formula_units_Z   4
loop_
 _symmetry_equiv_pos_site_id
 _symmetry_equiv_pos_as_xyz
  1  'x, y, z'
loop_
 _atom_site_type_symbol
 _atom_site_label
 _atom_site_symmetry_multiplicity
 _atom_site_fract_x
 _atom_site_fract_y
 _atom_site_fract_z
 _atom_site_occupancy
  Cs  Cs0  1  0.349598  0.000000  0.000000  1
  Cs  Cs1  1  0.650402  0.500000  0.500000  1
  Cs  Cs2  1  0.012269  0.000000  0.500000  1
  Cs  Cs3  1  0.987731  0.500000  0.000000  1
  Sn  Sn4  1  0.500000  0.250000  0.250000  1
  Sn  Sn5  1  0.500000  0.750000  0.750000  1
  Sn  Sn6  1  0.500000  0.750000  0.250000  1
  Sn  Sn7  1  0.500000  0.250000  0.750000  1
  Rh  Rh8  1  0.001387  0.000000  0.250172  1
  Rh  Rh9  1  0.001387  0.000000  0.749828  1
  Rh  Rh10  1  0.998613  0.500000  0.249828  1
  Rh  Rh11  1  0.998613  0.500000  0.750172  1
  S  S12  1  0.852499  0.250871  0.326352  1
  S  S13  1  0.852499  0.749129  0.673648  1
  S  S14  1  0.147501  0.750871  0.173648  1
  S  S15  1  0.147501  0.249129  0.826352  1
  S  S16  1  0.147501  0.249129  0.173648  1
  S  S17  1  0.147501  0.750871  0.826352  1
  S  S18  1  0.852499  0.749129  0.326352  1
  S  S19  1  0.852499  0.250871  0.673648  1
  S  S20  1  0.693512  0.000000  0.165386  1
  S  S21  1  0.693512  0.000000  0.834614  1
  S  S22  1  0.306488  0.500000  0.334614  1
  S  S23  1  0.306488  0.500000  0.665386  1
  S  S24  1  0.314371  0.000000  0.333286  1
  S  S25  1  0.314371  0.000000  0.666714  1
  S  S26  1  0.685629  0.500000  0.166714  1
  S  S27  1  0.685629  0.500000  0.833286  1
