# generated using pymatgen
data_Tb8Lu2IrRu3
_symmetry_space_group_name_H-M   'P 1'
_cell_length_a   6.36593948
_cell_length_b   7.27671870
_cell_length_c   8.49826078
_cell_angle_alpha   96.78289747
_cell_angle_beta   112.10053860
_cell_angle_gamma   90.01649660
_symmetry_Int_Tables_number   1
_chemical_formula_structural   Tb8Lu2IrRu3
_chemical_formula_sum   'Tb8 Lu2 Ir1 Ru3'
_cell_volume   361.76055060
_cell_formula_units_Z   1
loop_
 _symmetry_equiv_pos_site_id
 _symmetry_equiv_pos_as_xyz
  1  'x, y, z'
loop_
 _atom_site_type_symbol
 _atom_site_label
 _atom_site_symmetry_multiplicity
 _atom_site_fract_x
 _atom_site_fract_y
 _atom_site_fract_z
 _atom_site_occupancy
  Tb  Tb0  1  0.523234  0.083744  0.815272  1
  Tb  Tb1  1  0.477570  0.918391  0.184375  1
  Tb  Tb2  1  0.709292  0.415503  0.184307  1
  Tb  Tb3  1  0.291714  0.584149  0.814273  1
  Tb  Tb4  1  0.294810  0.311473  0.433215  1
  Tb  Tb5  1  0.706104  0.687079  0.569103  1
  Tb  Tb6  1  0.862973  0.187436  0.568458  1
  Tb  Tb7  1  0.136436  0.813473  0.432284  1
  Lu  Lu8  1  0.075218  0.249187  0.999340  1
  Lu  Lu9  1  0.924192  0.750107  0.999999  1
  Ir  Ir10  1  0.317069  0.574531  0.216734  1
  Ru  Ru11  1  0.680211  0.425701  0.782550  1
  Ru  Ru12  1  0.102587  0.924932  0.783065  1
  Ru  Ru13  1  0.898590  0.074294  0.217025  1
