# generated using pymatgen
data_Tb4Er3Tm3Ir4
_symmetry_space_group_name_H-M   'P 1'
_cell_length_a   6.47364873
_cell_length_b   7.19074006
_cell_length_c   8.46532762
_cell_angle_alpha   96.68223617
_cell_angle_beta   112.52329590
_cell_angle_gamma   90.01904978
_symmetry_Int_Tables_number   1
_chemical_formula_structural   Tb4Er3Tm3Ir4
_chemical_formula_sum   'Tb4 Er3 Tm3 Ir4'
_cell_volume   361.09997604
_cell_formula_units_Z   1
loop_
 _symmetry_equiv_pos_site_id
 _symmetry_equiv_pos_as_xyz
  1  'x, y, z'
loop_
 _atom_site_type_symbol
 _atom_site_label
 _atom_site_symmetry_multiplicity
 _atom_site_fract_x
 _atom_site_fract_y
 _atom_site_fract_z
 _atom_site_occupancy
  Tb  Tb0  1  0.970666  0.919337  0.183599  1
  Tb  Tb1  1  0.786873  0.580777  0.816042  1
  Tb  Tb2  1  0.029140  0.080811  0.816133  1
  Tb  Tb3  1  0.213248  0.418877  0.183760  1
  Er  Er4  1  0.652229  0.817304  0.440613  1
  Er  Er5  1  0.211502  0.682310  0.559156  1
  Er  Er6  1  0.347800  0.182827  0.559400  1
  Tm  Tm7  1  0.788157  0.317739  0.440445  1
  Tm  Tm8  1  0.427717  0.750006  0.000042  1
  Tm  Tm9  1  0.572389  0.250082  0.000232  1
  Ir  Ir10  1  0.822452  0.572664  0.220336  1
  Ir  Ir11  1  0.602245  0.927106  0.780386  1
  Ir  Ir12  1  0.176959  0.426948  0.779462  1
  Ir  Ir13  1  0.398623  0.073212  0.220394  1
