# generated using pymatgen
data_K8P2Pt5Au11
_symmetry_space_group_name_H-M   'P 1'
_cell_length_a   10.64910162
_cell_length_b   10.64910111
_cell_length_c   10.52528327
_cell_angle_alpha   79.92807864
_cell_angle_beta   79.92807313
_cell_angle_gamma   33.11887051
_symmetry_Int_Tables_number   1
_chemical_formula_structural   K8P2Pt5Au11
_chemical_formula_sum   'K8 P2 Pt5 Au11'
_cell_volume   641.21137347
_cell_formula_units_Z   1
loop_
 _symmetry_equiv_pos_site_id
 _symmetry_equiv_pos_as_xyz
  1  'x, y, z'
loop_
 _atom_site_type_symbol
 _atom_site_label
 _atom_site_symmetry_multiplicity
 _atom_site_fract_x
 _atom_site_fract_y
 _atom_site_fract_z
 _atom_site_occupancy
  K  K0  1  0.482469  0.482469  0.832773  1
  K  K1  1  0.520694  0.520694  0.167836  1
  K  K2  1  0.280539  0.280539  0.908249  1
  K  K3  1  0.716253  0.716253  0.097933  1
  K  K4  1  0.222501  0.222501  0.589696  1
  K  K5  1  0.776786  0.776786  0.407415  1
  K  K6  1  0.042766  0.042766  0.654370  1
  K  K7  1  0.960039  0.960039  0.344079  1
  P  P8  1  0.668394  0.668394  0.756450  1
  P  P9  1  0.329749  0.329749  0.240360  1
  Pt  Pt10  1  0.779392  0.779392  0.741799  1
  Pt  Pt11  1  0.219052  0.219052  0.253053  1
  Pt  Pt12  1  0.619860  0.619860  0.582061  1
  Pt  Pt13  1  0.378396  0.378396  0.414943  1
  Pt  Pt14  1  0.110522  0.110522  0.138479  1
  Au  Au15  1  0.499525  0.499525  0.498651  1
  Au  Au16  1  0.001175  0.001175  0.008054  1
  Au  Au17  1  0.889059  0.889059  0.860913  1
  Au  Au18  1  0.863300  0.359551  0.366273  1
  Au  Au19  1  0.639130  0.135486  0.628469  1
  Au  Au20  1  0.135486  0.639130  0.628469  1
  Au  Au21  1  0.359551  0.863300  0.366273  1
  Au  Au22  1  0.107987  0.652093  0.095623  1
  Au  Au23  1  0.353434  0.891847  0.911078  1
  Au  Au24  1  0.891847  0.353434  0.911078  1
  Au  Au25  1  0.652093  0.107987  0.095623  1
