# generated using pymatgen
data_CsGa11O17
_symmetry_space_group_name_H-M   'P 1'
_cell_length_a   12.57739854
_cell_length_b   12.57739845
_cell_length_c   12.57739821
_cell_angle_alpha   27.22751126
_cell_angle_beta   27.22751343
_cell_angle_gamma   27.22750366
_symmetry_Int_Tables_number   1
_chemical_formula_structural   CsGa11O17
_chemical_formula_sum   'Cs1 Ga11 O17'
_cell_volume   367.46977699
_cell_formula_units_Z   1
loop_
 _symmetry_equiv_pos_site_id
 _symmetry_equiv_pos_as_xyz
  1  'x, y, z'
loop_
 _atom_site_type_symbol
 _atom_site_label
 _atom_site_symmetry_multiplicity
 _atom_site_fract_x
 _atom_site_fract_y
 _atom_site_fract_z
 _atom_site_occupancy
  Cs  Cs0  1  0.169072  0.169072  0.169072  1
  Ga  Ga1  1  0.901024  0.408539  0.901024  1
  Ga  Ga2  1  0.000350  0.000350  0.000350  1
  Ga  Ga3  1  0.901024  0.901024  0.408539  1
  Ga  Ga4  1  0.408539  0.901024  0.901024  1
  Ga  Ga5  1  0.550243  0.550243  0.550243  1
  Ga  Ga6  1  0.650447  0.650447  0.650447  1
  Ga  Ga7  1  0.449927  0.449927  0.449927  1
  Ga  Ga8  1  0.349451  0.349451  0.349451  1
  Ga  Ga9  1  0.595802  0.097286  0.097286  1
  Ga  Ga10  1  0.097286  0.097286  0.595802  1
  Ga  Ga11  1  0.097286  0.595802  0.097286  1
  O  O12  1  0.703618  0.703618  0.703618  1
  O  O13  1  0.906710  0.906710  0.906710  1
  O  O14  1  0.717614  0.190465  0.190465  1
  O  O15  1  0.809994  0.281444  0.809994  1
  O  O16  1  0.909214  0.401537  0.401537  1
  O  O17  1  0.599336  0.090666  0.599336  1
  O  O18  1  0.401537  0.401537  0.909214  1
  O  O19  1  0.809994  0.809994  0.281444  1
  O  O20  1  0.190465  0.190465  0.717614  1
  O  O21  1  0.500185  0.500185  0.500185  1
  O  O22  1  0.599336  0.599336  0.090666  1
  O  O23  1  0.090666  0.599336  0.599336  1
  O  O24  1  0.401537  0.909214  0.401537  1
  O  O25  1  0.190465  0.717614  0.190465  1
  O  O26  1  0.281444  0.809994  0.809994  1
  O  O27  1  0.296269  0.296269  0.296269  1
  O  O28  1  0.091844  0.091844  0.091844  1
