# generated using pymatgen
data_NbFe2MoCl16
_symmetry_space_group_name_H-M   'P 1'
_cell_length_a   9.93089739
_cell_length_b   9.93089736
_cell_length_c   8.67557500
_cell_angle_alpha   90.00000000
_cell_angle_beta   90.00000000
_cell_angle_gamma   129.31956013
_symmetry_Int_Tables_number   1
_chemical_formula_structural   NbFe2MoCl16
_chemical_formula_sum   'Nb1 Fe2 Mo1 Cl16'
_cell_volume   661.91946831
_cell_formula_units_Z   1
loop_
 _symmetry_equiv_pos_site_id
 _symmetry_equiv_pos_as_xyz
  1  'x, y, z'
loop_
 _atom_site_type_symbol
 _atom_site_label
 _atom_site_symmetry_multiplicity
 _atom_site_fract_x
 _atom_site_fract_y
 _atom_site_fract_z
 _atom_site_occupancy
  Nb  Nb0  1  0.387075  0.612925  0.750000  1
  Fe  Fe1  1  0.811433  0.188567  0.250000  1
  Fe  Fe2  1  0.186855  0.813145  0.750000  1
  Mo  Mo3  1  0.615513  0.384487  0.250000  1
  Cl  Cl4  1  0.524509  0.072230  0.250000  1
  Cl  Cl5  1  0.073249  0.527772  0.750000  1
  Cl  Cl6  1  0.472228  0.926751  0.750000  1
  Cl  Cl7  1  0.927770  0.475491  0.250000  1
  Cl  Cl8  1  0.636421  0.363579  0.991850  1
  Cl  Cl9  1  0.366986  0.633014  0.014405  1
  Cl  Cl10  1  0.636421  0.363579  0.508150  1
  Cl  Cl11  1  0.366986  0.633014  0.485595  1
  Cl  Cl12  1  0.334670  0.272554  0.250000  1
  Cl  Cl13  1  0.261255  0.326060  0.750000  1
  Cl  Cl14  1  0.673940  0.738745  0.750000  1
  Cl  Cl15  1  0.727446  0.665330  0.250000  1
  Cl  Cl16  1  0.878103  0.121897  0.456674  1
  Cl  Cl17  1  0.120519  0.879481  0.543301  1
  Cl  Cl18  1  0.878103  0.121897  0.043326  1
  Cl  Cl19  1  0.120519  0.879481  0.956699  1
