# generated using pymatgen
data_Tm12In2Fe2Re
_symmetry_space_group_name_H-M   'P 1'
_cell_length_a   8.26428108
_cell_length_b   8.26428075
_cell_length_c   8.26428103
_cell_angle_alpha   108.93483869
_cell_angle_beta   108.93483063
_cell_angle_gamma   110.54940491
_symmetry_Int_Tables_number   1
_chemical_formula_structural   Tm12In2Fe2Re
_chemical_formula_sum   'Tm12 In2 Fe2 Re1'
_cell_volume   434.38789059
_cell_formula_units_Z   1
loop_
 _symmetry_equiv_pos_site_id
 _symmetry_equiv_pos_as_xyz
  1  'x, y, z'
loop_
 _atom_site_type_symbol
 _atom_site_label
 _atom_site_symmetry_multiplicity
 _atom_site_fract_x
 _atom_site_fract_y
 _atom_site_fract_z
 _atom_site_occupancy
  Tm  Tm0  1  0.192658  0.431002  0.238344  1
  Tm  Tm1  1  0.807342  0.568998  0.761656  1
  Tm  Tm2  1  0.192658  0.954315  0.761656  1
  Tm  Tm3  1  0.954315  0.192658  0.761656  1
  Tm  Tm4  1  0.807342  0.045685  0.238344  1
  Tm  Tm5  1  0.045685  0.807342  0.238344  1
  Tm  Tm6  1  0.431002  0.192658  0.238344  1
  Tm  Tm7  1  0.568998  0.807342  0.761656  1
  Tm  Tm8  1  0.307777  0.307777  0.615553  1
  Tm  Tm9  1  0.692223  0.692223  0.384447  1
  Tm  Tm10  1  0.692223  0.307777  0.000000  1
  Tm  Tm11  1  0.307777  0.692223  0.000000  1
  In  In12  1  0.000000  0.500000  0.500000  1
  In  In13  1  0.500000  0.000000  0.500000  1
  Fe  Fe14  1  0.384644  0.384644  0.000000  1
  Fe  Fe15  1  0.615356  0.615356  0.000000  1
  Re  Re16  1  0.000000  0.000000  0.000000  1
