# generated using pymatgen
data_Lu20PPb12
_symmetry_space_group_name_H-M   'P 1'
_cell_length_a   6.62702900
_cell_length_b   8.91321752
_cell_length_c   15.50236300
_cell_angle_alpha   90.00000643
_cell_angle_beta   90.00000000
_cell_angle_gamma   89.94229421
_symmetry_Int_Tables_number   1
_chemical_formula_structural   Lu20PPb12
_chemical_formula_sum   'Lu20 P1 Pb12'
_cell_volume   915.69545400
_cell_formula_units_Z   1
loop_
 _symmetry_equiv_pos_site_id
 _symmetry_equiv_pos_as_xyz
  1  'x, y, z'
loop_
 _atom_site_type_symbol
 _atom_site_label
 _atom_site_symmetry_multiplicity
 _atom_site_fract_x
 _atom_site_fract_y
 _atom_site_fract_z
 _atom_site_occupancy
  Lu  Lu0  1  0.500374  0.999829  0.333453  1
  Lu  Lu1  1  0.500170  0.499898  0.832323  1
  Lu  Lu2  1  0.500170  0.499898  0.167677  1
  Lu  Lu3  1  0.500374  0.999829  0.666547  1
  Lu  Lu4  1  0.000300  0.499950  0.166202  1
  Lu  Lu5  1  0.000131  0.000049  0.665986  1
  Lu  Lu6  1  0.000131  0.000049  0.334014  1
  Lu  Lu7  1  0.000300  0.499950  0.833798  1
  Lu  Lu8  1  0.748878  0.238558  0.000000  1
  Lu  Lu9  1  0.748373  0.736300  0.500000  1
  Lu  Lu10  1  0.750754  0.383275  0.384027  1
  Lu  Lu11  1  0.748966  0.879147  0.879466  1
  Lu  Lu12  1  0.748966  0.879147  0.120534  1
  Lu  Lu13  1  0.750754  0.383275  0.615973  1
  Lu  Lu14  1  0.251005  0.761241  0.000000  1
  Lu  Lu15  1  0.250737  0.263733  0.500000  1
  Lu  Lu16  1  0.250989  0.120559  0.120287  1
  Lu  Lu17  1  0.248959  0.616931  0.615830  1
  Lu  Lu18  1  0.248959  0.616931  0.384170  1
  Lu  Lu19  1  0.250989  0.120559  0.879713  1
  P  P20  1  0.500171  0.999926  0.000000  1
  Pb  Pb21  1  0.750442  0.602351  0.000000  1
  Pb  Pb22  1  0.747787  0.104154  0.500000  1
  Pb  Pb23  1  0.750102  0.199291  0.199810  1
  Pb  Pb24  1  0.751770  0.697490  0.696648  1
  Pb  Pb25  1  0.751770  0.697490  0.303352  1
  Pb  Pb26  1  0.750102  0.199291  0.800190  1
  Pb  Pb27  1  0.250036  0.397999  0.000000  1
  Pb  Pb28  1  0.251882  0.895918  0.500000  1
  Pb  Pb29  1  0.248213  0.302576  0.303300  1
  Pb  Pb30  1  0.249617  0.800918  0.800247  1
  Pb  Pb31  1  0.249617  0.800918  0.199753  1
  Pb  Pb32  1  0.248213  0.302576  0.696700  1
