# generated using pymatgen
data_Nd2YTm5(Si3Rh)4
_symmetry_space_group_name_H-M   'P 1'
_cell_length_a   8.16891246
_cell_length_b   8.16414428
_cell_length_c   7.96802500
_cell_angle_alpha   90.00000000
_cell_angle_beta   90.00000000
_cell_angle_gamma   119.98068156
_symmetry_Int_Tables_number   1
_chemical_formula_structural   Nd2YTm5(Si3Rh)4
_chemical_formula_sum   'Nd2 Y1 Tm5 Si12 Rh4'
_cell_volume   460.29975329
_cell_formula_units_Z   1
loop_
 _symmetry_equiv_pos_site_id
 _symmetry_equiv_pos_as_xyz
  1  'x, y, z'
loop_
 _atom_site_type_symbol
 _atom_site_label
 _atom_site_symmetry_multiplicity
 _atom_site_fract_x
 _atom_site_fract_y
 _atom_site_fract_z
 _atom_site_occupancy
  Nd  Nd0  1  0.999831  0.999915  0.250000  1
  Nd  Nd1  1  0.999868  0.999934  0.750000  1
  Y  Y2  1  0.018614  0.509308  0.750000  1
  Tm  Tm3  1  0.508648  0.491290  0.250000  1
  Tm  Tm4  1  0.508648  0.017357  0.250000  1
  Tm  Tm5  1  0.982738  0.491368  0.250000  1
  Tm  Tm6  1  0.492111  0.508304  0.750000  1
  Tm  Tm7  1  0.492111  0.983808  0.750000  1
  Si  Si8  1  0.168984  0.831373  0.500617  1
  Si  Si9  1  0.168984  0.337611  0.500617  1
  Si  Si10  1  0.662601  0.831300  0.502498  1
  Si  Si11  1  0.831248  0.168682  0.496601  1
  Si  Si12  1  0.831248  0.662566  0.496601  1
  Si  Si13  1  0.336359  0.168179  0.497089  1
  Si  Si14  1  0.831248  0.168682  0.003399  1
  Si  Si15  1  0.831248  0.662566  0.003399  1
  Si  Si16  1  0.336359  0.168179  0.002911  1
  Si  Si17  1  0.168984  0.831373  0.999383  1
  Si  Si18  1  0.168984  0.337611  0.999383  1
  Si  Si19  1  0.662601  0.831300  0.997502  1
  Rh  Rh20  1  0.334181  0.667091  0.460097  1
  Rh  Rh21  1  0.665111  0.332555  0.533653  1
  Rh  Rh22  1  0.665111  0.332555  0.966347  1
  Rh  Rh23  1  0.334181  0.667091  0.039903  1
