# generated using pymatgen
data_Tb7Ho5TlCo4Rh
_symmetry_space_group_name_H-M   'P 1'
_cell_length_a   8.32535741
_cell_length_b   8.32536017
_cell_length_c   8.32284568
_cell_angle_alpha   110.91071617
_cell_angle_beta   110.39840590
_cell_angle_gamma   107.14279363
_symmetry_Int_Tables_number   1
_chemical_formula_structural   Tb7Ho5TlCo4Rh
_chemical_formula_sum   'Tb7 Ho5 Tl1 Co4 Rh1'
_cell_volume   443.44510915
_cell_formula_units_Z   1
loop_
 _symmetry_equiv_pos_site_id
 _symmetry_equiv_pos_as_xyz
  1  'x, y, z'
loop_
 _atom_site_type_symbol
 _atom_site_label
 _atom_site_symmetry_multiplicity
 _atom_site_fract_x
 _atom_site_fract_y
 _atom_site_fract_z
 _atom_site_occupancy
  Tb  Tb0  1  0.406660  0.211607  0.194688  1
  Tb  Tb1  1  0.594354  0.789091  0.805709  1
  Tb  Tb2  1  0.016618  0.211355  0.805709  1
  Tb  Tb3  1  0.983081  0.788028  0.194688  1
  Tb  Tb4  1  0.185605  0.292442  0.478047  1
  Tb  Tb5  1  0.813761  0.706782  0.520543  1
  Tb  Tb6  1  0.186604  0.707246  0.893849  1
  Ho  Ho7  1  0.813939  0.292129  0.106070  1
  Ho  Ho8  1  0.314168  0.621404  0.306591  1
  Ho  Ho9  1  0.685449  0.378299  0.693758  1
  Ho  Ho10  1  0.315458  0.008309  0.693758  1
  Ho  Ho11  1  0.685186  0.992423  0.306591  1
  Tl  Tl12  1  0.500119  0.500226  0.000345  1
  Co  Co13  1  0.380420  0.000067  0.380488  1
  Co  Co14  1  0.619614  0.000611  0.620224  1
  Co  Co15  1  0.111452  0.611497  0.498856  1
  Co  Co16  1  0.887360  0.387405  0.498856  1
  Rh  Rh17  1  0.000151  0.001079  0.001230  1
