# generated using pymatgen
data_Nd4TmSn3Sb
_symmetry_space_group_name_H-M   'P 1'
_cell_length_a   8.28753943
_cell_length_b   8.35855659
_cell_length_c   15.83970615
_cell_angle_alpha   89.77790679
_cell_angle_beta   90.88995907
_cell_angle_gamma   90.13617357
_symmetry_Int_Tables_number   1
_chemical_formula_structural   Nd4TmSn3Sb
_chemical_formula_sum   'Nd16 Tm4 Sn12 Sb4'
_cell_volume   1097.10247522
_cell_formula_units_Z   4
loop_
 _symmetry_equiv_pos_site_id
 _symmetry_equiv_pos_as_xyz
  1  'x, y, z'
loop_
 _atom_site_type_symbol
 _atom_site_label
 _atom_site_symmetry_multiplicity
 _atom_site_fract_x
 _atom_site_fract_y
 _atom_site_fract_z
 _atom_site_occupancy
  Nd  Nd0  1  0.042478  0.171082  0.395017  1
  Nd  Nd1  1  0.372135  0.839105  0.120176  1
  Nd  Nd2  1  0.121698  0.340196  0.618789  1
  Nd  Nd3  1  0.472797  0.677055  0.899897  1
  Nd  Nd4  1  0.870787  0.660336  0.122510  1
  Nd  Nd5  1  0.127809  0.339418  0.878472  1
  Nd  Nd6  1  0.460011  0.675943  0.604924  1
  Nd  Nd7  1  0.620989  0.158996  0.618912  1
  Nd  Nd8  1  0.880038  0.659435  0.381837  1
  Nd  Nd9  1  0.026450  0.179213  0.100979  1
  Nd  Nd10  1  0.969130  0.822318  0.899137  1
  Nd  Nd11  1  0.628461  0.161701  0.879923  1
  Nd  Nd12  1  0.529879  0.326170  0.101989  1
  Nd  Nd13  1  0.378769  0.840165  0.381399  1
  Nd  Nd14  1  0.962299  0.828624  0.604622  1
  Nd  Nd15  1  0.536520  0.321023  0.396746  1
  Tm  Tm16  1  0.205766  0.500440  0.247389  1
  Tm  Tm17  1  0.705736  0.998860  0.246526  1
  Tm  Tm18  1  0.294105  0.001060  0.749276  1
  Tm  Tm19  1  0.794063  0.499922  0.752596  1
  Sn  Sn20  1  0.662152  0.853895  0.750385  1
  Sn  Sn21  1  0.836928  0.352814  0.251609  1
  Sn  Sn22  1  0.789446  0.468684  0.954532  1
  Sn  Sn23  1  0.568771  0.621105  0.252873  1
  Sn  Sn24  1  0.211710  0.531217  0.045315  1
  Sn  Sn25  1  0.431236  0.378765  0.748905  1
  Sn  Sn26  1  0.162099  0.647052  0.750375  1
  Sn  Sn27  1  0.929624  0.120751  0.749131  1
  Sn  Sn28  1  0.278032  0.026543  0.547101  1
  Sn  Sn29  1  0.715364  0.968007  0.046064  1
  Sn  Sn30  1  0.337483  0.145951  0.249479  1
  Sn  Sn31  1  0.070381  0.879187  0.251139  1
  Sb  Sb32  1  0.774936  0.478710  0.550017  1
  Sb  Sb33  1  0.723947  0.976076  0.450653  1
  Sb  Sb34  1  0.223657  0.521422  0.449660  1
  Sb  Sb35  1  0.284314  0.028758  0.951644  1
