# generated using pymatgen
data_Tb8Hf9Zr3Si15Ge
_symmetry_space_group_name_H-M   'P 1'
_cell_length_a   7.31021447
_cell_length_b   7.31659461
_cell_length_c   13.44035210
_cell_angle_alpha   89.91787707
_cell_angle_beta   89.98013322
_cell_angle_gamma   89.94590315
_symmetry_Int_Tables_number   1
_chemical_formula_structural   Tb8Hf9Zr3Si15Ge
_chemical_formula_sum   'Tb8 Hf9 Zr3 Si15 Ge1'
_cell_volume   718.86790083
_cell_formula_units_Z   1
loop_
 _symmetry_equiv_pos_site_id
 _symmetry_equiv_pos_as_xyz
  1  'x, y, z'
loop_
 _atom_site_type_symbol
 _atom_site_label
 _atom_site_symmetry_multiplicity
 _atom_site_fract_x
 _atom_site_fract_y
 _atom_site_fract_z
 _atom_site_occupancy
  Tb  Tb0  1  0.995129  0.344329  0.214567  1
  Tb  Tb1  1  0.003944  0.656029  0.715240  1
  Tb  Tb2  1  0.154563  0.497857  0.466072  1
  Tb  Tb3  1  0.504349  0.843615  0.034490  1
  Tb  Tb4  1  0.844154  0.503825  0.964849  1
  Tb  Tb5  1  0.496838  0.155277  0.535851  1
  Tb  Tb6  1  0.343887  0.996115  0.784901  1
  Tb  Tb7  1  0.656717  0.002708  0.284607  1
  Hf  Hf8  1  0.674774  0.325298  0.749981  1
  Hf  Hf9  1  0.148113  0.993815  0.374191  1
  Hf  Hf10  1  0.850777  0.004432  0.874371  1
  Hf  Hf11  1  0.504305  0.649542  0.624497  1
  Hf  Hf12  1  0.350521  0.495529  0.875557  1
  Hf  Hf13  1  0.495493  0.350347  0.123227  1
  Hf  Hf14  1  0.651948  0.506485  0.376493  1
  Hf  Hf15  1  0.995298  0.149395  0.625789  1
  Hf  Hf16  1  0.004010  0.850289  0.125227  1
  Zr  Zr17  1  0.174426  0.174773  0.999715  1
  Zr  Zr18  1  0.825489  0.825678  0.500323  1
  Zr  Zr19  1  0.325425  0.676895  0.249508  1
  Si  Si20  1  0.636897  0.705070  0.816859  1
  Si  Si21  1  0.205772  0.863424  0.567082  1
  Si  Si22  1  0.136829  0.794173  0.932786  1
  Si  Si23  1  0.794082  0.136836  0.066790  1
  Si  Si24  1  0.863146  0.205524  0.433072  1
  Si  Si25  1  0.295177  0.363138  0.683108  1
  Si  Si26  1  0.705398  0.636348  0.182941  1
  Si  Si27  1  0.295018  0.046600  0.184265  1
  Si  Si28  1  0.704777  0.951382  0.686363  1
  Si  Si29  1  0.450580  0.795348  0.436141  1
  Si  Si30  1  0.204743  0.549245  0.063925  1
  Si  Si31  1  0.549760  0.205089  0.935130  1
  Si  Si32  1  0.794572  0.450199  0.564905  1
  Si  Si33  1  0.048368  0.295313  0.813742  1
  Si  Si34  1  0.950786  0.704442  0.313757  1
  Ge  Ge35  1  0.363936  0.295638  0.319677  1
