# generated using pymatgen
data_YbGaHgPt3
_symmetry_space_group_name_H-M   'P 1'
_cell_length_a   5.20157267
_cell_length_b   5.20157316
_cell_length_c   5.20157209
_cell_angle_alpha   64.32788250
_cell_angle_beta   64.32788974
_cell_angle_gamma   64.32787486
_symmetry_Int_Tables_number   1
_chemical_formula_structural   YbGaHgPt3
_chemical_formula_sum   'Yb1 Ga1 Hg1 Pt3'
_cell_volume   108.97459232
_cell_formula_units_Z   1
loop_
 _symmetry_equiv_pos_site_id
 _symmetry_equiv_pos_as_xyz
  1  'x, y, z'
loop_
 _atom_site_type_symbol
 _atom_site_label
 _atom_site_symmetry_multiplicity
 _atom_site_fract_x
 _atom_site_fract_y
 _atom_site_fract_z
 _atom_site_occupancy
  Yb  Yb0  1  0.501916  0.501916  0.501916  1
  Ga  Ga1  1  0.125030  0.125030  0.125030  1
  Hg  Hg2  1  0.749379  0.749379  0.749379  1
  Pt  Pt3  1  0.123982  0.625711  0.123982  1
  Pt  Pt4  1  0.123982  0.123982  0.625711  1
  Pt  Pt5  1  0.625711  0.123982  0.123982  1
