# generated using pymatgen
data_Dy8Y2Si6F
_symmetry_space_group_name_H-M   'P 1'
_cell_length_a   8.45865900
_cell_length_b   8.45637867
_cell_length_c   6.34044800
_cell_angle_alpha   90.00191745
_cell_angle_beta   89.99903815
_cell_angle_gamma   119.99107889
_symmetry_Int_Tables_number   1
_chemical_formula_structural   Dy8Y2Si6F
_chemical_formula_sum   'Dy8 Y2 Si6 F1'
_cell_volume   392.80368181
_cell_formula_units_Z   1
loop_
 _symmetry_equiv_pos_site_id
 _symmetry_equiv_pos_as_xyz
  1  'x, y, z'
loop_
 _atom_site_type_symbol
 _atom_site_label
 _atom_site_symmetry_multiplicity
 _atom_site_fract_x
 _atom_site_fract_y
 _atom_site_fract_z
 _atom_site_occupancy
  Dy  Dy0  1  0.333197  0.666506  0.499918  1
  Dy  Dy1  1  0.666803  0.333308  0.499918  1
  Dy  Dy2  1  0.666757  0.333283  0.000201  1
  Dy  Dy3  1  0.333243  0.666527  0.000201  1
  Dy  Dy4  1  0.000000  0.752689  0.246015  1
  Dy  Dy5  1  0.247120  0.247186  0.246074  1
  Dy  Dy6  1  0.752880  0.000066  0.246074  1
  Dy  Dy7  1  0.000000  0.247524  0.754175  1
  Y  Y8  1  0.752973  0.752888  0.754195  1
  Y  Y9  1  0.247027  0.999916  0.754195  1
  Si  Si10  1  0.000000  0.392484  0.248431  1
  Si  Si11  1  0.607480  0.607377  0.248599  1
  Si  Si12  1  0.392520  0.999897  0.248599  1
  Si  Si13  1  0.000000  0.607505  0.751631  1
  Si  Si14  1  0.392167  0.392178  0.751606  1
  Si  Si15  1  0.607833  0.000010  0.751606  1
  F  F16  1  0.000000  0.000658  0.498560  1
