# generated using pymatgen
data_Ho15ErMgIn3Rh4
_symmetry_space_group_name_H-M   'P 1'
_cell_length_a   9.62415390
_cell_length_b   9.62287531
_cell_length_c   9.62436541
_cell_angle_alpha   60.03766811
_cell_angle_beta   59.91636426
_cell_angle_gamma   60.03565084
_symmetry_Int_Tables_number   1
_chemical_formula_structural   Ho15ErMgIn3Rh4
_chemical_formula_sum   'Ho15 Er1 Mg1 In3 Rh4'
_cell_volume   630.21594126
_cell_formula_units_Z   1
loop_
 _symmetry_equiv_pos_site_id
 _symmetry_equiv_pos_as_xyz
  1  'x, y, z'
loop_
 _atom_site_type_symbol
 _atom_site_label
 _atom_site_symmetry_multiplicity
 _atom_site_fract_x
 _atom_site_fract_y
 _atom_site_fract_z
 _atom_site_occupancy
  Ho  Ho0  1  0.190182  0.190864  0.811218  1
  Ho  Ho1  1  0.437455  0.062064  0.062340  1
  Ho  Ho2  1  0.435035  0.063897  0.435067  1
  Ho  Ho3  1  0.062150  0.437821  0.062172  1
  Ho  Ho4  1  0.648728  0.050218  0.648691  1
  Ho  Ho5  1  0.189000  0.812359  0.811924  1
  Ho  Ho6  1  0.062356  0.062069  0.437452  1
  Ho  Ho7  1  0.811179  0.190927  0.190159  1
  Ho  Ho8  1  0.811895  0.812366  0.188959  1
  Ho  Ho9  1  0.649462  0.649158  0.047351  1
  Ho  Ho10  1  0.653467  0.651957  0.653457  1
  Ho  Ho11  1  0.063939  0.434868  0.437277  1
  Ho  Ho12  1  0.047348  0.649174  0.649484  1
  Ho  Ho13  1  0.809922  0.191064  0.809893  1
  Ho  Ho14  1  0.437264  0.434923  0.063937  1
  Er  Er15  1  0.187163  0.815860  0.187278  1
  Mg  Mg16  1  0.423048  0.732698  0.423018  1
  In  In17  1  0.416758  0.418947  0.748063  1
  In  In18  1  0.748038  0.418925  0.416806  1
  In  In19  1  0.416474  0.418463  0.416492  1
  Rh  Rh20  1  0.858216  0.425333  0.858183  1
  Rh  Rh21  1  0.858113  0.858765  0.425875  1
  Rh  Rh22  1  0.425984  0.858784  0.858033  1
  Rh  Rh23  1  0.856824  0.858498  0.856868  1
