# generated using pymatgen
data_Tb8Sc2Ir5Au
_symmetry_space_group_name_H-M   'P 1'
_cell_length_a   10.95748537
_cell_length_b   10.90434700
_cell_length_c   6.30403868
_cell_angle_alpha   90.00000000
_cell_angle_beta   90.05518675
_cell_angle_gamma   90.00000000
_symmetry_Int_Tables_number   1
_chemical_formula_structural   Tb8Sc2Ir5Au
_chemical_formula_sum   'Tb16 Sc4 Ir10 Au2'
_cell_volume   753.23281180
_cell_formula_units_Z   2
loop_
 _symmetry_equiv_pos_site_id
 _symmetry_equiv_pos_as_xyz
  1  'x, y, z'
loop_
 _atom_site_type_symbol
 _atom_site_label
 _atom_site_symmetry_multiplicity
 _atom_site_fract_x
 _atom_site_fract_y
 _atom_site_fract_z
 _atom_site_occupancy
  Tb  Tb0  1  0.288589  0.085966  0.374253  1
  Tb  Tb1  1  0.288589  0.914034  0.874253  1
  Tb  Tb2  1  0.701060  0.090665  0.868730  1
  Tb  Tb3  1  0.701060  0.909335  0.368730  1
  Tb  Tb4  1  0.577801  0.785428  0.879017  1
  Tb  Tb5  1  0.577801  0.214572  0.379017  1
  Tb  Tb6  1  0.410956  0.786858  0.379133  1
  Tb  Tb7  1  0.410956  0.213142  0.879133  1
  Tb  Tb8  1  0.213955  0.414002  0.620137  1
  Tb  Tb9  1  0.213955  0.585998  0.120137  1
  Tb  Tb10  1  0.786792  0.419522  0.120251  1
  Tb  Tb11  1  0.786792  0.580478  0.620251  1
  Tb  Tb12  1  0.918947  0.708094  0.135794  1
  Tb  Tb13  1  0.918947  0.291906  0.635794  1
  Tb  Tb14  1  0.093498  0.706175  0.621600  1
  Tb  Tb15  1  0.093498  0.293825  0.121600  1
  Sc  Sc16  1  0.011816  0.997940  0.500522  1
  Sc  Sc17  1  0.011816  0.002060  0.000522  1
  Sc  Sc18  1  0.499110  0.499016  0.000444  1
  Sc  Sc19  1  0.499110  0.500984  0.500444  1
  Ir  Ir20  1  0.146774  0.146996  0.749995  1
  Ir  Ir21  1  0.146774  0.853004  0.249995  1
  Ir  Ir22  1  0.646361  0.352593  0.750683  1
  Ir  Ir23  1  0.646361  0.647407  0.250683  1
  Ir  Ir24  1  0.352703  0.353548  0.249435  1
  Ir  Ir25  1  0.352703  0.646452  0.749435  1
  Ir  Ir26  1  0.500226  0.000034  0.117690  1
  Ir  Ir27  1  0.500226  0.999966  0.617690  1
  Ir  Ir28  1  0.000440  0.501117  0.881559  1
  Ir  Ir29  1  0.000440  0.498883  0.381559  1
  Au  Au30  1  0.850973  0.147964  0.250756  1
  Au  Au31  1  0.850973  0.852036  0.750756  1
