# generated using pymatgen
data_TbCeNp6F30
_symmetry_space_group_name_H-M   'P 1'
_cell_length_a   8.64296845
_cell_length_b   8.63514940
_cell_length_c   8.64296900
_cell_angle_alpha   100.67929077
_cell_angle_beta   100.32952014
_cell_angle_gamma   100.67928514
_symmetry_Int_Tables_number   1
_chemical_formula_structural   TbCeNp6F30
_chemical_formula_sum   'Tb1 Ce1 Np6 F30'
_cell_volume   607.46526419
_cell_formula_units_Z   1
loop_
 _symmetry_equiv_pos_site_id
 _symmetry_equiv_pos_as_xyz
  1  'x, y, z'
loop_
 _atom_site_type_symbol
 _atom_site_label
 _atom_site_symmetry_multiplicity
 _atom_site_fract_x
 _atom_site_fract_y
 _atom_site_fract_z
 _atom_site_occupancy
  Tb  Tb0  1  0.822227  0.250000  0.677773  1
  Ce  Ce1  1  0.250878  0.250000  0.249122  1
  Np  Np2  1  0.178490  0.750000  0.321510  1
  Np  Np3  1  0.246597  0.676893  0.821531  1
  Np  Np4  1  0.678469  0.823107  0.253403  1
  Np  Np5  1  0.749483  0.750000  0.750517  1
  Np  Np6  1  0.322594  0.180416  0.747499  1
  Np  Np7  1  0.752501  0.319584  0.177406  1
  F  F8  1  0.966396  0.534386  0.251905  1
  F  F9  1  0.816269  0.339377  0.443758  1
  F  F10  1  0.486682  0.716820  0.715890  1
  F  F11  1  0.345449  0.452376  0.827131  1
  F  F12  1  0.013510  0.787225  0.783678  1
  F  F13  1  0.753280  0.029843  0.465471  1
  F  F14  1  0.948427  0.841089  0.324694  1
  F  F15  1  0.222108  0.218042  0.983640  1
  F  F16  1  0.778624  0.008349  0.778941  1
  F  F17  1  0.325855  0.946967  0.840060  1
  F  F18  1  0.283090  0.284423  0.518516  1
  F  F19  1  0.449151  0.826508  0.345754  1
  F  F20  1  0.533453  0.250000  0.966547  1
  F  F21  1  0.282255  0.520071  0.283544  1
  F  F22  1  0.154246  0.673492  0.050849  1
  F  F23  1  0.841764  0.321315  0.949764  1
  F  F24  1  0.721059  0.491651  0.721376  1
  F  F25  1  0.465191  0.750000  0.034809  1
  F  F26  1  0.550236  0.178685  0.658236  1
  F  F27  1  0.716322  0.712775  0.486490  1
  F  F28  1  0.672869  0.047624  0.154551  1
  F  F29  1  0.216456  0.979929  0.217745  1
  F  F30  1  0.784110  0.783180  0.013318  1
  F  F31  1  0.056242  0.160623  0.683731  1
  F  F32  1  0.248095  0.965614  0.533604  1
  F  F33  1  0.981484  0.215577  0.216910  1
  F  F34  1  0.659940  0.553033  0.174145  1
  F  F35  1  0.516360  0.281958  0.277892  1
  F  F36  1  0.175306  0.658911  0.551573  1
  F  F37  1  0.034529  0.470157  0.746720  1
