# generated using pymatgen
data_Ca3Dy12Nb5(ReN4)12
_symmetry_space_group_name_H-M   'P 1'
_cell_length_a   11.22374211
_cell_length_b   11.22276030
_cell_length_c   11.21861963
_cell_angle_alpha   109.75804114
_cell_angle_beta   109.53834220
_cell_angle_gamma   109.55824548
_symmetry_Int_Tables_number   1
_chemical_formula_structural   Ca3Dy12Nb5(ReN4)12
_chemical_formula_sum   'Ca3 Dy12 Nb5 Re12 N48'
_cell_volume   1081.85048551
_cell_formula_units_Z   1
loop_
 _symmetry_equiv_pos_site_id
 _symmetry_equiv_pos_as_xyz
  1  'x, y, z'
loop_
 _atom_site_type_symbol
 _atom_site_label
 _atom_site_symmetry_multiplicity
 _atom_site_fract_x
 _atom_site_fract_y
 _atom_site_fract_z
 _atom_site_occupancy
  Ca  Ca0  1  0.500000  0.000000  0.000000  1
  Ca  Ca1  1  0.500000  0.500000  0.000000  1
  Ca  Ca2  1  0.000000  0.000000  0.500000  1
  Dy  Dy3  1  0.246168  0.370634  0.124265  1
  Dy  Dy4  1  0.375190  0.752140  0.128706  1
  Dy  Dy5  1  0.371862  0.128801  0.251315  1
  Dy  Dy6  1  0.876889  0.620656  0.248361  1
  Dy  Dy7  1  0.747941  0.121682  0.374161  1
  Dy  Dy8  1  0.126751  0.253733  0.376686  1
  Dy  Dy9  1  0.873249  0.746267  0.623314  1
  Dy  Dy10  1  0.252059  0.878318  0.625839  1
  Dy  Dy11  1  0.123111  0.379344  0.751639  1
  Dy  Dy12  1  0.628138  0.871199  0.748685  1
  Dy  Dy13  1  0.624810  0.247860  0.871294  1
  Dy  Dy14  1  0.753832  0.629366  0.875735  1
  Nb  Nb15  1  0.000000  0.000000  0.000000  1
  Nb  Nb16  1  0.000000  0.500000  0.000000  1
  Nb  Nb17  1  0.500000  0.000000  0.500000  1
  Nb  Nb18  1  0.000000  0.500000  0.500000  1
  Nb  Nb19  1  0.500000  0.500000  0.500000  1
  Re  Re20  1  0.879808  0.254838  0.122698  1
  Re  Re21  1  0.756204  0.880972  0.127419  1
  Re  Re22  1  0.629264  0.377784  0.257641  1
  Re  Re23  1  0.126955  0.872529  0.249440  1
  Re  Re24  1  0.247510  0.623087  0.374438  1
  Re  Re25  1  0.618570  0.748088  0.379483  1
  Re  Re26  1  0.381429  0.251912  0.620517  1
  Re  Re27  1  0.752490  0.376913  0.625561  1
  Re  Re28  1  0.873045  0.127471  0.750559  1
  Re  Re29  1  0.370736  0.622215  0.742359  1
  Re  Re30  1  0.243795  0.119028  0.872581  1
  Re  Re31  1  0.120192  0.745161  0.877302  1
  N  N32  1  0.297850  0.895653  0.025955  1
  N  N33  1  0.210727  0.118075  0.027180  1
  N  N34  1  0.882023  0.405848  0.087593  1
  N  N35  1  0.739181  0.705783  0.103342  1
  N  N36  1  0.630537  0.397970  0.103940  1
  N  N37  1  0.984024  0.686269  0.095739  1
  N  N38  1  0.600866  0.897394  0.130567  1
  N  N39  1  0.024448  0.208062  0.121591  1
  N  N40  1  0.199827  0.585066  0.186411  1
  N  N41  1  0.464778  0.601218  0.200364  1
  N  N42  1  0.114823  0.016054  0.204557  1
  N  N43  1  0.597071  0.200309  0.234797  1
  N  N44  1  0.478409  0.385783  0.291611  1
  N  N45  1  0.315903  0.914305  0.293612  1
  N  N46  1  0.903354  0.039627  0.305207  1
  N  N47  1  0.908645  0.297390  0.308203  1
  N  N48  1  0.297426  0.482476  0.383581  1
  N  N49  1  0.593539  0.906755  0.386206  1
  N  N50  1  0.817959  0.525441  0.407322  1
  N  N51  1  0.096746  0.867409  0.396424  1
  N  N52  1  0.098959  0.616891  0.414484  1
  N  N53  1  0.791483  0.767445  0.398127  1
  N  N54  1  0.601532  0.188246  0.489581  1
  N  N55  1  0.378631  0.290311  0.470012  1
  N  N56  1  0.621369  0.709689  0.529988  1
  N  N57  1  0.398469  0.811754  0.510419  1
  N  N58  1  0.208516  0.232554  0.601872  1
  N  N59  1  0.901041  0.383110  0.585515  1
  N  N60  1  0.903254  0.132590  0.603575  1
  N  N61  1  0.182041  0.474559  0.592679  1
  N  N62  1  0.406460  0.093245  0.613795  1
  N  N63  1  0.702574  0.517524  0.616419  1
  N  N64  1  0.091355  0.702610  0.691797  1
  N  N65  1  0.096645  0.960372  0.694793  1
  N  N66  1  0.684097  0.085695  0.706388  1
  N  N67  1  0.521591  0.614217  0.708389  1
  N  N68  1  0.402928  0.799690  0.765202  1
  N  N69  1  0.885178  0.983947  0.795444  1
  N  N70  1  0.535222  0.398783  0.799636  1
  N  N71  1  0.800172  0.414933  0.813588  1
  N  N72  1  0.399133  0.102606  0.869432  1
  N  N73  1  0.975553  0.791939  0.878410  1
  N  N74  1  0.015975  0.313731  0.904260  1
  N  N75  1  0.369464  0.602029  0.896060  1
  N  N76  1  0.260819  0.294217  0.896658  1
  N  N77  1  0.117976  0.594151  0.912407  1
  N  N78  1  0.702150  0.104346  0.974044  1
  N  N79  1  0.789274  0.881926  0.972821  1
