# generated using pymatgen
data_K4TaSiH11
_symmetry_space_group_name_H-M   'P 1'
_cell_length_a   6.15027148
_cell_length_b   8.44611457
_cell_length_c   10.50261200
_cell_angle_alpha   68.80936079
_cell_angle_beta   87.77413304
_cell_angle_gamma   85.10932515
_symmetry_Int_Tables_number   1
_chemical_formula_structural   K4TaSiH11
_chemical_formula_sum   'K8 Ta2 Si2 H22'
_cell_volume   506.80699406
_cell_formula_units_Z   2
loop_
 _symmetry_equiv_pos_site_id
 _symmetry_equiv_pos_as_xyz
  1  'x, y, z'
loop_
 _atom_site_type_symbol
 _atom_site_label
 _atom_site_symmetry_multiplicity
 _atom_site_fract_x
 _atom_site_fract_y
 _atom_site_fract_z
 _atom_site_occupancy
  K  K0  1  0.750114  0.333592  0.541427  1
  K  K1  1  0.249850  0.666476  0.458538  1
  K  K2  1  0.771635  0.307718  0.029823  1
  K  K3  1  0.228453  0.692215  0.970182  1
  K  K4  1  0.769501  0.007444  0.371528  1
  K  K5  1  0.230617  0.992493  0.628488  1
  K  K6  1  0.285799  0.375048  0.806628  1
  K  K7  1  0.714099  0.624996  0.193340  1
  Ta  Ta8  1  0.762422  0.661806  0.705150  1
  Ta  Ta9  1  0.237544  0.338185  0.294856  1
  Si  Si10  1  0.697741  0.888096  0.816428  1
  Si  Si11  1  0.302314  0.111936  0.183568  1
  H  H12  1  0.540015  0.805689  0.601003  1
  H  H13  1  0.459969  0.194294  0.399014  1
  H  H14  1  0.570681  0.543748  0.648091  1
  H  H15  1  0.429268  0.456260  0.351904  1
  H  H16  1  0.566391  0.065051  0.751805  1
  H  H17  1  0.433731  0.934996  0.248147  1
  H  H18  1  0.553407  0.576670  0.843726  1
  H  H19  1  0.446555  0.423324  0.156295  1
  H  H20  1  0.852809  0.881253  0.620788  1
  H  H21  1  0.147190  0.118735  0.379218  1
  H  H22  1  0.840486  0.668484  0.525484  1
  H  H23  1  0.159491  0.331486  0.474549  1
  H  H24  1  0.901587  0.966658  0.844208  1
  H  H25  1  0.098511  0.033312  0.155825  1
  H  H26  1  0.876639  0.617283  0.879889  1
  H  H27  1  0.123341  0.382653  0.120119  1
  H  H28  1  0.869679  0.427078  0.760627  1
  H  H29  1  0.130271  0.572913  0.239375  1
  H  H30  1  0.065979  0.660051  0.696003  1
  H  H31  1  0.933950  0.339977  0.303996  1
  H  H32  1  0.597784  0.858683  0.960740  1
  H  H33  1  0.402184  0.141393  0.039238  1
