# generated using pymatgen
data_Sr2Ga3PRh4
_symmetry_space_group_name_H-M   'P 1'
_cell_length_a   8.44349449
_cell_length_b   7.34413554
_cell_length_c   5.98604370
_cell_angle_alpha   77.86945261
_cell_angle_beta   57.14496589
_cell_angle_gamma   43.87786957
_symmetry_Int_Tables_number   1
_chemical_formula_structural   Sr2Ga3PRh4
_chemical_formula_sum   'Sr2 Ga3 P1 Rh4'
_cell_volume   205.43288603
_cell_formula_units_Z   1
loop_
 _symmetry_equiv_pos_site_id
 _symmetry_equiv_pos_as_xyz
  1  'x, y, z'
loop_
 _atom_site_type_symbol
 _atom_site_label
 _atom_site_symmetry_multiplicity
 _atom_site_fract_x
 _atom_site_fract_y
 _atom_site_fract_z
 _atom_site_occupancy
  Sr  Sr0  1  0.502911  0.497089  0.502911  1
  Sr  Sr1  1  0.751068  0.748932  0.751068  1
  Ga  Ga2  1  0.182054  0.817946  0.182054  1
  Ga  Ga3  1  0.433435  0.066565  0.433435  1
  Ga  Ga4  1  0.069691  0.430309  0.069691  1
  P  P5  1  0.822096  0.177904  0.822096  1
  Rh  Rh6  1  0.091329  0.132296  0.892312  1
  Rh  Rh7  1  0.892312  0.884063  0.091329  1
  Rh  Rh8  1  0.112604  0.139862  0.392499  1
  Rh  Rh9  1  0.392499  0.355035  0.112604  1
