# generated using pymatgen
data_Tm9Lu3InCo4Ru
_symmetry_space_group_name_H-M   'P 1'
_cell_length_a   8.14028247
_cell_length_b   8.14371337
_cell_length_c   8.14371421
_cell_angle_alpha   111.15958141
_cell_angle_beta   111.19563212
_cell_angle_gamma   106.12591172
_symmetry_Int_Tables_number   1
_chemical_formula_structural   Tm9Lu3InCo4Ru
_chemical_formula_sum   'Tm9 Lu3 In1 Co4 Ru1'
_cell_volume   414.44553042
_cell_formula_units_Z   1
loop_
 _symmetry_equiv_pos_site_id
 _symmetry_equiv_pos_as_xyz
  1  'x, y, z'
loop_
 _atom_site_type_symbol
 _atom_site_label
 _atom_site_symmetry_multiplicity
 _atom_site_fract_x
 _atom_site_fract_y
 _atom_site_fract_z
 _atom_site_occupancy
  Tm  Tm0  1  0.972674  0.779380  0.193294  1
  Tm  Tm1  1  0.184471  0.282019  0.466160  1
  Tm  Tm2  1  0.815617  0.718413  0.534331  1
  Tm  Tm3  1  0.184471  0.718312  0.902453  1
  Tm  Tm4  1  0.815617  0.281286  0.097204  1
  Tm  Tm5  1  0.314347  0.619398  0.305960  1
  Tm  Tm6  1  0.685755  0.380118  0.693828  1
  Tm  Tm7  1  0.314347  0.008386  0.694948  1
  Tm  Tm8  1  0.685755  0.991928  0.305637  1
  Lu  Lu9  1  0.413865  0.220449  0.193415  1
  Lu  Lu10  1  0.585823  0.779649  0.806175  1
  Lu  Lu11  1  0.026675  0.219967  0.806708  1
  In  In12  1  0.499789  0.499929  0.999861  1
  Co  Co13  1  0.374750  0.000164  0.374586  1
  Co  Co14  1  0.625762  0.000136  0.625626  1
  Co  Co15  1  0.112289  0.612139  0.500150  1
  Co  Co16  1  0.887922  0.387768  0.500153  1
  Ru  Ru17  1  0.000070  0.000559  0.999511  1
