# generated using pymatgen
data_Lu20ZnBi10Au
_symmetry_space_group_name_H-M   'P 1'
_cell_length_a   8.04029910
_cell_length_b   9.32104700
_cell_length_c   11.73939333
_cell_angle_alpha   90.00000000
_cell_angle_beta   90.08509139
_cell_angle_gamma   90.00000000
_symmetry_Int_Tables_number   1
_chemical_formula_structural   Lu20ZnBi10Au
_chemical_formula_sum   'Lu20 Zn1 Bi10 Au1'
_cell_volume   879.79619184
_cell_formula_units_Z   1
loop_
 _symmetry_equiv_pos_site_id
 _symmetry_equiv_pos_as_xyz
  1  'x, y, z'
loop_
 _atom_site_type_symbol
 _atom_site_label
 _atom_site_symmetry_multiplicity
 _atom_site_fract_x
 _atom_site_fract_y
 _atom_site_fract_z
 _atom_site_occupancy
  Lu  Lu0  1  0.035454  0.250000  0.507703  1
  Lu  Lu1  1  0.983237  0.750000  0.491427  1
  Lu  Lu2  1  0.482799  0.750000  0.009234  1
  Lu  Lu3  1  0.540551  0.250000  0.990388  1
  Lu  Lu4  1  0.351638  0.250000  0.297553  1
  Lu  Lu5  1  0.654935  0.750000  0.718229  1
  Lu  Lu6  1  0.153973  0.750000  0.780685  1
  Lu  Lu7  1  0.853493  0.250000  0.202634  1
  Lu  Lu8  1  0.177800  0.250000  0.789070  1
  Lu  Lu9  1  0.807926  0.750000  0.216507  1
  Lu  Lu10  1  0.309500  0.750000  0.283816  1
  Lu  Lu11  1  0.679402  0.250000  0.710999  1
  Lu  Lu12  1  0.185617  0.073126  0.056592  1
  Lu  Lu13  1  0.810376  0.951691  0.941364  1
  Lu  Lu14  1  0.309506  0.952225  0.557076  1
  Lu  Lu15  1  0.810376  0.548309  0.941364  1
  Lu  Lu16  1  0.684430  0.072932  0.444800  1
  Lu  Lu17  1  0.185617  0.426874  0.056592  1
  Lu  Lu18  1  0.684430  0.427068  0.444800  1
  Lu  Lu19  1  0.309506  0.547775  0.557076  1
  Zn  Zn20  1  0.408395  0.250000  0.541217  1
  Bi  Bi21  1  0.597320  0.750000  0.458639  1
  Bi  Bi22  1  0.097391  0.750000  0.041351  1
  Bi  Bi23  1  0.056493  0.001997  0.322558  1
  Bi  Bi24  1  0.939465  0.998499  0.677077  1
  Bi  Bi25  1  0.438207  0.998458  0.821401  1
  Bi  Bi26  1  0.939465  0.501501  0.677077  1
  Bi  Bi27  1  0.554737  0.002133  0.178034  1
  Bi  Bi28  1  0.056493  0.498003  0.322558  1
  Bi  Bi29  1  0.554737  0.497867  0.178034  1
  Bi  Bi30  1  0.438207  0.501542  0.821401  1
  Au  Au31  1  0.908520  0.250000  0.962745  1
