# generated using pymatgen
data_LiMn5(AlPt2)6
_symmetry_space_group_name_H-M   'P 1'
_cell_length_a   4.05995400
_cell_length_b   7.08560400
_cell_length_c   12.17310200
_cell_angle_alpha   90.00000000
_cell_angle_beta   90.00027292
_cell_angle_gamma   90.00000000
_symmetry_Int_Tables_number   1
_chemical_formula_structural   LiMn5(AlPt2)6
_chemical_formula_sum   'Li1 Mn5 Al6 Pt12'
_cell_volume   350.18638003
_cell_formula_units_Z   1
loop_
 _symmetry_equiv_pos_site_id
 _symmetry_equiv_pos_as_xyz
  1  'x, y, z'
loop_
 _atom_site_type_symbol
 _atom_site_label
 _atom_site_symmetry_multiplicity
 _atom_site_fract_x
 _atom_site_fract_y
 _atom_site_fract_z
 _atom_site_occupancy
  Li  Li0  1  0.500139  0.500001  0.833358  1
  Mn  Mn1  1  0.999953  0.000000  0.997932  1
  Mn  Mn2  1  0.499829  0.500001  0.165244  1
  Mn  Mn3  1  0.999944  0.000000  0.333180  1
  Mn  Mn4  1  0.499978  0.500001  0.501439  1
  Mn  Mn5  1  0.000153  0.000000  0.668766  1
  Al  Al6  1  0.000002  0.500001  0.997446  1
  Al  Al7  1  0.499855  0.000000  0.165245  1
  Al  Al8  1  0.999878  0.500001  0.333327  1
  Al  Al9  1  0.499997  0.000000  0.501506  1
  Al  Al10  1  0.000139  0.500001  0.669231  1
  Al  Al11  1  0.500123  0.000000  0.833303  1
  Pt  Pt12  1  0.499999  0.251597  0.999118  1
  Pt  Pt13  1  0.499999  0.748404  0.999118  1
  Pt  Pt14  1  0.999912  0.249532  0.165908  1
  Pt  Pt15  1  0.999912  0.750469  0.165908  1
  Pt  Pt16  1  0.499899  0.250605  0.333298  1
  Pt  Pt17  1  0.499899  0.749395  0.333298  1
  Pt  Pt18  1  0.000001  0.249593  0.500781  1
  Pt  Pt19  1  0.000001  0.750407  0.500781  1
  Pt  Pt20  1  0.500090  0.251734  0.667543  1
  Pt  Pt21  1  0.500090  0.748266  0.667543  1
  Pt  Pt22  1  0.000102  0.254538  0.833363  1
  Pt  Pt23  1  0.000102  0.745463  0.833363  1
