# generated using pymatgen
data_Er3TmTcRu7
_symmetry_space_group_name_H-M   'P 1'
_cell_length_a   5.19085011
_cell_length_b   5.36671908
_cell_length_c   8.95027401
_cell_angle_alpha   90.00000352
_cell_angle_beta   90.00410372
_cell_angle_gamma   121.12723786
_symmetry_Int_Tables_number   1
_chemical_formula_structural   Er3TmTcRu7
_chemical_formula_sum   'Er3 Tm1 Tc1 Ru7'
_cell_volume   213.43631736
_cell_formula_units_Z   1
loop_
 _symmetry_equiv_pos_site_id
 _symmetry_equiv_pos_as_xyz
  1  'x, y, z'
loop_
 _atom_site_type_symbol
 _atom_site_label
 _atom_site_symmetry_multiplicity
 _atom_site_fract_x
 _atom_site_fract_y
 _atom_site_fract_z
 _atom_site_occupancy
  Er  Er0  1  0.327985  0.663992  0.433075  1
  Er  Er1  1  0.656194  0.328097  0.565699  1
  Er  Er2  1  0.656310  0.328154  0.934702  1
  Tm  Tm3  1  0.328443  0.664222  0.066933  1
  Tc  Tc4  1  0.683908  0.841954  0.750208  1
  Ru  Ru5  1  0.980601  0.990301  0.499328  1
  Ru  Ru6  1  0.980346  0.990173  0.000719  1
  Ru  Ru7  1  0.835305  0.167786  0.249583  1
  Ru  Ru8  1  0.835305  0.667519  0.249583  1
  Ru  Ru9  1  0.354825  0.177413  0.249645  1
  Ru  Ru10  1  0.180389  0.827240  0.750263  1
  Ru  Ru11  1  0.180389  0.353149  0.750263  1
