# generated using pymatgen
data_LaAlCuSi
_symmetry_space_group_name_H-M   'P 1'
_cell_length_a   9.17193813
_cell_length_b   9.17193696
_cell_length_c   4.14627700
_cell_angle_alpha   90.00000000
_cell_angle_beta   90.00000000
_cell_angle_gamma   153.16593876
_symmetry_Int_Tables_number   1
_chemical_formula_structural   LaAlCuSi
_chemical_formula_sum   'La2 Al2 Cu2 Si2'
_cell_volume   157.45259559
_cell_formula_units_Z   2
loop_
 _symmetry_equiv_pos_site_id
 _symmetry_equiv_pos_as_xyz
  1  'x, y, z'
loop_
 _atom_site_type_symbol
 _atom_site_label
 _atom_site_symmetry_multiplicity
 _atom_site_fract_x
 _atom_site_fract_y
 _atom_site_fract_z
 _atom_site_occupancy
  La  La0  1  0.098480  0.901520  0.250000  1
  La  La1  1  0.901520  0.098480  0.750000  1
  Al  Al2  1  0.751220  0.248780  0.250000  1
  Al  Al3  1  0.248780  0.751220  0.750000  1
  Cu  Cu4  1  0.669781  0.330219  0.750000  1
  Cu  Cu5  1  0.330219  0.669781  0.250000  1
  Si  Si6  1  0.536281  0.463719  0.750000  1
  Si  Si7  1  0.463719  0.536281  0.250000  1
