# generated using pymatgen
data_Hf5Zr5ZnGaSn6
_symmetry_space_group_name_H-M   'P 1'
_cell_length_a   8.69030014
_cell_length_b   8.68796420
_cell_length_c   5.87027211
_cell_angle_alpha   90.02183114
_cell_angle_beta   89.98908955
_cell_angle_gamma   119.99111386
_symmetry_Int_Tables_number   1
_chemical_formula_structural   Hf5Zr5ZnGaSn6
_chemical_formula_sum   'Hf5 Zr5 Zn1 Ga1 Sn6'
_cell_volume   383.86676492
_cell_formula_units_Z   1
loop_
 _symmetry_equiv_pos_site_id
 _symmetry_equiv_pos_as_xyz
  1  'x, y, z'
loop_
 _atom_site_type_symbol
 _atom_site_label
 _atom_site_symmetry_multiplicity
 _atom_site_fract_x
 _atom_site_fract_y
 _atom_site_fract_z
 _atom_site_occupancy
  Hf  Hf0  1  0.000000  0.732055  0.251381  1
  Hf  Hf1  1  0.666929  0.333666  0.000253  1
  Hf  Hf2  1  0.333071  0.666738  0.000253  1
  Hf  Hf3  1  0.333038  0.666685  0.499745  1
  Hf  Hf4  1  0.666962  0.333646  0.499745  1
  Zr  Zr5  1  0.732955  0.732592  0.748764  1
  Zr  Zr6  1  0.267045  0.999636  0.748764  1
  Zr  Zr7  1  0.000000  0.267405  0.748627  1
  Zr  Zr8  1  0.267564  0.267773  0.251172  1
  Zr  Zr9  1  0.732436  0.000208  0.251172  1
  Zn  Zn10  1  0.000000  0.999463  0.000599  1
  Ga  Ga11  1  0.000000  0.999634  0.499493  1
  Sn  Sn12  1  0.386810  0.386829  0.749739  1
  Sn  Sn13  1  0.613190  0.000019  0.749739  1
  Sn  Sn14  1  0.000000  0.613096  0.749728  1
  Sn  Sn15  1  0.613715  0.613315  0.250280  1
  Sn  Sn16  1  0.386285  0.999601  0.250280  1
  Sn  Sn17  1  0.000000  0.387637  0.250264  1
