# generated using pymatgen
data_Cs6Co3RhBr18
_symmetry_space_group_name_H-M   'P 1'
_cell_length_a   7.67605700
_cell_length_b   7.67605730
_cell_length_c   19.33139700
_cell_angle_alpha   90.00000000
_cell_angle_beta   90.00000000
_cell_angle_gamma   119.99999439
_symmetry_Int_Tables_number   1
_chemical_formula_structural   Cs6Co3RhBr18
_chemical_formula_sum   'Cs6 Co3 Rh1 Br18'
_cell_volume   986.43913834
_cell_formula_units_Z   1
loop_
 _symmetry_equiv_pos_site_id
 _symmetry_equiv_pos_as_xyz
  1  'x, y, z'
loop_
 _atom_site_type_symbol
 _atom_site_label
 _atom_site_symmetry_multiplicity
 _atom_site_fract_x
 _atom_site_fract_y
 _atom_site_fract_z
 _atom_site_occupancy
  Cs  Cs0  1  0.666667  0.333333  0.569375  1
  Cs  Cs1  1  0.333333  0.666667  0.070936  1
  Cs  Cs2  1  0.333333  0.666667  0.428889  1
  Cs  Cs3  1  0.666667  0.333333  0.931295  1
  Cs  Cs4  1  0.000000  0.000000  0.250278  1
  Cs  Cs5  1  0.000000  0.000000  0.749359  1
  Co  Co6  1  0.666667  0.333333  0.331618  1
  Co  Co7  1  0.333333  0.666667  0.834049  1
  Co  Co8  1  0.666667  0.333333  0.168203  1
  Rh  Rh9  1  0.333333  0.666667  0.667139  1
  Br  Br10  1  0.815299  0.630598  0.401360  1
  Br  Br11  1  0.179525  0.820475  0.593627  1
  Br  Br12  1  0.640950  0.820475  0.593627  1
  Br  Br13  1  0.815299  0.184701  0.401360  1
  Br  Br14  1  0.369402  0.184701  0.401360  1
  Br  Br15  1  0.184620  0.369241  0.903489  1
  Br  Br16  1  0.043643  0.521821  0.752814  1
  Br  Br17  1  0.630759  0.815380  0.903489  1
  Br  Br18  1  0.815520  0.631038  0.098462  1
  Br  Br19  1  0.179525  0.359050  0.593627  1
  Br  Br20  1  0.478179  0.956357  0.752814  1
  Br  Br21  1  0.524785  0.475215  0.249865  1
  Br  Br22  1  0.478179  0.521821  0.752814  1
  Br  Br23  1  0.184620  0.815380  0.903489  1
  Br  Br24  1  0.368962  0.184480  0.098462  1
  Br  Br25  1  0.950431  0.475215  0.249865  1
  Br  Br26  1  0.524785  0.049569  0.249865  1
  Br  Br27  1  0.815520  0.184480  0.098462  1
