# generated using pymatgen
data_Sr4Yb3Sm3Pt8
_symmetry_space_group_name_H-M   'P 1'
_cell_length_a   7.74535100
_cell_length_b   7.86160666
_cell_length_c   15.07043613
_cell_angle_alpha   90.07419038
_cell_angle_beta   90.00000000
_cell_angle_gamma   90.00000000
_symmetry_Int_Tables_number   1
_chemical_formula_structural   Sr4Yb3Sm3Pt8
_chemical_formula_sum   'Sr8 Yb6 Sm6 Pt16'
_cell_volume   917.65169565
_cell_formula_units_Z   2
loop_
 _symmetry_equiv_pos_site_id
 _symmetry_equiv_pos_as_xyz
  1  'x, y, z'
loop_
 _atom_site_type_symbol
 _atom_site_label
 _atom_site_symmetry_multiplicity
 _atom_site_fract_x
 _atom_site_fract_y
 _atom_site_fract_z
 _atom_site_occupancy
  Sr  Sr0  1  0.499518  0.325331  0.901986  1
  Sr  Sr1  1  0.999518  0.174669  0.598014  1
  Sr  Sr2  1  0.500572  0.678611  0.405187  1
  Sr  Sr3  1  0.000572  0.821389  0.094813  1
  Sr  Sr4  1  0.501842  0.677637  0.096314  1
  Sr  Sr5  1  0.001842  0.822363  0.403686  1
  Sr  Sr6  1  0.498351  0.322175  0.598581  1
  Sr  Sr7  1  0.998351  0.177825  0.901419  1
  Yb  Yb8  1  0.339668  0.832424  0.623872  1
  Yb  Yb9  1  0.839668  0.667576  0.876128  1
  Yb  Yb10  1  0.177585  0.494463  0.749889  1
  Yb  Yb11  1  0.677585  0.005537  0.750111  1
  Yb  Yb12  1  0.821553  0.510005  0.249957  1
  Yb  Yb13  1  0.321553  0.989995  0.250043  1
  Sm  Sm14  1  0.339797  0.833228  0.875930  1
  Sm  Sm15  1  0.839797  0.666772  0.624070  1
  Sm  Sm16  1  0.660042  0.167719  0.376477  1
  Sm  Sm17  1  0.160042  0.332281  0.123523  1
  Sm  Sm18  1  0.661582  0.167715  0.122691  1
  Sm  Sm19  1  0.161582  0.332285  0.377309  1
  Pt  Pt20  1  0.332667  0.041830  0.043736  1
  Pt  Pt21  1  0.832667  0.458170  0.456264  1
  Pt  Pt22  1  0.664940  0.958134  0.543391  1
  Pt  Pt23  1  0.164940  0.541866  0.956609  1
  Pt  Pt24  1  0.663402  0.961462  0.956574  1
  Pt  Pt25  1  0.163402  0.538538  0.543426  1
  Pt  Pt26  1  0.337921  0.042802  0.456060  1
  Pt  Pt27  1  0.837921  0.457198  0.043940  1
  Pt  Pt28  1  0.545218  0.631061  0.752269  1
  Pt  Pt29  1  0.045218  0.868939  0.747731  1
  Pt  Pt30  1  0.457365  0.370138  0.249409  1
  Pt  Pt31  1  0.957365  0.129862  0.250591  1
  Pt  Pt32  1  0.302114  0.122517  0.751603  1
  Pt  Pt33  1  0.802114  0.377483  0.748397  1
  Pt  Pt34  1  0.695862  0.878409  0.249866  1
  Pt  Pt35  1  0.195862  0.621591  0.250134  1
