# generated using pymatgen
data_Ca8LuScSn6
_symmetry_space_group_name_H-M   'P 1'
_cell_length_a   9.23606666
_cell_length_b   9.23613318
_cell_length_c   9.23606654
_cell_angle_alpha   96.87097570
_cell_angle_beta   96.86815038
_cell_angle_gamma   139.53254685
_symmetry_Int_Tables_number   1
_chemical_formula_structural   Ca8LuScSn6
_chemical_formula_sum   'Ca8 Lu1 Sc1 Sn6'
_cell_volume   479.79770812
_cell_formula_units_Z   1
loop_
 _symmetry_equiv_pos_site_id
 _symmetry_equiv_pos_as_xyz
  1  'x, y, z'
loop_
 _atom_site_type_symbol
 _atom_site_label
 _atom_site_symmetry_multiplicity
 _atom_site_fract_x
 _atom_site_fract_y
 _atom_site_fract_z
 _atom_site_occupancy
  Ca  Ca0  1  0.083672  0.212657  0.296857  1
  Ca  Ca1  1  0.915802  0.786817  0.703142  1
  Ca  Ca2  1  0.787337  0.084190  0.871014  1
  Ca  Ca3  1  0.416325  0.713183  0.128984  1
  Ca  Ca4  1  0.213183  0.916330  0.128984  1
  Ca  Ca5  1  0.584200  0.287343  0.871015  1
  Ca  Ca6  1  0.712655  0.583670  0.296854  1
  Ca  Ca7  1  0.286824  0.415810  0.703147  1
  Lu  Lu8  1  0.249993  0.750000  0.499993  1
  Sc  Sc9  1  0.750012  0.250000  0.500012  1
  Sn  Sn10  1  0.143951  0.643951  0.796069  1
  Sn  Sn11  1  0.847878  0.347878  0.203928  1
  Sn  Sn12  1  0.356050  0.152122  0.500001  1
  Sn  Sn13  1  0.652118  0.856049  0.500000  1
  Sn  Sn14  1  0.249999  0.250000  0.999999  1
  Sn  Sn15  1  0.750001  0.750000  0.000001  1
