# generated using pymatgen
data_Yb4P2Se
_symmetry_space_group_name_H-M   'P 1'
_cell_length_a   7.54647813
_cell_length_b   7.54647649
_cell_length_c   7.54647783
_cell_angle_alpha   109.43249856
_cell_angle_beta   109.43249429
_cell_angle_gamma   109.54869336
_symmetry_Int_Tables_number   1
_chemical_formula_structural   Yb4P2Se
_chemical_formula_sum   'Yb8 P4 Se2'
_cell_volume   330.83418113
_cell_formula_units_Z   2
loop_
 _symmetry_equiv_pos_site_id
 _symmetry_equiv_pos_as_xyz
  1  'x, y, z'
loop_
 _atom_site_type_symbol
 _atom_site_label
 _atom_site_symmetry_multiplicity
 _atom_site_fract_x
 _atom_site_fract_y
 _atom_site_fract_z
 _atom_site_occupancy
  Yb  Yb0  1  0.636378  0.885618  0.893441  1
  Yb  Yb1  1  0.257064  0.363622  0.249240  1
  Yb  Yb2  1  0.114382  0.007824  0.750760  1
  Yb  Yb3  1  0.492936  0.242176  0.606559  1
  Yb  Yb4  1  0.113622  0.507064  0.749240  1
  Yb  Yb5  1  0.757824  0.364382  0.250760  1
  Yb  Yb6  1  0.992176  0.742936  0.106559  1
  Yb  Yb7  1  0.635618  0.886378  0.393441  1
  P  P8  1  0.375000  0.993794  0.118794  1
  P  P9  1  0.006206  0.125000  0.381206  1
  P  P10  1  0.875000  0.256206  0.881206  1
  P  P11  1  0.743794  0.625000  0.618794  1
  Se  Se12  1  0.500000  0.500000  0.000000  1
  Se  Se13  1  0.250000  0.750000  0.500000  1
