# generated using pymatgen
data_Sr14(SnSb4)3
_symmetry_space_group_name_H-M   'P 1'
_cell_length_a   10.12015080
_cell_length_b   10.12015084
_cell_length_c   10.12015081
_cell_angle_alpha   87.77634556
_cell_angle_beta   87.77634853
_cell_angle_gamma   87.77633577
_symmetry_Int_Tables_number   1
_chemical_formula_structural   Sr14(SnSb4)3
_chemical_formula_sum   'Sr14 Sn3 Sb12'
_cell_volume   1034.19751169
_cell_formula_units_Z   1
loop_
 _symmetry_equiv_pos_site_id
 _symmetry_equiv_pos_as_xyz
  1  'x, y, z'
loop_
 _atom_site_type_symbol
 _atom_site_label
 _atom_site_symmetry_multiplicity
 _atom_site_fract_x
 _atom_site_fract_y
 _atom_site_fract_z
 _atom_site_occupancy
  Sr  Sr0  1  0.416090  0.269964  0.770437  1
  Sr  Sr1  1  0.770437  0.416090  0.269964  1
  Sr  Sr2  1  0.269964  0.770437  0.416090  1
  Sr  Sr3  1  0.985248  0.536674  0.654132  1
  Sr  Sr4  1  0.654132  0.985248  0.536674  1
  Sr  Sr5  1  0.536674  0.654132  0.985248  1
  Sr  Sr6  1  0.179339  0.531734  0.021408  1
  Sr  Sr7  1  0.021408  0.179339  0.531734  1
  Sr  Sr8  1  0.531734  0.021408  0.179339  1
  Sr  Sr9  1  0.764794  0.260916  0.912072  1
  Sr  Sr10  1  0.912072  0.764794  0.260916  1
  Sr  Sr11  1  0.260916  0.912072  0.764794  1
  Sr  Sr12  1  0.185139  0.185139  0.185139  1
  Sr  Sr13  1  0.403709  0.403709  0.403709  1
  Sn  Sn14  1  0.997168  0.997168  0.997168  1
  Sn  Sn15  1  0.837196  0.837196  0.837196  1
  Sn  Sn16  1  0.612602  0.612602  0.612602  1
  Sb  Sb17  1  0.704843  0.327467  0.587547  1
  Sb  Sb18  1  0.587547  0.704843  0.327467  1
  Sb  Sb19  1  0.327467  0.587547  0.704843  1
  Sb  Sb20  1  0.583347  0.968973  0.861180  1
  Sb  Sb21  1  0.861180  0.583347  0.968973  1
  Sb  Sb22  1  0.968973  0.861180  0.583347  1
  Sb  Sb23  1  0.474190  0.342636  0.085556  1
  Sb  Sb24  1  0.085556  0.474190  0.342636  1
  Sb  Sb25  1  0.342636  0.085556  0.474190  1
  Sb  Sb26  1  0.097537  0.229227  0.853604  1
  Sb  Sb27  1  0.853604  0.097537  0.229227  1
  Sb  Sb28  1  0.229227  0.853604  0.097537  1
