# generated using pymatgen
data_Y15Tm5Si15Pt
_symmetry_space_group_name_H-M   'P 1'
_cell_length_a   7.36947124
_cell_length_b   7.70945135
_cell_length_c   14.57604285
_cell_angle_alpha   90.02578421
_cell_angle_beta   90.02934105
_cell_angle_gamma   90.09696095
_symmetry_Int_Tables_number   1
_chemical_formula_structural   Y15Tm5Si15Pt
_chemical_formula_sum   'Y15 Tm5 Si15 Pt1'
_cell_volume   828.13037398
_cell_formula_units_Z   1
loop_
 _symmetry_equiv_pos_site_id
 _symmetry_equiv_pos_as_xyz
  1  'x, y, z'
loop_
 _atom_site_type_symbol
 _atom_site_label
 _atom_site_symmetry_multiplicity
 _atom_site_fract_x
 _atom_site_fract_y
 _atom_site_fract_z
 _atom_site_occupancy
  Y  Y0  1  0.186703  0.323630  0.876395  1
  Y  Y1  1  0.317930  0.820117  0.123568  1
  Y  Y2  1  0.817432  0.677904  0.376332  1
  Y  Y3  1  0.318072  0.820360  0.376667  1
  Y  Y4  1  0.817351  0.677891  0.123890  1
  Y  Y5  1  0.679869  0.178920  0.876552  1
  Y  Y6  1  0.186809  0.323441  0.623458  1
  Y  Y7  1  0.525182  0.681731  0.594559  1
  Y  Y8  1  0.026900  0.817747  0.904012  1
  Y  Y9  1  0.473320  0.316151  0.097748  1
  Y  Y10  1  0.972818  0.182612  0.402381  1
  Y  Y11  1  0.473685  0.316308  0.402532  1
  Y  Y12  1  0.972977  0.182573  0.097751  1
  Y  Y13  1  0.525138  0.681948  0.905309  1
  Y  Y14  1  0.026729  0.817790  0.595828  1
  Tm  Tm15  1  0.678555  0.179836  0.623962  1
  Tm  Tm16  1  0.843424  0.509641  0.749707  1
  Tm  Tm17  1  0.355819  0.984900  0.749809  1
  Tm  Tm18  1  0.148869  0.485572  0.249982  1
  Tm  Tm19  1  0.648868  0.013161  0.250038  1
  Si  Si20  1  0.647553  0.972989  0.459701  1
  Si  Si21  1  0.146220  0.527469  0.040621  1
  Si  Si22  1  0.351657  0.026154  0.960020  1
  Si  Si23  1  0.851201  0.470994  0.540390  1
  Si  Si24  1  0.353120  0.026513  0.540405  1
  Si  Si25  1  0.852347  0.472509  0.959826  1
  Si  Si26  1  0.646785  0.972089  0.041194  1
  Si  Si27  1  0.146172  0.527347  0.459431  1
  Si  Si28  1  0.980539  0.101374  0.749252  1
  Si  Si29  1  0.519925  0.602604  0.250038  1
  Si  Si30  1  0.019907  0.896337  0.250055  1
  Si  Si31  1  0.739949  0.875114  0.749407  1
  Si  Si32  1  0.228824  0.632338  0.750004  1
  Si  Si33  1  0.267788  0.128641  0.250027  1
  Si  Si34  1  0.767648  0.371097  0.250018  1
  Pt  Pt35  1  0.483913  0.404198  0.749130  1
