# generated using pymatgen
data_TbY2MnCrC6
_symmetry_space_group_name_H-M   'P 1'
_cell_length_a   8.12400600
_cell_length_b   8.12317463
_cell_length_c   5.01112600
_cell_angle_alpha   89.99980335
_cell_angle_beta   90.00011359
_cell_angle_gamma   120.00687769
_symmetry_Int_Tables_number   1
_chemical_formula_structural   TbY2MnCrC6
_chemical_formula_sum   'Tb2 Y4 Mn2 Cr2 C12'
_cell_volume   286.37287341
_cell_formula_units_Z   2
loop_
 _symmetry_equiv_pos_site_id
 _symmetry_equiv_pos_as_xyz
  1  'x, y, z'
loop_
 _atom_site_type_symbol
 _atom_site_label
 _atom_site_symmetry_multiplicity
 _atom_site_fract_x
 _atom_site_fract_y
 _atom_site_fract_z
 _atom_site_occupancy
  Tb  Tb0  1  0.063474  0.379188  0.749997  1
  Tb  Tb1  1  0.379222  0.315699  0.250001  1
  Y  Y2  1  0.621153  0.684592  0.749995  1
  Y  Y3  1  0.936640  0.621081  0.250006  1
  Y  Y4  1  0.684468  0.063362  0.250005  1
  Y  Y5  1  0.315668  0.936667  0.749995  1
  Mn  Mn6  1  0.666629  0.333265  0.749999  1
  Mn  Mn7  1  0.333355  0.666695  0.249998  1
  Cr  Cr8  1  0.000059  0.000074  0.499972  1
  Cr  Cr9  1  0.000031  0.000049  0.000032  1
  C  C10  1  0.962085  0.771032  0.749996  1
  C  C11  1  0.190617  0.961792  0.250004  1
  C  C12  1  0.771040  0.808941  0.250004  1
  C  C13  1  0.228843  0.190637  0.749997  1
  C  C14  1  0.809051  0.037916  0.749996  1
  C  C15  1  0.037897  0.228834  0.250004  1
  C  C16  1  0.864176  0.576396  0.749999  1
  C  C17  1  0.288037  0.864553  0.250003  1
  C  C18  1  0.576404  0.712181  0.250002  1
  C  C19  1  0.423555  0.287897  0.749999  1
  C  C20  1  0.135724  0.423677  0.250001  1
  C  C21  1  0.711870  0.135471  0.749998  1
