# generated using pymatgen
data_Sc3PO
_symmetry_space_group_name_H-M   'P 1'
_cell_length_a   5.68262749
_cell_length_b   5.68262773
_cell_length_c   8.24961000
_cell_angle_alpha   90.00000000
_cell_angle_beta   90.00000000
_cell_angle_gamma   144.05902872
_symmetry_Int_Tables_number   1
_chemical_formula_structural   Sc3PO
_chemical_formula_sum   'Sc6 P2 O2'
_cell_volume   156.36300024
_cell_formula_units_Z   2
loop_
 _symmetry_equiv_pos_site_id
 _symmetry_equiv_pos_as_xyz
  1  'x, y, z'
loop_
 _atom_site_type_symbol
 _atom_site_label
 _atom_site_symmetry_multiplicity
 _atom_site_fract_x
 _atom_site_fract_y
 _atom_site_fract_z
 _atom_site_occupancy
  Sc  Sc0  1  0.936045  0.063955  0.250000  1
  Sc  Sc1  1  0.063955  0.936045  0.750000  1
  Sc  Sc2  1  0.632044  0.367956  0.447906  1
  Sc  Sc3  1  0.367956  0.632044  0.552094  1
  Sc  Sc4  1  0.632044  0.367956  0.052094  1
  Sc  Sc5  1  0.367956  0.632044  0.947906  1
  P  P6  1  0.250354  0.749646  0.250000  1
  P  P7  1  0.749646  0.250354  0.750000  1
  O  O8  1  0.000000  0.000000  0.500000  1
  O  O9  1  0.000000  0.000000  0.000000  1
