# generated using pymatgen
data_Cs2Tc2OF10
_symmetry_space_group_name_H-M   'P 1'
_cell_length_a   5.38726500
_cell_length_b   7.68001882
_cell_length_c   14.18198624
_cell_angle_alpha   78.46323930
_cell_angle_beta   90.00000000
_cell_angle_gamma   90.00000000
_symmetry_Int_Tables_number   1
_chemical_formula_structural   Cs2Tc2OF10
_chemical_formula_sum   'Cs4 Tc4 O2 F20'
_cell_volume   574.91495555
_cell_formula_units_Z   2
loop_
 _symmetry_equiv_pos_site_id
 _symmetry_equiv_pos_as_xyz
  1  'x, y, z'
loop_
 _atom_site_type_symbol
 _atom_site_label
 _atom_site_symmetry_multiplicity
 _atom_site_fract_x
 _atom_site_fract_y
 _atom_site_fract_z
 _atom_site_occupancy
  Cs  Cs0  1  0.411348  0.231207  0.591847  1
  Cs  Cs1  1  0.588652  0.231207  0.091847  1
  Cs  Cs2  1  0.588652  0.768793  0.408153  1
  Cs  Cs3  1  0.411348  0.768793  0.908153  1
  Tc  Tc4  1  0.014620  0.293270  0.334831  1
  Tc  Tc5  1  0.985380  0.293270  0.834831  1
  Tc  Tc6  1  0.014620  0.706730  0.165169  1
  Tc  Tc7  1  0.985380  0.706730  0.665169  1
  O  O8  1  0.075078  0.500000  0.750000  1
  O  O9  1  0.924922  0.500000  0.250000  1
  F  F10  1  0.723175  0.840515  0.184543  1
  F  F11  1  0.687991  0.588967  0.634464  1
  F  F12  1  0.164590  0.790413  0.271109  1
  F  F13  1  0.851748  0.086990  0.917319  1
  F  F14  1  0.312009  0.411033  0.365536  1
  F  F15  1  0.148252  0.913010  0.082681  1
  F  F16  1  0.164590  0.209587  0.228891  1
  F  F17  1  0.276825  0.840515  0.684543  1
  F  F18  1  0.835410  0.209587  0.728891  1
  F  F19  1  0.687991  0.411033  0.865536  1
  F  F20  1  0.148252  0.086990  0.417319  1
  F  F21  1  0.143178  0.359726  0.945019  1
  F  F22  1  0.276825  0.159485  0.815457  1
  F  F23  1  0.856822  0.640274  0.054981  1
  F  F24  1  0.835410  0.790413  0.771109  1
  F  F25  1  0.723175  0.159485  0.315457  1
  F  F26  1  0.851748  0.913010  0.582681  1
  F  F27  1  0.856822  0.359726  0.445019  1
  F  F28  1  0.312009  0.588967  0.134464  1
  F  F29  1  0.143178  0.640274  0.554981  1
