# generated using pymatgen
data_Pr4Ho3Lu3Sn8
_symmetry_space_group_name_H-M   'P 1'
_cell_length_a   8.03980600
_cell_length_b   8.26066753
_cell_length_c   15.54992899
_cell_angle_alpha   89.95896583
_cell_angle_beta   90.00000000
_cell_angle_gamma   90.00000000
_symmetry_Int_Tables_number   1
_chemical_formula_structural   Pr4Ho3Lu3Sn8
_chemical_formula_sum   'Pr8 Ho6 Lu6 Sn16'
_cell_volume   1032.73527547
_cell_formula_units_Z   2
loop_
 _symmetry_equiv_pos_site_id
 _symmetry_equiv_pos_as_xyz
  1  'x, y, z'
loop_
 _atom_site_type_symbol
 _atom_site_label
 _atom_site_symmetry_multiplicity
 _atom_site_fract_x
 _atom_site_fract_y
 _atom_site_fract_z
 _atom_site_occupancy
  Pr  Pr0  1  0.509354  0.324456  0.903686  1
  Pr  Pr1  1  0.009354  0.175544  0.596314  1
  Pr  Pr2  1  0.490743  0.675741  0.404160  1
  Pr  Pr3  1  0.990743  0.824259  0.095840  1
  Pr  Pr4  1  0.490813  0.675761  0.096078  1
  Pr  Pr5  1  0.990813  0.824239  0.403922  1
  Pr  Pr6  1  0.509236  0.324417  0.596217  1
  Pr  Pr7  1  0.009236  0.175583  0.903783  1
  Ho  Ho8  1  0.349170  0.835627  0.875261  1
  Ho  Ho9  1  0.849170  0.664373  0.624739  1
  Ho  Ho10  1  0.651005  0.164385  0.375390  1
  Ho  Ho11  1  0.151005  0.335615  0.124610  1
  Ho  Ho12  1  0.650887  0.164370  0.124463  1
  Ho  Ho13  1  0.150887  0.335630  0.375537  1
  Lu  Lu14  1  0.348887  0.835748  0.624997  1
  Lu  Lu15  1  0.848887  0.664252  0.875003  1
  Lu  Lu16  1  0.181799  0.502648  0.749903  1
  Lu  Lu17  1  0.681799  0.997352  0.750097  1
  Lu  Lu18  1  0.818118  0.497912  0.249971  1
  Lu  Lu19  1  0.318118  0.002088  0.250029  1
  Sn  Sn20  1  0.314040  0.041492  0.042156  1
  Sn  Sn21  1  0.814040  0.458508  0.457844  1
  Sn  Sn22  1  0.684571  0.958178  0.542322  1
  Sn  Sn23  1  0.184571  0.541822  0.957678  1
  Sn  Sn24  1  0.686746  0.957443  0.957504  1
  Sn  Sn25  1  0.186746  0.542557  0.542496  1
  Sn  Sn26  1  0.314294  0.040907  0.458581  1
  Sn  Sn27  1  0.814294  0.459093  0.041419  1
  Sn  Sn28  1  0.545847  0.625259  0.749940  1
  Sn  Sn29  1  0.045847  0.874741  0.750060  1
  Sn  Sn30  1  0.454214  0.375389  0.250016  1
  Sn  Sn31  1  0.954214  0.124611  0.249984  1
  Sn  Sn32  1  0.316897  0.144377  0.749718  1
  Sn  Sn33  1  0.816897  0.355623  0.750282  1
  Sn  Sn34  1  0.683380  0.855007  0.249987  1
  Sn  Sn35  1  0.183380  0.644993  0.250013  1
