# generated using pymatgen
data_Ce2Dy3Y7Ru4
_symmetry_space_group_name_H-M   'P 1'
_cell_length_a   6.35203422
_cell_length_b   7.23884344
_cell_length_c   9.40058826
_cell_angle_alpha   90.00581177
_cell_angle_beta   90.02656607
_cell_angle_gamma   87.65993506
_symmetry_Int_Tables_number   1
_chemical_formula_structural   Ce2Dy3Y7Ru4
_chemical_formula_sum   'Ce2 Dy3 Y7 Ru4'
_cell_volume   431.89152488
_cell_formula_units_Z   1
loop_
 _symmetry_equiv_pos_site_id
 _symmetry_equiv_pos_as_xyz
  1  'x, y, z'
loop_
 _atom_site_type_symbol
 _atom_site_label
 _atom_site_symmetry_multiplicity
 _atom_site_fract_x
 _atom_site_fract_y
 _atom_site_fract_z
 _atom_site_occupancy
  Ce  Ce0  1  0.657090  0.060636  0.249841  1
  Ce  Ce1  1  0.342876  0.939494  0.750359  1
  Dy  Dy2  1  0.136422  0.461557  0.750223  1
  Dy  Dy3  1  0.863802  0.538371  0.250033  1
  Dy  Dy4  1  0.172494  0.172102  0.063834  1
  Y  Y5  1  0.827728  0.827524  0.936914  1
  Y  Y6  1  0.670367  0.325691  0.932566  1
  Y  Y7  1  0.827395  0.827621  0.563019  1
  Y  Y8  1  0.329650  0.674193  0.067563  1
  Y  Y9  1  0.172491  0.172489  0.436832  1
  Y  Y10  1  0.329707  0.674221  0.432529  1
  Y  Y11  1  0.670513  0.325980  0.567484  1
  Ru  Ru12  1  0.470995  0.361269  0.249355  1
  Ru  Ru13  1  0.528242  0.637390  0.750034  1
  Ru  Ru14  1  0.991091  0.112079  0.750438  1
  Ru  Ru15  1  0.009134  0.889383  0.248977  1
