# generated using pymatgen
data_Zr10AlSiSn5Bi
_symmetry_space_group_name_H-M   'P 1'
_cell_length_a   8.75734794
_cell_length_b   8.73463520
_cell_length_c   5.92013307
_cell_angle_alpha   90.12910533
_cell_angle_beta   89.74245838
_cell_angle_gamma   120.08605483
_symmetry_Int_Tables_number   1
_chemical_formula_structural   Zr10AlSiSn5Bi
_chemical_formula_sum   'Zr10 Al1 Si1 Sn5 Bi1'
_cell_volume   391.83014050
_cell_formula_units_Z   1
loop_
 _symmetry_equiv_pos_site_id
 _symmetry_equiv_pos_as_xyz
  1  'x, y, z'
loop_
 _atom_site_type_symbol
 _atom_site_label
 _atom_site_symmetry_multiplicity
 _atom_site_fract_x
 _atom_site_fract_y
 _atom_site_fract_z
 _atom_site_occupancy
  Zr  Zr0  1  0.330941  0.663353  0.997930  1
  Zr  Zr1  1  0.667638  0.336630  0.502157  1
  Zr  Zr2  1  0.667589  0.336647  0.997930  1
  Zr  Zr3  1  0.331008  0.663370  0.502157  1
  Zr  Zr4  1  0.259423  0.000000  0.240173  1
  Zr  Zr5  1  0.264702  0.265379  0.759442  1
  Zr  Zr6  1  0.999323  0.734621  0.759442  1
  Zr  Zr7  1  0.005108  0.264799  0.241081  1
  Zr  Zr8  1  0.740308  0.735201  0.241081  1
  Zr  Zr9  1  0.735723  0.000000  0.757809  1
  Al  Al10  1  0.000184  0.000000  0.503735  1
  Si  Si11  1  0.999333  0.000000  0.996202  1
  Sn  Sn12  1  0.609986  0.610963  0.745910  1
  Sn  Sn13  1  0.999024  0.389037  0.745910  1
  Sn  Sn14  1  0.000958  0.608701  0.253994  1
  Sn  Sn15  1  0.392257  0.391299  0.253994  1
  Sn  Sn16  1  0.388339  0.000000  0.746316  1
  Bi  Bi17  1  0.608155  0.000000  0.254736  1
