# generated using pymatgen
data_NbCd6IO12
_symmetry_space_group_name_H-M   'P 1'
_cell_length_a   5.77275386
_cell_length_b   5.61953964
_cell_length_c   9.99403011
_cell_angle_alpha   55.12506378
_cell_angle_beta   89.15679310
_cell_angle_gamma   89.52627377
_symmetry_Int_Tables_number   1
_chemical_formula_structural   NbCd6IO12
_chemical_formula_sum   'Nb1 Cd6 I1 O12'
_cell_volume   265.95254271
_cell_formula_units_Z   1
loop_
 _symmetry_equiv_pos_site_id
 _symmetry_equiv_pos_as_xyz
  1  'x, y, z'
loop_
 _atom_site_type_symbol
 _atom_site_label
 _atom_site_symmetry_multiplicity
 _atom_site_fract_x
 _atom_site_fract_y
 _atom_site_fract_z
 _atom_site_occupancy
  Nb  Nb0  1  0.000000  0.000000  0.000000  1
  Cd  Cd1  1  0.044317  0.731767  0.766167  1
  Cd  Cd2  1  0.955683  0.268233  0.233833  1
  Cd  Cd3  1  0.556576  0.260950  0.758028  1
  Cd  Cd4  1  0.443424  0.739050  0.241972  1
  Cd  Cd5  1  0.500000  0.500000  0.000000  1
  Cd  Cd6  1  0.000000  0.500000  0.500000  1
  I  I7  1  0.500000  0.000000  0.500000  1
  O  O8  1  0.427499  0.922893  0.711119  1
  O  O9  1  0.572501  0.077107  0.288881  1
  O  O10  1  0.935185  0.127467  0.763023  1
  O  O11  1  0.064815  0.872533  0.236977  1
  O  O12  1  0.772154  0.759156  0.584257  1
  O  O13  1  0.227846  0.240844  0.415743  1
  O  O14  1  0.291621  0.238437  0.928260  1
  O  O15  1  0.708379  0.761563  0.071740  1
  O  O16  1  0.324631  0.662005  0.564762  1
  O  O17  1  0.675369  0.337995  0.435238  1
  O  O18  1  0.824444  0.348402  0.952720  1
  O  O19  1  0.175556  0.651598  0.047280  1
