# generated using pymatgen
data_Ba4TmTcO8
_symmetry_space_group_name_H-M   'P 1'
_cell_length_a   7.42610306
_cell_length_b   7.42610318
_cell_length_c   5.93155400
_cell_angle_alpha   90.00000000
_cell_angle_beta   90.00000000
_cell_angle_gamma   133.12271689
_symmetry_Int_Tables_number   1
_chemical_formula_structural   Ba4TmTcO8
_chemical_formula_sum   'Ba4 Tm1 Tc1 O8'
_cell_volume   238.75288818
_cell_formula_units_Z   1
loop_
 _symmetry_equiv_pos_site_id
 _symmetry_equiv_pos_as_xyz
  1  'x, y, z'
loop_
 _atom_site_type_symbol
 _atom_site_label
 _atom_site_symmetry_multiplicity
 _atom_site_fract_x
 _atom_site_fract_y
 _atom_site_fract_z
 _atom_site_occupancy
  Ba  Ba0  1  0.353657  0.646343  0.000000  1
  Ba  Ba1  1  0.853106  0.146894  0.500000  1
  Ba  Ba2  1  0.146894  0.853106  0.500000  1
  Ba  Ba3  1  0.646343  0.353657  0.000000  1
  Tm  Tm4  1  0.000000  0.000000  0.000000  1
  Tc  Tc5  1  0.500000  0.500000  0.500000  1
  O  O6  1  0.261362  0.261362  0.733950  1
  O  O7  1  0.738638  0.738638  0.266050  1
  O  O8  1  0.738638  0.738638  0.733950  1
  O  O9  1  0.261362  0.261362  0.266050  1
  O  O10  1  0.163591  0.836409  0.000000  1
  O  O11  1  0.650190  0.349810  0.500000  1
  O  O12  1  0.349810  0.650190  0.500000  1
  O  O13  1  0.836409  0.163591  0.000000  1
