# generated using pymatgen
data_Li3Ho5(Co4As3)4
_symmetry_space_group_name_H-M   'P 1'
_cell_length_a   12.51172400
_cell_length_b   12.51172465
_cell_length_c   3.83491200
_cell_angle_alpha   90.00000000
_cell_angle_beta   90.00000000
_cell_angle_gamma   120.00000357
_symmetry_Int_Tables_number   1
_chemical_formula_structural   Li3Ho5(Co4As3)4
_chemical_formula_sum   'Li3 Ho5 Co16 As12'
_cell_volume   519.90064033
_cell_formula_units_Z   1
loop_
 _symmetry_equiv_pos_site_id
 _symmetry_equiv_pos_as_xyz
  1  'x, y, z'
loop_
 _atom_site_type_symbol
 _atom_site_label
 _atom_site_symmetry_multiplicity
 _atom_site_fract_x
 _atom_site_fract_y
 _atom_site_fract_z
 _atom_site_occupancy
  Li  Li0  1  0.561823  0.561823  0.000000  1
  Li  Li1  1  0.438177  0.000000  0.000000  1
  Li  Li2  1  0.000000  0.438177  0.000000  1
  Ho  Ho3  1  0.187533  0.187533  0.500000  1
  Ho  Ho4  1  0.812467  0.000000  0.500000  1
  Ho  Ho5  1  0.000000  0.812467  0.500000  1
  Ho  Ho6  1  0.333333  0.666667  0.000000  1
  Ho  Ho7  1  0.666667  0.333333  0.000000  1
  Co  Co8  1  0.718235  0.718235  0.500000  1
  Co  Co9  1  0.281765  0.000000  0.500000  1
  Co  Co10  1  0.000000  0.281765  0.500000  1
  Co  Co11  1  0.178612  0.376988  0.000000  1
  Co  Co12  1  0.623012  0.801624  0.000000  1
  Co  Co13  1  0.198376  0.821388  0.000000  1
  Co  Co14  1  0.801624  0.623012  0.000000  1
  Co  Co15  1  0.821388  0.198376  0.000000  1
  Co  Co16  1  0.376988  0.178612  0.000000  1
  Co  Co17  1  0.353356  0.478889  0.500000  1
  Co  Co18  1  0.521111  0.874468  0.500000  1
  Co  Co19  1  0.125532  0.646644  0.500000  1
  Co  Co20  1  0.874468  0.521111  0.500000  1
  Co  Co21  1  0.646644  0.125532  0.500000  1
  Co  Co22  1  0.478889  0.353356  0.500000  1
  Co  Co23  1  0.000000  0.000000  0.000000  1
  As  As24  1  0.819939  0.819939  0.000000  1
  As  As25  1  0.180061  0.000000  0.000000  1
  As  As26  1  0.000000  0.180061  0.000000  1
  As  As27  1  0.167745  0.482246  0.500000  1
  As  As28  1  0.517754  0.685499  0.500000  1
  As  As29  1  0.314501  0.832255  0.500000  1
  As  As30  1  0.685499  0.517754  0.500000  1
  As  As31  1  0.832255  0.314501  0.500000  1
  As  As32  1  0.482246  0.167745  0.500000  1
  As  As33  1  0.366763  0.366763  0.000000  1
  As  As34  1  0.633237  0.000000  0.000000  1
  As  As35  1  0.000000  0.633237  0.000000  1
