# generated using pymatgen
data_SrAcMg(Si3Pd10)2
_symmetry_space_group_name_H-M   'P 1'
_cell_length_a   8.77490023
_cell_length_b   8.77490050
_cell_length_c   8.77489900
_cell_angle_alpha   59.99999434
_cell_angle_beta   59.99999331
_cell_angle_gamma   59.99999874
_symmetry_Int_Tables_number   1
_chemical_formula_structural   SrAcMg(Si3Pd10)2
_chemical_formula_sum   'Sr1 Ac1 Mg1 Si6 Pd20'
_cell_volume   477.76185415
_cell_formula_units_Z   1
loop_
 _symmetry_equiv_pos_site_id
 _symmetry_equiv_pos_as_xyz
  1  'x, y, z'
loop_
 _atom_site_type_symbol
 _atom_site_label
 _atom_site_symmetry_multiplicity
 _atom_site_fract_x
 _atom_site_fract_y
 _atom_site_fract_z
 _atom_site_occupancy
  Sr  Sr0  1  0.750000  0.750000  0.750000  1
  Ac  Ac1  1  0.250000  0.250000  0.250000  1
  Mg  Mg2  1  0.000000  0.000000  0.000000  1
  Si  Si3  1  0.733736  0.733736  0.266264  1
  Si  Si4  1  0.266264  0.266264  0.733736  1
  Si  Si5  1  0.733736  0.266264  0.733736  1
  Si  Si6  1  0.266264  0.733736  0.266264  1
  Si  Si7  1  0.266264  0.733736  0.733736  1
  Si  Si8  1  0.733736  0.266264  0.266264  1
  Pd  Pd9  1  0.613335  0.613335  0.613335  1
  Pd  Pd10  1  0.386874  0.386874  0.386874  1
  Pd  Pd11  1  0.159997  0.613335  0.613335  1
  Pd  Pd12  1  0.613335  0.159997  0.613335  1
  Pd  Pd13  1  0.839379  0.386874  0.386874  1
  Pd  Pd14  1  0.386874  0.839379  0.386874  1
  Pd  Pd15  1  0.613335  0.613335  0.159997  1
  Pd  Pd16  1  0.386874  0.386874  0.839379  1
  Pd  Pd17  1  0.000280  0.000280  0.657274  1
  Pd  Pd18  1  0.000280  0.000280  0.342166  1
  Pd  Pd19  1  0.342166  0.657274  0.000280  1
  Pd  Pd20  1  0.657274  0.342166  0.000280  1
  Pd  Pd21  1  0.000280  0.657274  0.000280  1
  Pd  Pd22  1  0.657274  0.000280  0.342166  1
  Pd  Pd23  1  0.000280  0.342166  0.000280  1
  Pd  Pd24  1  0.342166  0.000280  0.657274  1
  Pd  Pd25  1  0.657274  0.000280  0.000280  1
  Pd  Pd26  1  0.342166  0.000280  0.000280  1
  Pd  Pd27  1  0.000280  0.657274  0.342166  1
  Pd  Pd28  1  0.000280  0.342166  0.657274  1
