# generated using pymatgen
data_TiW2Cl13
_symmetry_space_group_name_H-M   'P 1'
_cell_length_a   11.39652800
_cell_length_b   10.14463332
_cell_length_c   10.76030552
_cell_angle_alpha   86.04705992
_cell_angle_beta   90.00000000
_cell_angle_gamma   90.00000000
_symmetry_Int_Tables_number   1
_chemical_formula_structural   TiW2Cl13
_chemical_formula_sum   'Ti2 W4 Cl26'
_cell_volume   1241.07807818
_cell_formula_units_Z   2
loop_
 _symmetry_equiv_pos_site_id
 _symmetry_equiv_pos_as_xyz
  1  'x, y, z'
loop_
 _atom_site_type_symbol
 _atom_site_label
 _atom_site_symmetry_multiplicity
 _atom_site_fract_x
 _atom_site_fract_y
 _atom_site_fract_z
 _atom_site_occupancy
  Ti  Ti0  1  0.250000  0.260609  0.499471  1
  Ti  Ti1  1  0.750000  0.739391  0.500529  1
  W  W2  1  0.250000  0.827714  0.084615  1
  W  W3  1  0.750000  0.172286  0.915385  1
  W  W4  1  0.250000  0.687914  0.876993  1
  W  W5  1  0.750000  0.312086  0.123007  1
  Cl  Cl6  1  0.594184  0.820585  0.585335  1
  Cl  Cl7  1  0.094184  0.179415  0.414665  1
  Cl  Cl8  1  0.750000  0.417397  0.907356  1
  Cl  Cl9  1  0.250000  0.582603  0.092644  1
  Cl  Cl10  1  0.919931  0.185491  0.054992  1
  Cl  Cl11  1  0.419931  0.814509  0.945008  1
  Cl  Cl12  1  0.080069  0.814509  0.945008  1
  Cl  Cl13  1  0.580069  0.185491  0.054992  1
  Cl  Cl14  1  0.750000  0.187830  0.305372  1
  Cl  Cl15  1  0.250000  0.812170  0.694628  1
  Cl  Cl16  1  0.891695  0.459222  0.176647  1
  Cl  Cl17  1  0.391695  0.540778  0.823353  1
  Cl  Cl18  1  0.108305  0.540778  0.823353  1
  Cl  Cl19  1  0.608305  0.459222  0.176647  1
  Cl  Cl20  1  0.750000  0.949736  0.952449  1
  Cl  Cl21  1  0.250000  0.050264  0.047551  1
  Cl  Cl22  1  0.891678  0.179828  0.762620  1
  Cl  Cl23  1  0.391678  0.820172  0.237380  1
  Cl  Cl24  1  0.108322  0.820172  0.237380  1
  Cl  Cl25  1  0.608322  0.179828  0.762620  1
  Cl  Cl26  1  0.750000  0.792134  0.300324  1
  Cl  Cl27  1  0.250000  0.207866  0.699676  1
  Cl  Cl28  1  0.750000  0.524521  0.532549  1
  Cl  Cl29  1  0.250000  0.475479  0.467451  1
  Cl  Cl30  1  0.905816  0.820585  0.585335  1
  Cl  Cl31  1  0.405816  0.179415  0.414665  1
