# generated using pymatgen
data_Pr10B2Br15
_symmetry_space_group_name_H-M   'P 1'
_cell_length_a   9.48703972
_cell_length_b   10.30665816
_cell_length_c   11.13975760
_cell_angle_alpha   91.01484520
_cell_angle_beta   114.57595319
_cell_angle_gamma   110.90091789
_symmetry_Int_Tables_number   1
_chemical_formula_structural   Pr10B2Br15
_chemical_formula_sum   'Pr10 B2 Br15'
_cell_volume   907.53245399
_cell_formula_units_Z   1
loop_
 _symmetry_equiv_pos_site_id
 _symmetry_equiv_pos_as_xyz
  1  'x, y, z'
loop_
 _atom_site_type_symbol
 _atom_site_label
 _atom_site_symmetry_multiplicity
 _atom_site_fract_x
 _atom_site_fract_y
 _atom_site_fract_z
 _atom_site_occupancy
  Pr  Pr0  1  0.802832  0.410600  0.277314  1
  Pr  Pr1  1  0.197168  0.589400  0.722686  1
  Pr  Pr2  1  0.676508  0.745696  0.820526  1
  Pr  Pr3  1  0.323492  0.254304  0.179474  1
  Pr  Pr4  1  0.525898  0.703565  0.096731  1
  Pr  Pr5  1  0.474102  0.296435  0.903269  1
  Pr  Pr6  1  0.586553  0.039240  0.326383  1
  Pr  Pr7  1  0.413447  0.960760  0.673617  1
  Pr  Pr8  1  0.726855  0.075830  0.048986  1
  Pr  Pr9  1  0.273145  0.924170  0.951014  1
  B  B10  1  0.466775  0.817907  0.875699  1
  B  B11  1  0.533225  0.182093  0.124301  1
  Br  Br12  1  0.000000  0.000000  0.000000  1
  Br  Br13  1  0.637808  0.882793  0.584625  1
  Br  Br14  1  0.362192  0.117207  0.415375  1
  Br  Br15  1  0.883479  0.299060  0.527901  1
  Br  Br16  1  0.116521  0.700940  0.472099  1
  Br  Br17  1  0.289962  0.761907  0.179967  1
  Br  Br18  1  0.710038  0.238093  0.820033  1
  Br  Br19  1  0.055918  0.342693  0.227049  1
  Br  Br20  1  0.164439  0.057791  0.702928  1
  Br  Br21  1  0.835561  0.942209  0.297072  1
  Br  Br22  1  0.230896  0.410159  0.943457  1
  Br  Br23  1  0.769104  0.589841  0.056543  1
  Br  Br24  1  0.408477  0.463548  0.659901  1
  Br  Br25  1  0.591523  0.536452  0.340099  1
  Br  Br26  1  0.944082  0.657307  0.772951  1
