# generated using pymatgen
data_Ho8Be3Si12Ni
_symmetry_space_group_name_H-M   'P 1'
_cell_length_a   7.86128900
_cell_length_b   7.86128977
_cell_length_c   8.00384100
_cell_angle_alpha   90.00000000
_cell_angle_beta   90.00000000
_cell_angle_gamma   120.00000940
_symmetry_Int_Tables_number   1
_chemical_formula_structural   Ho8Be3Si12Ni
_chemical_formula_sum   'Ho8 Be3 Si12 Ni1'
_cell_volume   428.36759505
_cell_formula_units_Z   1
loop_
 _symmetry_equiv_pos_site_id
 _symmetry_equiv_pos_as_xyz
  1  'x, y, z'
loop_
 _atom_site_type_symbol
 _atom_site_label
 _atom_site_symmetry_multiplicity
 _atom_site_fract_x
 _atom_site_fract_y
 _atom_site_fract_z
 _atom_site_occupancy
  Ho  Ho0  1  0.000000  0.000000  0.250495  1
  Ho  Ho1  1  0.000000  0.000000  0.749647  1
  Ho  Ho2  1  0.500197  0.499803  0.250536  1
  Ho  Ho3  1  0.500197  0.000395  0.250536  1
  Ho  Ho4  1  0.999605  0.499803  0.250536  1
  Ho  Ho5  1  0.499508  0.500492  0.749482  1
  Ho  Ho6  1  0.499508  0.999016  0.749482  1
  Ho  Ho7  1  0.000984  0.500492  0.749482  1
  Be  Be8  1  0.333333  0.666667  0.497278  1
  Be  Be9  1  0.666667  0.333333  0.501361  1
  Be  Be10  1  0.666667  0.333333  0.999120  1
  Si  Si11  1  0.172192  0.827808  0.499920  1
  Si  Si12  1  0.172192  0.344383  0.499920  1
  Si  Si13  1  0.655617  0.827808  0.499920  1
  Si  Si14  1  0.826731  0.173269  0.500271  1
  Si  Si15  1  0.826731  0.653463  0.500271  1
  Si  Si16  1  0.346537  0.173269  0.500271  1
  Si  Si17  1  0.828786  0.171214  0.999475  1
  Si  Si18  1  0.828786  0.657573  0.999475  1
  Si  Si19  1  0.342427  0.171214  0.999475  1
  Si  Si20  1  0.172518  0.827482  0.000527  1
  Si  Si21  1  0.172518  0.345035  0.000527  1
  Si  Si22  1  0.654965  0.827482  0.000527  1
  Ni  Ni23  1  0.333333  0.666667  0.001464  1
