# generated using pymatgen
data_K2Rb2NdUTe6
_symmetry_space_group_name_H-M   'P 1'
_cell_length_a   8.16709239
_cell_length_b   8.16709144
_cell_length_c   8.78648869
_cell_angle_alpha   81.16742674
_cell_angle_beta   81.16742778
_cell_angle_gamma   119.83457065
_symmetry_Int_Tables_number   1
_chemical_formula_structural   K2Rb2NdUTe6
_chemical_formula_sum   'K2 Rb2 Nd1 U1 Te6'
_cell_volume   483.95545186
_cell_formula_units_Z   1
loop_
 _symmetry_equiv_pos_site_id
 _symmetry_equiv_pos_as_xyz
  1  'x, y, z'
loop_
 _atom_site_type_symbol
 _atom_site_label
 _atom_site_symmetry_multiplicity
 _atom_site_fract_x
 _atom_site_fract_y
 _atom_site_fract_z
 _atom_site_occupancy
  K  K0  1  0.000580  0.999420  0.500000  1
  K  K1  1  0.499970  0.500030  0.000000  1
  Rb  Rb2  1  0.344803  0.655197  0.500000  1
  Rb  Rb3  1  0.653072  0.346928  0.500000  1
  Nd  Nd4  1  0.168031  0.831969  0.000000  1
  U  U5  1  0.832044  0.167956  0.000000  1
  Te  Te6  1  0.794435  0.809779  0.206101  1
  Te  Te7  1  0.445507  0.069347  0.208599  1
  Te  Te8  1  0.051948  0.411264  0.208867  1
  Te  Te9  1  0.588736  0.948052  0.791133  1
  Te  Te10  1  0.930653  0.554493  0.791401  1
  Te  Te11  1  0.190221  0.205565  0.793899  1
