# generated using pymatgen
data_La3Ce(Br3N)2
_symmetry_space_group_name_H-M   'P 1'
_cell_length_a   9.46669168
_cell_length_b   9.46669157
_cell_length_c   11.80695200
_cell_angle_alpha   123.01869471
_cell_angle_beta   123.01869430
_cell_angle_gamma   24.90035995
_symmetry_Int_Tables_number   1
_chemical_formula_structural   La3Ce(Br3N)2
_chemical_formula_sum   'La3 Ce1 Br6 N2'
_cell_volume   369.69326749
_cell_formula_units_Z   1
loop_
 _symmetry_equiv_pos_site_id
 _symmetry_equiv_pos_as_xyz
  1  'x, y, z'
loop_
 _atom_site_type_symbol
 _atom_site_label
 _atom_site_symmetry_multiplicity
 _atom_site_fract_x
 _atom_site_fract_y
 _atom_site_fract_z
 _atom_site_occupancy
  La  La0  1  0.135183  0.135183  0.286819  1
  La  La1  1  0.862579  0.862579  0.714369  1
  La  La2  1  0.580372  0.580372  0.956883  1
  Ce  Ce3  1  0.424614  0.424614  0.040421  1
  Br  Br4  1  0.223726  0.223726  0.125991  1
  Br  Br5  1  0.959124  0.959124  0.254028  1
  Br  Br6  1  0.334652  0.334652  0.492501  1
  Br  Br7  1  0.664250  0.664250  0.508698  1
  Br  Br8  1  0.038165  0.038165  0.737745  1
  Br  Br9  1  0.780330  0.780330  0.881062  1
  N  N10  1  0.570348  0.570348  0.149074  1
  N  N11  1  0.426655  0.426655  0.852412  1
