# generated using pymatgen
data_Tb3PuO7
_symmetry_space_group_name_H-M   'P 1'
_cell_length_a   6.61840844
_cell_length_b   6.53831119
_cell_length_c   7.78063058
_cell_angle_alpha   106.89831102
_cell_angle_beta   89.43533886
_cell_angle_gamma   98.64737624
_symmetry_Int_Tables_number   1
_chemical_formula_structural   Tb3PuO7
_chemical_formula_sum   'Tb6 Pu2 O14'
_cell_volume   318.28911818
_cell_formula_units_Z   2
loop_
 _symmetry_equiv_pos_site_id
 _symmetry_equiv_pos_as_xyz
  1  'x, y, z'
loop_
 _atom_site_type_symbol
 _atom_site_label
 _atom_site_symmetry_multiplicity
 _atom_site_fract_x
 _atom_site_fract_y
 _atom_site_fract_z
 _atom_site_occupancy
  Tb  Tb0  1  0.716635  0.461324  0.122808  1
  Tb  Tb1  1  0.740630  0.478704  0.598337  1
  Tb  Tb2  1  0.543443  0.996921  0.748228  1
  Tb  Tb3  1  0.456557  0.003079  0.251772  1
  Tb  Tb4  1  0.259370  0.521296  0.401663  1
  Tb  Tb5  1  0.283365  0.538676  0.877192  1
  Pu  Pu6  1  0.000000  0.000000  0.000000  1
  Pu  Pu7  1  0.000000  0.000000  0.500000  1
  O  O8  1  0.705963  0.073745  0.484132  1
  O  O9  1  0.931685  0.697406  0.999481  1
  O  O10  1  0.698532  0.083196  0.050969  1
  O  O11  1  0.933822  0.632140  0.376593  1
  O  O12  1  0.867242  0.885798  0.720795  1
  O  O13  1  0.564909  0.359738  0.833335  1
  O  O14  1  0.543749  0.361620  0.345794  1
  O  O15  1  0.456251  0.638380  0.654206  1
  O  O16  1  0.435091  0.640262  0.166665  1
  O  O17  1  0.132758  0.114202  0.279205  1
  O  O18  1  0.066178  0.367860  0.623407  1
  O  O19  1  0.301468  0.916804  0.949031  1
  O  O20  1  0.068315  0.302594  0.000519  1
  O  O21  1  0.294037  0.926255  0.515868  1
