# generated using pymatgen
data_Li2Ho16In2Ir3Rh
_symmetry_space_group_name_H-M   'P 1'
_cell_length_a   9.62180886
_cell_length_b   9.62180824
_cell_length_c   9.61582508
_cell_angle_alpha   59.79871011
_cell_angle_beta   59.79871132
_cell_angle_gamma   59.82991764
_symmetry_Int_Tables_number   1
_chemical_formula_structural   Li2Ho16In2Ir3Rh
_chemical_formula_sum   'Li2 Ho16 In2 Ir3 Rh1'
_cell_volume   626.75669695
_cell_formula_units_Z   1
loop_
 _symmetry_equiv_pos_site_id
 _symmetry_equiv_pos_as_xyz
  1  'x, y, z'
loop_
 _atom_site_type_symbol
 _atom_site_label
 _atom_site_symmetry_multiplicity
 _atom_site_fract_x
 _atom_site_fract_y
 _atom_site_fract_z
 _atom_site_occupancy
  Li  Li0  1  0.822789  0.822789  0.825179  1
  Li  Li1  1  0.823144  0.823144  0.527660  1
  Ho  Ho2  1  0.186241  0.186241  0.813378  1
  Ho  Ho3  1  0.599262  0.599262  0.200851  1
  Ho  Ho4  1  0.439316  0.060785  0.439334  1
  Ho  Ho5  1  0.441936  0.441936  0.057547  1
  Ho  Ho6  1  0.813761  0.187331  0.812681  1
  Ho  Ho7  1  0.187516  0.811400  0.188545  1
  Ho  Ho8  1  0.437912  0.061897  0.060278  1
  Ho  Ho9  1  0.187331  0.813761  0.812681  1
  Ho  Ho10  1  0.061897  0.437912  0.060278  1
  Ho  Ho11  1  0.810466  0.810466  0.189642  1
  Ho  Ho12  1  0.207531  0.597779  0.598017  1
  Ho  Ho13  1  0.060785  0.439316  0.439334  1
  Ho  Ho14  1  0.065860  0.065860  0.432117  1
  Ho  Ho15  1  0.811400  0.187516  0.188545  1
  Ho  Ho16  1  0.597779  0.207531  0.598017  1
  Ho  Ho17  1  0.598844  0.598844  0.600599  1
  In  In18  1  0.505746  0.834506  0.829201  1
  In  In19  1  0.834506  0.505746  0.829201  1
  Ir  Ir20  1  0.394766  0.824757  0.391419  1
  Ir  Ir21  1  0.393376  0.393376  0.389058  1
  Ir  Ir22  1  0.824757  0.394766  0.391419  1
  Rh  Rh23  1  0.393079  0.393079  0.825022  1
