# generated using pymatgen
data_Pr3Dy(Sn5Pt3)2
_symmetry_space_group_name_H-M   'P 1'
_cell_length_a   13.67470256
_cell_length_b   13.67470384
_cell_length_c   7.52045327
_cell_angle_alpha   89.75572950
_cell_angle_beta   90.24426993
_cell_angle_gamma   160.78769760
_symmetry_Int_Tables_number   1
_chemical_formula_structural   Pr3Dy(Sn5Pt3)2
_chemical_formula_sum   'Pr3 Dy1 Sn10 Pt6'
_cell_volume   462.76796941
_cell_formula_units_Z   1
loop_
 _symmetry_equiv_pos_site_id
 _symmetry_equiv_pos_as_xyz
  1  'x, y, z'
loop_
 _atom_site_type_symbol
 _atom_site_label
 _atom_site_symmetry_multiplicity
 _atom_site_fract_x
 _atom_site_fract_y
 _atom_site_fract_z
 _atom_site_occupancy
  Pr  Pr0  1  0.172924  0.827076  0.752109  1
  Pr  Pr1  1  0.826860  0.173140  0.252325  1
  Pr  Pr2  1  0.477363  0.522637  0.737700  1
  Dy  Dy3  1  0.523644  0.476356  0.240228  1
  Sn  Sn4  1  0.879836  0.120164  0.734728  1
  Sn  Sn5  1  0.120203  0.879797  0.234672  1
  Sn  Sn6  1  0.702077  0.297923  0.048401  1
  Sn  Sn7  1  0.296956  0.703044  0.549257  1
  Sn  Sn8  1  0.598406  0.401594  0.608538  1
  Sn  Sn9  1  0.402167  0.597833  0.108295  1
  Sn  Sn10  1  0.953230  0.046770  0.397740  1
  Sn  Sn11  1  0.047720  0.952280  0.897922  1
  Sn  Sn12  1  0.289389  0.710611  0.976599  1
  Sn  Sn13  1  0.710250  0.289750  0.476635  1
  Pt  Pt14  1  0.051484  0.948516  0.511657  1
  Pt  Pt15  1  0.950313  0.049687  0.025889  1
  Pt  Pt16  1  0.776388  0.223612  0.770535  1
  Pt  Pt17  1  0.223369  0.776631  0.270586  1
  Pt  Pt18  1  0.396204  0.603796  0.476472  1
  Pt  Pt19  1  0.601219  0.398781  0.985710  1
