# generated using pymatgen
data_Y3Er2Ga6P6Ir19
_symmetry_space_group_name_H-M   'P 1'
_cell_length_a   12.96338704
_cell_length_b   12.96599161
_cell_length_c   3.98142500
_cell_angle_alpha   90.00000000
_cell_angle_beta   90.00000000
_cell_angle_gamma   119.98424916
_symmetry_Int_Tables_number   1
_chemical_formula_structural   Y3Er2Ga6P6Ir19
_chemical_formula_sum   'Y3 Er2 Ga6 P6 Ir19'
_cell_volume   579.64527792
_cell_formula_units_Z   1
loop_
 _symmetry_equiv_pos_site_id
 _symmetry_equiv_pos_as_xyz
  1  'x, y, z'
loop_
 _atom_site_type_symbol
 _atom_site_label
 _atom_site_symmetry_multiplicity
 _atom_site_fract_x
 _atom_site_fract_y
 _atom_site_fract_z
 _atom_site_occupancy
  Y  Y0  1  0.666664  0.333326  0.000000  1
  Y  Y1  1  0.816513  0.812313  0.500000  1
  Y  Y2  1  0.187695  0.004220  0.500000  1
  Er  Er3  1  0.333323  0.666663  0.000000  1
  Er  Er4  1  0.995430  0.183339  0.500000  1
  Ga  Ga5  1  0.677155  0.158446  0.500000  1
  Ga  Ga6  1  0.841571  0.518652  0.500000  1
  Ga  Ga7  1  0.481265  0.322867  0.500000  1
  Ga  Ga8  1  0.635202  0.636824  0.000000  1
  Ga  Ga9  1  0.363175  0.998384  0.000000  1
  Ga  Ga10  1  0.001679  0.364516  0.000000  1
  P  P11  1  0.180363  0.697414  0.500000  1
  P  P12  1  0.517092  0.819654  0.500000  1
  P  P13  1  0.302585  0.482920  0.500000  1
  P  P14  1  0.175573  0.181459  0.000000  1
  P  P15  1  0.818782  0.994563  0.000000  1
  P  P16  1  0.005599  0.824280  0.000000  1
  Ir  Ir17  1  0.809354  0.169173  0.000000  1
  Ir  Ir18  1  0.830827  0.639542  0.000000  1
  Ir  Ir19  1  0.360428  0.191296  0.000000  1
  Ir  Ir20  1  0.182263  0.793569  0.000000  1
  Ir  Ir21  1  0.611343  0.817784  0.000000  1
  Ir  Ir22  1  0.206191  0.388514  0.000000  1
  Ir  Ir23  1  0.446387  0.440489  0.000000  1
  Ir  Ir24  1  0.559535  0.005901  0.000000  1
  Ir  Ir25  1  0.994133  0.553548  0.000000  1
  Ir  Ir26  1  0.267806  0.280874  0.500000  1
  Ir  Ir27  1  0.719203  0.987389  0.500000  1
  Ir  Ir28  1  0.012767  0.731725  0.500000  1
  Ir  Ir29  1  0.873234  0.348623  0.500000  1
  Ir  Ir30  1  0.651223  0.524330  0.500000  1
  Ir  Ir31  1  0.475636  0.126893  0.500000  1
  Ir  Ir32  1  0.371461  0.868614  0.500000  1
  Ir  Ir33  1  0.497148  0.628547  0.500000  1
  Ir  Ir34  1  0.131383  0.502817  0.500000  1
  Ir  Ir35  1  0.000010  0.000530  0.000000  1
