# generated using pymatgen
data_Zr6Fe16Si6Sb
_symmetry_space_group_name_H-M   'P 1'
_cell_length_a   8.17449977
_cell_length_b   8.17320252
_cell_length_c   8.17123000
_cell_angle_alpha   60.01110580
_cell_angle_beta   60.01628867
_cell_angle_gamma   60.02498674
_symmetry_Int_Tables_number   1
_chemical_formula_structural   Zr6Fe16Si6Sb
_chemical_formula_sum   'Zr6 Fe16 Si6 Sb1'
_cell_volume   386.18708172
_cell_formula_units_Z   1
loop_
 _symmetry_equiv_pos_site_id
 _symmetry_equiv_pos_as_xyz
  1  'x, y, z'
loop_
 _atom_site_type_symbol
 _atom_site_label
 _atom_site_symmetry_multiplicity
 _atom_site_fract_x
 _atom_site_fract_y
 _atom_site_fract_z
 _atom_site_occupancy
  Zr  Zr0  1  0.708104  0.708013  0.291921  1
  Zr  Zr1  1  0.291826  0.708149  0.292058  1
  Zr  Zr2  1  0.708194  0.291871  0.292012  1
  Zr  Zr3  1  0.291896  0.291987  0.708079  1
  Zr  Zr4  1  0.708174  0.291851  0.707942  1
  Zr  Zr5  1  0.291806  0.708129  0.707988  1
  Fe  Fe6  1  0.873912  0.873899  0.378307  1
  Fe  Fe7  1  0.873890  0.378382  0.873867  1
  Fe  Fe8  1  0.378431  0.873867  0.873851  1
  Fe  Fe9  1  0.873892  0.873880  0.873865  1
  Fe  Fe10  1  0.126088  0.126101  0.621693  1
  Fe  Fe11  1  0.126110  0.621618  0.126133  1
  Fe  Fe12  1  0.621569  0.126133  0.126149  1
  Fe  Fe13  1  0.126108  0.126120  0.126135  1
  Fe  Fe14  1  0.676937  0.676879  0.969431  1
  Fe  Fe15  1  0.676965  0.969468  0.676789  1
  Fe  Fe16  1  0.969530  0.676904  0.676787  1
  Fe  Fe17  1  0.676952  0.676898  0.676787  1
  Fe  Fe18  1  0.323063  0.323121  0.030569  1
  Fe  Fe19  1  0.323035  0.030532  0.323211  1
  Fe  Fe20  1  0.030470  0.323096  0.323213  1
  Fe  Fe21  1  0.323048  0.323102  0.323213  1
  Si  Si22  1  0.000000  0.000000  0.500000  1
  Si  Si23  1  0.500000  0.000000  0.500000  1
  Si  Si24  1  0.000000  0.500000  0.500000  1
  Si  Si25  1  0.500000  0.500000  0.000000  1
  Si  Si26  1  0.000000  0.500000  0.000000  1
  Si  Si27  1  0.500000  0.000000  0.000000  1
  Sb  Sb28  1  0.000000  0.000000  0.000000  1
