# generated using pymatgen
data_Lu7Sc3(In2Ir)4
_symmetry_space_group_name_H-M   'P 1'
_cell_length_a   3.49006600
_cell_length_b   7.89656870
_cell_length_c   17.92607471
_cell_angle_alpha   89.99196381
_cell_angle_beta   90.00000000
_cell_angle_gamma   90.00000000
_symmetry_Int_Tables_number   1
_chemical_formula_structural   Lu7Sc3(In2Ir)4
_chemical_formula_sum   'Lu7 Sc3 In8 Ir4'
_cell_volume   494.03447484
_cell_formula_units_Z   1
loop_
 _symmetry_equiv_pos_site_id
 _symmetry_equiv_pos_as_xyz
  1  'x, y, z'
loop_
 _atom_site_type_symbol
 _atom_site_label
 _atom_site_symmetry_multiplicity
 _atom_site_fract_x
 _atom_site_fract_y
 _atom_site_fract_z
 _atom_site_occupancy
  Lu  Lu0  1  0.000000  0.883726  0.585299  1
  Lu  Lu1  1  0.000000  0.382626  0.913818  1
  Lu  Lu2  1  0.000000  0.616932  0.086751  1
  Lu  Lu3  1  0.000000  0.245340  0.223157  1
  Lu  Lu4  1  0.000000  0.754449  0.777370  1
  Lu  Lu5  1  0.000000  0.255292  0.720280  1
  Lu  Lu6  1  0.000000  0.744714  0.279784  1
  Sc  Sc7  1  0.000000  0.115851  0.412504  1
  Sc  Sc8  1  0.000000  0.999528  0.000470  1
  Sc  Sc9  1  0.000000  0.500840  0.498921  1
  In  In10  1  0.500000  0.423359  0.355773  1
  In  In11  1  0.500000  0.569805  0.644501  1
  In  In12  1  0.500000  0.069719  0.853829  1
  In  In13  1  0.500000  0.929995  0.147985  1
  In  In14  1  0.500000  0.286671  0.065676  1
  In  In15  1  0.500000  0.712048  0.934954  1
  In  In16  1  0.500000  0.210975  0.560678  1
  In  In17  1  0.500000  0.793893  0.434778  1
  Ir  Ir18  1  0.500000  0.027859  0.307255  1
  Ir  Ir19  1  0.500000  0.977256  0.695746  1
  Ir  Ir20  1  0.500000  0.475319  0.803159  1
  Ir  Ir21  1  0.500000  0.523805  0.197309  1
