# generated using pymatgen
data_LiTb8InRh2
_symmetry_space_group_name_H-M   'P 1'
_cell_length_a   9.67370640
_cell_length_b   9.67370645
_cell_length_c   9.68220400
_cell_angle_alpha   59.97093794
_cell_angle_beta   59.97093775
_cell_angle_gamma   59.98339587
_symmetry_Int_Tables_number   1
_chemical_formula_structural   LiTb8InRh2
_chemical_formula_sum   'Li2 Tb16 In2 Rh4'
_cell_volume   640.32379959
_cell_formula_units_Z   2
loop_
 _symmetry_equiv_pos_site_id
 _symmetry_equiv_pos_as_xyz
  1  'x, y, z'
loop_
 _atom_site_type_symbol
 _atom_site_label
 _atom_site_symmetry_multiplicity
 _atom_site_fract_x
 _atom_site_fract_y
 _atom_site_fract_z
 _atom_site_occupancy
  Li  Li0  1  0.427253  0.427253  0.424189  1
  Li  Li1  1  0.427253  0.427253  0.721304  1
  Tb  Tb2  1  0.807861  0.807861  0.192139  1
  Tb  Tb3  1  0.811531  0.187902  0.811401  1
  Tb  Tb4  1  0.183163  0.183163  0.816837  1
  Tb  Tb5  1  0.652885  0.043934  0.651591  1
  Tb  Tb6  1  0.064125  0.064125  0.435875  1
  Tb  Tb7  1  0.437493  0.437493  0.062507  1
  Tb  Tb8  1  0.650926  0.650926  0.649447  1
  Tb  Tb9  1  0.811531  0.187902  0.189166  1
  Tb  Tb10  1  0.187902  0.811531  0.811401  1
  Tb  Tb11  1  0.043934  0.652885  0.651591  1
  Tb  Tb12  1  0.436439  0.063595  0.063103  1
  Tb  Tb13  1  0.436439  0.063595  0.436864  1
  Tb  Tb14  1  0.063595  0.436439  0.063103  1
  Tb  Tb15  1  0.650926  0.650926  0.048701  1
  Tb  Tb16  1  0.187902  0.811531  0.189166  1
  Tb  Tb17  1  0.063595  0.436439  0.436864  1
  In  In18  1  0.415626  0.743286  0.420544  1
  In  In19  1  0.743286  0.415626  0.420544  1
  Rh  Rh20  1  0.856425  0.427144  0.858216  1
  Rh  Rh21  1  0.856384  0.856384  0.860074  1
  Rh  Rh22  1  0.856384  0.856384  0.427159  1
  Rh  Rh23  1  0.427144  0.856425  0.858216  1
