# generated using pymatgen
data_HoBe2Ni3
_symmetry_space_group_name_H-M   'P 1'
_cell_length_a   4.98768700
_cell_length_b   4.98768619
_cell_length_c   3.40278900
_cell_angle_alpha   90.00000000
_cell_angle_beta   90.00000000
_cell_angle_gamma   119.99999875
_symmetry_Int_Tables_number   1
_chemical_formula_structural   HoBe2Ni3
_chemical_formula_sum   'Ho1 Be2 Ni3'
_cell_volume   73.31012671
_cell_formula_units_Z   1
loop_
 _symmetry_equiv_pos_site_id
 _symmetry_equiv_pos_as_xyz
  1  'x, y, z'
loop_
 _atom_site_type_symbol
 _atom_site_label
 _atom_site_symmetry_multiplicity
 _atom_site_fract_x
 _atom_site_fract_y
 _atom_site_fract_z
 _atom_site_occupancy
  Ho  Ho0  1  0.000000  0.000000  0.000000  1
  Be  Be1  1  0.666668  0.333334  0.000000  1
  Be  Be2  1  0.333333  0.666666  0.000000  1
  Ni  Ni3  1  0.500001  0.000000  0.499999  1
  Ni  Ni4  1  0.000000  0.500001  0.499999  1
  Ni  Ni5  1  0.500000  0.500001  0.499999  1
