# generated using pymatgen
data_Ho8Sc12Tl15Sn
_symmetry_space_group_name_H-M   'P 1'
_cell_length_a   7.64115725
_cell_length_b   7.96191668
_cell_length_c   15.19381100
_cell_angle_alpha   90.25758271
_cell_angle_beta   89.73254175
_cell_angle_gamma   89.91887120
_symmetry_Int_Tables_number   1
_chemical_formula_structural   Ho8Sc12Tl15Sn
_chemical_formula_sum   'Ho8 Sc12 Tl15 Sn1'
_cell_volume   924.34461755
_cell_formula_units_Z   1
loop_
 _symmetry_equiv_pos_site_id
 _symmetry_equiv_pos_as_xyz
  1  'x, y, z'
loop_
 _atom_site_type_symbol
 _atom_site_label
 _atom_site_symmetry_multiplicity
 _atom_site_fract_x
 _atom_site_fract_y
 _atom_site_fract_z
 _atom_site_occupancy
  Ho  Ho0  1  0.000323  0.183257  0.093306  1
  Ho  Ho1  1  0.999991  0.816725  0.906472  1
  Ho  Ho2  1  0.499527  0.681687  0.907002  1
  Ho  Ho3  1  0.001287  0.817905  0.593298  1
  Ho  Ho4  1  0.499742  0.317416  0.093740  1
  Ho  Ho5  1  0.000147  0.182078  0.406664  1
  Ho  Ho6  1  0.498658  0.317487  0.407483  1
  Ho  Ho7  1  0.499071  0.681917  0.593075  1
  Sc  Sc8  1  0.164664  0.497242  0.749077  1
  Sc  Sc9  1  0.836924  0.503039  0.248986  1
  Sc  Sc10  1  0.335740  0.998766  0.250189  1
  Sc  Sc11  1  0.664482  0.002855  0.750494  1
  Sc  Sc12  1  0.333072  0.159937  0.625100  1
  Sc  Sc13  1  0.667031  0.840085  0.374451  1
  Sc  Sc14  1  0.167908  0.663090  0.374937  1
  Sc  Sc15  1  0.665883  0.839318  0.125147  1
  Sc  Sc16  1  0.832451  0.337744  0.625612  1
  Sc  Sc17  1  0.332008  0.160275  0.874868  1
  Sc  Sc18  1  0.832402  0.339267  0.874680  1
  Sc  Sc19  1  0.170076  0.659498  0.125313  1
  Tl  Tl20  1  0.025326  0.123912  0.749617  1
  Tl  Tl21  1  0.974978  0.875814  0.248748  1
  Tl  Tl22  1  0.475742  0.623874  0.251035  1
  Tl  Tl23  1  0.525191  0.375367  0.750503  1
  Tl  Tl24  1  0.298634  0.853420  0.750316  1
  Tl  Tl25  1  0.701344  0.146385  0.250006  1
  Tl  Tl26  1  0.201578  0.355144  0.250823  1
  Tl  Tl27  1  0.798704  0.645691  0.749574  1
  Tl  Tl28  1  0.818650  0.541673  0.457595  1
  Tl  Tl29  1  0.319566  0.959978  0.458290  1
  Tl  Tl30  1  0.818701  0.540209  0.042040  1
  Tl  Tl31  1  0.681597  0.041025  0.541756  1
  Tl  Tl32  1  0.180382  0.459489  0.957700  1
  Tl  Tl33  1  0.680821  0.041250  0.958059  1
  Tl  Tl34  1  0.319569  0.958391  0.042230  1
  Sn  Sn35  1  0.177831  0.458792  0.541812  1
