# generated using pymatgen
data_Tm2NpB2Ru5
_symmetry_space_group_name_H-M   'P 1'
_cell_length_a   9.72632500
_cell_length_b   9.72632500
_cell_length_c   3.15560000
_cell_angle_alpha   90.00000000
_cell_angle_beta   90.00000000
_cell_angle_gamma   90.00000000
_symmetry_Int_Tables_number   1
_chemical_formula_structural   Tm2NpB2Ru5
_chemical_formula_sum   'Tm4 Np2 B4 Ru10'
_cell_volume   298.52417155
_cell_formula_units_Z   2
loop_
 _symmetry_equiv_pos_site_id
 _symmetry_equiv_pos_as_xyz
  1  'x, y, z'
loop_
 _atom_site_type_symbol
 _atom_site_label
 _atom_site_symmetry_multiplicity
 _atom_site_fract_x
 _atom_site_fract_y
 _atom_site_fract_z
 _atom_site_occupancy
  Tm  Tm0  1  0.828054  0.671946  0.000000  1
  Tm  Tm1  1  0.171946  0.328054  0.000000  1
  Tm  Tm2  1  0.328054  0.828054  0.000000  1
  Tm  Tm3  1  0.671946  0.171946  0.000000  1
  Np  Np4  1  0.500000  0.500000  0.000000  1
  Np  Np5  1  0.000000  0.000000  0.000000  1
  B  B6  1  0.619892  0.880108  0.000000  1
  B  B7  1  0.380108  0.119892  0.000000  1
  B  B8  1  0.119892  0.619892  0.000000  1
  B  B9  1  0.880108  0.380108  0.000000  1
  Ru  Ru10  1  0.572296  0.719004  0.500000  1
  Ru  Ru11  1  0.427704  0.280996  0.500000  1
  Ru  Ru12  1  0.072296  0.780996  0.500000  1
  Ru  Ru13  1  0.927704  0.219004  0.500000  1
  Ru  Ru14  1  0.280996  0.572296  0.500000  1
  Ru  Ru15  1  0.719004  0.427704  0.500000  1
  Ru  Ru16  1  0.219004  0.072296  0.500000  1
  Ru  Ru17  1  0.780996  0.927704  0.500000  1
  Ru  Ru18  1  0.500000  0.000000  0.500000  1
  Ru  Ru19  1  0.000000  0.500000  0.500000  1
