# generated using pymatgen
data_Lu8Ti11Si16Au
_symmetry_space_group_name_H-M   'P 1'
_cell_length_a   6.99979724
_cell_length_b   6.99979702
_cell_length_c   12.75694059
_cell_angle_alpha   90.11047382
_cell_angle_beta   89.88952921
_cell_angle_gamma   89.69529991
_symmetry_Int_Tables_number   1
_chemical_formula_structural   Lu8Ti11Si16Au
_chemical_formula_sum   'Lu8 Ti11 Si16 Au1'
_cell_volume   625.04268340
_cell_formula_units_Z   1
loop_
 _symmetry_equiv_pos_site_id
 _symmetry_equiv_pos_as_xyz
  1  'x, y, z'
loop_
 _atom_site_type_symbol
 _atom_site_label
 _atom_site_symmetry_multiplicity
 _atom_site_fract_x
 _atom_site_fract_y
 _atom_site_fract_z
 _atom_site_occupancy
  Lu  Lu0  1  0.341181  0.001603  0.467020  1
  Lu  Lu1  1  0.497868  0.841324  0.716897  1
  Lu  Lu2  1  0.501240  0.156898  0.214764  1
  Lu  Lu3  1  0.841324  0.497868  0.283103  1
  Lu  Lu4  1  0.156898  0.501240  0.785236  1
  Lu  Lu5  1  0.656813  0.001008  0.968980  1
  Lu  Lu6  1  0.001603  0.341181  0.532980  1
  Lu  Lu7  1  0.001008  0.656813  0.031020  1
  Ti  Ti8  1  0.174272  0.826246  0.249362  1
  Ti  Ti9  1  0.826246  0.174272  0.750638  1
  Ti  Ti10  1  0.672540  0.672540  0.500000  1
  Ti  Ti11  1  0.146638  0.006216  0.876042  1
  Ti  Ti12  1  0.495754  0.650477  0.122674  1
  Ti  Ti13  1  0.505953  0.351768  0.625146  1
  Ti  Ti14  1  0.650477  0.495754  0.877326  1
  Ti  Ti15  1  0.351768  0.505953  0.374854  1
  Ti  Ti16  1  0.851446  0.992620  0.374141  1
  Ti  Ti17  1  0.006216  0.146638  0.123958  1
  Ti  Ti18  1  0.992620  0.851446  0.625859  1
  Si  Si19  1  0.202646  0.134620  0.683105  1
  Si  Si20  1  0.372825  0.720646  0.927105  1
  Si  Si21  1  0.632948  0.293222  0.431172  1
  Si  Si22  1  0.720646  0.372825  0.072895  1
  Si  Si23  1  0.293222  0.632948  0.568828  1
  Si  Si24  1  0.797060  0.864900  0.181616  1
  Si  Si25  1  0.134620  0.202646  0.316895  1
  Si  Si26  1  0.864900  0.797060  0.818384  1
  Si  Si27  1  0.287430  0.939019  0.065548  1
  Si  Si28  1  0.546770  0.792493  0.314714  1
  Si  Si29  1  0.454316  0.206267  0.810187  1
  Si  Si30  1  0.792493  0.546770  0.685286  1
  Si  Si31  1  0.206267  0.454316  0.189813  1
  Si  Si32  1  0.706842  0.047449  0.564562  1
  Si  Si33  1  0.939019  0.287430  0.934452  1
  Si  Si34  1  0.047449  0.706842  0.435438  1
  Au  Au35  1  0.328682  0.328682  0.000000  1
