# generated using pymatgen
data_CuSi2(Pd2Pt3)2
_symmetry_space_group_name_H-M   'P 1'
_cell_length_a   3.88970200
_cell_length_b   6.22403900
_cell_length_c   16.17438900
_cell_angle_alpha   90.00000000
_cell_angle_beta   90.00000000
_cell_angle_gamma   90.00000000
_symmetry_Int_Tables_number   1
_chemical_formula_structural   CuSi2(Pd2Pt3)2
_chemical_formula_sum   'Cu2 Si4 Pd8 Pt12'
_cell_volume   391.57640901
_cell_formula_units_Z   2
loop_
 _symmetry_equiv_pos_site_id
 _symmetry_equiv_pos_as_xyz
  1  'x, y, z'
loop_
 _atom_site_type_symbol
 _atom_site_label
 _atom_site_symmetry_multiplicity
 _atom_site_fract_x
 _atom_site_fract_y
 _atom_site_fract_z
 _atom_site_occupancy
  Cu  Cu0  1  0.500000  0.500000  0.000000  1
  Cu  Cu1  1  0.500000  0.000000  0.500000  1
  Si  Si2  1  0.500000  0.827843  0.300072  1
  Si  Si3  1  0.500000  0.172157  0.699928  1
  Si  Si4  1  0.500000  0.327843  0.199928  1
  Si  Si5  1  0.500000  0.672157  0.800072  1
  Pd  Pd6  1  0.000000  0.303511  0.458767  1
  Pd  Pd7  1  0.000000  0.696489  0.541233  1
  Pd  Pd8  1  0.000000  0.803511  0.041233  1
  Pd  Pd9  1  0.000000  0.196489  0.958767  1
  Pd  Pd10  1  0.000000  0.518705  0.285583  1
  Pd  Pd11  1  0.000000  0.481295  0.714417  1
  Pd  Pd12  1  0.000000  0.018705  0.214417  1
  Pd  Pd13  1  0.000000  0.981295  0.785583  1
  Pt  Pt14  1  0.000000  0.904479  0.386590  1
  Pt  Pt15  1  0.000000  0.095521  0.613410  1
  Pt  Pt16  1  0.000000  0.404479  0.113410  1
  Pt  Pt17  1  0.000000  0.595521  0.886590  1
  Pt  Pt18  1  0.500000  0.601143  0.419845  1
  Pt  Pt19  1  0.500000  0.398857  0.580155  1
  Pt  Pt20  1  0.500000  0.101143  0.080155  1
  Pt  Pt21  1  0.500000  0.898857  0.919845  1
  Pt  Pt22  1  0.500000  0.207297  0.336526  1
  Pt  Pt23  1  0.500000  0.792703  0.663474  1
  Pt  Pt24  1  0.500000  0.707297  0.163474  1
  Pt  Pt25  1  0.500000  0.292703  0.836526  1
