# generated using pymatgen
data_Tb9Y11(Ir2Ru)4
_symmetry_space_group_name_H-M   'P 1'
_cell_length_a   10.87950202
_cell_length_b   10.88298520
_cell_length_c   6.45714812
_cell_angle_alpha   89.97871401
_cell_angle_beta   90.00459998
_cell_angle_gamma   90.00425500
_symmetry_Int_Tables_number   1
_chemical_formula_structural   Tb9Y11(Ir2Ru)4
_chemical_formula_sum   'Tb9 Y11 Ir8 Ru4'
_cell_volume   764.53570307
_cell_formula_units_Z   1
loop_
 _symmetry_equiv_pos_site_id
 _symmetry_equiv_pos_as_xyz
  1  'x, y, z'
loop_
 _atom_site_type_symbol
 _atom_site_label
 _atom_site_symmetry_multiplicity
 _atom_site_fract_x
 _atom_site_fract_y
 _atom_site_fract_z
 _atom_site_occupancy
  Tb  Tb0  1  0.293700  0.086896  0.378482  1
  Tb  Tb1  1  0.293559  0.913124  0.878404  1
  Tb  Tb2  1  0.706426  0.087014  0.878445  1
  Tb  Tb3  1  0.706408  0.913188  0.378360  1
  Tb  Tb4  1  0.586820  0.793429  0.878374  1
  Tb  Tb5  1  0.999999  0.999973  0.499908  1
  Tb  Tb6  1  0.000040  0.000026  0.999921  1
  Tb  Tb7  1  0.499951  0.499978  0.000058  1
  Tb  Tb8  1  0.500027  0.499955  0.499931  1
  Y  Y9  1  0.586840  0.206734  0.378303  1
  Y  Y10  1  0.413027  0.793247  0.378269  1
  Y  Y11  1  0.413117  0.206783  0.878343  1
  Y  Y12  1  0.206482  0.413209  0.621857  1
  Y  Y13  1  0.206475  0.586849  0.121998  1
  Y  Y14  1  0.793492  0.413128  0.121931  1
  Y  Y15  1  0.793445  0.586803  0.621812  1
  Y  Y16  1  0.913100  0.706450  0.121792  1
  Y  Y17  1  0.912973  0.293519  0.621745  1
  Y  Y18  1  0.086958  0.706462  0.621765  1
  Y  Y19  1  0.086917  0.293507  0.121737  1
  Ir  Ir20  1  0.847641  0.152270  0.249785  1
  Ir  Ir21  1  0.847494  0.847740  0.749918  1
  Ir  Ir22  1  0.152387  0.152264  0.749792  1
  Ir  Ir23  1  0.152373  0.847747  0.249797  1
  Ir  Ir24  1  0.652393  0.347545  0.750098  1
  Ir  Ir25  1  0.652283  0.652528  0.249868  1
  Ir  Ir26  1  0.347668  0.347592  0.250076  1
  Ir  Ir27  1  0.347751  0.652539  0.750136  1
  Ru  Ru28  1  0.500122  0.999752  0.123131  1
  Ru  Ru29  1  0.500106  0.999706  0.623756  1
  Ru  Ru30  1  0.000016  0.500031  0.876090  1
  Ru  Ru31  1  0.000007  0.500012  0.376119  1
