# generated using pymatgen
data_YEr2Zr(Ga3Ir)6
_symmetry_space_group_name_H-M   'P 1'
_cell_length_a   7.57254132
_cell_length_b   7.56283649
_cell_length_c   9.44934200
_cell_angle_alpha   90.00000000
_cell_angle_beta   90.00000000
_cell_angle_gamma   119.89699703
_symmetry_Int_Tables_number   1
_chemical_formula_structural   YEr2Zr(Ga3Ir)6
_chemical_formula_sum   'Y1 Er2 Zr1 Ga18 Ir6'
_cell_volume   469.14640440
_cell_formula_units_Z   1
loop_
 _symmetry_equiv_pos_site_id
 _symmetry_equiv_pos_as_xyz
  1  'x, y, z'
loop_
 _atom_site_type_symbol
 _atom_site_label
 _atom_site_symmetry_multiplicity
 _atom_site_fract_x
 _atom_site_fract_y
 _atom_site_fract_z
 _atom_site_occupancy
  Y  Y0  1  0.004537  0.330630  0.750000  1
  Er  Er1  1  0.669760  0.997789  0.250000  1
  Er  Er2  1  0.330728  0.003756  0.750000  1
  Zr  Zr3  1  0.996314  0.668203  0.250000  1
  Ga  Ga4  1  0.125789  0.125291  0.250000  1
  Ga  Ga5  1  0.871399  0.870181  0.750000  1
  Ga  Ga6  1  0.998393  0.336831  0.084051  1
  Ga  Ga7  1  0.001418  0.666190  0.922275  1
  Ga  Ga8  1  0.001418  0.666190  0.577725  1
  Ga  Ga9  1  0.331855  0.996405  0.416196  1
  Ga  Ga10  1  0.998393  0.336831  0.415949  1
  Ga  Ga11  1  0.664945  0.000235  0.580003  1
  Ga  Ga12  1  0.664945  0.000235  0.919997  1
  Ga  Ga13  1  0.331855  0.996405  0.083804  1
  Ga  Ga14  1  0.333012  0.332215  0.564266  1
  Ga  Ga15  1  0.670179  0.668618  0.429723  1
  Ga  Ga16  1  0.670179  0.668618  0.070277  1
  Ga  Ga17  1  0.333012  0.332215  0.935734  1
  Ga  Ga18  1  0.338420  0.547936  0.250000  1
  Ga  Ga19  1  0.660306  0.453771  0.750000  1
  Ga  Ga20  1  0.550158  0.340484  0.250000  1
  Ga  Ga21  1  0.453470  0.660860  0.750000  1
  Ir  Ir22  1  0.672078  0.328704  0.001100  1
  Ir  Ir23  1  0.328044  0.672009  0.001651  1
  Ir  Ir24  1  0.328044  0.672009  0.498349  1
  Ir  Ir25  1  0.672078  0.328704  0.498900  1
  Ir  Ir26  1  0.999637  0.999340  0.001126  1
  Ir  Ir27  1  0.999637  0.999340  0.498874  1
