# generated using pymatgen
data_Dy19Sc(Cd3Ru)2
_symmetry_space_group_name_H-M   'P 1'
_cell_length_a   9.54843300
_cell_length_b   9.54843314
_cell_length_c   9.82565800
_cell_angle_alpha   90.00000000
_cell_angle_beta   90.00000000
_cell_angle_gamma   119.99999603
_symmetry_Int_Tables_number   1
_chemical_formula_structural   Dy19Sc(Cd3Ru)2
_chemical_formula_sum   'Dy19 Sc1 Cd6 Ru2'
_cell_volume   775.81202958
_cell_formula_units_Z   1
loop_
 _symmetry_equiv_pos_site_id
 _symmetry_equiv_pos_as_xyz
  1  'x, y, z'
loop_
 _atom_site_type_symbol
 _atom_site_label
 _atom_site_symmetry_multiplicity
 _atom_site_fract_x
 _atom_site_fract_y
 _atom_site_fract_z
 _atom_site_occupancy
  Dy  Dy0  1  0.000000  0.000000  0.000000  1
  Dy  Dy1  1  0.208597  0.791403  0.440393  1
  Dy  Dy2  1  0.208597  0.417196  0.440393  1
  Dy  Dy3  1  0.582804  0.791403  0.440393  1
  Dy  Dy4  1  0.791403  0.208597  0.559607  1
  Dy  Dy5  1  0.791403  0.582804  0.559607  1
  Dy  Dy6  1  0.417196  0.208597  0.559607  1
  Dy  Dy7  1  0.789924  0.210076  0.940799  1
  Dy  Dy8  1  0.789924  0.579846  0.940799  1
  Dy  Dy9  1  0.420154  0.210076  0.940799  1
  Dy  Dy10  1  0.210076  0.789924  0.059201  1
  Dy  Dy11  1  0.210076  0.420154  0.059201  1
  Dy  Dy12  1  0.579846  0.789924  0.059201  1
  Dy  Dy13  1  0.541092  0.458908  0.250210  1
  Dy  Dy14  1  0.541092  0.082183  0.250210  1
  Dy  Dy15  1  0.917817  0.458908  0.250210  1
  Dy  Dy16  1  0.458908  0.541092  0.749790  1
  Dy  Dy17  1  0.458908  0.917817  0.749790  1
  Dy  Dy18  1  0.082183  0.541092  0.749790  1
  Sc  Sc19  1  0.000000  0.000000  0.500000  1
  Cd  Cd20  1  0.887192  0.112808  0.254235  1
  Cd  Cd21  1  0.887192  0.774386  0.254235  1
  Cd  Cd22  1  0.225614  0.112808  0.254235  1
  Cd  Cd23  1  0.112808  0.887192  0.745765  1
  Cd  Cd24  1  0.112808  0.225614  0.745765  1
  Cd  Cd25  1  0.774386  0.887192  0.745765  1
  Ru  Ru26  1  0.333333  0.666667  0.250258  1
  Ru  Ru27  1  0.666667  0.333333  0.749742  1
