# generated using pymatgen
data_Pr2YMg3Ga2Hg
_symmetry_space_group_name_H-M   'P 1'
_cell_length_a   7.53222029
_cell_length_b   7.60459932
_cell_length_c   4.50708600
_cell_angle_alpha   90.00000000
_cell_angle_beta   90.00000000
_cell_angle_gamma   120.31837786
_symmetry_Int_Tables_number   1
_chemical_formula_structural   Pr2YMg3Ga2Hg
_chemical_formula_sum   'Pr2 Y1 Mg3 Ga2 Hg1'
_cell_volume   222.85560888
_cell_formula_units_Z   1
loop_
 _symmetry_equiv_pos_site_id
 _symmetry_equiv_pos_as_xyz
  1  'x, y, z'
loop_
 _atom_site_type_symbol
 _atom_site_label
 _atom_site_symmetry_multiplicity
 _atom_site_fract_x
 _atom_site_fract_y
 _atom_site_fract_z
 _atom_site_occupancy
  Pr  Pr0  1  0.574423  0.573232  0.000000  1
  Pr  Pr1  1  0.425577  0.998809  0.000000  1
  Y  Y2  1  0.000000  0.424699  0.000000  1
  Mg  Mg3  1  0.000000  0.751326  0.500000  1
  Mg  Mg4  1  0.245509  0.247626  0.500000  1
  Mg  Mg5  1  0.754491  0.002117  0.500000  1
  Ga  Ga6  1  0.326839  0.661673  0.500000  1
  Ga  Ga7  1  0.673161  0.334834  0.500000  1
  Hg  Hg8  1  0.000000  0.005685  0.000000  1
