# generated using pymatgen
data_Rb4TbNbBr12
_symmetry_space_group_name_H-M   'P 1'
_cell_length_a   13.67083253
_cell_length_b   13.67082884
_cell_length_c   13.67081400
_cell_angle_alpha   132.03414886
_cell_angle_beta   132.03426113
_cell_angle_gamma   70.17495508
_symmetry_Int_Tables_number   1
_chemical_formula_structural   Rb4TbNbBr12
_chemical_formula_sum   'Rb8 Tb2 Nb2 Br24'
_cell_volume   1381.61707422
_cell_formula_units_Z   2
loop_
 _symmetry_equiv_pos_site_id
 _symmetry_equiv_pos_as_xyz
  1  'x, y, z'
loop_
 _atom_site_type_symbol
 _atom_site_label
 _atom_site_symmetry_multiplicity
 _atom_site_fract_x
 _atom_site_fract_y
 _atom_site_fract_z
 _atom_site_occupancy
  Rb  Rb0  1  0.374602  0.342595  0.464835  1
  Rb  Rb1  1  0.090213  0.625390  0.967978  1
  Rb  Rb2  1  0.877738  0.909778  0.535163  1
  Rb  Rb3  1  0.092581  0.127762  0.467969  1
  Rb  Rb4  1  0.375398  0.907405  0.035165  1
  Rb  Rb5  1  0.659787  0.624610  0.532022  1
  Rb  Rb6  1  0.657419  0.122238  0.032031  1
  Rb  Rb7  1  0.872262  0.340222  0.964837  1
  Tb  Tb8  1  0.749999  0.249999  0.500000  1
  Tb  Tb9  1  0.000001  0.000001  0.000000  1
  Nb  Nb10  1  0.249995  0.750000  0.499999  1
  Nb  Nb11  1  0.500005  0.500000  0.000001  1
  Br  Br12  1  0.018936  0.770960  0.294083  1
  Br  Br13  1  0.021835  0.257340  0.269109  1
  Br  Br14  1  0.275149  0.981071  0.752029  1
  Br  Br15  1  0.007337  0.238228  0.735500  1
  Br  Br16  1  0.136029  0.636032  0.500000  1
  Br  Br17  1  0.273126  0.525149  0.794082  1
  Br  Br18  1  0.476874  0.724851  0.705918  1
  Br  Br19  1  0.502729  0.271835  0.264498  1
  Br  Br20  1  0.474851  0.268929  0.747971  1
  Br  Br21  1  0.613971  0.613968  0.000000  1
  Br  Br22  1  0.520960  0.726875  0.252023  1
  Br  Br23  1  0.125729  0.125729  0.999996  1
  Br  Br24  1  0.874268  0.874271  0.000001  1
  Br  Br25  1  0.988228  0.752724  0.730892  1
  Br  Br26  1  0.742663  0.011772  0.764500  1
  Br  Br27  1  0.247271  0.978165  0.235502  1
  Br  Br28  1  0.731064  0.479040  0.205917  1
  Br  Br29  1  0.229040  0.523125  0.247977  1
  Br  Br30  1  0.363975  0.863975  0.500004  1
  Br  Br31  1  0.875732  0.375729  0.499999  1
  Br  Br32  1  0.386025  0.386025  0.999996  1
  Br  Br33  1  0.624271  0.124271  0.500004  1
  Br  Br34  1  0.761772  0.497276  0.769108  1
  Br  Br35  1  0.728165  0.992660  0.230891  1
