# generated using pymatgen
data_Ho4ReB12Rh
_symmetry_space_group_name_H-M   'P 1'
_cell_length_a   3.67091600
_cell_length_b   9.13617106
_cell_length_c   11.52340971
_cell_angle_alpha   90.43921025
_cell_angle_beta   90.00000000
_cell_angle_gamma   90.00000000
_symmetry_Int_Tables_number   1
_chemical_formula_structural   Ho4ReB12Rh
_chemical_formula_sum   'Ho8 Re2 B24 Rh2'
_cell_volume   386.46210237
_cell_formula_units_Z   2
loop_
 _symmetry_equiv_pos_site_id
 _symmetry_equiv_pos_as_xyz
  1  'x, y, z'
loop_
 _atom_site_type_symbol
 _atom_site_label
 _atom_site_symmetry_multiplicity
 _atom_site_fract_x
 _atom_site_fract_y
 _atom_site_fract_z
 _atom_site_occupancy
  Ho  Ho0  1  0.000000  0.318347  0.410760  1
  Ho  Ho1  1  0.000000  0.681653  0.589240  1
  Ho  Ho2  1  0.000000  0.826316  0.082711  1
  Ho  Ho3  1  0.000000  0.173684  0.917289  1
  Ho  Ho4  1  0.000000  0.945188  0.371802  1
  Ho  Ho5  1  0.000000  0.054812  0.628198  1
  Ho  Ho6  1  0.000000  0.442416  0.126600  1
  Ho  Ho7  1  0.000000  0.557584  0.873400  1
  Re  Re8  1  0.000000  0.138719  0.179628  1
  Re  Re9  1  0.000000  0.861281  0.820372  1
  B  B10  1  0.500000  0.554263  0.434204  1
  B  B11  1  0.500000  0.445737  0.565796  1
  B  B12  1  0.500000  0.052875  0.067343  1
  B  B13  1  0.500000  0.947125  0.932657  1
  B  B14  1  0.500000  0.748740  0.421390  1
  B  B15  1  0.500000  0.251260  0.578610  1
  B  B16  1  0.500000  0.248203  0.081203  1
  B  B17  1  0.500000  0.751797  0.918797  1
  B  B18  1  0.500000  0.791166  0.265271  1
  B  B19  1  0.500000  0.208834  0.734729  1
  B  B20  1  0.500000  0.292746  0.234721  1
  B  B21  1  0.500000  0.707254  0.765279  1
  B  B22  1  0.500000  0.632514  0.183597  1
  B  B23  1  0.500000  0.367486  0.816403  1
  B  B24  1  0.500000  0.131959  0.314720  1
  B  B25  1  0.500000  0.868041  0.685280  1
  B  B26  1  0.500000  0.982941  0.212928  1
  B  B27  1  0.500000  0.017059  0.787072  1
  B  B28  1  0.500000  0.483373  0.287812  1
  B  B29  1  0.500000  0.516627  0.712188  1
  B  B30  1  0.500000  0.606855  0.029705  1
  B  B31  1  0.500000  0.393145  0.970295  1
  B  B32  1  0.500000  0.108092  0.470762  1
  B  B33  1  0.500000  0.891908  0.529238  1
  Rh  Rh34  1  0.000000  0.637730  0.321527  1
  Rh  Rh35  1  0.000000  0.362270  0.678473  1
