# generated using pymatgen
data_Tb3Nd3Co16(TcP6)2
_symmetry_space_group_name_H-M   'P 1'
_cell_length_a   3.75216800
_cell_length_b   10.65354025
_cell_length_c   12.33259830
_cell_angle_alpha   89.67661860
_cell_angle_beta   90.00000000
_cell_angle_gamma   90.00000000
_symmetry_Int_Tables_number   1
_chemical_formula_structural   Tb3Nd3Co16(TcP6)2
_chemical_formula_sum   'Tb3 Nd3 Co16 Tc2 P12'
_cell_volume   492.97386409
_cell_formula_units_Z   1
loop_
 _symmetry_equiv_pos_site_id
 _symmetry_equiv_pos_as_xyz
  1  'x, y, z'
loop_
 _atom_site_type_symbol
 _atom_site_label
 _atom_site_symmetry_multiplicity
 _atom_site_fract_x
 _atom_site_fract_y
 _atom_site_fract_z
 _atom_site_occupancy
  Tb  Tb0  1  0.500000  0.816937  0.205369  1
  Tb  Tb1  1  0.500000  0.182257  0.204889  1
  Tb  Tb2  1  0.000000  0.683705  0.795374  1
  Nd  Nd3  1  0.000000  0.500424  0.523303  1
  Nd  Nd4  1  0.500000  0.999786  0.475892  1
  Nd  Nd5  1  0.000000  0.318117  0.794096  1
  Co  Co6  1  0.500000  0.502783  0.705404  1
  Co  Co7  1  0.000000  0.999508  0.294283  1
  Co  Co8  1  0.000000  0.501731  0.988982  1
  Co  Co9  1  0.500000  0.998479  0.013427  1
  Co  Co10  1  0.500000  0.332340  0.992738  1
  Co  Co11  1  0.500000  0.669007  0.991202  1
  Co  Co12  1  0.000000  0.166632  0.010451  1
  Co  Co13  1  0.000000  0.831871  0.010310  1
  Co  Co14  1  0.500000  0.296120  0.427651  1
  Co  Co15  1  0.500000  0.704433  0.429439  1
  Co  Co16  1  0.000000  0.203801  0.567908  1
  Co  Co17  1  0.000000  0.796219  0.570502  1
  Co  Co18  1  0.500000  0.879372  0.710730  1
  Co  Co19  1  0.500000  0.118025  0.709191  1
  Co  Co20  1  0.000000  0.619843  0.289797  1
  Co  Co21  1  0.000000  0.379687  0.288453  1
  Tc  Tc22  1  0.500000  0.500943  0.154706  1
  Tc  Tc23  1  0.000000  0.998888  0.845943  1
  P  P24  1  0.500000  0.502530  0.884844  1
  P  P25  1  0.000000  0.999000  0.117592  1
  P  P26  1  0.500000  0.499788  0.344011  1
  P  P27  1  0.000000  0.000161  0.655780  1
  P  P28  1  0.500000  0.307359  0.613352  1
  P  P29  1  0.500000  0.692458  0.617095  1
  P  P30  1  0.000000  0.191254  0.381528  1
  P  P31  1  0.000000  0.808072  0.382847  1
  P  P32  1  0.500000  0.846543  0.894499  1
  P  P33  1  0.500000  0.151754  0.896020  1
  P  P34  1  0.000000  0.654168  0.106771  1
  P  P35  1  0.000000  0.346003  0.105618  1
