# generated using pymatgen
data_LiTb16Cd2Co4Hg
_symmetry_space_group_name_H-M   'P 1'
_cell_length_a   9.51271662
_cell_length_b   9.51271749
_cell_length_c   9.53652112
_cell_angle_alpha   60.16731971
_cell_angle_beta   60.16731822
_cell_angle_gamma   60.02262179
_symmetry_Int_Tables_number   1
_chemical_formula_structural   LiTb16Cd2Co4Hg
_chemical_formula_sum   'Li1 Tb16 Cd2 Co4 Hg1'
_cell_volume   611.86051477
_cell_formula_units_Z   1
loop_
 _symmetry_equiv_pos_site_id
 _symmetry_equiv_pos_as_xyz
  1  'x, y, z'
loop_
 _atom_site_type_symbol
 _atom_site_label
 _atom_site_symmetry_multiplicity
 _atom_site_fract_x
 _atom_site_fract_y
 _atom_site_fract_z
 _atom_site_occupancy
  Li  Li0  1  0.821483  0.821483  0.538574  1
  Tb  Tb1  1  0.438944  0.438944  0.059129  1
  Tb  Tb2  1  0.594132  0.594132  0.595313  1
  Tb  Tb3  1  0.187153  0.813464  0.812389  1
  Tb  Tb4  1  0.062966  0.062966  0.434612  1
  Tb  Tb5  1  0.439006  0.060934  0.059112  1
  Tb  Tb6  1  0.813464  0.187153  0.812389  1
  Tb  Tb7  1  0.435156  0.062884  0.435942  1
  Tb  Tb8  1  0.595350  0.213057  0.598071  1
  Tb  Tb9  1  0.811420  0.811420  0.188170  1
  Tb  Tb10  1  0.213057  0.595350  0.598071  1
  Tb  Tb11  1  0.811109  0.189077  0.188763  1
  Tb  Tb12  1  0.062884  0.435156  0.435942  1
  Tb  Tb13  1  0.189077  0.811109  0.188763  1
  Tb  Tb14  1  0.598101  0.598101  0.206618  1
  Tb  Tb15  1  0.186990  0.186990  0.813264  1
  Tb  Tb16  1  0.060934  0.439006  0.059112  1
  Cd  Cd17  1  0.508733  0.830757  0.827533  1
  Cd  Cd18  1  0.830757  0.508733  0.827533  1
  Co  Co19  1  0.392029  0.392029  0.388239  1
  Co  Co20  1  0.827939  0.392083  0.388826  1
  Co  Co21  1  0.392083  0.827939  0.388826  1
  Co  Co22  1  0.391851  0.391851  0.827013  1
  Hg  Hg23  1  0.835385  0.835385  0.827794  1
