# generated using pymatgen
data_Sr4Ca3Cd(SiO4)4
_symmetry_space_group_name_H-M   'P 1'
_cell_length_a   5.14393015
_cell_length_b   7.02182307
_cell_length_c   11.92036253
_cell_angle_alpha   90.21865808
_cell_angle_beta   90.19505173
_cell_angle_gamma   90.21305259
_symmetry_Int_Tables_number   1
_chemical_formula_structural   Sr4Ca3Cd(SiO4)4
_chemical_formula_sum   'Sr4 Ca3 Cd1 Si4 O16'
_cell_volume   430.55209398
_cell_formula_units_Z   1
loop_
 _symmetry_equiv_pos_site_id
 _symmetry_equiv_pos_as_xyz
  1  'x, y, z'
loop_
 _atom_site_type_symbol
 _atom_site_label
 _atom_site_symmetry_multiplicity
 _atom_site_fract_x
 _atom_site_fract_y
 _atom_site_fract_z
 _atom_site_occupancy
  Sr  Sr0  1  0.478909  0.748407  0.779992  1
  Sr  Sr1  1  0.980418  0.250092  0.719541  1
  Sr  Sr2  1  0.521091  0.251593  0.220008  1
  Sr  Sr3  1  0.019582  0.749908  0.280459  1
  Ca  Ca4  1  0.000000  0.500000  0.000000  1
  Ca  Ca5  1  0.500000  0.000000  0.500000  1
  Ca  Ca6  1  0.000000  0.000000  0.000000  1
  Cd  Cd7  1  0.500000  0.500000  0.500000  1
  Si  Si8  1  0.918131  0.748189  0.589114  1
  Si  Si9  1  0.419527  0.249694  0.911375  1
  Si  Si10  1  0.081869  0.251811  0.410886  1
  Si  Si11  1  0.580473  0.750306  0.088625  1
  O  O12  1  0.202976  0.440204  0.344895  1
  O  O13  1  0.705474  0.561102  0.152434  1
  O  O14  1  0.794068  0.938869  0.651911  1
  O  O15  1  0.293907  0.059844  0.846845  1
  O  O16  1  0.797024  0.559796  0.655105  1
  O  O17  1  0.294526  0.438898  0.847566  1
  O  O18  1  0.205932  0.061131  0.348089  1
  O  O19  1  0.706093  0.940156  0.153155  1
  O  O20  1  0.780314  0.745490  0.461117  1
  O  O21  1  0.283181  0.250243  0.038844  1
  O  O22  1  0.219686  0.254510  0.538883  1
  O  O23  1  0.716819  0.749757  0.961156  1
  O  O24  1  0.261013  0.750266  0.083379  1
  O  O25  1  0.762516  0.246332  0.415913  1
  O  O26  1  0.738987  0.249734  0.916621  1
  O  O27  1  0.237484  0.753668  0.584087  1
