# generated using pymatgen
data_Zr3TiV2(SiOs)6
_symmetry_space_group_name_H-M   'P 1'
_cell_length_a   7.51953029
_cell_length_b   7.50283755
_cell_length_c   7.51953096
_cell_angle_alpha   128.20400074
_cell_angle_beta   123.03970664
_cell_angle_gamma   80.63800413
_symmetry_Int_Tables_number   1
_chemical_formula_structural   Zr3TiV2(SiOs)6
_chemical_formula_sum   'Zr3 Ti1 V2 Si6 Os6'
_cell_volume   269.47518462
_cell_formula_units_Z   1
loop_
 _symmetry_equiv_pos_site_id
 _symmetry_equiv_pos_as_xyz
  1  'x, y, z'
loop_
 _atom_site_type_symbol
 _atom_site_label
 _atom_site_symmetry_multiplicity
 _atom_site_fract_x
 _atom_site_fract_y
 _atom_site_fract_z
 _atom_site_occupancy
  Zr  Zr0  1  0.032622  0.010838  0.478217  1
  Zr  Zr1  1  0.971079  0.444445  0.973365  1
  Zr  Zr2  1  0.239751  0.567870  0.828118  1
  Ti  Ti3  1  0.760755  0.594335  0.333581  1
  V  V4  1  0.441578  0.407911  0.466332  1
  V  V5  1  0.550411  0.998631  0.948220  1
  Si  Si6  1  0.228842  0.999588  0.270746  1
  Si  Si7  1  0.785939  0.003505  0.717565  1
  Si  Si8  1  0.181172  0.670743  0.517987  1
  Si  Si9  1  0.798304  0.336136  0.473459  1
  Si  Si10  1  0.652754  0.670743  0.989571  1
  Si  Si11  1  0.362679  0.336136  0.037832  1
  Os  Os12  1  0.961080  0.250050  0.216256  1
  Os  Os13  1  0.533794  0.250050  0.788970  1
  Os  Os14  1  0.414779  0.753662  0.422214  1
  Os  Os15  1  0.583785  0.004849  0.335622  1
  Os  Os16  1  0.831447  0.753662  0.838882  1
  Os  Os17  1  0.169226  0.004849  0.921065  1
