# generated using pymatgen
data_Ac2Yb(InPd)3
_symmetry_space_group_name_H-M   'P 1'
_cell_length_a   7.86546565
_cell_length_b   7.86546529
_cell_length_c   4.27446900
_cell_angle_alpha   90.00000000
_cell_angle_beta   90.00000000
_cell_angle_gamma   120.51571011
_symmetry_Int_Tables_number   1
_chemical_formula_structural   Ac2Yb(InPd)3
_chemical_formula_sum   'Ac2 Yb1 In3 Pd3'
_cell_volume   227.81444218
_cell_formula_units_Z   1
loop_
 _symmetry_equiv_pos_site_id
 _symmetry_equiv_pos_as_xyz
  1  'x, y, z'
loop_
 _atom_site_type_symbol
 _atom_site_label
 _atom_site_symmetry_multiplicity
 _atom_site_fract_x
 _atom_site_fract_y
 _atom_site_fract_z
 _atom_site_occupancy
  Ac  Ac0  1  0.999985  0.586520  0.500000  1
  Ac  Ac1  1  0.586520  0.999985  0.500000  1
  Yb  Yb2  1  0.405382  0.405382  0.500000  1
  In  In3  1  0.013687  0.246898  0.000000  1
  In  In4  1  0.246898  0.013687  0.000000  1
  In  In5  1  0.742313  0.742313  0.000000  1
  Pd  Pd6  1  0.006750  0.006750  0.500000  1
  Pd  Pd7  1  0.662114  0.336350  0.000000  1
  Pd  Pd8  1  0.336350  0.662114  0.000000  1
