# generated using pymatgen
data_Tb5Mg2Nb(Co4P3)4
_symmetry_space_group_name_H-M   'P 1'
_cell_length_a   12.14376700
_cell_length_b   12.14376630
_cell_length_c   3.71083100
_cell_angle_alpha   90.00000000
_cell_angle_beta   90.00000000
_cell_angle_gamma   119.78896525
_symmetry_Int_Tables_number   1
_chemical_formula_structural   Tb5Mg2Nb(Co4P3)4
_chemical_formula_sum   'Tb5 Mg2 Nb1 Co16 P12'
_cell_volume   474.92852068
_cell_formula_units_Z   1
loop_
 _symmetry_equiv_pos_site_id
 _symmetry_equiv_pos_as_xyz
  1  'x, y, z'
loop_
 _atom_site_type_symbol
 _atom_site_label
 _atom_site_symmetry_multiplicity
 _atom_site_fract_x
 _atom_site_fract_y
 _atom_site_fract_z
 _atom_site_occupancy
  Tb  Tb0  1  0.813830  0.998696  0.500000  1
  Tb  Tb1  1  0.998696  0.813830  0.500000  1
  Tb  Tb2  1  0.184119  0.184119  0.500000  1
  Tb  Tb3  1  0.334525  0.665378  0.000000  1
  Tb  Tb4  1  0.665378  0.334525  0.000000  1
  Mg  Mg5  1  0.440942  0.998936  0.000000  1
  Mg  Mg6  1  0.998936  0.440942  0.000000  1
  Nb  Nb7  1  0.558574  0.558574  0.000000  1
  Co  Co8  1  0.281779  0.000408  0.500000  1
  Co  Co9  1  0.000408  0.281779  0.500000  1
  Co  Co10  1  0.720862  0.720862  0.500000  1
  Co  Co11  1  0.627676  0.804881  0.000000  1
  Co  Co12  1  0.198243  0.822416  0.000000  1
  Co  Co13  1  0.177807  0.376525  0.000000  1
  Co  Co14  1  0.376525  0.177807  0.000000  1
  Co  Co15  1  0.804881  0.627676  0.000000  1
  Co  Co16  1  0.822416  0.198243  0.000000  1
  Co  Co17  1  0.515988  0.871691  0.500000  1
  Co  Co18  1  0.123455  0.642915  0.500000  1
  Co  Co19  1  0.356003  0.480593  0.500000  1
  Co  Co20  1  0.480593  0.356003  0.500000  1
  Co  Co21  1  0.871691  0.515988  0.500000  1
  Co  Co22  1  0.642915  0.123455  0.500000  1
  Co  Co23  1  0.002585  0.002585  0.000000  1
  P  P24  1  0.181125  0.000212  0.000000  1
  P  P25  1  0.000212  0.181125  0.000000  1
  P  P26  1  0.822390  0.822390  0.000000  1
  P  P27  1  0.522195  0.690815  0.500000  1
  P  P28  1  0.307359  0.827532  0.500000  1
  P  P29  1  0.170527  0.479820  0.500000  1
  P  P30  1  0.479820  0.170527  0.500000  1
  P  P31  1  0.690815  0.522195  0.500000  1
  P  P32  1  0.827532  0.307359  0.500000  1
  P  P33  1  0.641637  0.000850  0.000000  1
  P  P34  1  0.000850  0.641637  0.000000  1
  P  P35  1  0.356708  0.356708  0.000000  1
