# generated using pymatgen
data_Pa8Ti7Nb5(Si3Ge)4
_symmetry_space_group_name_H-M   'P 1'
_cell_length_a   7.07620316
_cell_length_b   7.06759273
_cell_length_c   12.96971500
_cell_angle_alpha   90.03560520
_cell_angle_beta   90.01225881
_cell_angle_gamma   90.03556516
_symmetry_Int_Tables_number   1
_chemical_formula_structural   Pa8Ti7Nb5(Si3Ge)4
_chemical_formula_sum   'Pa8 Ti7 Nb5 Si12 Ge4'
_cell_volume   648.63751591
_cell_formula_units_Z   1
loop_
 _symmetry_equiv_pos_site_id
 _symmetry_equiv_pos_as_xyz
  1  'x, y, z'
loop_
 _atom_site_type_symbol
 _atom_site_label
 _atom_site_symmetry_multiplicity
 _atom_site_fract_x
 _atom_site_fract_y
 _atom_site_fract_z
 _atom_site_occupancy
  Pa  Pa0  1  0.336903  0.996888  0.466918  1
  Pa  Pa1  1  0.502026  0.835858  0.716686  1
  Pa  Pa2  1  0.495494  0.160382  0.218436  1
  Pa  Pa3  1  0.840712  0.505178  0.282306  1
  Pa  Pa4  1  0.162765  0.499271  0.780968  1
  Pa  Pa5  1  0.666053  0.999004  0.968956  1
  Pa  Pa6  1  0.998058  0.339190  0.529953  1
  Pa  Pa7  1  0.999421  0.667032  0.031909  1
  Ti  Ti8  1  0.496281  0.662821  0.128643  1
  Ti  Ti9  1  0.504168  0.344743  0.627260  1
  Ti  Ti10  1  0.663135  0.495274  0.872223  1
  Ti  Ti11  1  0.336564  0.504697  0.373379  1
  Ti  Ti12  1  0.842851  0.996689  0.375512  1
  Ti  Ti13  1  0.002850  0.156719  0.124502  1
  Ti  Ti14  1  0.997233  0.837428  0.624017  1
  Nb  Nb15  1  0.328299  0.326892  0.000297  1
  Nb  Nb16  1  0.168212  0.831338  0.250259  1
  Nb  Nb17  1  0.829150  0.168812  0.750606  1
  Nb  Nb18  1  0.669271  0.671268  0.500433  1
  Nb  Nb19  1  0.156152  0.000551  0.876467  1
  Si  Si20  1  0.294125  0.623957  0.567381  1
  Si  Si21  1  0.793022  0.877448  0.182907  1
  Si  Si22  1  0.123417  0.206304  0.317810  1
  Si  Si23  1  0.872594  0.791877  0.816728  1
  Si  Si24  1  0.289954  0.960433  0.066420  1
  Si  Si25  1  0.542828  0.789575  0.315106  1
  Si  Si26  1  0.462632  0.210692  0.815997  1
  Si  Si27  1  0.791623  0.540927  0.684960  1
  Si  Si28  1  0.209089  0.458123  0.184790  1
  Si  Si29  1  0.712077  0.039060  0.565693  1
  Si  Si30  1  0.961016  0.291923  0.935006  1
  Si  Si31  1  0.041733  0.711351  0.435996  1
  Ge  Ge32  1  0.204732  0.124345  0.679087  1
  Ge  Ge33  1  0.379951  0.700565  0.932389  1
  Ge  Ge34  1  0.622448  0.296615  0.430207  1
  Ge  Ge35  1  0.703157  0.376771  0.069789  1
