# generated using pymatgen
data_NdHoNi7
_symmetry_space_group_name_H-M   'P 1'
_cell_length_a   4.98767572
_cell_length_b   4.98767637
_cell_length_c   12.33245593
_cell_angle_alpha   78.33334045
_cell_angle_beta   78.33333971
_cell_angle_gamma   60.00000350
_symmetry_Int_Tables_number   1
_chemical_formula_structural   NdHoNi7
_chemical_formula_sum   'Nd2 Ho2 Ni14'
_cell_volume   258.34632387
_cell_formula_units_Z   2
loop_
 _symmetry_equiv_pos_site_id
 _symmetry_equiv_pos_as_xyz
  1  'x, y, z'
loop_
 _atom_site_type_symbol
 _atom_site_label
 _atom_site_symmetry_multiplicity
 _atom_site_fract_x
 _atom_site_fract_y
 _atom_site_fract_z
 _atom_site_occupancy
  Nd  Nd0  1  0.948407  0.948407  0.154779  1
  Nd  Nd1  1  0.051593  0.051593  0.845221  1
  Ho  Ho2  1  0.852090  0.852090  0.443730  1
  Ho  Ho3  1  0.147910  0.147910  0.556270  1
  Ni  Ni4  1  0.500000  0.500000  0.500000  1
  Ni  Ni5  1  0.722257  0.722257  0.833229  1
  Ni  Ni6  1  0.277743  0.277743  0.166771  1
  Ni  Ni7  1  0.611443  0.611443  0.165670  1
  Ni  Ni8  1  0.388557  0.388557  0.834330  1
  Ni  Ni9  1  0.000000  0.500000  0.000000  1
  Ni  Ni10  1  0.500000  0.000000  0.000000  1
  Ni  Ni11  1  0.500000  0.500000  0.000000  1
  Ni  Ni12  1  0.389015  0.389015  0.331713  1
  Ni  Ni13  1  0.890257  0.389015  0.331713  1
  Ni  Ni14  1  0.389015  0.890257  0.331713  1
  Ni  Ni15  1  0.610985  0.610985  0.668287  1
  Ni  Ni16  1  0.109743  0.610985  0.668287  1
  Ni  Ni17  1  0.610985  0.109743  0.668287  1
