# generated using pymatgen
data_Na2V5TcS12
_symmetry_space_group_name_H-M   'P 1'
_cell_length_a   5.48203900
_cell_length_b   5.48203835
_cell_length_c   14.09829100
_cell_angle_alpha   90.00000000
_cell_angle_beta   90.00000000
_cell_angle_gamma   120.00000995
_symmetry_Int_Tables_number   1
_chemical_formula_structural   Na2V5TcS12
_chemical_formula_sum   'Na2 V5 Tc1 S12'
_cell_volume   366.92833389
_cell_formula_units_Z   1
loop_
 _symmetry_equiv_pos_site_id
 _symmetry_equiv_pos_as_xyz
  1  'x, y, z'
loop_
 _atom_site_type_symbol
 _atom_site_label
 _atom_site_symmetry_multiplicity
 _atom_site_fract_x
 _atom_site_fract_y
 _atom_site_fract_z
 _atom_site_occupancy
  Na  Na0  1  0.333333  0.666667  0.250133  1
  Na  Na1  1  0.666667  0.333333  0.749370  1
  V  V2  1  0.000000  0.000000  0.000184  1
  V  V3  1  0.666667  0.333333  0.999493  1
  V  V4  1  0.333333  0.666667  0.499689  1
  V  V5  1  0.000000  0.000000  0.500088  1
  V  V6  1  0.666667  0.333333  0.500358  1
  Tc  Tc7  1  0.333333  0.666667  0.000191  1
  S  S8  1  0.670755  0.666596  0.395325  1
  S  S9  1  0.666505  0.670573  0.604775  1
  S  S10  1  0.999276  0.671235  0.894518  1
  S  S11  1  0.671959  0.000724  0.894518  1
  S  S12  1  0.674649  0.008422  0.105547  1
  S  S13  1  0.333404  0.004160  0.395325  1
  S  S14  1  0.004067  0.333495  0.604775  1
  S  S15  1  0.329427  0.995933  0.604775  1
  S  S16  1  0.991578  0.666227  0.105547  1
  S  S17  1  0.328765  0.328041  0.894518  1
  S  S18  1  0.995840  0.329245  0.395325  1
  S  S19  1  0.333773  0.325351  0.105547  1
