# generated using pymatgen
data_Ba2InFe4Mo(PO4)6
_symmetry_space_group_name_H-M   'P 1'
_cell_length_a   9.42516720
_cell_length_b   9.42516745
_cell_length_c   9.42516800
_cell_angle_alpha   138.15798944
_cell_angle_beta   108.32619345
_cell_angle_gamma   86.59384424
_symmetry_Int_Tables_number   1
_chemical_formula_structural   Ba2InFe4Mo(PO4)6
_chemical_formula_sum   'Ba2 In1 Fe4 Mo1 P6 O24'
_cell_volume   509.59261371
_cell_formula_units_Z   1
loop_
 _symmetry_equiv_pos_site_id
 _symmetry_equiv_pos_as_xyz
  1  'x, y, z'
loop_
 _atom_site_type_symbol
 _atom_site_label
 _atom_site_symmetry_multiplicity
 _atom_site_fract_x
 _atom_site_fract_y
 _atom_site_fract_z
 _atom_site_occupancy
  Ba  Ba0  1  0.750386  0.146434  0.396042  1
  Ba  Ba1  1  0.249614  0.853566  0.603958  1
  In  In2  1  0.500000  0.500000  0.000000  1
  Fe  Fe3  1  0.617795  0.617815  0.500453  1
  Fe  Fe4  1  0.382205  0.382185  0.499547  1
  Fe  Fe5  1  0.117427  0.617799  0.000081  1
  Fe  Fe6  1  0.882573  0.382201  0.999919  1
  Mo  Mo7  1  0.000000  0.000000  0.000000  1
  P  P8  1  0.323428  0.823554  0.000591  1
  P  P9  1  0.751160  0.649326  0.898167  1
  P  P10  1  0.177036  0.176434  0.499871  1
  P  P11  1  0.676572  0.176446  0.999409  1
  P  P12  1  0.248840  0.350674  0.101833  1
  P  P13  1  0.822964  0.823566  0.500129  1
  O  O14  1  0.583319  0.930877  0.785755  1
  O  O15  1  0.084361  0.298094  0.653050  1
  O  O16  1  0.842463  0.874992  0.032539  1
  O  O17  1  0.354984  0.701922  0.786292  1
  O  O18  1  0.142857  0.213979  0.355912  1
  O  O19  1  0.339135  0.304414  0.965267  1
  O  O20  1  0.640601  0.714560  0.357676  1
  O  O21  1  0.857143  0.786021  0.644088  1
  O  O22  1  0.363896  0.488354  0.353271  1
  O  O23  1  0.145125  0.930877  0.347586  1
  O  O24  1  0.643119  0.285463  0.926059  1
  O  O25  1  0.636104  0.511646  0.646729  1
  O  O26  1  0.858073  0.214023  0.071160  1
  O  O27  1  0.854875  0.069123  0.652414  1
  O  O28  1  0.356881  0.714537  0.073941  1
  O  O29  1  0.359399  0.285440  0.642324  1
  O  O30  1  0.660865  0.695586  0.034733  1
  O  O31  1  0.915639  0.701906  0.346950  1
  O  O32  1  0.157537  0.125007  0.967461  1
  O  O33  1  0.864930  0.511647  0.875527  1
  O  O34  1  0.135070  0.488353  0.124473  1
  O  O35  1  0.141927  0.785977  0.928840  1
  O  O36  1  0.645016  0.298078  0.213708  1
  O  O37  1  0.416681  0.069123  0.214245  1
