# generated using pymatgen
data_SrLa6TcCl12
_symmetry_space_group_name_H-M   'P 1'
_cell_length_a   9.17999230
_cell_length_b   9.17653359
_cell_length_c   9.18273600
_cell_angle_alpha   106.22645632
_cell_angle_beta   106.36937567
_cell_angle_gamma   106.22453934
_symmetry_Int_Tables_number   1
_chemical_formula_structural   SrLa6TcCl12
_chemical_formula_sum   'Sr1 La6 Tc1 Cl12'
_cell_volume   656.57558341
_cell_formula_units_Z   1
loop_
 _symmetry_equiv_pos_site_id
 _symmetry_equiv_pos_as_xyz
  1  'x, y, z'
loop_
 _atom_site_type_symbol
 _atom_site_label
 _atom_site_symmetry_multiplicity
 _atom_site_fract_x
 _atom_site_fract_y
 _atom_site_fract_z
 _atom_site_occupancy
  Sr  Sr0  1  0.500000  0.500000  0.500000  1
  La  La1  1  0.110885  0.324186  0.020200  1
  La  La2  1  0.324417  0.020410  0.111595  1
  La  La3  1  0.020330  0.111147  0.324211  1
  La  La4  1  0.979669  0.888853  0.675789  1
  La  La5  1  0.675583  0.979589  0.888404  1
  La  La6  1  0.889115  0.675814  0.979800  1
  Tc  Tc7  1  0.000000  0.000000  0.000000  1
  Cl  Cl8  1  0.220460  0.681914  0.073984  1
  Cl  Cl9  1  0.453355  0.369422  0.156668  1
  Cl  Cl10  1  0.681916  0.073868  0.219629  1
  Cl  Cl11  1  0.926139  0.779887  0.318033  1
  Cl  Cl12  1  0.156467  0.453489  0.369266  1
  Cl  Cl13  1  0.369417  0.156460  0.453727  1
  Cl  Cl14  1  0.630583  0.843540  0.546273  1
  Cl  Cl15  1  0.843532  0.546511  0.630734  1
  Cl  Cl16  1  0.073862  0.220114  0.681968  1
  Cl  Cl17  1  0.318085  0.926133  0.780371  1
  Cl  Cl18  1  0.546644  0.630577  0.843332  1
  Cl  Cl19  1  0.779540  0.318087  0.926016  1
