# generated using pymatgen
data_Th10GaSn4Bi3
_symmetry_space_group_name_H-M   'P 1'
_cell_length_a   9.69760200
_cell_length_b   9.69760090
_cell_length_c   6.58159400
_cell_angle_alpha   90.00000000
_cell_angle_beta   90.00000000
_cell_angle_gamma   119.99999692
_symmetry_Int_Tables_number   1
_chemical_formula_structural   Th10GaSn4Bi3
_chemical_formula_sum   'Th10 Ga1 Sn4 Bi3'
_cell_volume   536.03160507
_cell_formula_units_Z   1
loop_
 _symmetry_equiv_pos_site_id
 _symmetry_equiv_pos_as_xyz
  1  'x, y, z'
loop_
 _atom_site_type_symbol
 _atom_site_label
 _atom_site_symmetry_multiplicity
 _atom_site_fract_x
 _atom_site_fract_y
 _atom_site_fract_z
 _atom_site_occupancy
  Th  Th0  1  0.000000  0.727891  0.758395  1
  Th  Th1  1  0.272109  0.272109  0.758395  1
  Th  Th2  1  0.333333  0.666667  0.496543  1
  Th  Th3  1  0.666667  0.333333  0.496543  1
  Th  Th4  1  0.727115  0.727115  0.242145  1
  Th  Th5  1  0.727891  0.000000  0.758395  1
  Th  Th6  1  0.000000  0.272885  0.242145  1
  Th  Th7  1  0.272885  0.000000  0.242145  1
  Th  Th8  1  0.333333  0.666667  0.003361  1
  Th  Th9  1  0.666667  0.333333  0.003361  1
  Ga  Ga10  1  0.000000  0.000000  0.001290  1
  Sn  Sn11  1  0.618633  0.000000  0.251632  1
  Sn  Sn12  1  0.381367  0.381367  0.251632  1
  Sn  Sn13  1  0.000000  0.618633  0.251632  1
  Sn  Sn14  1  0.000000  0.000000  0.499403  1
  Bi  Bi15  1  0.617129  0.617129  0.747661  1
  Bi  Bi16  1  0.000000  0.382871  0.747661  1
  Bi  Bi17  1  0.382871  0.000000  0.747661  1
