# generated using pymatgen
data_Tb3HoTm4In3Co
_symmetry_space_group_name_H-M   'P 1'
_cell_length_a   10.28017800
_cell_length_b   10.28017860
_cell_length_c   7.01766100
_cell_angle_alpha   90.00000000
_cell_angle_beta   90.00000000
_cell_angle_gamma   119.99999806
_symmetry_Int_Tables_number   1
_chemical_formula_structural   Tb3HoTm4In3Co
_chemical_formula_sum   'Tb6 Ho2 Tm8 In6 Co2'
_cell_volume   642.27988315
_cell_formula_units_Z   2
loop_
 _symmetry_equiv_pos_site_id
 _symmetry_equiv_pos_as_xyz
  1  'x, y, z'
loop_
 _atom_site_type_symbol
 _atom_site_label
 _atom_site_symmetry_multiplicity
 _atom_site_fract_x
 _atom_site_fract_y
 _atom_site_fract_z
 _atom_site_occupancy
  Tb  Tb0  1  0.534543  0.069086  0.504206  1
  Tb  Tb1  1  0.930914  0.465457  0.504206  1
  Tb  Tb2  1  0.534543  0.465457  0.504206  1
  Tb  Tb3  1  0.465457  0.930914  0.004206  1
  Tb  Tb4  1  0.069086  0.534543  0.004206  1
  Tb  Tb5  1  0.465457  0.534543  0.004206  1
  Ho  Ho6  1  0.000000  0.000000  0.493486  1
  Ho  Ho7  1  0.000000  0.000000  0.993486  1
  Tm  Tm8  1  0.178585  0.357170  0.710748  1
  Tm  Tm9  1  0.642830  0.821415  0.710748  1
  Tm  Tm10  1  0.178585  0.821415  0.710748  1
  Tm  Tm11  1  0.821415  0.642830  0.210748  1
  Tm  Tm12  1  0.357170  0.178585  0.210748  1
  Tm  Tm13  1  0.821415  0.178585  0.210748  1
  Tm  Tm14  1  0.666667  0.333333  0.898875  1
  Tm  Tm15  1  0.333333  0.666667  0.398875  1
  In  In16  1  0.837253  0.674507  0.754498  1
  In  In17  1  0.325493  0.162747  0.754498  1
  In  In18  1  0.837253  0.162747  0.754498  1
  In  In19  1  0.162747  0.325493  0.254498  1
  In  In20  1  0.674507  0.837253  0.254498  1
  In  In21  1  0.162747  0.837253  0.254498  1
  Co  Co22  1  0.666667  0.333333  0.278306  1
  Co  Co23  1  0.333333  0.666667  0.778306  1
