# generated using pymatgen
data_Tb2Nd2Dy2IrI10
_symmetry_space_group_name_H-M   'P 1'
_cell_length_a   7.83567416
_cell_length_b   9.89428696
_cell_length_c   9.83096497
_cell_angle_alpha   107.35331697
_cell_angle_beta   104.11966897
_cell_angle_gamma   96.85231480
_symmetry_Int_Tables_number   1
_chemical_formula_structural   Tb2Nd2Dy2IrI10
_chemical_formula_sum   'Tb2 Nd2 Dy2 Ir1 I10'
_cell_volume   690.15355308
_cell_formula_units_Z   1
loop_
 _symmetry_equiv_pos_site_id
 _symmetry_equiv_pos_as_xyz
  1  'x, y, z'
loop_
 _atom_site_type_symbol
 _atom_site_label
 _atom_site_symmetry_multiplicity
 _atom_site_fract_x
 _atom_site_fract_y
 _atom_site_fract_z
 _atom_site_occupancy
  Tb  Tb0  1  0.116102  0.758527  0.042119  1
  Tb  Tb1  1  0.883898  0.241473  0.957881  1
  Nd  Nd2  1  0.033641  0.915117  0.717501  1
  Nd  Nd3  1  0.966359  0.084883  0.282499  1
  Dy  Dy4  1  0.653192  0.833175  0.875866  1
  Dy  Dy5  1  0.346808  0.166825  0.124134  1
  Ir  Ir6  1  0.000000  0.000000  0.000000  1
  I  I7  1  0.642419  0.727105  0.551949  1
  I  I8  1  0.357581  0.272895  0.448051  1
  I  I9  1  0.230483  0.652569  0.749473  1
  I  I10  1  0.769517  0.347431  0.250527  1
  I  I11  1  0.459860  0.091518  0.819844  1
  I  I12  1  0.540140  0.908482  0.180156  1
  I  I13  1  0.253329  0.457644  0.085708  1
  I  I14  1  0.746671  0.542356  0.914292  1
  I  I15  1  0.088665  0.815119  0.367443  1
  I  I16  1  0.911335  0.184881  0.632557  1
