# generated using pymatgen
data_Ca4ZnGa6Cu
_symmetry_space_group_name_H-M   'P 1'
_cell_length_a   7.21568100
_cell_length_b   9.00941675
_cell_length_c   9.00941700
_cell_angle_alpha   119.99999723
_cell_angle_beta   90.00000000
_cell_angle_gamma   90.00000000
_symmetry_Int_Tables_number   1
_chemical_formula_structural   Ca4ZnGa6Cu
_chemical_formula_sum   'Ca8 Zn2 Ga12 Cu2'
_cell_volume   507.22579837
_cell_formula_units_Z   2
loop_
 _symmetry_equiv_pos_site_id
 _symmetry_equiv_pos_as_xyz
  1  'x, y, z'
loop_
 _atom_site_type_symbol
 _atom_site_label
 _atom_site_symmetry_multiplicity
 _atom_site_fract_x
 _atom_site_fract_y
 _atom_site_fract_z
 _atom_site_occupancy
  Ca  Ca0  1  0.753890  0.000000  0.000000  1
  Ca  Ca1  1  0.246110  0.000000  0.000000  1
  Ca  Ca2  1  0.753809  0.480086  0.519914  1
  Ca  Ca3  1  0.246191  0.519914  0.480086  1
  Ca  Ca4  1  0.753809  0.039829  0.519914  1
  Ca  Ca5  1  0.246191  0.960171  0.480086  1
  Ca  Ca6  1  0.753809  0.480086  0.960171  1
  Ca  Ca7  1  0.246191  0.519914  0.039829  1
  Zn  Zn8  1  0.447788  0.333333  0.666667  1
  Zn  Zn9  1  0.552212  0.666667  0.333333  1
  Ga  Ga10  1  0.950595  0.829969  0.170031  1
  Ga  Ga11  1  0.049405  0.170031  0.829969  1
  Ga  Ga12  1  0.950595  0.340064  0.170031  1
  Ga  Ga13  1  0.446943  0.167335  0.832665  1
  Ga  Ga14  1  0.049405  0.659936  0.829969  1
  Ga  Ga15  1  0.553057  0.832665  0.167335  1
  Ga  Ga16  1  0.950595  0.829969  0.659936  1
  Ga  Ga17  1  0.446943  0.665331  0.832665  1
  Ga  Ga18  1  0.049405  0.170031  0.340064  1
  Ga  Ga19  1  0.553057  0.334669  0.167335  1
  Ga  Ga20  1  0.446943  0.167335  0.334669  1
  Ga  Ga21  1  0.553057  0.832665  0.665331  1
  Cu  Cu22  1  0.951622  0.666667  0.333333  1
  Cu  Cu23  1  0.048378  0.333333  0.666667  1
