# generated using pymatgen
data_Dy7P12Ir17
_symmetry_space_group_name_H-M   'P 1'
_cell_length_a   12.10423577
_cell_length_b   12.10423555
_cell_length_c   13.36553951
_cell_angle_alpha   67.96707646
_cell_angle_beta   67.96707652
_cell_angle_gamma   18.79870211
_symmetry_Int_Tables_number   1
_chemical_formula_structural   Dy7P12Ir17
_chemical_formula_sum   'Dy7 P12 Ir17'
_cell_volume   583.62599382
_cell_formula_units_Z   1
loop_
 _symmetry_equiv_pos_site_id
 _symmetry_equiv_pos_as_xyz
  1  'x, y, z'
loop_
 _atom_site_type_symbol
 _atom_site_label
 _atom_site_symmetry_multiplicity
 _atom_site_fract_x
 _atom_site_fract_y
 _atom_site_fract_z
 _atom_site_occupancy
  Dy  Dy0  1  0.500000  0.500000  0.500000  1
  Dy  Dy1  1  0.367973  0.367973  0.997734  1
  Dy  Dy2  1  0.632027  0.632027  0.002266  1
  Dy  Dy3  1  0.234524  0.234524  0.310311  1
  Dy  Dy4  1  0.765476  0.765476  0.689689  1
  Dy  Dy5  1  0.418052  0.418052  0.254317  1
  Dy  Dy6  1  0.581948  0.581948  0.745683  1
  P  P7  1  0.062109  0.062109  0.925960  1
  P  P8  1  0.937891  0.937891  0.074040  1
  P  P9  1  0.886058  0.886058  0.832522  1
  P  P10  1  0.113942  0.113942  0.167478  1
  P  P11  1  0.188026  0.188026  0.622043  1
  P  P12  1  0.811974  0.811974  0.377957  1
  P  P13  1  0.366532  0.366532  0.577653  1
  P  P14  1  0.633468  0.633468  0.422347  1
  P  P15  1  0.014920  0.014920  0.668578  1
  P  P16  1  0.985080  0.985080  0.331422  1
  P  P17  1  0.233814  0.233814  0.883468  1
  P  P18  1  0.766186  0.766186  0.116532  1
  Ir  Ir19  1  0.838268  0.838268  0.192296  1
  Ir  Ir20  1  0.161732  0.161732  0.807704  1
  Ir  Ir21  1  0.026982  0.026982  0.123868  1
  Ir  Ir22  1  0.973018  0.973018  0.876132  1
  Ir  Ir23  1  0.887048  0.887048  0.457773  1
  Ir  Ir24  1  0.112952  0.112952  0.542227  1
  Ir  Ir25  1  0.500000  0.500000  0.000000  1
  Ir  Ir26  1  0.541650  0.541650  0.261038  1
  Ir  Ir27  1  0.458350  0.458350  0.738962  1
  Ir  Ir28  1  0.295409  0.295409  0.484416  1
  Ir  Ir29  1  0.704591  0.704591  0.515584  1
  Ir  Ir30  1  0.666250  0.666250  0.228728  1
  Ir  Ir31  1  0.333750  0.333750  0.771272  1
  Ir  Ir32  1  0.909225  0.909225  0.649953  1
  Ir  Ir33  1  0.090775  0.090775  0.350047  1
  Ir  Ir34  1  0.217717  0.217717  0.072685  1
  Ir  Ir35  1  0.782283  0.782283  0.927315  1
