# generated using pymatgen
data_Zr2Sn2IrRh
_symmetry_space_group_name_H-M   'P 1'
_cell_length_a   7.43826800
_cell_length_b   7.43826796
_cell_length_c   7.30028700
_cell_angle_alpha   90.00000000
_cell_angle_beta   90.00000000
_cell_angle_gamma   120.00000019
_symmetry_Int_Tables_number   1
_chemical_formula_structural   Zr2Sn2IrRh
_chemical_formula_sum   'Zr6 Sn6 Ir3 Rh3'
_cell_volume   349.79549050
_cell_formula_units_Z   3
loop_
 _symmetry_equiv_pos_site_id
 _symmetry_equiv_pos_as_xyz
  1  'x, y, z'
loop_
 _atom_site_type_symbol
 _atom_site_label
 _atom_site_symmetry_multiplicity
 _atom_site_fract_x
 _atom_site_fract_y
 _atom_site_fract_z
 _atom_site_occupancy
  Zr  Zr0  1  0.593464  0.981349  0.751236  1
  Zr  Zr1  1  0.387885  0.406536  0.751236  1
  Zr  Zr2  1  0.018651  0.612115  0.751236  1
  Zr  Zr3  1  0.613420  0.024190  0.249818  1
  Zr  Zr4  1  0.410770  0.386580  0.249818  1
  Zr  Zr5  1  0.975810  0.589230  0.249818  1
  Sn  Sn6  1  0.269100  0.999587  0.000532  1
  Sn  Sn7  1  0.728045  0.730792  0.500320  1
  Sn  Sn8  1  0.002747  0.271955  0.500320  1
  Sn  Sn9  1  0.000413  0.269514  0.000532  1
  Sn  Sn10  1  0.730486  0.730900  0.000532  1
  Sn  Sn11  1  0.269208  0.997253  0.500320  1
  Ir  Ir12  1  0.666667  0.333333  0.959730  1
  Ir  Ir13  1  0.666667  0.333333  0.540693  1
  Ir  Ir14  1  0.333333  0.666667  0.034208  1
  Rh  Rh15  1  0.333333  0.666667  0.458572  1
  Rh  Rh16  1  0.000000  0.000000  0.750287  1
  Rh  Rh17  1  0.000000  0.000000  0.250793  1
