# generated using pymatgen
data_Zr18Fe2Re7W
_symmetry_space_group_name_H-M   'P 1'
_cell_length_a   8.68962800
_cell_length_b   8.68965363
_cell_length_c   8.52833500
_cell_angle_alpha   90.00000360
_cell_angle_beta   89.99989351
_cell_angle_gamma   120.00004347
_symmetry_Int_Tables_number   1
_chemical_formula_structural   Zr18Fe2Re7W
_chemical_formula_sum   'Zr18 Fe2 Re7 W1'
_cell_volume   557.69704547
_cell_formula_units_Z   1
loop_
 _symmetry_equiv_pos_site_id
 _symmetry_equiv_pos_as_xyz
  1  'x, y, z'
loop_
 _atom_site_type_symbol
 _atom_site_label
 _atom_site_symmetry_multiplicity
 _atom_site_fract_x
 _atom_site_fract_y
 _atom_site_fract_z
 _atom_site_occupancy
  Zr  Zr0  1  0.541109  0.082217  0.249301  1
  Zr  Zr1  1  0.458891  0.917783  0.750699  1
  Zr  Zr2  1  0.917784  0.458892  0.249302  1
  Zr  Zr3  1  0.541108  0.458892  0.249302  1
  Zr  Zr4  1  0.458892  0.541108  0.750698  1
  Zr  Zr5  1  0.082216  0.541108  0.750698  1
  Zr  Zr6  1  0.200079  0.400158  0.058784  1
  Zr  Zr7  1  0.799117  0.598234  0.558177  1
  Zr  Zr8  1  0.599842  0.799921  0.058786  1
  Zr  Zr9  1  0.200081  0.799921  0.058784  1
  Zr  Zr10  1  0.799117  0.200884  0.558177  1
  Zr  Zr11  1  0.401766  0.200883  0.558178  1
  Zr  Zr12  1  0.799921  0.599842  0.941216  1
  Zr  Zr13  1  0.799919  0.200079  0.941216  1
  Zr  Zr14  1  0.400158  0.200079  0.941214  1
  Zr  Zr15  1  0.598234  0.799117  0.441822  1
  Zr  Zr16  1  0.200883  0.799116  0.441823  1
  Zr  Zr17  1  0.200883  0.401766  0.441823  1
  Fe  Fe18  1  0.333334  0.666668  0.249051  1
  Fe  Fe19  1  0.666666  0.333332  0.750949  1
  Re  Re20  1  0.000000  0.000000  0.000000  1
  Re  Re21  1  0.890899  0.781795  0.250481  1
  Re  Re22  1  0.109101  0.218205  0.749519  1
  Re  Re23  1  0.218204  0.109102  0.250480  1
  Re  Re24  1  0.890899  0.109104  0.250481  1
  Re  Re25  1  0.109101  0.890896  0.749519  1
  Re  Re26  1  0.781796  0.890898  0.749520  1
  W  W27  1  0.000000  0.000000  0.500000  1
