# generated using pymatgen
data_Ca5La2YbBi6
_symmetry_space_group_name_H-M   'P 1'
_cell_length_a   8.47588945
_cell_length_b   8.43630211
_cell_length_c   8.49411204
_cell_angle_alpha   109.51215591
_cell_angle_beta   109.69650943
_cell_angle_gamma   109.42194862
_symmetry_Int_Tables_number   1
_chemical_formula_structural   Ca5La2YbBi6
_chemical_formula_sum   'Ca5 La2 Yb1 Bi6'
_cell_volume   466.29769944
_cell_formula_units_Z   1
loop_
 _symmetry_equiv_pos_site_id
 _symmetry_equiv_pos_as_xyz
  1  'x, y, z'
loop_
 _atom_site_type_symbol
 _atom_site_label
 _atom_site_symmetry_multiplicity
 _atom_site_fract_x
 _atom_site_fract_y
 _atom_site_fract_z
 _atom_site_occupancy
  Ca  Ca0  1  0.146700  0.502218  0.002760  1
  Ca  Ca1  1  0.357434  0.356743  0.354366  1
  Ca  Ca2  1  0.644555  0.497851  0.000672  1
  Ca  Ca3  1  0.497888  0.001024  0.644494  1
  Ca  Ca4  1  0.496870  0.998866  0.143424  1
  La  La5  1  0.854835  0.854922  0.855043  1
  La  La6  1  0.999636  0.144872  0.500233  1
  Yb  Yb7  1  0.000598  0.643293  0.497745  1
  Bi  Bi8  1  0.252162  0.126170  0.875775  1
  Bi  Bi9  1  0.125796  0.873534  0.249721  1
  Bi  Bi10  1  0.751021  0.375410  0.625034  1
  Bi  Bi11  1  0.873618  0.250587  0.125693  1
  Bi  Bi12  1  0.623459  0.749682  0.375275  1
  Bi  Bi13  1  0.375427  0.624826  0.749763  1
