# generated using pymatgen
data_Ca6Sb7AsPd16
_symmetry_space_group_name_H-M   'P 1'
_cell_length_a   9.40559457
_cell_length_b   9.40559398
_cell_length_c   9.40559400
_cell_angle_alpha   59.99999992
_cell_angle_beta   60.00000201
_cell_angle_gamma   59.99999519
_symmetry_Int_Tables_number   1
_chemical_formula_structural   Ca6Sb7AsPd16
_chemical_formula_sum   'Ca6 Sb7 As1 Pd16'
_cell_volume   588.36076277
_cell_formula_units_Z   1
loop_
 _symmetry_equiv_pos_site_id
 _symmetry_equiv_pos_as_xyz
  1  'x, y, z'
loop_
 _atom_site_type_symbol
 _atom_site_label
 _atom_site_symmetry_multiplicity
 _atom_site_fract_x
 _atom_site_fract_y
 _atom_site_fract_z
 _atom_site_occupancy
  Ca  Ca0  1  0.713836  0.286164  0.286164  1
  Ca  Ca1  1  0.286164  0.713836  0.713836  1
  Ca  Ca2  1  0.286164  0.713836  0.286164  1
  Ca  Ca3  1  0.713836  0.286164  0.713836  1
  Ca  Ca4  1  0.286164  0.286164  0.713836  1
  Ca  Ca5  1  0.713836  0.713836  0.286164  1
  Sb  Sb6  1  0.000000  0.000000  0.000000  1
  Sb  Sb7  1  0.500000  0.000000  0.000000  1
  Sb  Sb8  1  0.000000  0.500000  0.500000  1
  Sb  Sb9  1  0.000000  0.500000  0.000000  1
  Sb  Sb10  1  0.500000  0.000000  0.500000  1
  Sb  Sb11  1  0.000000  0.000000  0.500000  1
  Sb  Sb12  1  0.500000  0.500000  0.000000  1
  As  As13  1  0.500000  0.500000  0.500000  1
  Pd  Pd14  1  0.119441  0.119441  0.119441  1
  Pd  Pd15  1  0.880559  0.880559  0.880559  1
  Pd  Pd16  1  0.119441  0.119441  0.641675  1
  Pd  Pd17  1  0.119441  0.641675  0.119441  1
  Pd  Pd18  1  0.880559  0.880559  0.358325  1
  Pd  Pd19  1  0.880559  0.358325  0.880559  1
  Pd  Pd20  1  0.641675  0.119441  0.119441  1
  Pd  Pd21  1  0.358325  0.880559  0.880559  1
  Pd  Pd22  1  0.330131  0.330131  0.330131  1
  Pd  Pd23  1  0.669869  0.669869  0.669869  1
  Pd  Pd24  1  0.330131  0.330131  0.009608  1
  Pd  Pd25  1  0.330131  0.009608  0.330131  1
  Pd  Pd26  1  0.669869  0.669869  0.990392  1
  Pd  Pd27  1  0.669869  0.990392  0.669869  1
  Pd  Pd28  1  0.009608  0.330131  0.330131  1
  Pd  Pd29  1  0.990392  0.669869  0.669869  1
