# generated using pymatgen
data_Ce3ZnHg2Pd3
_symmetry_space_group_name_H-M   'P 1'
_cell_length_a   7.68708000
_cell_length_b   7.75571510
_cell_length_c   3.86011300
_cell_angle_alpha   90.00000000
_cell_angle_beta   90.00000000
_cell_angle_gamma   119.70768629
_symmetry_Int_Tables_number   1
_chemical_formula_structural   Ce3ZnHg2Pd3
_chemical_formula_sum   'Ce3 Zn1 Hg2 Pd3'
_cell_volume   199.88748859
_cell_formula_units_Z   1
loop_
 _symmetry_equiv_pos_site_id
 _symmetry_equiv_pos_as_xyz
  1  'x, y, z'
loop_
 _atom_site_type_symbol
 _atom_site_label
 _atom_site_symmetry_multiplicity
 _atom_site_fract_x
 _atom_site_fract_y
 _atom_site_fract_z
 _atom_site_occupancy
  Ce  Ce0  1  0.997018  0.397882  0.000000  1
  Ce  Ce1  1  0.599137  0.602118  0.000000  1
  Ce  Ce2  1  0.411513  0.000000  0.000000  1
  Zn  Zn3  1  0.737990  0.000000  0.500000  1
  Hg  Hg4  1  0.003134  0.741744  0.500000  1
  Hg  Hg5  1  0.261390  0.258256  0.500000  1
  Pd  Pd6  1  0.969167  0.000000  0.000000  1
  Pd  Pd7  1  0.671856  0.323059  0.500000  1
  Pd  Pd8  1  0.348796  0.676941  0.500000  1
