# generated using pymatgen
data_Eu3Al(SiRh3)2
_symmetry_space_group_name_H-M   'P 1'
_cell_length_a   5.65293900
_cell_length_b   5.65350021
_cell_length_c   15.20774000
_cell_angle_alpha   90.00000000
_cell_angle_beta   90.00000000
_cell_angle_gamma   119.98245846
_symmetry_Int_Tables_number   1
_chemical_formula_structural   Eu3Al(SiRh3)2
_chemical_formula_sum   'Eu6 Al2 Si4 Rh12'
_cell_volume   420.98222670
_cell_formula_units_Z   2
loop_
 _symmetry_equiv_pos_site_id
 _symmetry_equiv_pos_as_xyz
  1  'x, y, z'
loop_
 _atom_site_type_symbol
 _atom_site_label
 _atom_site_symmetry_multiplicity
 _atom_site_fract_x
 _atom_site_fract_y
 _atom_site_fract_z
 _atom_site_occupancy
  Eu  Eu0  1  0.333360  0.666753  0.541137  1
  Eu  Eu1  1  0.666640  0.333247  0.458863  1
  Eu  Eu2  1  0.666640  0.333247  0.041137  1
  Eu  Eu3  1  0.333360  0.666753  0.958863  1
  Eu  Eu4  1  0.333411  0.666838  0.750000  1
  Eu  Eu5  1  0.666589  0.333162  0.250000  1
  Al  Al6  1  0.000000  0.000000  0.000000  1
  Al  Al7  1  0.000000  0.000000  0.500000  1
  Si  Si8  1  0.999974  0.999982  0.250000  1
  Si  Si9  1  0.000026  0.000018  0.750000  1
  Si  Si10  1  0.333349  0.666661  0.250000  1
  Si  Si11  1  0.666651  0.333339  0.750000  1
  Rh  Rh12  1  0.166327  0.332643  0.135440  1
  Rh  Rh13  1  0.833673  0.667357  0.864560  1
  Rh  Rh14  1  0.667380  0.833693  0.135426  1
  Rh  Rh15  1  0.833673  0.667357  0.635440  1
  Rh  Rh16  1  0.332620  0.166307  0.864574  1
  Rh  Rh17  1  0.166327  0.332643  0.364560  1
  Rh  Rh18  1  0.166311  0.833689  0.135423  1
  Rh  Rh19  1  0.332620  0.166307  0.635426  1
  Rh  Rh20  1  0.833689  0.166311  0.864577  1
  Rh  Rh21  1  0.667380  0.833693  0.364574  1
  Rh  Rh22  1  0.833689  0.166311  0.635423  1
  Rh  Rh23  1  0.166311  0.833689  0.364577  1
