# generated using pymatgen
data_Cs2Sc10Co2Br17
_symmetry_space_group_name_H-M   'P 1'
_cell_length_a   8.63084265
_cell_length_b   10.12089877
_cell_length_c   10.12104800
_cell_angle_alpha   108.14877516
_cell_angle_beta   93.38439225
_cell_angle_gamma   93.38903725
_symmetry_Int_Tables_number   1
_chemical_formula_structural   Cs2Sc10Co2Br17
_chemical_formula_sum   'Cs2 Sc10 Co2 Br17'
_cell_volume   835.84074045
_cell_formula_units_Z   1
loop_
 _symmetry_equiv_pos_site_id
 _symmetry_equiv_pos_as_xyz
  1  'x, y, z'
loop_
 _atom_site_type_symbol
 _atom_site_label
 _atom_site_symmetry_multiplicity
 _atom_site_fract_x
 _atom_site_fract_y
 _atom_site_fract_z
 _atom_site_occupancy
  Cs  Cs0  1  0.999810  0.827190  0.172223  1
  Cs  Cs1  1  0.999781  0.172260  0.827227  1
  Sc  Sc2  1  0.442160  0.175460  0.175465  1
  Sc  Sc3  1  0.572295  0.508468  0.207062  1
  Sc  Sc4  1  0.814854  0.294597  0.294605  1
  Sc  Sc5  1  0.312403  0.436410  0.436423  1
  Sc  Sc6  1  0.427833  0.793050  0.491584  1
  Sc  Sc7  1  0.572273  0.207051  0.508466  1
  Sc  Sc8  1  0.687697  0.563643  0.563632  1
  Sc  Sc9  1  0.185133  0.705348  0.705360  1
  Sc  Sc10  1  0.427844  0.491589  0.793058  1
  Sc  Sc11  1  0.557803  0.824680  0.824671  1
  Co  Co12  1  0.567175  0.362721  0.362723  1
  Co  Co13  1  0.432891  0.637420  0.637417  1
  Br  Br14  1  0.576973  0.686810  0.023656  1
  Br  Br15  1  0.709586  0.064204  0.064198  1
  Br  Br16  1  0.856167  0.447463  0.119638  1
  Br  Br17  1  0.132793  0.214147  0.214148  1
  Br  Br18  1  0.282104  0.601833  0.255629  1
  Br  Br19  1  0.423009  0.976477  0.313259  1
  Br  Br20  1  0.718043  0.744436  0.398236  1
  Br  Br21  1  0.856131  0.119619  0.447451  1
  Br  Br22  1  0.999922  0.499979  0.499984  1
  Br  Br23  1  0.143850  0.880220  0.552359  1
  Br  Br24  1  0.282088  0.255627  0.601843  1
  Br  Br25  1  0.576911  0.023678  0.686810  1
  Br  Br26  1  0.718038  0.398243  0.744416  1
  Br  Br27  1  0.867294  0.786014  0.785959  1
  Br  Br28  1  0.143837  0.552341  0.880230  1
  Br  Br29  1  0.290253  0.935749  0.935769  1
  Br  Br30  1  0.423053  0.313276  0.976498  1
