# generated using pymatgen
data_Tm3Mn4P6Rh5
_symmetry_space_group_name_H-M   'P 1'
_cell_length_a   3.77044200
_cell_length_b   10.93354300
_cell_length_c   12.90107800
_cell_angle_alpha   90.00000000
_cell_angle_beta   90.00000000
_cell_angle_gamma   90.00000000
_symmetry_Int_Tables_number   1
_chemical_formula_structural   Tm3Mn4P6Rh5
_chemical_formula_sum   'Tm6 Mn8 P12 Rh10'
_cell_volume   531.83777738
_cell_formula_units_Z   2
loop_
 _symmetry_equiv_pos_site_id
 _symmetry_equiv_pos_as_xyz
  1  'x, y, z'
loop_
 _atom_site_type_symbol
 _atom_site_label
 _atom_site_symmetry_multiplicity
 _atom_site_fract_x
 _atom_site_fract_y
 _atom_site_fract_z
 _atom_site_occupancy
  Tm  Tm0  1  0.000000  0.500000  0.520196  1
  Tm  Tm1  1  0.500000  0.000000  0.479804  1
  Tm  Tm2  1  0.500000  0.819513  0.203723  1
  Tm  Tm3  1  0.500000  0.180487  0.203723  1
  Tm  Tm4  1  0.000000  0.680487  0.796277  1
  Tm  Tm5  1  0.000000  0.319513  0.796277  1
  Mn  Mn6  1  0.500000  0.500000  0.160866  1
  Mn  Mn7  1  0.000000  0.000000  0.839134  1
  Mn  Mn8  1  0.000000  0.500000  0.988958  1
  Mn  Mn9  1  0.500000  0.000000  0.011042  1
  Mn  Mn10  1  0.500000  0.334729  0.997690  1
  Mn  Mn11  1  0.500000  0.665271  0.997690  1
  Mn  Mn12  1  0.000000  0.165271  0.002310  1
  Mn  Mn13  1  0.000000  0.834729  0.002310  1
  P  P14  1  0.500000  0.500000  0.884253  1
  P  P15  1  0.000000  0.000000  0.115747  1
  P  P16  1  0.500000  0.500000  0.350483  1
  P  P17  1  0.000000  0.000000  0.649517  1
  P  P18  1  0.500000  0.315786  0.619216  1
  P  P19  1  0.500000  0.684214  0.619216  1
  P  P20  1  0.000000  0.184214  0.380784  1
  P  P21  1  0.000000  0.815786  0.380784  1
  P  P22  1  0.500000  0.841800  0.894085  1
  P  P23  1  0.500000  0.158200  0.894085  1
  P  P24  1  0.000000  0.658200  0.105915  1
  P  P25  1  0.000000  0.341800  0.105915  1
  Rh  Rh26  1  0.500000  0.500000  0.703746  1
  Rh  Rh27  1  0.000000  0.000000  0.296254  1
  Rh  Rh28  1  0.500000  0.295974  0.431853  1
  Rh  Rh29  1  0.500000  0.704026  0.431853  1
  Rh  Rh30  1  0.000000  0.204026  0.568147  1
  Rh  Rh31  1  0.000000  0.795974  0.568147  1
  Rh  Rh32  1  0.500000  0.873645  0.713092  1
  Rh  Rh33  1  0.500000  0.126355  0.713092  1
  Rh  Rh34  1  0.000000  0.626355  0.286908  1
  Rh  Rh35  1  0.000000  0.373645  0.286908  1
