# generated using pymatgen
data_Tb4SmPa3(ReB6)4
_symmetry_space_group_name_H-M   'P 1'
_cell_length_a   3.72381700
_cell_length_b   9.23113157
_cell_length_c   11.56412900
_cell_angle_alpha   90.17460369
_cell_angle_beta   90.00000000
_cell_angle_gamma   90.00000000
_symmetry_Int_Tables_number   1
_chemical_formula_structural   Tb4SmPa3(ReB6)4
_chemical_formula_sum   'Tb4 Sm1 Pa3 Re4 B24'
_cell_volume   397.51560534
_cell_formula_units_Z   1
loop_
 _symmetry_equiv_pos_site_id
 _symmetry_equiv_pos_as_xyz
  1  'x, y, z'
loop_
 _atom_site_type_symbol
 _atom_site_label
 _atom_site_symmetry_multiplicity
 _atom_site_fract_x
 _atom_site_fract_y
 _atom_site_fract_z
 _atom_site_occupancy
  Tb  Tb0  1  0.000000  0.945786  0.375692  1
  Tb  Tb1  1  0.000000  0.054933  0.626310  1
  Tb  Tb2  1  0.000000  0.444221  0.124815  1
  Tb  Tb3  1  0.000000  0.553511  0.874506  1
  Sm  Sm4  1  0.000000  0.177065  0.912430  1
  Pa  Pa5  1  0.000000  0.322960  0.412698  1
  Pa  Pa6  1  0.000000  0.676503  0.587685  1
  Pa  Pa7  1  0.000000  0.824467  0.086692  1
  Re  Re8  1  0.000000  0.638371  0.322563  1
  Re  Re9  1  0.000000  0.364850  0.673777  1
  Re  Re10  1  0.000000  0.137753  0.181251  1
  Re  Re11  1  0.000000  0.858391  0.821364  1
  B  B12  1  0.500000  0.553108  0.432299  1
  B  B13  1  0.500000  0.447879  0.566100  1
  B  B14  1  0.500000  0.052156  0.069118  1
  B  B15  1  0.500000  0.944839  0.932996  1
  B  B16  1  0.500000  0.746820  0.420775  1
  B  B17  1  0.500000  0.253918  0.579259  1
  B  B18  1  0.500000  0.246719  0.080449  1
  B  B19  1  0.500000  0.753113  0.920938  1
  B  B20  1  0.500000  0.792690  0.266717  1
  B  B21  1  0.500000  0.208940  0.731762  1
  B  B22  1  0.500000  0.292633  0.233055  1
  B  B23  1  0.500000  0.706797  0.766704  1
  B  B24  1  0.500000  0.634268  0.185829  1
  B  B25  1  0.500000  0.367301  0.812716  1
  B  B26  1  0.500000  0.134438  0.314408  1
  B  B27  1  0.500000  0.865321  0.686780  1
  B  B28  1  0.500000  0.983222  0.213667  1
  B  B29  1  0.500000  0.015239  0.786181  1
  B  B30  1  0.500000  0.483808  0.286106  1
  B  B31  1  0.500000  0.516383  0.713265  1
  B  B32  1  0.500000  0.615433  0.032264  1
  B  B33  1  0.500000  0.386202  0.968097  1
  B  B34  1  0.500000  0.118385  0.467677  1
  B  B35  1  0.500000  0.881577  0.533057  1
