# generated using pymatgen
data_Zr9In14Co3IrRu3
_symmetry_space_group_name_H-M   'P 1'
_cell_length_a   9.56040714
_cell_length_b   9.56286177
_cell_length_c   9.55970151
_cell_angle_alpha   60.20772934
_cell_angle_beta   60.23508557
_cell_angle_gamma   60.19590567
_symmetry_Int_Tables_number   1
_chemical_formula_structural   Zr9In14Co3IrRu3
_chemical_formula_sum   'Zr9 In14 Co3 Ir1 Ru3'
_cell_volume   620.98631312
_cell_formula_units_Z   1
loop_
 _symmetry_equiv_pos_site_id
 _symmetry_equiv_pos_as_xyz
  1  'x, y, z'
loop_
 _atom_site_type_symbol
 _atom_site_label
 _atom_site_symmetry_multiplicity
 _atom_site_fract_x
 _atom_site_fract_y
 _atom_site_fract_z
 _atom_site_occupancy
  Zr  Zr0  1  0.127185  0.628426  0.122801  1
  Zr  Zr1  1  0.366113  0.878680  0.876709  1
  Zr  Zr2  1  0.878716  0.878861  0.874142  1
  Zr  Zr3  1  0.635414  0.125529  0.120140  1
  Zr  Zr4  1  0.492008  0.526291  0.492860  1
  Zr  Zr5  1  0.878378  0.879670  0.367095  1
  Zr  Zr6  1  0.121746  0.122096  0.121177  1
  Zr  Zr7  1  0.880003  0.360464  0.879008  1
  Zr  Zr8  1  0.121456  0.122934  0.635938  1
  In  In9  1  0.497835  0.851902  0.149482  1
  In  In10  1  0.498623  0.851095  0.500723  1
  In  In11  1  0.498934  0.165225  0.499808  1
  In  In12  1  0.507434  0.495051  0.840338  1
  In  In13  1  0.158959  0.493082  0.506962  1
  In  In14  1  0.835317  0.164847  0.499638  1
  In  In15  1  0.151739  0.850203  0.498988  1
  In  In16  1  0.499315  0.163874  0.836173  1
  In  In17  1  0.156028  0.493618  0.842273  1
  In  In18  1  0.506603  0.493343  0.159491  1
  In  In19  1  0.841985  0.493533  0.508574  1
  In  In20  1  0.843419  0.491866  0.155850  1
  In  In21  1  0.251156  0.245925  0.250861  1
  In  In22  1  0.750129  0.745912  0.751723  1
  Co  Co23  1  0.219338  0.217082  0.782187  1
  Co  Co24  1  0.780208  0.217189  0.781191  1
  Co  Co25  1  0.781009  0.216609  0.220681  1
  Ir  Ir26  1  0.775779  0.773498  0.224407  1
  Ru  Ru27  1  0.997372  0.004164  0.999471  1
  Ru  Ru28  1  0.224108  0.774960  0.225120  1
  Ru  Ru29  1  0.223689  0.774073  0.776189  1
