# generated using pymatgen
data_Ho8NbSi16W11
_symmetry_space_group_name_H-M   'P 1'
_cell_length_a   6.88279003
_cell_length_b   6.88279040
_cell_length_c   12.80203842
_cell_angle_alpha   89.97581609
_cell_angle_beta   90.02418660
_cell_angle_gamma   90.10212938
_symmetry_Int_Tables_number   1
_chemical_formula_structural   Ho8NbSi16W11
_chemical_formula_sum   'Ho8 Nb1 Si16 W11'
_cell_volume   606.46734896
_cell_formula_units_Z   1
loop_
 _symmetry_equiv_pos_site_id
 _symmetry_equiv_pos_as_xyz
  1  'x, y, z'
loop_
 _atom_site_type_symbol
 _atom_site_label
 _atom_site_symmetry_multiplicity
 _atom_site_fract_x
 _atom_site_fract_y
 _atom_site_fract_z
 _atom_site_occupancy
  Ho  Ho0  1  0.336139  0.999505  0.468992  1
  Ho  Ho1  1  0.500972  0.837798  0.719724  1
  Ho  Ho2  1  0.496774  0.163117  0.218611  1
  Ho  Ho3  1  0.837798  0.500972  0.280276  1
  Ho  Ho4  1  0.163117  0.496774  0.781389  1
  Ho  Ho5  1  0.662798  0.002374  0.969139  1
  Ho  Ho6  1  0.999505  0.336139  0.531008  1
  Ho  Ho7  1  0.002374  0.662798  0.030861  1
  Nb  Nb8  1  0.667495  0.667495  0.500000  1
  Si  Si9  1  0.201644  0.125342  0.683188  1
  Si  Si10  1  0.374844  0.701686  0.933504  1
  Si  Si11  1  0.627690  0.294408  0.432886  1
  Si  Si12  1  0.701686  0.374844  0.066496  1
  Si  Si13  1  0.294408  0.627690  0.567114  1
  Si  Si14  1  0.797845  0.874409  0.183453  1
  Si  Si15  1  0.125342  0.201644  0.316812  1
  Si  Si16  1  0.874409  0.797845  0.816547  1
  Si  Si17  1  0.287444  0.965317  0.062829  1
  Si  Si18  1  0.533526  0.789774  0.311634  1
  Si  Si19  1  0.464029  0.211634  0.813701  1
  Si  Si20  1  0.789774  0.533526  0.688366  1
  Si  Si21  1  0.211634  0.464029  0.186299  1
  Si  Si22  1  0.709437  0.041148  0.566060  1
  Si  Si23  1  0.965317  0.287444  0.937171  1
  Si  Si24  1  0.041148  0.709437  0.433940  1
  W  W25  1  0.333284  0.333284  0.000000  1
  W  W26  1  0.166310  0.834637  0.247787  1
  W  W27  1  0.834637  0.166310  0.752213  1
  W  W28  1  0.166053  0.998241  0.872541  1
  W  W29  1  0.499307  0.665911  0.123096  1
  W  W30  1  0.497879  0.338504  0.623244  1
  W  W31  1  0.665911  0.499307  0.876904  1
  W  W32  1  0.338504  0.497879  0.376756  1
  W  W33  1  0.834525  0.998195  0.375073  1
  W  W34  1  0.998241  0.166053  0.127459  1
  W  W35  1  0.998195  0.834525  0.624927  1
