# generated using pymatgen
data_Lu20Bi10PdAu
_symmetry_space_group_name_H-M   'P 1'
_cell_length_a   8.02367601
_cell_length_b   9.32721400
_cell_length_c   11.76926900
_cell_angle_alpha   90.00000000
_cell_angle_beta   89.99687231
_cell_angle_gamma   90.00000000
_symmetry_Int_Tables_number   1
_chemical_formula_structural   Lu20Bi10PdAu
_chemical_formula_sum   'Lu20 Bi10 Pd1 Au1'
_cell_volume   880.79494553
_cell_formula_units_Z   1
loop_
 _symmetry_equiv_pos_site_id
 _symmetry_equiv_pos_as_xyz
  1  'x, y, z'
loop_
 _atom_site_type_symbol
 _atom_site_label
 _atom_site_symmetry_multiplicity
 _atom_site_fract_x
 _atom_site_fract_y
 _atom_site_fract_z
 _atom_site_occupancy
  Lu  Lu0  1  0.042077  0.250000  0.508515  1
  Lu  Lu1  1  0.984415  0.750000  0.491555  1
  Lu  Lu2  1  0.486065  0.750000  0.007911  1
  Lu  Lu3  1  0.541328  0.250000  0.992585  1
  Lu  Lu4  1  0.350327  0.250000  0.295715  1
  Lu  Lu5  1  0.656162  0.750000  0.721030  1
  Lu  Lu6  1  0.155769  0.750000  0.781217  1
  Lu  Lu7  1  0.853652  0.250000  0.196886  1
  Lu  Lu8  1  0.165615  0.250000  0.795649  1
  Lu  Lu9  1  0.810023  0.750000  0.217282  1
  Lu  Lu10  1  0.309738  0.750000  0.282955  1
  Lu  Lu11  1  0.671594  0.250000  0.706956  1
  Lu  Lu12  1  0.183145  0.072868  0.055984  1
  Lu  Lu13  1  0.812795  0.960610  0.943130  1
  Lu  Lu14  1  0.311803  0.954091  0.559155  1
  Lu  Lu15  1  0.812795  0.539390  0.943130  1
  Lu  Lu16  1  0.686845  0.072040  0.440801  1
  Lu  Lu17  1  0.183145  0.427132  0.055984  1
  Lu  Lu18  1  0.686845  0.427960  0.440801  1
  Lu  Lu19  1  0.311803  0.545909  0.559155  1
  Bi  Bi20  1  0.597097  0.750000  0.460542  1
  Bi  Bi21  1  0.097157  0.750000  0.040592  1
  Bi  Bi22  1  0.055286  0.001445  0.322169  1
  Bi  Bi23  1  0.937208  0.998176  0.677087  1
  Bi  Bi24  1  0.437234  0.998707  0.823307  1
  Bi  Bi25  1  0.937208  0.501824  0.677087  1
  Bi  Bi26  1  0.554600  0.000883  0.177800  1
  Bi  Bi27  1  0.055286  0.498555  0.322169  1
  Bi  Bi28  1  0.554600  0.499117  0.177800  1
  Bi  Bi29  1  0.437234  0.501293  0.823307  1
  Pd  Pd30  1  0.911126  0.250000  0.968141  1
  Au  Au31  1  0.410031  0.250000  0.533607  1
