# generated using pymatgen
data_AcSm12Ta7(MoN4)12
_symmetry_space_group_name_H-M   'P 1'
_cell_length_a   11.23009195
_cell_length_b   11.23009217
_cell_length_c   11.23954200
_cell_angle_alpha   109.48826737
_cell_angle_beta   109.48826777
_cell_angle_gamma   109.45416773
_symmetry_Int_Tables_number   1
_chemical_formula_structural   AcSm12Ta7(MoN4)12
_chemical_formula_sum   'Ac1 Sm12 Ta7 Mo12 N48'
_cell_volume   1090.94272046
_cell_formula_units_Z   1
loop_
 _symmetry_equiv_pos_site_id
 _symmetry_equiv_pos_as_xyz
  1  'x, y, z'
loop_
 _atom_site_type_symbol
 _atom_site_label
 _atom_site_symmetry_multiplicity
 _atom_site_fract_x
 _atom_site_fract_y
 _atom_site_fract_z
 _atom_site_occupancy
  Ac  Ac0  1  0.500000  0.000000  0.500000  1
  Sm  Sm1  1  0.251079  0.377649  0.123157  1
  Sm  Sm2  1  0.375523  0.742732  0.115585  1
  Sm  Sm3  1  0.367206  0.124476  0.240059  1
  Sm  Sm4  1  0.877649  0.626570  0.254493  1
  Sm  Sm5  1  0.757268  0.132794  0.372852  1
  Sm  Sm6  1  0.126570  0.248921  0.372078  1
  Sm  Sm7  1  0.873430  0.751079  0.627922  1
  Sm  Sm8  1  0.242732  0.867206  0.627147  1
  Sm  Sm9  1  0.122351  0.373429  0.745507  1
  Sm  Sm10  1  0.632794  0.875524  0.759941  1
  Sm  Sm11  1  0.624476  0.257268  0.884415  1
  Sm  Sm12  1  0.748921  0.622351  0.876843  1
  Ta  Ta13  1  0.000000  0.000000  0.000000  1
  Ta  Ta14  1  0.500000  0.000000  0.000000  1
  Ta  Ta15  1  0.000000  0.500000  0.000000  1
  Ta  Ta16  1  0.500000  0.500000  0.000000  1
  Ta  Ta17  1  0.000000  0.000000  0.500000  1
  Ta  Ta18  1  0.000000  0.500000  0.500000  1
  Ta  Ta19  1  0.500000  0.500000  0.500000  1
  Mo  Mo20  1  0.874234  0.249408  0.124636  1
  Mo  Mo21  1  0.749408  0.875175  0.124772  1
  Mo  Mo22  1  0.624826  0.374234  0.249598  1
  Mo  Mo23  1  0.113686  0.873894  0.239776  1
  Mo  Mo24  1  0.239792  0.613686  0.373910  1
  Mo  Mo25  1  0.626106  0.739792  0.365882  1
  Mo  Mo26  1  0.373894  0.260208  0.634118  1
  Mo  Mo27  1  0.760208  0.386314  0.626090  1
  Mo  Mo28  1  0.886315  0.126106  0.760224  1
  Mo  Mo29  1  0.375174  0.625766  0.750402  1
  Mo  Mo30  1  0.250592  0.124826  0.875228  1
  Mo  Mo31  1  0.125766  0.750592  0.875365  1
  N  N32  1  0.317047  0.900260  0.014878  1
  N  N33  1  0.201513  0.119625  0.018996  1
  N  N34  1  0.884275  0.400365  0.084647  1
  N  N35  1  0.699223  0.685665  0.087209  1
  N  N36  1  0.971713  0.677507  0.094291  1
  N  N37  1  0.619625  0.418113  0.100629  1
  N  N38  1  0.599739  0.916787  0.114619  1
  N  N39  1  0.013558  0.199223  0.112013  1
  N  N40  1  0.202550  0.587899  0.186043  1
  N  N41  1  0.473637  0.588514  0.175870  1
  N  N42  1  0.583212  0.182953  0.197832  1
  N  N43  1  0.114877  0.026363  0.202233  1
  N  N44  1  0.483910  0.384275  0.299628  1
  N  N45  1  0.289158  0.900467  0.260478  1
  N  N46  1  0.900364  0.016090  0.315719  1
  N  N47  1  0.918112  0.298487  0.317484  1
  N  N48  1  0.294205  0.471713  0.377421  1
  N  N49  1  0.599533  0.888690  0.360012  1
  N  N50  1  0.087900  0.885350  0.401857  1
  N  N51  1  0.814335  0.513558  0.401544  1
  N  N52  1  0.822493  0.794205  0.416784  1
  N  N53  1  0.088514  0.614877  0.412645  1
  N  N54  1  0.385350  0.297450  0.483492  1
  N  N55  1  0.611310  0.210843  0.471320  1
  N  N56  1  0.614650  0.702549  0.516507  1
  N  N57  1  0.388690  0.789157  0.528680  1
  N  N58  1  0.177507  0.205795  0.583215  1
  N  N59  1  0.911486  0.385123  0.587356  1
  N  N60  1  0.912100  0.114650  0.598143  1
  N  N61  1  0.185665  0.486442  0.598456  1
  N  N62  1  0.400468  0.111310  0.639988  1
  N  N63  1  0.705794  0.528286  0.622579  1
  N  N64  1  0.081888  0.701513  0.682517  1
  N  N65  1  0.099635  0.983910  0.684281  1
  N  N66  1  0.710843  0.099533  0.739522  1
  N  N67  1  0.516089  0.615725  0.700371  1
  N  N68  1  0.416787  0.817047  0.802168  1
  N  N69  1  0.885123  0.973637  0.797767  1
  N  N70  1  0.526363  0.411486  0.824130  1
  N  N71  1  0.797450  0.412100  0.813957  1
  N  N72  1  0.400261  0.083213  0.885381  1
  N  N73  1  0.986442  0.800777  0.887987  1
  N  N74  1  0.028287  0.322493  0.905708  1
  N  N75  1  0.380375  0.581888  0.899371  1
  N  N76  1  0.300777  0.314336  0.912791  1
  N  N77  1  0.115725  0.599635  0.915353  1
  N  N78  1  0.682953  0.099739  0.985122  1
  N  N79  1  0.798487  0.880375  0.981004  1
