# generated using pymatgen
data_Li2Ca(CoN)2
_symmetry_space_group_name_H-M   'P 1'
_cell_length_a   7.10444600
_cell_length_b   7.10444600
_cell_length_c   3.47833700
_cell_angle_alpha   90.00000000
_cell_angle_beta   90.00000000
_cell_angle_gamma   90.00000000
_symmetry_Int_Tables_number   1
_chemical_formula_structural   Li2Ca(CoN)2
_chemical_formula_sum   'Li4 Ca2 Co4 N4'
_cell_volume   175.56263547
_cell_formula_units_Z   2
loop_
 _symmetry_equiv_pos_site_id
 _symmetry_equiv_pos_as_xyz
  1  'x, y, z'
loop_
 _atom_site_type_symbol
 _atom_site_label
 _atom_site_symmetry_multiplicity
 _atom_site_fract_x
 _atom_site_fract_y
 _atom_site_fract_z
 _atom_site_occupancy
  Li  Li0  1  0.116414  0.616414  0.000000  1
  Li  Li1  1  0.883586  0.383586  0.000000  1
  Li  Li2  1  0.616414  0.883586  0.000000  1
  Li  Li3  1  0.383586  0.116414  0.000000  1
  Ca  Ca4  1  0.000000  0.000000  0.000000  1
  Ca  Ca5  1  0.500000  0.500000  0.000000  1
  Co  Co6  1  0.675364  0.175364  0.500000  1
  Co  Co7  1  0.324636  0.824636  0.500000  1
  Co  Co8  1  0.175364  0.324636  0.500000  1
  Co  Co9  1  0.824636  0.675364  0.500000  1
  N  N10  1  0.676105  0.176105  0.000000  1
  N  N11  1  0.323895  0.823895  0.000000  1
  N  N12  1  0.176105  0.323895  0.000000  1
  N  N13  1  0.823895  0.676105  0.000000  1
