# generated using pymatgen
data_Pr3Ho7(SiSb)4
_symmetry_space_group_name_H-M   'P 1'
_cell_length_a   8.86992086
_cell_length_b   8.29694580
_cell_length_c   7.93763469
_cell_angle_alpha   89.55118967
_cell_angle_beta   89.88775933
_cell_angle_gamma   125.28564318
_symmetry_Int_Tables_number   1
_chemical_formula_structural   Pr3Ho7(SiSb)4
_chemical_formula_sum   'Pr3 Ho7 Si4 Sb4'
_cell_volume   476.80685597
_cell_formula_units_Z   1
loop_
 _symmetry_equiv_pos_site_id
 _symmetry_equiv_pos_as_xyz
  1  'x, y, z'
loop_
 _atom_site_type_symbol
 _atom_site_label
 _atom_site_symmetry_multiplicity
 _atom_site_fract_x
 _atom_site_fract_y
 _atom_site_fract_z
 _atom_site_occupancy
  Pr  Pr0  1  0.058546  0.339318  0.320600  1
  Pr  Pr1  1  0.943834  0.668645  0.679369  1
  Pr  Pr2  1  0.441130  0.162606  0.824024  1
  Ho  Ho3  1  0.770053  0.527690  0.162900  1
  Ho  Ho4  1  0.557077  0.821233  0.171350  1
  Ho  Ho5  1  0.227193  0.471755  0.835127  1
  Ho  Ho6  1  0.732806  0.973027  0.660450  1
  Ho  Ho7  1  0.269681  0.031996  0.337775  1
  Ho  Ho8  1  0.999003  0.998410  0.000948  1
  Ho  Ho9  1  0.500317  0.501937  0.499906  1
  Si  Si10  1  0.374500  0.376296  0.125963  1
  Si  Si11  1  0.625313  0.627795  0.874518  1
  Si  Si12  1  0.131219  0.132781  0.630691  1
  Si  Si13  1  0.865836  0.871084  0.364246  1
  Sb  Sb14  1  0.811474  0.223605  0.972695  1
  Sb  Sb15  1  0.184995  0.761566  0.040759  1
  Sb  Sb16  1  0.682244  0.269912  0.471421  1
  Sb  Sb17  1  0.324779  0.740344  0.527259  1
