# generated using pymatgen
data_TmLu11In2Ru3
_symmetry_space_group_name_H-M   'P 1'
_cell_length_a   8.30644687
_cell_length_b   8.30644836
_cell_length_c   8.31263700
_cell_angle_alpha   108.79905745
_cell_angle_beta   108.79905366
_cell_angle_gamma   110.79463909
_symmetry_Int_Tables_number   1
_chemical_formula_structural   TmLu11In2Ru3
_chemical_formula_sum   'Tm1 Lu11 In2 Ru3'
_cell_volume   441.49638631
_cell_formula_units_Z   1
loop_
 _symmetry_equiv_pos_site_id
 _symmetry_equiv_pos_as_xyz
  1  'x, y, z'
loop_
 _atom_site_type_symbol
 _atom_site_label
 _atom_site_symmetry_multiplicity
 _atom_site_fract_x
 _atom_site_fract_y
 _atom_site_fract_z
 _atom_site_occupancy
  Tm  Tm0  1  0.317264  0.317257  0.634525  1
  Lu  Lu1  1  0.681881  0.681875  0.363752  1
  Lu  Lu2  1  0.682097  0.318333  0.000430  1
  Lu  Lu3  1  0.318336  0.682092  0.000430  1
  Lu  Lu4  1  0.184966  0.425951  0.240402  1
  Lu  Lu5  1  0.815554  0.574602  0.759558  1
  Lu  Lu6  1  0.184954  0.944003  0.759558  1
  Lu  Lu7  1  0.944010  0.184949  0.759562  1
  Lu  Lu8  1  0.814449  0.055437  0.240400  1
  Lu  Lu9  1  0.055440  0.814444  0.240400  1
  Lu  Lu10  1  0.425958  0.184964  0.240401  1
  Lu  Lu11  1  0.574607  0.815548  0.759556  1
  In  In12  1  0.000100  0.499877  0.499977  1
  In  In13  1  0.499882  0.000180  0.500064  1
  Ru  Ru14  1  0.344476  0.344472  0.000397  1
  Ru  Ru15  1  0.655928  0.655923  0.000398  1
  Ru  Ru16  1  0.000099  0.000095  0.000193  1
