# generated using pymatgen
data_Ti15VAs5Se7
_symmetry_space_group_name_H-M   'P 1'
_cell_length_a   7.35891911
_cell_length_b   7.35891809
_cell_length_c   18.58895358
_cell_angle_alpha   90.07543376
_cell_angle_beta   89.92456566
_cell_angle_gamma   152.22522070
_symmetry_Int_Tables_number   1
_chemical_formula_structural   Ti15VAs5Se7
_chemical_formula_sum   'Ti15 V1 As5 Se7'
_cell_volume   469.10046613
_cell_formula_units_Z   1
loop_
 _symmetry_equiv_pos_site_id
 _symmetry_equiv_pos_as_xyz
  1  'x, y, z'
loop_
 _atom_site_type_symbol
 _atom_site_label
 _atom_site_symmetry_multiplicity
 _atom_site_fract_x
 _atom_site_fract_y
 _atom_site_fract_z
 _atom_site_occupancy
  Ti  Ti0  1  0.000002  0.999998  0.000053  1
  Ti  Ti1  1  0.057776  0.942224  0.749391  1
  Ti  Ti2  1  0.941886  0.058114  0.250950  1
  Ti  Ti3  1  0.733381  0.266619  0.158970  1
  Ti  Ti4  1  0.266205  0.733795  0.841076  1
  Ti  Ti5  1  0.266570  0.733430  0.656238  1
  Ti  Ti6  1  0.733621  0.266379  0.343574  1
  Ti  Ti7  1  0.534238  0.465762  0.118209  1
  Ti  Ti8  1  0.465985  0.534015  0.881208  1
  Ti  Ti9  1  0.466545  0.533455  0.612705  1
  Ti  Ti10  1  0.532793  0.467207  0.387204  1
  Ti  Ti11  1  0.668928  0.331072  0.973082  1
  Ti  Ti12  1  0.331294  0.668706  0.026900  1
  Ti  Ti13  1  0.332984  0.667016  0.472028  1
  Ti  Ti14  1  0.667290  0.332710  0.527809  1
  V  V15  1  0.000196  0.999804  0.500383  1
  As  As16  1  0.902515  0.097485  0.385137  1
  As  As17  1  0.842877  0.157123  0.924679  1
  As  As18  1  0.157367  0.842633  0.075259  1
  As  As19  1  0.157499  0.842501  0.426841  1
  As  As20  1  0.842864  0.157136  0.573048  1
  Se  Se21  1  0.421937  0.578063  0.747575  1
  Se  Se22  1  0.577756  0.422244  0.252192  1
  Se  Se23  1  0.700332  0.299668  0.748821  1
  Se  Se24  1  0.299791  0.700209  0.251276  1
  Se  Se25  1  0.901848  0.098152  0.116761  1
  Se  Se26  1  0.097947  0.902053  0.883400  1
  Se  Se27  1  0.097574  0.902426  0.615231  1
