# generated using pymatgen
data_SrSnPdRh
_symmetry_space_group_name_H-M   'P 1'
_cell_length_a   9.94252700
_cell_length_b   9.94252653
_cell_length_c   4.42450800
_cell_angle_alpha   90.00000000
_cell_angle_beta   90.00000000
_cell_angle_gamma   155.36711323
_symmetry_Int_Tables_number   1
_chemical_formula_structural   SrSnPdRh
_chemical_formula_sum   'Sr2 Sn2 Pd2 Rh2'
_cell_volume   182.30095815
_cell_formula_units_Z   2
loop_
 _symmetry_equiv_pos_site_id
 _symmetry_equiv_pos_as_xyz
  1  'x, y, z'
loop_
 _atom_site_type_symbol
 _atom_site_label
 _atom_site_symmetry_multiplicity
 _atom_site_fract_x
 _atom_site_fract_y
 _atom_site_fract_z
 _atom_site_occupancy
  Sr  Sr0  1  0.093201  0.906799  0.750000  1
  Sr  Sr1  1  0.906799  0.093201  0.250000  1
  Sn  Sn2  1  0.325101  0.674899  0.750000  1
  Sn  Sn3  1  0.674899  0.325101  0.250000  1
  Pd  Pd4  1  0.539548  0.460452  0.250000  1
  Pd  Pd5  1  0.460452  0.539548  0.750000  1
  Rh  Rh6  1  0.251782  0.748218  0.250000  1
  Rh  Rh7  1  0.748218  0.251782  0.750000  1
