# generated using pymatgen
data_CeU3(Al3Ir)6
_symmetry_space_group_name_H-M   'P 1'
_cell_length_a   7.59908406
_cell_length_b   7.61186910
_cell_length_c   9.40737100
_cell_angle_alpha   90.00000000
_cell_angle_beta   90.00000000
_cell_angle_gamma   119.51549278
_symmetry_Int_Tables_number   1
_chemical_formula_structural   CeU3(Al3Ir)6
_chemical_formula_sum   'Ce1 U3 Al18 Ir6'
_cell_volume   473.53397674
_cell_formula_units_Z   1
loop_
 _symmetry_equiv_pos_site_id
 _symmetry_equiv_pos_as_xyz
  1  'x, y, z'
loop_
 _atom_site_type_symbol
 _atom_site_label
 _atom_site_symmetry_multiplicity
 _atom_site_fract_x
 _atom_site_fract_y
 _atom_site_fract_z
 _atom_site_occupancy
  Ce  Ce0  1  0.997032  0.670068  0.750000  1
  U  U1  1  0.004920  0.329156  0.250000  1
  U  U2  1  0.670062  0.995797  0.750000  1
  U  U3  1  0.330457  0.004414  0.250000  1
  Al  Al4  1  0.128000  0.129298  0.750000  1
  Al  Al5  1  0.870505  0.871972  0.250000  1
  Al  Al6  1  0.002810  0.334558  0.573394  1
  Al  Al7  1  0.997484  0.664922  0.423082  1
  Al  Al8  1  0.997484  0.664922  0.076918  1
  Al  Al9  1  0.335944  0.002929  0.926574  1
  Al  Al10  1  0.002810  0.334558  0.926606  1
  Al  Al11  1  0.664241  0.997709  0.073869  1
  Al  Al12  1  0.664241  0.997709  0.426131  1
  Al  Al13  1  0.335944  0.002929  0.573426  1
  Al  Al14  1  0.334572  0.334650  0.055160  1
  Al  Al15  1  0.664913  0.665566  0.945921  1
  Al  Al16  1  0.664913  0.665566  0.554079  1
  Al  Al17  1  0.334572  0.334650  0.444840  1
  Al  Al18  1  0.341842  0.548037  0.750000  1
  Al  Al19  1  0.658652  0.452298  0.250000  1
  Al  Al20  1  0.546269  0.337883  0.750000  1
  Al  Al21  1  0.450885  0.660317  0.250000  1
  Ir  Ir22  1  0.673216  0.328050  0.499852  1
  Ir  Ir23  1  0.327224  0.672223  0.499710  1
  Ir  Ir24  1  0.327224  0.672223  0.000290  1
  Ir  Ir25  1  0.673216  0.328050  0.000148  1
  Ir  Ir26  1  0.000284  0.999774  0.499475  1
  Ir  Ir27  1  0.000284  0.999774  0.000525  1
