# generated using pymatgen
data_Nd6OsI10
_symmetry_space_group_name_H-M   'P 1'
_cell_length_a   8.00543923
_cell_length_b   9.99859880
_cell_length_c   10.04488495
_cell_angle_alpha   107.55930312
_cell_angle_beta   97.14337855
_cell_angle_gamma   105.02173095
_symmetry_Int_Tables_number   1
_chemical_formula_structural   Nd6OsI10
_chemical_formula_sum   'Nd6 Os1 I10'
_cell_volume   722.23306716
_cell_formula_units_Z   1
loop_
 _symmetry_equiv_pos_site_id
 _symmetry_equiv_pos_as_xyz
  1  'x, y, z'
loop_
 _atom_site_type_symbol
 _atom_site_label
 _atom_site_symmetry_multiplicity
 _atom_site_fract_x
 _atom_site_fract_y
 _atom_site_fract_z
 _atom_site_occupancy
  Nd  Nd0  1  0.468935  0.283811  0.584364  1
  Nd  Nd1  1  0.531065  0.716189  0.415636  1
  Nd  Nd2  1  0.855870  0.131799  0.674741  1
  Nd  Nd3  1  0.144130  0.868201  0.325259  1
  Nd  Nd4  1  0.382979  0.957275  0.739701  1
  Nd  Nd5  1  0.617021  0.042725  0.260299  1
  Os  Os6  1  0.500000  0.000000  0.500000  1
  I  I7  1  0.414210  0.631468  0.679819  1
  I  I8  1  0.585790  0.368532  0.320181  1
  I  I9  1  0.294273  0.261750  0.851268  1
  I  I10  1  0.705727  0.738250  0.148732  1
  I  I11  1  0.855094  0.457357  0.772170  1
  I  I12  1  0.144906  0.542643  0.227830  1
  I  I13  1  0.046027  0.181965  0.411922  1
  I  I14  1  0.240961  0.914007  0.039726  1
  I  I15  1  0.759039  0.085993  0.960274  1
  I  I16  1  0.953973  0.818035  0.588078  1
