# generated using pymatgen
data_Tm5Sn4
_symmetry_space_group_name_H-M   'P 1'
_cell_length_a   7.94496900
_cell_length_b   8.07053200
_cell_length_c   15.25850800
_cell_angle_alpha   90.00000000
_cell_angle_beta   90.00000000
_cell_angle_gamma   90.00000000
_symmetry_Int_Tables_number   1
_chemical_formula_structural   Tm5Sn4
_chemical_formula_sum   'Tm20 Sn16'
_cell_volume   978.37746398
_cell_formula_units_Z   4
loop_
 _symmetry_equiv_pos_site_id
 _symmetry_equiv_pos_as_xyz
  1  'x, y, z'
loop_
 _atom_site_type_symbol
 _atom_site_label
 _atom_site_symmetry_multiplicity
 _atom_site_fract_x
 _atom_site_fract_y
 _atom_site_fract_z
 _atom_site_occupancy
  Tm  Tm0  1  0.368079  0.836090  0.877747  1
  Tm  Tm1  1  0.868079  0.663910  0.622253  1
  Tm  Tm2  1  0.631921  0.163910  0.377747  1
  Tm  Tm3  1  0.131921  0.336090  0.122253  1
  Tm  Tm4  1  0.631921  0.163910  0.122253  1
  Tm  Tm5  1  0.131921  0.336090  0.377747  1
  Tm  Tm6  1  0.368079  0.836090  0.622253  1
  Tm  Tm7  1  0.868079  0.663910  0.877747  1
  Tm  Tm8  1  0.521385  0.320065  0.902722  1
  Tm  Tm9  1  0.021385  0.179935  0.597278  1
  Tm  Tm10  1  0.478615  0.679935  0.402722  1
  Tm  Tm11  1  0.978615  0.820065  0.097278  1
  Tm  Tm12  1  0.478615  0.679935  0.097278  1
  Tm  Tm13  1  0.978615  0.820065  0.402722  1
  Tm  Tm14  1  0.521385  0.320065  0.597278  1
  Tm  Tm15  1  0.021385  0.179935  0.902722  1
  Tm  Tm16  1  0.197989  0.503102  0.750000  1
  Tm  Tm17  1  0.697989  0.996898  0.750000  1
  Tm  Tm18  1  0.802011  0.496898  0.250000  1
  Tm  Tm19  1  0.302011  0.003102  0.250000  1
  Sn  Sn20  1  0.291929  0.034885  0.041674  1
  Sn  Sn21  1  0.791929  0.465115  0.458326  1
  Sn  Sn22  1  0.708071  0.965115  0.541674  1
  Sn  Sn23  1  0.208071  0.534885  0.958326  1
  Sn  Sn24  1  0.708071  0.965115  0.958326  1
  Sn  Sn25  1  0.208071  0.534885  0.541674  1
  Sn  Sn26  1  0.291929  0.034885  0.458326  1
  Sn  Sn27  1  0.791929  0.465115  0.041674  1
  Sn  Sn28  1  0.564343  0.619651  0.750000  1
  Sn  Sn29  1  0.064343  0.880349  0.750000  1
  Sn  Sn30  1  0.435657  0.380349  0.250000  1
  Sn  Sn31  1  0.935657  0.119651  0.250000  1
  Sn  Sn32  1  0.330234  0.147801  0.750000  1
  Sn  Sn33  1  0.830234  0.352199  0.750000  1
  Sn  Sn34  1  0.669766  0.852199  0.250000  1
  Sn  Sn35  1  0.169766  0.647801  0.250000  1
