# generated using pymatgen
data_CrSb12IrPt2
_symmetry_space_group_name_H-M   'P 1'
_cell_length_a   8.21251702
_cell_length_b   8.17552970
_cell_length_c   8.18767341
_cell_angle_alpha   109.34441674
_cell_angle_beta   109.63928791
_cell_angle_gamma   109.44023533
_symmetry_Int_Tables_number   1
_chemical_formula_structural   CrSb12IrPt2
_chemical_formula_sum   'Cr1 Sb12 Ir1 Pt2'
_cell_volume   423.12964938
_cell_formula_units_Z   1
loop_
 _symmetry_equiv_pos_site_id
 _symmetry_equiv_pos_as_xyz
  1  'x, y, z'
loop_
 _atom_site_type_symbol
 _atom_site_label
 _atom_site_symmetry_multiplicity
 _atom_site_fract_x
 _atom_site_fract_y
 _atom_site_fract_z
 _atom_site_occupancy
  Cr  Cr0  1  0.000000  0.500000  0.000000  1
  Sb  Sb1  1  0.847555  0.653662  0.502322  1
  Sb  Sb2  1  0.845700  0.338017  0.178666  1
  Sb  Sb3  1  0.154300  0.661983  0.821334  1
  Sb  Sb4  1  0.333384  0.495104  0.149643  1
  Sb  Sb5  1  0.152445  0.346338  0.497678  1
  Sb  Sb6  1  0.655328  0.810312  0.150100  1
  Sb  Sb7  1  0.183542  0.838250  0.333462  1
  Sb  Sb8  1  0.666616  0.504896  0.850357  1
  Sb  Sb9  1  0.816458  0.161750  0.666538  1
  Sb  Sb10  1  0.344672  0.189688  0.849900  1
  Sb  Sb11  1  0.505278  0.850630  0.661190  1
  Sb  Sb12  1  0.494722  0.149370  0.338810  1
  Ir  Ir13  1  0.500000  0.000000  0.000000  1
  Pt  Pt14  1  0.000000  0.000000  0.500000  1
  Pt  Pt15  1  0.500000  0.500000  0.500000  1
