# generated using pymatgen
data_Mg6VReN8
_symmetry_space_group_name_H-M   'P 1'
_cell_length_a   6.72635800
_cell_length_b   5.81124304
_cell_length_c   5.26922604
_cell_angle_alpha   90.01325371
_cell_angle_beta   90.00000000
_cell_angle_gamma   90.00000000
_symmetry_Int_Tables_number   1
_chemical_formula_structural   Mg6VReN8
_chemical_formula_sum   'Mg6 V1 Re1 N8'
_cell_volume   205.96614219
_cell_formula_units_Z   1
loop_
 _symmetry_equiv_pos_site_id
 _symmetry_equiv_pos_as_xyz
  1  'x, y, z'
loop_
 _atom_site_type_symbol
 _atom_site_label
 _atom_site_symmetry_multiplicity
 _atom_site_fract_x
 _atom_site_fract_y
 _atom_site_fract_z
 _atom_site_occupancy
  Mg  Mg0  1  0.242394  0.174428  0.851479  1
  Mg  Mg1  1  0.757606  0.174428  0.851479  1
  Mg  Mg2  1  0.237482  0.835391  0.361510  1
  Mg  Mg3  1  0.762518  0.835391  0.361510  1
  Mg  Mg4  1  0.000000  0.646013  0.853330  1
  Mg  Mg5  1  0.500000  0.329662  0.362018  1
  V  V6  1  0.000000  0.328942  0.350125  1
  Re  Re7  1  0.500000  0.672404  0.847158  1
  N  N8  1  0.000000  0.630127  0.456402  1
  N  N9  1  0.500000  0.371362  0.952484  1
  N  N10  1  0.000000  0.325019  0.008354  1
  N  N11  1  0.500000  0.675882  0.500860  1
  N  N12  1  0.771431  0.179538  0.455872  1
  N  N13  1  0.228569  0.179538  0.455872  1
  N  N14  1  0.726100  0.820938  0.955394  1
  N  N15  1  0.273900  0.820938  0.955394  1
