# generated using pymatgen
data_GaCl30
_symmetry_space_group_name_H-M   'P 1'
_cell_length_a   13.15381983
_cell_length_b   13.15382052
_cell_length_c   16.05347883
_cell_angle_alpha   83.61646568
_cell_angle_beta   83.61646192
_cell_angle_gamma   123.10163081
_symmetry_Int_Tables_number   1
_chemical_formula_structural   GaCl30
_chemical_formula_sum   'Ga1 Cl30'
_cell_volume   2262.56098144
_cell_formula_units_Z   1
loop_
 _symmetry_equiv_pos_site_id
 _symmetry_equiv_pos_as_xyz
  1  'x, y, z'
loop_
 _atom_site_type_symbol
 _atom_site_label
 _atom_site_symmetry_multiplicity
 _atom_site_fract_x
 _atom_site_fract_y
 _atom_site_fract_z
 _atom_site_occupancy
  Ga  Ga0  1  0.000000  0.000000  0.000000  1
  Cl  Cl1  1  0.939729  0.939729  0.166737  1
  Cl  Cl2  1  0.060271  0.060271  0.833263  1
  Cl  Cl3  1  0.065348  0.199410  0.006115  1
  Cl  Cl4  1  0.934652  0.800590  0.993885  1
  Cl  Cl5  1  0.199410  0.065348  0.006115  1
  Cl  Cl6  1  0.800590  0.934652  0.993885  1
  Cl  Cl7  1  0.204084  0.742614  0.063642  1
  Cl  Cl8  1  0.795916  0.257386  0.936358  1
  Cl  Cl9  1  0.699898  0.077733  0.261074  1
  Cl  Cl10  1  0.257386  0.795916  0.936358  1
  Cl  Cl11  1  0.300102  0.922267  0.738926  1
  Cl  Cl12  1  0.742614  0.204084  0.063642  1
  Cl  Cl13  1  0.985145  0.193039  0.776201  1
  Cl  Cl14  1  0.922267  0.300102  0.738926  1
  Cl  Cl15  1  0.014855  0.806961  0.223799  1
  Cl  Cl16  1  0.077733  0.699898  0.261074  1
  Cl  Cl17  1  0.806961  0.014855  0.223799  1
  Cl  Cl18  1  0.193039  0.985145  0.776201  1
  Cl  Cl19  1  0.463459  0.549565  0.260173  1
  Cl  Cl20  1  0.536541  0.450435  0.739827  1
  Cl  Cl21  1  0.507730  0.205156  0.450195  1
  Cl  Cl22  1  0.450435  0.536541  0.739827  1
  Cl  Cl23  1  0.492270  0.794844  0.549805  1
  Cl  Cl24  1  0.549565  0.463459  0.260173  1
  Cl  Cl25  1  0.239400  0.427794  0.545520  1
  Cl  Cl26  1  0.794844  0.492270  0.549805  1
  Cl  Cl27  1  0.760600  0.572206  0.454480  1
  Cl  Cl28  1  0.205156  0.507730  0.450195  1
  Cl  Cl29  1  0.572206  0.760600  0.454480  1
  Cl  Cl30  1  0.427794  0.239400  0.545520  1
