# generated using pymatgen
data_DyTmCo3P7Ru9
_symmetry_space_group_name_H-M   'P 1'
_cell_length_a   9.31770400
_cell_length_b   9.31770455
_cell_length_c   3.82111100
_cell_angle_alpha   90.00000000
_cell_angle_beta   90.00000000
_cell_angle_gamma   119.99999806
_symmetry_Int_Tables_number   1
_chemical_formula_structural   DyTmCo3P7Ru9
_chemical_formula_sum   'Dy1 Tm1 Co3 P7 Ru9'
_cell_volume   287.30166257
_cell_formula_units_Z   1
loop_
 _symmetry_equiv_pos_site_id
 _symmetry_equiv_pos_as_xyz
  1  'x, y, z'
loop_
 _atom_site_type_symbol
 _atom_site_label
 _atom_site_symmetry_multiplicity
 _atom_site_fract_x
 _atom_site_fract_y
 _atom_site_fract_z
 _atom_site_occupancy
  Dy  Dy0  1  0.666667  0.333333  0.000000  1
  Tm  Tm1  1  0.000000  0.000000  0.500000  1
  Co  Co2  1  0.491187  0.936128  0.000000  1
  Co  Co3  1  0.063872  0.555058  0.000000  1
  Co  Co4  1  0.444942  0.508813  0.000000  1
  P  P5  1  0.333333  0.666667  0.000000  1
  P  P6  1  0.448642  0.067540  0.500000  1
  P  P7  1  0.932460  0.381103  0.500000  1
  P  P8  1  0.618897  0.551358  0.500000  1
  P  P9  1  0.744751  0.967566  0.000000  1
  P  P10  1  0.032434  0.777184  0.000000  1
  P  P11  1  0.222816  0.255249  0.000000  1
  Ru  Ru12  1  0.760179  0.729430  0.000000  1
  Ru  Ru13  1  0.270570  0.030748  0.000000  1
  Ru  Ru14  1  0.969252  0.239821  0.000000  1
  Ru  Ru15  1  0.716065  0.101730  0.500000  1
  Ru  Ru16  1  0.898270  0.614334  0.500000  1
  Ru  Ru17  1  0.385666  0.283935  0.500000  1
  Ru  Ru18  1  0.539571  0.752141  0.500000  1
  Ru  Ru19  1  0.247859  0.787431  0.500000  1
  Ru  Ru20  1  0.212569  0.460429  0.500000  1
