# generated using pymatgen
data_Rb8CeU3F20
_symmetry_space_group_name_H-M   'P 1'
_cell_length_a   7.02621302
_cell_length_b   7.74523472
_cell_length_c   11.58605000
_cell_angle_alpha   90.01965530
_cell_angle_beta   90.07497318
_cell_angle_gamma   90.03266404
_symmetry_Int_Tables_number   1
_chemical_formula_structural   Rb8CeU3F20
_chemical_formula_sum   'Rb8 Ce1 U3 F20'
_cell_volume   630.50832616
_cell_formula_units_Z   1
loop_
 _symmetry_equiv_pos_site_id
 _symmetry_equiv_pos_as_xyz
  1  'x, y, z'
loop_
 _atom_site_type_symbol
 _atom_site_label
 _atom_site_symmetry_multiplicity
 _atom_site_fract_x
 _atom_site_fract_y
 _atom_site_fract_z
 _atom_site_occupancy
  Rb  Rb0  1  0.530804  0.021789  0.171740  1
  Rb  Rb1  1  0.468276  0.519643  0.828710  1
  Rb  Rb2  1  0.968060  0.021489  0.669989  1
  Rb  Rb3  1  0.031974  0.518700  0.330149  1
  Rb  Rb4  1  0.032703  0.018319  0.330366  1
  Rb  Rb5  1  0.968584  0.515896  0.669307  1
  Rb  Rb6  1  0.468805  0.017736  0.828920  1
  Rb  Rb7  1  0.531116  0.515031  0.172302  1
  Ce  Ce8  1  0.442214  0.270400  0.500950  1
  U  U9  1  0.558219  0.771077  0.498888  1
  U  U10  1  0.058073  0.264126  0.000209  1
  U  U11  1  0.942130  0.763688  0.999829  1
  F  F12  1  0.144334  0.987257  0.078263  1
  F  F13  1  0.854757  0.485488  0.922766  1
  F  F14  1  0.354585  0.984618  0.578195  1
  F  F15  1  0.645491  0.486850  0.419218  1
  F  F16  1  0.390020  0.268829  0.011651  1
  F  F17  1  0.610954  0.769314  0.987467  1
  F  F18  1  0.107018  0.268362  0.512079  1
  F  F19  1  0.890472  0.768397  0.488891  1
  F  F20  1  0.142938  0.550146  0.080013  1
  F  F21  1  0.857116  0.051786  0.920012  1
  F  F22  1  0.355540  0.552264  0.578757  1
  F  F23  1  0.646649  0.049097  0.420906  1
  F  F24  1  0.337936  0.267618  0.307863  1
  F  F25  1  0.658530  0.768721  0.690067  1
  F  F26  1  0.159184  0.268923  0.810177  1
  F  F27  1  0.842449  0.769032  0.190348  1
  F  F28  1  0.367759  0.762896  0.334128  1
  F  F29  1  0.631644  0.268303  0.667166  1
  F  F30  1  0.132134  0.772969  0.834948  1
  F  F31  1  0.869529  0.269246  0.165729  1
