# generated using pymatgen
data_La2Ho3Ga4
_symmetry_space_group_name_H-M   'P 1'
_cell_length_a   7.71544100
_cell_length_b   8.01226600
_cell_length_c   15.42917400
_cell_angle_alpha   90.00000000
_cell_angle_beta   90.00000000
_cell_angle_gamma   89.91902196
_symmetry_Int_Tables_number   1
_chemical_formula_structural   La2Ho3Ga4
_chemical_formula_sum   'La8 Ho12 Ga16'
_cell_volume   953.80228105
_cell_formula_units_Z   4
loop_
 _symmetry_equiv_pos_site_id
 _symmetry_equiv_pos_as_xyz
  1  'x, y, z'
loop_
 _atom_site_type_symbol
 _atom_site_label
 _atom_site_symmetry_multiplicity
 _atom_site_fract_x
 _atom_site_fract_y
 _atom_site_fract_z
 _atom_site_occupancy
  La  La0  1  0.977208  0.822759  0.095954  1
  La  La1  1  0.477108  0.677098  0.404080  1
  La  La2  1  0.522702  0.323097  0.904674  1
  La  La3  1  0.022531  0.176719  0.595533  1
  La  La4  1  0.022531  0.176719  0.904467  1
  La  La5  1  0.522702  0.323097  0.595326  1
  La  La6  1  0.477108  0.677098  0.095920  1
  La  La7  1  0.977208  0.822759  0.404046  1
  Ho  Ho8  1  0.653347  0.990773  0.250000  1
  Ho  Ho9  1  0.153341  0.509481  0.250000  1
  Ho  Ho10  1  0.846824  0.490888  0.750000  1
  Ho  Ho11  1  0.346517  0.009158  0.750000  1
  Ho  Ho12  1  0.680850  0.823942  0.877935  1
  Ho  Ho13  1  0.179801  0.676800  0.622126  1
  Ho  Ho14  1  0.819533  0.323720  0.122001  1
  Ho  Ho15  1  0.319636  0.176335  0.377941  1
  Ho  Ho16  1  0.319636  0.176335  0.122059  1
  Ho  Ho17  1  0.819533  0.323720  0.377999  1
  Ho  Ho18  1  0.179801  0.676800  0.877874  1
  Ho  Ho19  1  0.680850  0.823942  0.622065  1
  Ga  Ga20  1  0.768394  0.618214  0.250000  1
  Ga  Ga21  1  0.268524  0.881826  0.250000  1
  Ga  Ga22  1  0.731950  0.118062  0.750000  1
  Ga  Ga23  1  0.231737  0.381643  0.750000  1
  Ga  Ga24  1  0.024476  0.114297  0.250000  1
  Ga  Ga25  1  0.524663  0.385714  0.250000  1
  Ga  Ga26  1  0.475342  0.614321  0.750000  1
  Ga  Ga27  1  0.852248  0.532041  0.959007  1
  Ga  Ga28  1  0.352282  0.967777  0.541062  1
  Ga  Ga29  1  0.647961  0.031911  0.040905  1
  Ga  Ga30  1  0.148019  0.467848  0.459201  1
  Ga  Ga31  1  0.148019  0.467848  0.040799  1
  Ga  Ga32  1  0.647961  0.031911  0.459095  1
  Ga  Ga33  1  0.352282  0.967777  0.958938  1
  Ga  Ga34  1  0.852248  0.532041  0.540993  1
  Ga  Ga35  1  0.975125  0.885529  0.750000  1
