# generated using pymatgen
data_Tb7Ho5Co4SnRh
_symmetry_space_group_name_H-M   'P 1'
_cell_length_a   8.32398289
_cell_length_b   8.32398531
_cell_length_c   8.32221386
_cell_angle_alpha   111.01785914
_cell_angle_beta   110.45086547
_cell_angle_gamma   106.98297665
_symmetry_Int_Tables_number   1
_chemical_formula_structural   Tb7Ho5Co4SnRh
_chemical_formula_sum   'Tb7 Ho5 Co4 Sn1 Rh1'
_cell_volume   443.20672109
_cell_formula_units_Z   1
loop_
 _symmetry_equiv_pos_site_id
 _symmetry_equiv_pos_as_xyz
  1  'x, y, z'
loop_
 _atom_site_type_symbol
 _atom_site_label
 _atom_site_symmetry_multiplicity
 _atom_site_fract_x
 _atom_site_fract_y
 _atom_site_fract_z
 _atom_site_occupancy
  Tb  Tb0  1  0.407171  0.211584  0.195298  1
  Tb  Tb1  1  0.593851  0.789170  0.805087  1
  Tb  Tb2  1  0.015917  0.211236  0.805087  1
  Tb  Tb3  1  0.983714  0.788127  0.195298  1
  Tb  Tb4  1  0.185628  0.292378  0.478006  1
  Tb  Tb5  1  0.813686  0.706904  0.520591  1
  Tb  Tb6  1  0.186729  0.707399  0.894127  1
  Ho  Ho7  1  0.813753  0.292066  0.105821  1
  Ho  Ho8  1  0.313842  0.621410  0.306872  1
  Ho  Ho9  1  0.685759  0.378260  0.693471  1
  Ho  Ho10  1  0.315210  0.007711  0.693471  1
  Ho  Ho11  1  0.685461  0.993031  0.306872  1
  Co  Co12  1  0.379123  0.000125  0.379249  1
  Co  Co13  1  0.620956  0.000483  0.621439  1
  Co  Co14  1  0.111439  0.611296  0.498914  1
  Co  Co15  1  0.887618  0.387475  0.498914  1
  Sn  Sn16  1  0.500131  0.500397  0.000528  1
  Rh  Rh17  1  0.000010  0.000947  0.000957  1
