# generated using pymatgen
data_Lu5Ga2BiTe
_symmetry_space_group_name_H-M   'P 1'
_cell_length_a   8.50450743
_cell_length_b   8.50450838
_cell_length_c   7.85228200
_cell_angle_alpha   90.00000000
_cell_angle_beta   90.00000000
_cell_angle_gamma   125.10496767
_symmetry_Int_Tables_number   1
_chemical_formula_structural   Lu5Ga2BiTe
_chemical_formula_sum   'Lu10 Ga4 Bi2 Te2'
_cell_volume   464.62287211
_cell_formula_units_Z   2
loop_
 _symmetry_equiv_pos_site_id
 _symmetry_equiv_pos_as_xyz
  1  'x, y, z'
loop_
 _atom_site_type_symbol
 _atom_site_label
 _atom_site_symmetry_multiplicity
 _atom_site_fract_x
 _atom_site_fract_y
 _atom_site_fract_z
 _atom_site_occupancy
  Lu  Lu0  1  0.000914  0.999086  0.000000  1
  Lu  Lu1  1  0.500914  0.499086  0.500000  1
  Lu  Lu2  1  0.784137  0.541284  0.163998  1
  Lu  Lu3  1  0.458716  0.215863  0.836002  1
  Lu  Lu4  1  0.958716  0.715863  0.663998  1
  Lu  Lu5  1  0.284137  0.041284  0.336002  1
  Lu  Lu6  1  0.212435  0.457741  0.835763  1
  Lu  Lu7  1  0.542259  0.787565  0.164237  1
  Lu  Lu8  1  0.042259  0.287565  0.335763  1
  Lu  Lu9  1  0.712435  0.957741  0.664237  1
  Ga  Ga10  1  0.862964  0.864989  0.365426  1
  Ga  Ga11  1  0.135011  0.137036  0.634574  1
  Ga  Ga12  1  0.635011  0.637036  0.865426  1
  Ga  Ga13  1  0.362964  0.364989  0.134574  1
  Bi  Bi14  1  0.208674  0.791326  0.000000  1
  Bi  Bi15  1  0.708674  0.291326  0.500000  1
  Te  Te16  1  0.794890  0.205110  0.000000  1
  Te  Te17  1  0.294890  0.705110  0.500000  1
