# generated using pymatgen
data_Nd6LuS8
_symmetry_space_group_name_H-M   'P 1'
_cell_length_a   8.03876590
_cell_length_b   8.03855294
_cell_length_c   8.03585200
_cell_angle_alpha   120.01877938
_cell_angle_beta   89.94353645
_cell_angle_gamma   120.01752151
_symmetry_Int_Tables_number   1
_chemical_formula_structural   Nd6LuS8
_chemical_formula_sum   'Nd6 Lu1 S8'
_cell_volume   367.16363338
_cell_formula_units_Z   1
loop_
 _symmetry_equiv_pos_site_id
 _symmetry_equiv_pos_as_xyz
  1  'x, y, z'
loop_
 _atom_site_type_symbol
 _atom_site_label
 _atom_site_symmetry_multiplicity
 _atom_site_fract_x
 _atom_site_fract_y
 _atom_site_fract_z
 _atom_site_occupancy
  Nd  Nd0  1  0.249973  0.999987  0.249975  1
  Nd  Nd1  1  0.249988  0.499992  0.249993  1
  Nd  Nd2  1  0.750006  0.999989  0.249988  1
  Nd  Nd3  1  0.249956  0.999974  0.750010  1
  Nd  Nd4  1  0.750023  0.999994  0.750016  1
  Nd  Nd5  1  0.750024  0.500052  0.750015  1
  Lu  Lu6  1  0.250011  0.500005  0.750018  1
  S  S7  1  0.999984  0.999997  0.000010  1
  S  S8  1  0.500020  0.000016  0.500003  1
  S  S9  1  0.010146  0.020289  0.510181  1
  S  S10  1  0.010188  0.500034  0.510205  1
  S  S11  1  0.489872  0.500019  0.510135  1
  S  S12  1  0.010141  0.499975  0.989811  1
  S  S13  1  0.489818  0.499972  0.989820  1
  S  S14  1  0.489853  0.979708  0.989829  1
