# generated using pymatgen
data_Dy18Ho2Ir7Au5
_symmetry_space_group_name_H-M   'P 1'
_cell_length_a   11.18040176
_cell_length_b   11.18040341
_cell_length_c   6.30441893
_cell_angle_alpha   90.00779392
_cell_angle_beta   90.00779079
_cell_angle_gamma   89.54015558
_symmetry_Int_Tables_number   1
_chemical_formula_structural   Dy18Ho2Ir7Au5
_chemical_formula_sum   'Dy18 Ho2 Ir7 Au5'
_cell_volume   788.03580960
_cell_formula_units_Z   1
loop_
 _symmetry_equiv_pos_site_id
 _symmetry_equiv_pos_as_xyz
  1  'x, y, z'
loop_
 _atom_site_type_symbol
 _atom_site_label
 _atom_site_symmetry_multiplicity
 _atom_site_fract_x
 _atom_site_fract_y
 _atom_site_fract_z
 _atom_site_occupancy
  Dy  Dy0  1  0.300085  0.091229  0.363244  1
  Dy  Dy1  1  0.301574  0.907050  0.863137  1
  Dy  Dy2  1  0.697604  0.080715  0.857929  1
  Dy  Dy3  1  0.697579  0.905537  0.360839  1
  Dy  Dy4  1  0.580803  0.784510  0.876467  1
  Dy  Dy5  1  0.576082  0.206562  0.361216  1
  Dy  Dy6  1  0.417415  0.788157  0.376406  1
  Dy  Dy7  1  0.410856  0.207967  0.875335  1
  Dy  Dy8  1  0.215490  0.419197  0.623533  1
  Dy  Dy9  1  0.211843  0.582585  0.123594  1
  Dy  Dy10  1  0.793438  0.423918  0.138784  1
  Dy  Dy11  1  0.792033  0.589144  0.624665  1
  Dy  Dy12  1  0.908771  0.699915  0.136756  1
  Dy  Dy13  1  0.919285  0.302396  0.642071  1
  Dy  Dy14  1  0.092950  0.698426  0.636863  1
  Dy  Dy15  1  0.094463  0.302421  0.139161  1
  Dy  Dy16  1  0.998465  0.001003  0.499267  1
  Dy  Dy17  1  0.998997  0.001535  0.000733  1
  Ho  Ho18  1  0.496008  0.501916  0.001125  1
  Ho  Ho19  1  0.498084  0.503992  0.498875  1
  Ir  Ir20  1  0.653663  0.650909  0.250889  1
  Ir  Ir21  1  0.349091  0.346337  0.249111  1
  Ir  Ir22  1  0.345449  0.654551  0.750000  1
  Ir  Ir23  1  0.499338  0.999130  0.110151  1
  Ir  Ir24  1  0.499085  0.000308  0.611150  1
  Ir  Ir25  1  0.999692  0.500915  0.888850  1
  Ir  Ir26  1  0.000870  0.500662  0.389849  1
  Au  Au27  1  0.841384  0.158616  0.250000  1
  Au  Au28  1  0.843469  0.845870  0.750765  1
  Au  Au29  1  0.154130  0.156531  0.749235  1
  Au  Au30  1  0.155703  0.844297  0.250000  1
  Au  Au31  1  0.656302  0.343698  0.750000  1
