# generated using pymatgen
data_GeSb11(IrPt)2
_symmetry_space_group_name_H-M   'P 1'
_cell_length_a   8.15655215
_cell_length_b   8.15655111
_cell_length_c   8.15454450
_cell_angle_alpha   109.11107203
_cell_angle_beta   109.46631871
_cell_angle_gamma   109.84698399
_symmetry_Int_Tables_number   1
_chemical_formula_structural   GeSb11(IrPt)2
_chemical_formula_sum   'Ge1 Sb11 Ir2 Pt2'
_cell_volume   417.56118783
_cell_formula_units_Z   1
loop_
 _symmetry_equiv_pos_site_id
 _symmetry_equiv_pos_as_xyz
  1  'x, y, z'
loop_
 _atom_site_type_symbol
 _atom_site_label
 _atom_site_symmetry_multiplicity
 _atom_site_fract_x
 _atom_site_fract_y
 _atom_site_fract_z
 _atom_site_occupancy
  Ge  Ge0  1  0.845690  0.655902  0.501592  1
  Sb  Sb1  1  0.845707  0.350215  0.195924  1
  Sb  Sb2  1  0.141481  0.662094  0.803572  1
  Sb  Sb3  1  0.340360  0.494501  0.150831  1
  Sb  Sb4  1  0.153701  0.344188  0.497890  1
  Sb  Sb5  1  0.656331  0.810470  0.150831  1
  Sb  Sb6  1  0.185890  0.841490  0.338877  1
  Sb  Sb7  1  0.663644  0.506446  0.847869  1
  Sb  Sb8  1  0.814442  0.155949  0.662563  1
  Sb  Sb9  1  0.341422  0.184225  0.847869  1
  Sb  Sb10  1  0.506615  0.848120  0.662563  1
  Sb  Sb11  1  0.497385  0.152987  0.338877  1
  Ir  Ir12  1  0.001470  0.500218  0.999987  1
  Ir  Ir13  1  0.499769  0.998517  0.999987  1
  Pt  Pt14  1  0.995432  0.989726  0.500385  1
  Pt  Pt15  1  0.510659  0.504953  0.500385  1
