# generated using pymatgen
data_Y6Ta2Co(Ni5P4)3
_symmetry_space_group_name_H-M   'P 1'
_cell_length_a   3.78029800
_cell_length_b   10.73028900
_cell_length_c   12.37316900
_cell_angle_alpha   90.00000000
_cell_angle_beta   90.00000000
_cell_angle_gamma   90.00000000
_symmetry_Int_Tables_number   1
_chemical_formula_structural   Y6Ta2Co(Ni5P4)3
_chemical_formula_sum   'Y6 Ta2 Co1 Ni15 P12'
_cell_volume   501.90139220
_cell_formula_units_Z   1
loop_
 _symmetry_equiv_pos_site_id
 _symmetry_equiv_pos_as_xyz
  1  'x, y, z'
loop_
 _atom_site_type_symbol
 _atom_site_label
 _atom_site_symmetry_multiplicity
 _atom_site_fract_x
 _atom_site_fract_y
 _atom_site_fract_z
 _atom_site_occupancy
  Y  Y0  1  0.000000  0.500000  0.524769  1
  Y  Y1  1  0.500000  0.000000  0.475108  1
  Y  Y2  1  0.500000  0.819960  0.205015  1
  Y  Y3  1  0.500000  0.180040  0.205015  1
  Y  Y4  1  0.000000  0.680554  0.793734  1
  Y  Y5  1  0.000000  0.319446  0.793734  1
  Ta  Ta6  1  0.500000  0.500000  0.152840  1
  Ta  Ta7  1  0.000000  0.000000  0.847939  1
  Co  Co8  1  0.500000  0.000000  0.014431  1
  Ni  Ni9  1  0.500000  0.500000  0.700681  1
  Ni  Ni10  1  0.000000  0.000000  0.298384  1
  Ni  Ni11  1  0.000000  0.500000  0.984856  1
  Ni  Ni12  1  0.500000  0.332987  0.987163  1
  Ni  Ni13  1  0.500000  0.667013  0.987163  1
  Ni  Ni14  1  0.000000  0.165228  0.012311  1
  Ni  Ni15  1  0.000000  0.834772  0.012311  1
  Ni  Ni16  1  0.500000  0.300266  0.428886  1
  Ni  Ni17  1  0.500000  0.699734  0.428886  1
  Ni  Ni18  1  0.000000  0.199385  0.571296  1
  Ni  Ni19  1  0.000000  0.800615  0.571296  1
  Ni  Ni20  1  0.500000  0.879157  0.709079  1
  Ni  Ni21  1  0.500000  0.120843  0.709079  1
  Ni  Ni22  1  0.000000  0.621054  0.292004  1
  Ni  Ni23  1  0.000000  0.378946  0.292004  1
  P  P24  1  0.500000  0.500000  0.879021  1
  P  P25  1  0.000000  0.000000  0.119847  1
  P  P26  1  0.500000  0.500000  0.352689  1
  P  P27  1  0.000000  0.000000  0.647435  1
  P  P28  1  0.500000  0.313539  0.614225  1
  P  P29  1  0.500000  0.686461  0.614225  1
  P  P30  1  0.000000  0.186109  0.385583  1
  P  P31  1  0.000000  0.813891  0.385583  1
  P  P32  1  0.500000  0.843333  0.894432  1
  P  P33  1  0.500000  0.156667  0.894432  1
  P  P34  1  0.000000  0.657324  0.107273  1
  P  P35  1  0.000000  0.342676  0.107273  1
