# generated using pymatgen
data_ErTh3(NiB4)4
_symmetry_space_group_name_H-M   'P 1'
_cell_length_a   6.92553305
_cell_length_b   6.92553280
_cell_length_c   6.92553272
_cell_angle_alpha   112.75692080
_cell_angle_beta   112.75691774
_cell_angle_gamma   103.08258887
_symmetry_Int_Tables_number   1
_chemical_formula_structural   ErTh3(NiB4)4
_chemical_formula_sum   'Er1 Th3 Ni4 B16'
_cell_volume   253.35628544
_cell_formula_units_Z   1
loop_
 _symmetry_equiv_pos_site_id
 _symmetry_equiv_pos_as_xyz
  1  'x, y, z'
loop_
 _atom_site_type_symbol
 _atom_site_label
 _atom_site_symmetry_multiplicity
 _atom_site_fract_x
 _atom_site_fract_y
 _atom_site_fract_z
 _atom_site_occupancy
  Er  Er0  1  0.200606  0.200606  0.000000  1
  Th  Th1  1  0.249880  0.749880  0.500000  1
  Th  Th2  1  0.749880  0.249880  0.500000  1
  Th  Th3  1  0.797542  0.797542  0.000000  1
  Ni  Ni4  1  0.499219  0.727234  0.228015  1
  Ni  Ni5  1  0.727234  0.499219  0.228015  1
  Ni  Ni6  1  0.271205  0.499219  0.771985  1
  Ni  Ni7  1  0.499219  0.271205  0.771985  1
  B  B8  1  0.114939  0.114939  0.534520  1
  B  B9  1  0.580419  0.580419  0.465480  1
  B  B10  1  0.888411  0.888411  0.471086  1
  B  B11  1  0.580419  0.114939  0.000000  1
  B  B12  1  0.114939  0.580419  0.000000  1
  B  B13  1  0.888411  0.417325  0.000000  1
  B  B14  1  0.417325  0.888411  0.000000  1
  B  B15  1  0.417325  0.417325  0.528914  1
  B  B16  1  0.111649  0.273700  0.384592  1
  B  B17  1  0.273700  0.889108  0.162051  1
  B  B18  1  0.727057  0.111649  0.837949  1
  B  B19  1  0.111649  0.727057  0.837949  1
  B  B20  1  0.889108  0.273700  0.162051  1
  B  B21  1  0.889108  0.727057  0.615408  1
  B  B22  1  0.727057  0.889108  0.615408  1
  B  B23  1  0.273700  0.111649  0.384592  1
