# generated using pymatgen
data_Pr6BAsBr6
_symmetry_space_group_name_H-M   'P 1'
_cell_length_a   10.49426473
_cell_length_b   10.49426528
_cell_length_c   10.28072176
_cell_angle_alpha   109.46892786
_cell_angle_beta   109.46892849
_cell_angle_gamma   110.30227952
_symmetry_Int_Tables_number   1
_chemical_formula_structural   Pr6BAsBr6
_chemical_formula_sum   'Pr12 B2 As2 Br12'
_cell_volume   862.52704527
_cell_formula_units_Z   2
loop_
 _symmetry_equiv_pos_site_id
 _symmetry_equiv_pos_as_xyz
  1  'x, y, z'
loop_
 _atom_site_type_symbol
 _atom_site_label
 _atom_site_symmetry_multiplicity
 _atom_site_fract_x
 _atom_site_fract_y
 _atom_site_fract_z
 _atom_site_occupancy
  Pr  Pr0  1  0.466430  0.494680  0.222002  1
  Pr  Pr1  1  0.772679  0.244427  0.277998  1
  Pr  Pr2  1  0.769565  0.026128  0.496932  1
  Pr  Pr3  1  0.227367  0.470805  0.496932  1
  Pr  Pr4  1  0.255573  0.727321  0.222002  1
  Pr  Pr5  1  0.029195  0.272633  0.003068  1
  Pr  Pr6  1  0.005320  0.033570  0.277998  1
  Pr  Pr7  1  0.473872  0.730435  0.003068  1
  Pr  Pr8  1  0.491014  0.241014  0.482029  1
  Pr  Pr9  1  0.020223  0.479777  0.750000  1
  Pr  Pr10  1  0.258986  0.008986  0.017971  1
  Pr  Pr11  1  0.229777  0.270223  0.750000  1
  B  B12  1  0.999483  0.249483  0.498966  1
  B  B13  1  0.250517  0.500517  0.001034  1
  As  As14  1  0.249555  0.250445  0.250000  1
  As  As15  1  0.500445  0.999555  0.250000  1
  Br  Br16  1  0.248441  0.755517  0.742202  1
  Br  Br17  1  0.513316  0.506240  0.757798  1
  Br  Br18  1  0.991507  0.744659  0.994546  1
  Br  Br19  1  0.744483  0.251559  0.757798  1
  Br  Br20  1  0.993760  0.986684  0.742202  1
  Br  Br21  1  0.250113  0.996961  0.505454  1
  Br  Br22  1  0.755341  0.508493  0.505454  1
  Br  Br23  1  0.503039  0.249887  0.994546  1
  Br  Br24  1  0.756215  0.743785  0.250000  1
  Br  Br25  1  0.745647  0.995647  0.991295  1
  Br  Br26  1  0.993785  0.506215  0.250000  1
  Br  Br27  1  0.504353  0.754353  0.508705  1
