# generated using pymatgen
data_Ho6Al24IrOs7
_symmetry_space_group_name_H-M   'P 1'
_cell_length_a   8.81153197
_cell_length_b   8.83528899
_cell_length_c   9.55090511
_cell_angle_alpha   89.99999754
_cell_angle_beta   89.81730059
_cell_angle_gamma   120.08921841
_symmetry_Int_Tables_number   1
_chemical_formula_structural   Ho6Al24IrOs7
_chemical_formula_sum   'Ho6 Al24 Ir1 Os7'
_cell_volume   643.35880550
_cell_formula_units_Z   1
loop_
 _symmetry_equiv_pos_site_id
 _symmetry_equiv_pos_as_xyz
  1  'x, y, z'
loop_
 _atom_site_type_symbol
 _atom_site_label
 _atom_site_symmetry_multiplicity
 _atom_site_fract_x
 _atom_site_fract_y
 _atom_site_fract_z
 _atom_site_occupancy
  Ho  Ho0  1  0.195499  0.387813  0.250880  1
  Ho  Ho1  1  0.804501  0.612187  0.749120  1
  Ho  Ho2  1  0.610235  0.805118  0.250083  1
  Ho  Ho3  1  0.389765  0.194882  0.749917  1
  Ho  Ho4  1  0.195499  0.807686  0.250880  1
  Ho  Ho5  1  0.804501  0.192314  0.749120  1
  Al  Al6  1  0.333998  0.667000  0.018714  1
  Al  Al7  1  0.666002  0.333000  0.981286  1
  Al  Al8  1  0.666383  0.333191  0.517579  1
  Al  Al9  1  0.333617  0.666809  0.482421  1
  Al  Al10  1  0.161958  0.325180  0.576639  1
  Al  Al11  1  0.838042  0.674820  0.423361  1
  Al  Al12  1  0.673498  0.836749  0.575282  1
  Al  Al13  1  0.836416  0.674741  0.075880  1
  Al  Al14  1  0.326502  0.163251  0.424718  1
  Al  Al15  1  0.163584  0.325259  0.924120  1
  Al  Al16  1  0.161958  0.836779  0.576639  1
  Al  Al17  1  0.325977  0.162989  0.075481  1
  Al  Al18  1  0.838042  0.163221  0.423361  1
  Al  Al19  1  0.674023  0.837011  0.924519  1
  Al  Al20  1  0.836416  0.161674  0.075880  1
  Al  Al21  1  0.163584  0.838326  0.924120  1
  Al  Al22  1  0.561432  0.121678  0.249572  1
  Al  Al23  1  0.438568  0.878322  0.750428  1
  Al  Al24  1  0.878595  0.439298  0.250049  1
  Al  Al25  1  0.121405  0.560702  0.749951  1
  Al  Al26  1  0.561432  0.439755  0.249572  1
  Al  Al27  1  0.438568  0.560245  0.750428  1
  Al  Al28  1  0.999960  0.999980  0.250009  1
  Al  Al29  1  0.000040  0.000020  0.749991  1
  Ir  Ir30  1  0.000000  0.500000  0.000000  1
  Os  Os31  1  0.500000  0.000000  0.000000  1
  Os  Os32  1  0.500000  0.000000  0.500000  1
  Os  Os33  1  0.500000  0.500000  0.000000  1
  Os  Os34  1  0.000000  0.500000  0.500000  1
  Os  Os35  1  0.500000  0.500000  0.500000  1
  Os  Os36  1  0.000000  0.000000  0.000000  1
  Os  Os37  1  0.000000  0.000000  0.500000  1
