# generated using pymatgen
data_Nd3DySn6Rh7
_symmetry_space_group_name_H-M   'P 1'
_cell_length_a   7.70005675
_cell_length_b   7.70005683
_cell_length_c   7.70005732
_cell_angle_alpha   109.40376830
_cell_angle_beta   109.40376855
_cell_angle_gamma   109.40376374
_symmetry_Int_Tables_number   1
_chemical_formula_structural   Nd3DySn6Rh7
_chemical_formula_sum   'Nd3 Dy1 Sn6 Rh7'
_cell_volume   352.32204137
_cell_formula_units_Z   1
loop_
 _symmetry_equiv_pos_site_id
 _symmetry_equiv_pos_as_xyz
  1  'x, y, z'
loop_
 _atom_site_type_symbol
 _atom_site_label
 _atom_site_symmetry_multiplicity
 _atom_site_fract_x
 _atom_site_fract_y
 _atom_site_fract_z
 _atom_site_occupancy
  Nd  Nd0  1  0.000000  0.000000  0.500000  1
  Nd  Nd1  1  0.000000  0.500000  0.000000  1
  Nd  Nd2  1  0.500000  0.000000  0.000000  1
  Dy  Dy3  1  0.500000  0.500000  0.500000  1
  Sn  Sn4  1  0.679862  0.679862  0.997121  1
  Sn  Sn5  1  0.320138  0.002879  0.320138  1
  Sn  Sn6  1  0.002879  0.320138  0.320138  1
  Sn  Sn7  1  0.320138  0.320138  0.002879  1
  Sn  Sn8  1  0.679862  0.997121  0.679862  1
  Sn  Sn9  1  0.997121  0.679862  0.679862  1
  Rh  Rh10  1  0.748889  0.251111  0.500000  1
  Rh  Rh11  1  0.748889  0.500000  0.251111  1
  Rh  Rh12  1  0.500000  0.251111  0.748889  1
  Rh  Rh13  1  0.251111  0.500000  0.748889  1
  Rh  Rh14  1  0.251111  0.748889  0.500000  1
  Rh  Rh15  1  0.500000  0.748889  0.251111  1
  Rh  Rh16  1  0.000000  0.000000  0.000000  1
