# generated using pymatgen
data_Y3HoRu7W
_symmetry_space_group_name_H-M   'P 1'
_cell_length_a   5.49960200
_cell_length_b   5.19498977
_cell_length_c   9.04611706
_cell_angle_alpha   89.98909838
_cell_angle_beta   89.99931391
_cell_angle_gamma   121.99767987
_symmetry_Int_Tables_number   1
_chemical_formula_structural   Y3HoRu7W
_chemical_formula_sum   'Y3 Ho1 Ru7 W1'
_cell_volume   219.18439037
_cell_formula_units_Z   1
loop_
 _symmetry_equiv_pos_site_id
 _symmetry_equiv_pos_as_xyz
  1  'x, y, z'
loop_
 _atom_site_type_symbol
 _atom_site_label
 _atom_site_symmetry_multiplicity
 _atom_site_fract_x
 _atom_site_fract_y
 _atom_site_fract_z
 _atom_site_occupancy
  Y  Y0  1  0.672531  0.345437  0.563153  1
  Y  Y1  1  0.334316  0.668966  0.431803  1
  Y  Y2  1  0.334398  0.669127  0.068017  1
  Ho  Ho3  1  0.672780  0.345930  0.936857  1
  Ru  Ru4  1  0.009180  0.018499  0.498403  1
  Ru  Ru5  1  0.009038  0.018171  0.001383  1
  Ru  Ru6  1  0.171164  0.818948  0.750378  1
  Ru  Ru7  1  0.648738  0.818982  0.750371  1
  Ru  Ru8  1  0.824306  0.648655  0.249735  1
  Ru  Ru9  1  0.831403  0.164746  0.249831  1
  Ru  Ru10  1  0.334181  0.165564  0.249821  1
  W  W11  1  0.157966  0.316972  0.750248  1
