# generated using pymatgen
data_Dy2TmHf(Al3Ir)6
_symmetry_space_group_name_H-M   'P 1'
_cell_length_a   7.52623901
_cell_length_b   7.51773397
_cell_length_c   9.38901000
_cell_angle_alpha   90.00000000
_cell_angle_beta   90.00000000
_cell_angle_gamma   119.58721954
_symmetry_Int_Tables_number   1
_chemical_formula_structural   Dy2TmHf(Al3Ir)6
_chemical_formula_sum   'Dy2 Tm1 Hf1 Al18 Ir6'
_cell_volume   461.96261712
_cell_formula_units_Z   1
loop_
 _symmetry_equiv_pos_site_id
 _symmetry_equiv_pos_as_xyz
  1  'x, y, z'
loop_
 _atom_site_type_symbol
 _atom_site_label
 _atom_site_symmetry_multiplicity
 _atom_site_fract_x
 _atom_site_fract_y
 _atom_site_fract_z
 _atom_site_occupancy
  Dy  Dy0  1  0.005683  0.327510  0.250000  1
  Dy  Dy1  1  0.329052  0.006461  0.250000  1
  Tm  Tm2  1  0.671363  0.995873  0.750000  1
  Hf  Hf3  1  0.997613  0.673328  0.750000  1
  Al  Al4  1  0.125944  0.123486  0.750000  1
  Al  Al5  1  0.870789  0.869347  0.250000  1
  Al  Al6  1  0.999900  0.337701  0.579722  1
  Al  Al7  1  0.999154  0.664882  0.429274  1
  Al  Al8  1  0.999154  0.664882  0.070726  1
  Al  Al9  1  0.332840  0.998210  0.920185  1
  Al  Al10  1  0.999900  0.337701  0.920278  1
  Al  Al11  1  0.664552  0.998150  0.074329  1
  Al  Al12  1  0.664552  0.998150  0.425671  1
  Al  Al13  1  0.332840  0.998210  0.579815  1
  Al  Al14  1  0.333667  0.333736  0.050490  1
  Al  Al15  1  0.668858  0.667026  0.942746  1
  Al  Al16  1  0.668858  0.667026  0.557254  1
  Al  Al17  1  0.333667  0.333736  0.449510  1
  Al  Al18  1  0.336112  0.549434  0.750000  1
  Al  Al19  1  0.660953  0.452422  0.250000  1
  Al  Al20  1  0.555232  0.344711  0.750000  1
  Al  Al21  1  0.450934  0.659554  0.250000  1
  Ir  Ir22  1  0.672669  0.328236  0.501429  1
  Ir  Ir23  1  0.327618  0.672448  0.502213  1
  Ir  Ir24  1  0.327618  0.672448  0.997787  1
  Ir  Ir25  1  0.672669  0.328236  0.998571  1
  Ir  Ir26  1  0.998904  0.998549  0.501717  1
  Ir  Ir27  1  0.998904  0.998549  0.998283  1
