# generated using pymatgen
data_Dy5Er4Lu11Sn16
_symmetry_space_group_name_H-M   'P 1'
_cell_length_a   7.94263909
_cell_length_b   8.06797702
_cell_length_c   15.24927401
_cell_angle_alpha   90.02998105
_cell_angle_beta   89.99617562
_cell_angle_gamma   90.06066808
_symmetry_Int_Tables_number   1
_chemical_formula_structural   Dy5Er4Lu11Sn16
_chemical_formula_sum   'Dy5 Er4 Lu11 Sn16'
_cell_volume   977.18849663
_cell_formula_units_Z   1
loop_
 _symmetry_equiv_pos_site_id
 _symmetry_equiv_pos_as_xyz
  1  'x, y, z'
loop_
 _atom_site_type_symbol
 _atom_site_label
 _atom_site_symmetry_multiplicity
 _atom_site_fract_x
 _atom_site_fract_y
 _atom_site_fract_z
 _atom_site_occupancy
  Dy  Dy0  1  0.978823  0.822409  0.097395  1
  Dy  Dy1  1  0.480664  0.677883  0.096163  1
  Dy  Dy2  1  0.979471  0.821737  0.403500  1
  Dy  Dy3  1  0.519725  0.321168  0.595344  1
  Dy  Dy4  1  0.020352  0.178427  0.903747  1
  Er  Er5  1  0.866116  0.663410  0.877665  1
  Er  Er6  1  0.520505  0.321188  0.904111  1
  Er  Er7  1  0.020664  0.178700  0.595657  1
  Er  Er8  1  0.479170  0.678420  0.403858  1
  Lu  Lu9  1  0.364613  0.837529  0.876186  1
  Lu  Lu10  1  0.865213  0.661935  0.623082  1
  Lu  Lu11  1  0.634883  0.161583  0.376640  1
  Lu  Lu12  1  0.135002  0.337909  0.123670  1
  Lu  Lu13  1  0.633777  0.161998  0.124585  1
  Lu  Lu14  1  0.134678  0.337486  0.376626  1
  Lu  Lu15  1  0.365983  0.838133  0.622730  1
  Lu  Lu16  1  0.196828  0.504738  0.749734  1
  Lu  Lu17  1  0.696256  0.995710  0.749299  1
  Lu  Lu18  1  0.803531  0.494998  0.250452  1
  Lu  Lu19  1  0.303267  0.004700  0.250023  1
  Sn  Sn20  1  0.296494  0.039437  0.041475  1
  Sn  Sn21  1  0.796667  0.460769  0.458166  1
  Sn  Sn22  1  0.704342  0.960421  0.541248  1
  Sn  Sn23  1  0.206743  0.538099  0.958909  1
  Sn  Sn24  1  0.701029  0.963576  0.958630  1
  Sn  Sn25  1  0.202682  0.539593  0.541346  1
  Sn  Sn26  1  0.296427  0.039127  0.458406  1
  Sn  Sn27  1  0.796537  0.458988  0.042860  1
  Sn  Sn28  1  0.561883  0.620000  0.749058  1
  Sn  Sn29  1  0.062901  0.880941  0.749035  1
  Sn  Sn30  1  0.437715  0.379906  0.250709  1
  Sn  Sn31  1  0.937680  0.120322  0.250074  1
  Sn  Sn32  1  0.330693  0.149626  0.749683  1
  Sn  Sn33  1  0.830253  0.350294  0.749372  1
  Sn  Sn34  1  0.668882  0.849720  0.250355  1
  Sn  Sn35  1  0.169549  0.649120  0.250208  1
