# generated using pymatgen
data_Cr4CoNi3P4
_symmetry_space_group_name_H-M   'P 1'
_cell_length_a   3.53226900
_cell_length_b   5.83757999
_cell_length_c   6.80275749
_cell_angle_alpha   90.44064809
_cell_angle_beta   90.00000000
_cell_angle_gamma   90.00000000
_symmetry_Int_Tables_number   1
_chemical_formula_structural   Cr4CoNi3P4
_chemical_formula_sum   'Cr4 Co1 Ni3 P4'
_cell_volume   140.26805016
_cell_formula_units_Z   1
loop_
 _symmetry_equiv_pos_site_id
 _symmetry_equiv_pos_as_xyz
  1  'x, y, z'
loop_
 _atom_site_type_symbol
 _atom_site_label
 _atom_site_symmetry_multiplicity
 _atom_site_fract_x
 _atom_site_fract_y
 _atom_site_fract_z
 _atom_site_occupancy
  Cr  Cr0  1  0.750000  0.528338  0.172662  1
  Cr  Cr1  1  0.750000  0.030560  0.327471  1
  Cr  Cr2  1  0.250000  0.468679  0.829782  1
  Cr  Cr3  1  0.250000  0.970334  0.672171  1
  Co  Co4  1  0.250000  0.859789  0.060520  1
  Ni  Ni5  1  0.750000  0.641745  0.562619  1
  Ni  Ni6  1  0.750000  0.141608  0.936057  1
  Ni  Ni7  1  0.250000  0.361761  0.438397  1
  P  P8  1  0.750000  0.256163  0.625765  1
  P  P9  1  0.750000  0.755825  0.879198  1
  P  P10  1  0.250000  0.746045  0.369093  1
  P  P11  1  0.250000  0.239152  0.126262  1
