# generated using pymatgen
data_Hf3Sc5Ru8
_symmetry_space_group_name_H-M   'P 1'
_cell_length_a   6.44303200
_cell_length_b   4.56012200
_cell_length_c   9.12651500
_cell_angle_alpha   90.00000000
_cell_angle_beta   90.00044463
_cell_angle_gamma   90.00000000
_symmetry_Int_Tables_number   1
_chemical_formula_structural   Hf3Sc5Ru8
_chemical_formula_sum   'Hf3 Sc5 Ru8'
_cell_volume   268.14624646
_cell_formula_units_Z   1
loop_
 _symmetry_equiv_pos_site_id
 _symmetry_equiv_pos_as_xyz
  1  'x, y, z'
loop_
 _atom_site_type_symbol
 _atom_site_label
 _atom_site_symmetry_multiplicity
 _atom_site_fract_x
 _atom_site_fract_y
 _atom_site_fract_z
 _atom_site_occupancy
  Hf  Hf0  1  0.250015  0.750000  0.374881  1
  Hf  Hf1  1  0.749980  0.250000  0.624995  1
  Hf  Hf2  1  0.249993  0.750000  0.875108  1
  Sc  Sc3  1  0.250000  0.250000  0.124993  1
  Sc  Sc4  1  0.750023  0.750000  0.370860  1
  Sc  Sc5  1  0.249959  0.250000  0.624991  1
  Sc  Sc6  1  0.750005  0.750000  0.879151  1
  Sc  Sc7  1  0.750023  0.250000  0.124996  1
  Ru  Ru8  1  0.496237  0.750000  0.125013  1
  Ru  Ru9  1  0.003790  0.750000  0.125012  1
  Ru  Ru10  1  0.498697  0.250000  0.377036  1
  Ru  Ru11  1  0.001306  0.250000  0.377044  1
  Ru  Ru12  1  0.999151  0.750000  0.625025  1
  Ru  Ru13  1  0.500823  0.750000  0.625026  1
  Ru  Ru14  1  0.001395  0.250000  0.872938  1
  Ru  Ru15  1  0.498608  0.250000  0.872934  1
