# generated using pymatgen
data_Zr3Zn2AgN
_symmetry_space_group_name_H-M   'P 1'
_cell_length_a   8.70508770
_cell_length_b   8.70508768
_cell_length_c   8.70508800
_cell_angle_alpha   59.99999878
_cell_angle_beta   59.99999885
_cell_angle_gamma   59.99999477
_symmetry_Int_Tables_number   1
_chemical_formula_structural   Zr3Zn2AgN
_chemical_formula_sum   'Zr12 Zn8 Ag4 N4'
_cell_volume   466.44929750
_cell_formula_units_Z   4
loop_
 _symmetry_equiv_pos_site_id
 _symmetry_equiv_pos_as_xyz
  1  'x, y, z'
loop_
 _atom_site_type_symbol
 _atom_site_label
 _atom_site_symmetry_multiplicity
 _atom_site_fract_x
 _atom_site_fract_y
 _atom_site_fract_z
 _atom_site_occupancy
  Zr  Zr0  1  0.816865  0.183135  0.183135  1
  Zr  Zr1  1  0.183135  0.816865  0.183135  1
  Zr  Zr2  1  0.816865  0.816865  0.183135  1
  Zr  Zr3  1  0.183135  0.816865  0.816865  1
  Zr  Zr4  1  0.816865  0.183135  0.816865  1
  Zr  Zr5  1  0.183135  0.183135  0.816865  1
  Zr  Zr6  1  0.433135  0.066865  0.066865  1
  Zr  Zr7  1  0.066865  0.433135  0.066865  1
  Zr  Zr8  1  0.433135  0.433135  0.066865  1
  Zr  Zr9  1  0.066865  0.433135  0.433135  1
  Zr  Zr10  1  0.433135  0.066865  0.433135  1
  Zr  Zr11  1  0.066865  0.066865  0.433135  1
  Zn  Zn12  1  0.416364  0.416364  0.750907  1
  Zn  Zn13  1  0.416364  0.416364  0.416364  1
  Zn  Zn14  1  0.750907  0.416364  0.416364  1
  Zn  Zn15  1  0.416364  0.750907  0.416364  1
  Zn  Zn16  1  0.833636  0.833636  0.499093  1
  Zn  Zn17  1  0.833636  0.833636  0.833636  1
  Zn  Zn18  1  0.499093  0.833636  0.833636  1
  Zn  Zn19  1  0.833636  0.499093  0.833636  1
  Ag  Ag20  1  0.625000  0.625000  0.125000  1
  Ag  Ag21  1  0.625000  0.625000  0.625000  1
  Ag  Ag22  1  0.125000  0.625000  0.625000  1
  Ag  Ag23  1  0.625000  0.125000  0.625000  1
  N  N24  1  0.125000  0.125000  0.625000  1
  N  N25  1  0.125000  0.125000  0.125000  1
  N  N26  1  0.625000  0.125000  0.125000  1
  N  N27  1  0.125000  0.625000  0.125000  1
