# generated using pymatgen
data_Er10ZnBi5S2
_symmetry_space_group_name_H-M   'P 1'
_cell_length_a   8.97996700
_cell_length_b   8.97996650
_cell_length_c   6.45815900
_cell_angle_alpha   90.00000000
_cell_angle_beta   90.00000000
_cell_angle_gamma   119.78580652
_symmetry_Int_Tables_number   1
_chemical_formula_structural   Er10ZnBi5S2
_chemical_formula_sum   'Er10 Zn1 Bi5 S2'
_cell_volume   451.98304466
_cell_formula_units_Z   1
loop_
 _symmetry_equiv_pos_site_id
 _symmetry_equiv_pos_as_xyz
  1  'x, y, z'
loop_
 _atom_site_type_symbol
 _atom_site_label
 _atom_site_symmetry_multiplicity
 _atom_site_fract_x
 _atom_site_fract_y
 _atom_site_fract_z
 _atom_site_occupancy
  Er  Er0  1  0.659408  0.335496  0.496846  1
  Er  Er1  1  0.335496  0.659408  0.496846  1
  Er  Er2  1  0.335496  0.659408  0.003154  1
  Er  Er3  1  0.659408  0.335496  0.003154  1
  Er  Er4  1  0.749420  0.749420  0.250000  1
  Er  Er5  1  0.250012  0.013155  0.250000  1
  Er  Er6  1  0.013155  0.250012  0.250000  1
  Er  Er7  1  0.245427  0.245427  0.750000  1
  Er  Er8  1  0.755432  0.000389  0.750000  1
  Er  Er9  1  0.000389  0.755432  0.750000  1
  Zn  Zn10  1  0.397663  0.397663  0.250000  1
  Bi  Bi11  1  0.606617  0.001403  0.250000  1
  Bi  Bi12  1  0.001403  0.606617  0.250000  1
  Bi  Bi13  1  0.601927  0.601927  0.750000  1
  Bi  Bi14  1  0.394858  0.997468  0.750000  1
  Bi  Bi15  1  0.997468  0.394858  0.750000  1
  S  S16  1  0.998211  0.998211  0.500461  1
  S  S17  1  0.998211  0.998211  0.999539  1
