# generated using pymatgen
data_Sc3Ni2Sn3Pt
_symmetry_space_group_name_H-M   'P 1'
_cell_length_a   7.35869000
_cell_length_b   7.35868959
_cell_length_c   7.11023800
_cell_angle_alpha   90.00000000
_cell_angle_beta   90.00000000
_cell_angle_gamma   120.00000186
_symmetry_Int_Tables_number   1
_chemical_formula_structural   Sc3Ni2Sn3Pt
_chemical_formula_sum   'Sc6 Ni4 Sn6 Pt2'
_cell_volume   333.43850697
_cell_formula_units_Z   2
loop_
 _symmetry_equiv_pos_site_id
 _symmetry_equiv_pos_as_xyz
  1  'x, y, z'
loop_
 _atom_site_type_symbol
 _atom_site_label
 _atom_site_symmetry_multiplicity
 _atom_site_fract_x
 _atom_site_fract_y
 _atom_site_fract_z
 _atom_site_occupancy
  Sc  Sc0  1  0.401616  0.011455  0.252227  1
  Sc  Sc1  1  0.609838  0.598384  0.252227  1
  Sc  Sc2  1  0.988545  0.390162  0.252227  1
  Sc  Sc3  1  0.390162  0.988545  0.752227  1
  Sc  Sc4  1  0.598384  0.609838  0.752227  1
  Sc  Sc5  1  0.011455  0.401616  0.752227  1
  Ni  Ni6  1  0.000000  0.000000  0.750456  1
  Ni  Ni7  1  0.000000  0.000000  0.250456  1
  Ni  Ni8  1  0.666667  0.333333  0.966926  1
  Ni  Ni9  1  0.333333  0.666667  0.466926  1
  Sn  Sn10  1  0.270982  0.260554  0.999772  1
  Sn  Sn11  1  0.989572  0.729018  0.999772  1
  Sn  Sn12  1  0.010428  0.739446  0.499772  1
  Sn  Sn13  1  0.729018  0.989572  0.499772  1
  Sn  Sn14  1  0.260554  0.270982  0.499772  1
  Sn  Sn15  1  0.739446  0.010428  0.999772  1
  Pt  Pt16  1  0.333333  0.666667  0.026622  1
  Pt  Pt17  1  0.666667  0.333333  0.526622  1
