# generated using pymatgen
data_Pr3Nd5(NiHg)2
_symmetry_space_group_name_H-M   'P 1'
_cell_length_a   9.90121413
_cell_length_b   9.90121361
_cell_length_c   9.90121300
_cell_angle_alpha   59.99999869
_cell_angle_beta   60.00000043
_cell_angle_gamma   60.00000048
_symmetry_Int_Tables_number   1
_chemical_formula_structural   Pr3Nd5(NiHg)2
_chemical_formula_sum   'Pr6 Nd10 Ni4 Hg4'
_cell_volume   686.35734751
_cell_formula_units_Z   2
loop_
 _symmetry_equiv_pos_site_id
 _symmetry_equiv_pos_as_xyz
  1  'x, y, z'
loop_
 _atom_site_type_symbol
 _atom_site_label
 _atom_site_symmetry_multiplicity
 _atom_site_fract_x
 _atom_site_fract_y
 _atom_site_fract_z
 _atom_site_occupancy
  Pr  Pr0  1  0.187498  0.812502  0.812502  1
  Pr  Pr1  1  0.812502  0.187498  0.187498  1
  Pr  Pr2  1  0.812502  0.187498  0.812502  1
  Pr  Pr3  1  0.187498  0.812502  0.187498  1
  Pr  Pr4  1  0.812502  0.812502  0.187498  1
  Pr  Pr5  1  0.187498  0.187498  0.812502  1
  Nd  Nd6  1  0.598701  0.598701  0.598701  1
  Nd  Nd7  1  0.598701  0.598701  0.203897  1
  Nd  Nd8  1  0.598701  0.203897  0.598701  1
  Nd  Nd9  1  0.203897  0.598701  0.598701  1
  Nd  Nd10  1  0.059486  0.440514  0.440514  1
  Nd  Nd11  1  0.440514  0.059486  0.059486  1
  Nd  Nd12  1  0.440514  0.059486  0.440514  1
  Nd  Nd13  1  0.059486  0.440514  0.059486  1
  Nd  Nd14  1  0.440514  0.440514  0.059486  1
  Nd  Nd15  1  0.059486  0.059486  0.440514  1
  Ni  Ni16  1  0.392446  0.392446  0.392446  1
  Ni  Ni17  1  0.392446  0.392446  0.822663  1
  Ni  Ni18  1  0.392446  0.822663  0.392446  1
  Ni  Ni19  1  0.822663  0.392446  0.392446  1
  Hg  Hg20  1  0.833138  0.833138  0.833138  1
  Hg  Hg21  1  0.833138  0.833138  0.500587  1
  Hg  Hg22  1  0.833138  0.500587  0.833138  1
  Hg  Hg23  1  0.500587  0.833138  0.833138  1
