# generated using pymatgen
data_Sr4TbY3(BO4)4
_symmetry_space_group_name_H-M   'P 1'
_cell_length_a   3.68690100
_cell_length_b   9.76881552
_cell_length_c   10.98429159
_cell_angle_alpha   89.96261364
_cell_angle_beta   90.00000000
_cell_angle_gamma   90.00000000
_symmetry_Int_Tables_number   1
_chemical_formula_structural   Sr4TbY3(BO4)4
_chemical_formula_sum   'Sr4 Tb1 Y3 B4 O16'
_cell_volume   395.61736399
_cell_formula_units_Z   1
loop_
 _symmetry_equiv_pos_site_id
 _symmetry_equiv_pos_as_xyz
  1  'x, y, z'
loop_
 _atom_site_type_symbol
 _atom_site_label
 _atom_site_symmetry_multiplicity
 _atom_site_fract_x
 _atom_site_fract_y
 _atom_site_fract_z
 _atom_site_occupancy
  Sr  Sr0  1  0.250000  0.659632  0.083380  1
  Sr  Sr1  1  0.750000  0.340522  0.916416  1
  Sr  Sr2  1  0.750000  0.159647  0.416726  1
  Sr  Sr3  1  0.250000  0.840383  0.583383  1
  Tb  Tb4  1  0.250000  0.081503  0.110993  1
  Y  Y5  1  0.750000  0.918796  0.888752  1
  Y  Y6  1  0.750000  0.581034  0.388993  1
  Y  Y7  1  0.250000  0.418987  0.610977  1
  B  B8  1  0.250000  0.363697  0.204090  1
  B  B9  1  0.750000  0.636351  0.796119  1
  B  B10  1  0.750000  0.863540  0.296257  1
  B  B11  1  0.250000  0.136328  0.703862  1
  O  O12  1  0.250000  0.490277  0.261959  1
  O  O13  1  0.750000  0.509969  0.737885  1
  O  O14  1  0.750000  0.989941  0.237958  1
  O  O15  1  0.250000  0.009949  0.762086  1
  O  O16  1  0.250000  0.241860  0.270526  1
  O  O17  1  0.750000  0.758583  0.730197  1
  O  O18  1  0.750000  0.741359  0.230273  1
  O  O19  1  0.250000  0.258628  0.769757  1
  O  O20  1  0.250000  0.357090  0.076713  1
  O  O21  1  0.750000  0.642296  0.923473  1
  O  O22  1  0.750000  0.857453  0.423553  1
  O  O23  1  0.250000  0.142456  0.576551  1
  O  O24  1  0.250000  0.613010  0.499900  1
  O  O25  1  0.750000  0.387004  0.500130  1
  O  O26  1  0.750000  0.112943  0.999407  1
  O  O27  1  0.250000  0.886762  0.999682  1
