# generated using pymatgen
data_EuAgHgPd3
_symmetry_space_group_name_H-M   'P 1'
_cell_length_a   5.67717545
_cell_length_b   5.67717483
_cell_length_c   5.45830800
_cell_angle_alpha   58.66446273
_cell_angle_beta   58.66445470
_cell_angle_gamma   59.99999702
_symmetry_Int_Tables_number   1
_chemical_formula_structural   EuAgHgPd3
_chemical_formula_sum   'Eu1 Ag1 Hg1 Pd3'
_cell_volume   121.82575312
_cell_formula_units_Z   1
loop_
 _symmetry_equiv_pos_site_id
 _symmetry_equiv_pos_as_xyz
  1  'x, y, z'
loop_
 _atom_site_type_symbol
 _atom_site_label
 _atom_site_symmetry_multiplicity
 _atom_site_fract_x
 _atom_site_fract_y
 _atom_site_fract_z
 _atom_site_occupancy
  Eu  Eu0  1  0.502499  0.502499  0.492502  1
  Ag  Ag1  1  0.123130  0.123130  0.630610  1
  Hg  Hg2  1  0.754502  0.754502  0.736492  1
  Pd  Pd3  1  0.122932  0.624004  0.130133  1
  Pd  Pd4  1  0.122932  0.122932  0.130133  1
  Pd  Pd5  1  0.624004  0.122932  0.130133  1
