# generated using pymatgen
data_Th4CoSi6Ru
_symmetry_space_group_name_H-M   'P 1'
_cell_length_a   8.15392200
_cell_length_b   8.15392149
_cell_length_c   4.22552200
_cell_angle_alpha   90.00000000
_cell_angle_beta   90.00000000
_cell_angle_gamma   120.00000208
_symmetry_Int_Tables_number   1
_chemical_formula_structural   Th4CoSi6Ru
_chemical_formula_sum   'Th4 Co1 Si6 Ru1'
_cell_volume   243.30109742
_cell_formula_units_Z   1
loop_
 _symmetry_equiv_pos_site_id
 _symmetry_equiv_pos_as_xyz
  1  'x, y, z'
loop_
 _atom_site_type_symbol
 _atom_site_label
 _atom_site_symmetry_multiplicity
 _atom_site_fract_x
 _atom_site_fract_y
 _atom_site_fract_z
 _atom_site_occupancy
  Th  Th0  1  0.499500  0.500500  0.000000  1
  Th  Th1  1  0.000999  0.500500  0.000000  1
  Th  Th2  1  0.499500  0.999001  0.000000  1
  Th  Th3  1  0.000000  0.000000  0.000000  1
  Co  Co4  1  0.666667  0.333333  0.500000  1
  Si  Si5  1  0.828603  0.657206  0.500000  1
  Si  Si6  1  0.165431  0.834569  0.500000  1
  Si  Si7  1  0.669137  0.834569  0.500000  1
  Si  Si8  1  0.165431  0.330863  0.500000  1
  Si  Si9  1  0.828603  0.171397  0.500000  1
  Si  Si10  1  0.342794  0.171397  0.500000  1
  Ru  Ru11  1  0.333333  0.666667  0.500000  1
