# generated using pymatgen
data_CaPrGaRh3
_symmetry_space_group_name_H-M   'P 1'
_cell_length_a   5.21374759
_cell_length_b   5.21374805
_cell_length_c   5.21374698
_cell_angle_alpha   65.54241261
_cell_angle_beta   65.54241395
_cell_angle_gamma   65.54241144
_symmetry_Int_Tables_number   1
_chemical_formula_structural   CaPrGaRh3
_chemical_formula_sum   'Ca1 Pr1 Ga1 Rh3'
_cell_volume   112.28606617
_cell_formula_units_Z   1
loop_
 _symmetry_equiv_pos_site_id
 _symmetry_equiv_pos_as_xyz
  1  'x, y, z'
loop_
 _atom_site_type_symbol
 _atom_site_label
 _atom_site_symmetry_multiplicity
 _atom_site_fract_x
 _atom_site_fract_y
 _atom_site_fract_z
 _atom_site_occupancy
  Ca  Ca0  1  0.628733  0.628733  0.628733  1
  Pr  Pr1  1  0.371447  0.371447  0.371447  1
  Ga  Ga2  1  0.999718  0.999718  0.999718  1
  Rh  Rh3  1  0.999565  0.999565  0.500972  1
  Rh  Rh4  1  0.500972  0.999565  0.999565  1
  Rh  Rh5  1  0.999565  0.500972  0.999565  1
