# generated using pymatgen
data_Y6Sn7Pd16Au
_symmetry_space_group_name_H-M   'P 1'
_cell_length_a   9.33242824
_cell_length_b   9.33242868
_cell_length_c   9.33242800
_cell_angle_alpha   60.00000241
_cell_angle_beta   60.00000084
_cell_angle_gamma   59.99999599
_symmetry_Int_Tables_number   1
_chemical_formula_structural   Y6Sn7Pd16Au
_chemical_formula_sum   'Y6 Sn7 Pd16 Au1'
_cell_volume   574.73677448
_cell_formula_units_Z   1
loop_
 _symmetry_equiv_pos_site_id
 _symmetry_equiv_pos_as_xyz
  1  'x, y, z'
loop_
 _atom_site_type_symbol
 _atom_site_label
 _atom_site_symmetry_multiplicity
 _atom_site_fract_x
 _atom_site_fract_y
 _atom_site_fract_z
 _atom_site_occupancy
  Y  Y0  1  0.721585  0.278415  0.278415  1
  Y  Y1  1  0.278415  0.721585  0.721585  1
  Y  Y2  1  0.278415  0.721585  0.278415  1
  Y  Y3  1  0.721585  0.278415  0.721585  1
  Y  Y4  1  0.278415  0.278415  0.721585  1
  Y  Y5  1  0.721585  0.721585  0.278415  1
  Sn  Sn6  1  0.000000  0.000000  0.000000  1
  Sn  Sn7  1  0.500000  0.000000  0.000000  1
  Sn  Sn8  1  0.000000  0.500000  0.500000  1
  Sn  Sn9  1  0.000000  0.500000  0.000000  1
  Sn  Sn10  1  0.500000  0.000000  0.500000  1
  Sn  Sn11  1  0.000000  0.000000  0.500000  1
  Sn  Sn12  1  0.500000  0.500000  0.000000  1
  Pd  Pd13  1  0.119436  0.119436  0.119436  1
  Pd  Pd14  1  0.880564  0.880564  0.880564  1
  Pd  Pd15  1  0.119436  0.119436  0.641693  1
  Pd  Pd16  1  0.119436  0.641693  0.119436  1
  Pd  Pd17  1  0.880564  0.880564  0.358307  1
  Pd  Pd18  1  0.880564  0.358307  0.880564  1
  Pd  Pd19  1  0.641693  0.119436  0.119436  1
  Pd  Pd20  1  0.358307  0.880564  0.880564  1
  Pd  Pd21  1  0.334052  0.334052  0.334052  1
  Pd  Pd22  1  0.665948  0.665948  0.665948  1
  Pd  Pd23  1  0.334052  0.334052  0.997845  1
  Pd  Pd24  1  0.334052  0.997845  0.334052  1
  Pd  Pd25  1  0.665948  0.665948  0.002155  1
  Pd  Pd26  1  0.665948  0.002155  0.665948  1
  Pd  Pd27  1  0.997845  0.334052  0.334052  1
  Pd  Pd28  1  0.002155  0.665948  0.665948  1
  Au  Au29  1  0.500000  0.500000  0.500000  1
