# generated using pymatgen
data_Nd2Ga(AsRh2)6
_symmetry_space_group_name_H-M   'P 1'
_cell_length_a   10.00038400
_cell_length_b   10.00038449
_cell_length_c   4.00341400
_cell_angle_alpha   90.00000000
_cell_angle_beta   90.00000000
_cell_angle_gamma   120.00001162
_symmetry_Int_Tables_number   1
_chemical_formula_structural   Nd2Ga(AsRh2)6
_chemical_formula_sum   'Nd2 Ga1 As6 Rh12'
_cell_volume   346.73242642
_cell_formula_units_Z   1
loop_
 _symmetry_equiv_pos_site_id
 _symmetry_equiv_pos_as_xyz
  1  'x, y, z'
loop_
 _atom_site_type_symbol
 _atom_site_label
 _atom_site_symmetry_multiplicity
 _atom_site_fract_x
 _atom_site_fract_y
 _atom_site_fract_z
 _atom_site_occupancy
  Nd  Nd0  1  0.333333  0.666667  0.751076  1
  Nd  Nd1  1  0.666667  0.333333  0.248924  1
  Ga  Ga2  1  0.000000  0.000000  0.500000  1
  As  As3  1  0.884940  0.598749  0.750079  1
  As  As4  1  0.401251  0.286193  0.750079  1
  As  As5  1  0.713807  0.115060  0.750079  1
  As  As6  1  0.115060  0.401251  0.249921  1
  As  As7  1  0.598749  0.713807  0.249921  1
  As  As8  1  0.286193  0.884940  0.249921  1
  Rh  Rh9  1  0.616164  0.554240  0.751366  1
  Rh  Rh10  1  0.445760  0.061924  0.751366  1
  Rh  Rh11  1  0.938076  0.383836  0.751366  1
  Rh  Rh12  1  0.383836  0.445760  0.248634  1
  Rh  Rh13  1  0.554240  0.938076  0.248634  1
  Rh  Rh14  1  0.061924  0.616164  0.248634  1
  Rh  Rh15  1  0.121403  0.848383  0.749898  1
  Rh  Rh16  1  0.151617  0.273019  0.749898  1
  Rh  Rh17  1  0.726981  0.878597  0.749898  1
  Rh  Rh18  1  0.878597  0.151617  0.250102  1
  Rh  Rh19  1  0.848383  0.726981  0.250102  1
  Rh  Rh20  1  0.273019  0.121403  0.250102  1
