# generated using pymatgen
data_Yb3Pa(NiAs)4
_symmetry_space_group_name_H-M   'P 1'
_cell_length_a   4.05330700
_cell_length_b   4.05330790
_cell_length_c   15.78007800
_cell_angle_alpha   90.00000000
_cell_angle_beta   90.00000000
_cell_angle_gamma   120.00001717
_symmetry_Int_Tables_number   1
_chemical_formula_structural   Yb3Pa(NiAs)4
_chemical_formula_sum   'Yb3 Pa1 Ni4 As4'
_cell_volume   224.52194489
_cell_formula_units_Z   1
loop_
 _symmetry_equiv_pos_site_id
 _symmetry_equiv_pos_as_xyz
  1  'x, y, z'
loop_
 _atom_site_type_symbol
 _atom_site_label
 _atom_site_symmetry_multiplicity
 _atom_site_fract_x
 _atom_site_fract_y
 _atom_site_fract_z
 _atom_site_occupancy
  Yb  Yb0  1  0.000000  0.000000  0.750000  1
  Yb  Yb1  1  0.000000  0.000000  0.998970  1
  Yb  Yb2  1  0.000000  0.000000  0.501030  1
  Pa  Pa3  1  0.000000  0.000000  0.250000  1
  Ni  Ni4  1  0.333333  0.666667  0.149531  1
  Ni  Ni5  1  0.666667  0.333333  0.878338  1
  Ni  Ni6  1  0.666667  0.333333  0.621662  1
  Ni  Ni7  1  0.333333  0.666667  0.350469  1
  As  As8  1  0.333333  0.666667  0.623188  1
  As  As9  1  0.666667  0.333333  0.375597  1
  As  As10  1  0.666667  0.333333  0.124403  1
  As  As11  1  0.333333  0.666667  0.876812  1
