# generated using pymatgen
data_Zr2TiBe2Ir5
_symmetry_space_group_name_H-M   'P 1'
_cell_length_a   9.45520400
_cell_length_b   9.45520400
_cell_length_c   3.26570200
_cell_angle_alpha   90.00000000
_cell_angle_beta   90.00000000
_cell_angle_gamma   90.00000000
_symmetry_Int_Tables_number   1
_chemical_formula_structural   Zr2TiBe2Ir5
_chemical_formula_sum   'Zr4 Ti2 Be4 Ir10'
_cell_volume   291.95664138
_cell_formula_units_Z   2
loop_
 _symmetry_equiv_pos_site_id
 _symmetry_equiv_pos_as_xyz
  1  'x, y, z'
loop_
 _atom_site_type_symbol
 _atom_site_label
 _atom_site_symmetry_multiplicity
 _atom_site_fract_x
 _atom_site_fract_y
 _atom_site_fract_z
 _atom_site_occupancy
  Zr  Zr0  1  0.675009  0.175009  0.000000  1
  Zr  Zr1  1  0.324991  0.824991  0.000000  1
  Zr  Zr2  1  0.175009  0.324991  0.000000  1
  Zr  Zr3  1  0.824991  0.675009  0.000000  1
  Ti  Ti4  1  0.000000  0.000000  0.000000  1
  Ti  Ti5  1  0.500000  0.500000  0.000000  1
  Be  Be6  1  0.121124  0.621124  0.000000  1
  Be  Be7  1  0.878876  0.378876  0.000000  1
  Be  Be8  1  0.621124  0.878876  0.000000  1
  Be  Be9  1  0.378876  0.121124  0.000000  1
  Ir  Ir10  1  0.211733  0.069767  0.500000  1
  Ir  Ir11  1  0.788267  0.930233  0.500000  1
  Ir  Ir12  1  0.069767  0.788267  0.500000  1
  Ir  Ir13  1  0.711733  0.430233  0.500000  1
  Ir  Ir14  1  0.930233  0.211733  0.500000  1
  Ir  Ir15  1  0.288267  0.569767  0.500000  1
  Ir  Ir16  1  0.569767  0.711733  0.500000  1
  Ir  Ir17  1  0.430233  0.288267  0.500000  1
  Ir  Ir18  1  0.500000  0.000000  0.500000  1
  Ir  Ir19  1  0.000000  0.500000  0.500000  1
