# generated using pymatgen
data_CaPrCd2(Ru2O7)2
_symmetry_space_group_name_H-M   'P 1'
_cell_length_a   7.39618287
_cell_length_b   7.29768557
_cell_length_c   7.29768555
_cell_angle_alpha   59.39609237
_cell_angle_beta   59.60958523
_cell_angle_gamma   59.60957435
_symmetry_Int_Tables_number   1
_chemical_formula_structural   CaPrCd2(Ru2O7)2
_chemical_formula_sum   'Ca1 Pr1 Cd2 Ru4 O14'
_cell_volume   275.59845621
_cell_formula_units_Z   1
loop_
 _symmetry_equiv_pos_site_id
 _symmetry_equiv_pos_as_xyz
  1  'x, y, z'
loop_
 _atom_site_type_symbol
 _atom_site_label
 _atom_site_symmetry_multiplicity
 _atom_site_fract_x
 _atom_site_fract_y
 _atom_site_fract_z
 _atom_site_occupancy
  Ca  Ca0  1  0.625000  0.125000  0.125000  1
  Pr  Pr1  1  0.125000  0.125000  0.125000  1
  Cd  Cd2  1  0.125000  0.625000  0.125000  1
  Cd  Cd3  1  0.125000  0.125000  0.625000  1
  Ru  Ru4  1  0.625000  0.125000  0.625000  1
  Ru  Ru5  1  0.625000  0.625000  0.125000  1
  Ru  Ru6  1  0.125000  0.625000  0.625000  1
  Ru  Ru7  1  0.625000  0.625000  0.625000  1
  O  O8  1  0.688327  0.692873  0.306708  1
  O  O9  1  0.939755  0.562013  0.562013  1
  O  O10  1  0.546972  0.955319  0.955319  1
  O  O11  1  0.948635  0.949874  0.552752  1
  O  O12  1  0.948635  0.552752  0.949874  1
  O  O13  1  0.561673  0.943292  0.557127  1
  O  O14  1  0.301365  0.697248  0.300126  1
  O  O15  1  0.310245  0.687987  0.687987  1
  O  O16  1  0.703028  0.294681  0.294681  1
  O  O17  1  0.688327  0.306708  0.692873  1
  O  O18  1  0.561673  0.557127  0.943292  1
  O  O19  1  0.301365  0.300126  0.697248  1
  O  O20  1  0.244817  0.260925  0.260925  1
  O  O21  1  0.005183  0.989075  0.989075  1
