# generated using pymatgen
data_Tm12CdNi4Os
_symmetry_space_group_name_H-M   'P 1'
_cell_length_a   8.19961198
_cell_length_b   8.19961300
_cell_length_c   8.19961200
_cell_angle_alpha   111.53667524
_cell_angle_beta   110.10285619
_cell_angle_gamma   106.80986834
_symmetry_Int_Tables_number   1
_chemical_formula_structural   Tm12CdNi4Os
_chemical_formula_sum   'Tm12 Cd1 Ni4 Os1'
_cell_volume   423.63068069
_cell_formula_units_Z   1
loop_
 _symmetry_equiv_pos_site_id
 _symmetry_equiv_pos_as_xyz
  1  'x, y, z'
loop_
 _atom_site_type_symbol
 _atom_site_label
 _atom_site_symmetry_multiplicity
 _atom_site_fract_x
 _atom_site_fract_y
 _atom_site_fract_z
 _atom_site_occupancy
  Tm  Tm0  1  0.414742  0.224855  0.189885  1
  Tm  Tm1  1  0.585258  0.775145  0.810115  1
  Tm  Tm2  1  0.034971  0.224855  0.810115  1
  Tm  Tm3  1  0.965029  0.775145  0.189885  1
  Tm  Tm4  1  0.178612  0.278205  0.456816  1
  Tm  Tm5  1  0.821388  0.721795  0.543184  1
  Tm  Tm6  1  0.178612  0.721795  0.900406  1
  Tm  Tm7  1  0.821388  0.278205  0.099594  1
  Tm  Tm8  1  0.322887  0.627827  0.304940  1
  Tm  Tm9  1  0.677113  0.372173  0.695060  1
  Tm  Tm10  1  0.322887  0.017946  0.695060  1
  Tm  Tm11  1  0.677113  0.982054  0.304940  1
  Cd  Cd12  1  0.500000  0.500000  0.000000  1
  Ni  Ni13  1  0.359242  0.000000  0.359242  1
  Ni  Ni14  1  0.640758  0.000000  0.640758  1
  Ni  Ni15  1  0.119145  0.619145  0.500000  1
  Ni  Ni16  1  0.880855  0.380855  0.500000  1
  Os  Os17  1  0.000000  0.000000  0.000000  1
