# generated using pymatgen
data_SrDy3P7Ir8
_symmetry_space_group_name_H-M   'P 1'
_cell_length_a   3.97155000
_cell_length_b   12.76122834
_cell_length_c   13.11578713
_cell_angle_alpha   81.45868002
_cell_angle_beta   90.00000000
_cell_angle_gamma   90.00000000
_symmetry_Int_Tables_number   1
_chemical_formula_structural   SrDy3P7Ir8
_chemical_formula_sum   'Sr2 Dy6 P14 Ir16'
_cell_volume   657.35989979
_cell_formula_units_Z   2
loop_
 _symmetry_equiv_pos_site_id
 _symmetry_equiv_pos_as_xyz
  1  'x, y, z'
loop_
 _atom_site_type_symbol
 _atom_site_label
 _atom_site_symmetry_multiplicity
 _atom_site_fract_x
 _atom_site_fract_y
 _atom_site_fract_z
 _atom_site_occupancy
  Sr  Sr0  1  0.250000  0.107971  0.788964  1
  Sr  Sr1  1  0.750000  0.892029  0.211036  1
  Dy  Dy2  1  0.250000  0.280995  0.102578  1
  Dy  Dy3  1  0.750000  0.719005  0.897422  1
  Dy  Dy4  1  0.250000  0.520144  0.293915  1
  Dy  Dy5  1  0.750000  0.479856  0.706085  1
  Dy  Dy6  1  0.250000  0.209122  0.440730  1
  Dy  Dy7  1  0.750000  0.790878  0.559270  1
  P  P8  1  0.250000  0.056921  0.098763  1
  P  P9  1  0.750000  0.943079  0.901237  1
  P  P10  1  0.250000  0.317902  0.685611  1
  P  P11  1  0.750000  0.682098  0.314389  1
  P  P12  1  0.250000  0.608488  0.567077  1
  P  P13  1  0.750000  0.391512  0.432923  1
  P  P14  1  0.250000  0.842162  0.718366  1
  P  P15  1  0.750000  0.157838  0.281634  1
  P  P16  1  0.750000  0.259604  0.921750  1
  P  P17  1  0.250000  0.740396  0.078250  1
  P  P18  1  0.750000  0.093309  0.586599  1
  P  P19  1  0.250000  0.906691  0.413401  1
  P  P20  1  0.750000  0.472616  0.129026  1
  P  P21  1  0.250000  0.527384  0.870974  1
  Ir  Ir22  1  0.250000  0.987289  0.576066  1
  Ir  Ir23  1  0.750000  0.012711  0.423934  1
  Ir  Ir24  1  0.250000  0.662276  0.732953  1
  Ir  Ir25  1  0.750000  0.337724  0.267047  1
  Ir  Ir26  1  0.250000  0.554639  0.045141  1
  Ir  Ir27  1  0.750000  0.445361  0.954859  1
  Ir  Ir28  1  0.250000  0.067211  0.272790  1
  Ir  Ir29  1  0.750000  0.932789  0.727210  1
  Ir  Ir30  1  0.250000  0.423842  0.522149  1
  Ir  Ir31  1  0.750000  0.576158  0.477851  1
  Ir  Ir32  1  0.250000  0.915910  0.996498  1
  Ir  Ir33  1  0.750000  0.084090  0.003502  1
  Ir  Ir34  1  0.250000  0.726512  0.400585  1
  Ir  Ir35  1  0.750000  0.273488  0.599415  1
  Ir  Ir36  1  0.250000  0.344327  0.857860  1
  Ir  Ir37  1  0.750000  0.655673  0.142140  1
