# generated using pymatgen
data_Pr7Dy(Lu3Pt4)4
_symmetry_space_group_name_H-M   'P 1'
_cell_length_a   7.61373788
_cell_length_b   7.65766208
_cell_length_c   14.60788900
_cell_angle_alpha   89.90606156
_cell_angle_beta   89.89879950
_cell_angle_gamma   90.10034918
_symmetry_Int_Tables_number   1
_chemical_formula_structural   Pr7Dy(Lu3Pt4)4
_chemical_formula_sum   'Pr7 Dy1 Lu12 Pt16'
_cell_volume   851.68627612
_cell_formula_units_Z   1
loop_
 _symmetry_equiv_pos_site_id
 _symmetry_equiv_pos_as_xyz
  1  'x, y, z'
loop_
 _atom_site_type_symbol
 _atom_site_label
 _atom_site_symmetry_multiplicity
 _atom_site_fract_x
 _atom_site_fract_y
 _atom_site_fract_z
 _atom_site_occupancy
  Pr  Pr0  1  0.501599  0.675478  0.594670  1
  Pr  Pr1  1  0.001897  0.824908  0.903820  1
  Pr  Pr2  1  0.497121  0.326775  0.095272  1
  Pr  Pr3  1  0.997500  0.170779  0.406722  1
  Pr  Pr4  1  0.497627  0.325902  0.404111  1
  Pr  Pr5  1  0.997620  0.176028  0.095095  1
  Pr  Pr6  1  0.503289  0.674726  0.903003  1
  Dy  Dy7  1  0.001086  0.823201  0.598834  1
  Lu  Lu8  1  0.660740  0.166400  0.622390  1
  Lu  Lu9  1  0.158779  0.331564  0.875169  1
  Lu  Lu10  1  0.341531  0.833124  0.123263  1
  Lu  Lu11  1  0.843076  0.670101  0.378763  1
  Lu  Lu12  1  0.340551  0.833927  0.376792  1
  Lu  Lu13  1  0.841443  0.666849  0.124245  1
  Lu  Lu14  1  0.659397  0.166016  0.875145  1
  Lu  Lu15  1  0.159117  0.332152  0.622948  1
  Lu  Lu16  1  0.823882  0.505340  0.748520  1
  Lu  Lu17  1  0.322642  0.994002  0.748240  1
  Lu  Lu18  1  0.175498  0.494980  0.251339  1
  Lu  Lu19  1  0.676779  0.006308  0.250143  1
  Pt  Pt20  1  0.674325  0.960106  0.459541  1
  Pt  Pt21  1  0.175202  0.538147  0.043186  1
  Pt  Pt22  1  0.326002  0.037020  0.954982  1
  Pt  Pt23  1  0.829368  0.469515  0.547016  1
  Pt  Pt24  1  0.314574  0.031047  0.545300  1
  Pt  Pt25  1  0.824757  0.461250  0.955953  1
  Pt  Pt26  1  0.676106  0.961859  0.043440  1
  Pt  Pt27  1  0.175152  0.541114  0.457738  1
  Pt  Pt28  1  0.454057  0.370493  0.748894  1
  Pt  Pt29  1  0.956281  0.125557  0.747799  1
  Pt  Pt30  1  0.545748  0.630640  0.250901  1
  Pt  Pt31  1  0.045292  0.872379  0.250494  1
  Pt  Pt32  1  0.691822  0.863962  0.747357  1
  Pt  Pt33  1  0.186211  0.636556  0.746660  1
  Pt  Pt34  1  0.312107  0.135641  0.250393  1
  Pt  Pt35  1  0.811824  0.366154  0.251857  1
