# generated using pymatgen
data_Mg4P6Ir2OsRh4
_symmetry_space_group_name_H-M   'P 1'
_cell_length_a   6.84313448
_cell_length_b   6.84410143
_cell_length_c   6.84410135
_cell_angle_alpha   109.39937378
_cell_angle_beta   109.51003174
_cell_angle_gamma   109.51003267
_symmetry_Int_Tables_number   1
_chemical_formula_structural   Mg4P6Ir2OsRh4
_chemical_formula_sum   'Mg4 P6 Ir2 Os1 Rh4'
_cell_volume   246.73723003
_cell_formula_units_Z   1
loop_
 _symmetry_equiv_pos_site_id
 _symmetry_equiv_pos_as_xyz
  1  'x, y, z'
loop_
 _atom_site_type_symbol
 _atom_site_label
 _atom_site_symmetry_multiplicity
 _atom_site_fract_x
 _atom_site_fract_y
 _atom_site_fract_z
 _atom_site_occupancy
  Mg  Mg0  1  0.500225  0.499868  0.499868  1
  Mg  Mg1  1  0.999777  0.999888  0.499888  1
  Mg  Mg2  1  0.500225  0.000356  0.000356  1
  Mg  Mg3  1  0.999777  0.499888  0.999888  1
  P  P4  1  0.314899  0.999940  0.314958  1
  P  P5  1  0.684925  0.999902  0.685023  1
  P  P6  1  0.000151  0.685250  0.685250  1
  P  P7  1  0.000151  0.314901  0.314901  1
  P  P8  1  0.684925  0.685023  0.999902  1
  P  P9  1  0.314899  0.314958  0.999940  1
  Ir  Ir10  1  0.250212  0.750442  0.499769  1
  Ir  Ir11  1  0.250212  0.499769  0.750442  1
  Os  Os12  1  0.000017  0.000008  0.000008  1
  Rh  Rh13  1  0.500351  0.750176  0.250176  1
  Rh  Rh14  1  0.500351  0.250176  0.750176  1
  Rh  Rh15  1  0.749453  0.249630  0.499822  1
  Rh  Rh16  1  0.749453  0.499822  0.249630  1
