# generated using pymatgen
data_Dy5MnRhO12
_symmetry_space_group_name_H-M   'P 1'
_cell_length_a   6.82401454
_cell_length_b   6.82401357
_cell_length_c   7.26414856
_cell_angle_alpha   74.43990019
_cell_angle_beta   74.43989856
_cell_angle_gamma   50.76552324
_symmetry_Int_Tables_number   1
_chemical_formula_structural   Dy5MnRhO12
_chemical_formula_sum   'Dy5 Mn1 Rh1 O12'
_cell_volume   250.19695741
_cell_formula_units_Z   1
loop_
 _symmetry_equiv_pos_site_id
 _symmetry_equiv_pos_as_xyz
  1  'x, y, z'
loop_
 _atom_site_type_symbol
 _atom_site_label
 _atom_site_symmetry_multiplicity
 _atom_site_fract_x
 _atom_site_fract_y
 _atom_site_fract_z
 _atom_site_occupancy
  Dy  Dy0  1  0.296530  0.309763  0.358977  1
  Dy  Dy1  1  0.690237  0.703470  0.641023  1
  Dy  Dy2  1  0.308890  0.308265  0.831170  1
  Dy  Dy3  1  0.691735  0.691110  0.168830  1
  Dy  Dy4  1  0.000785  0.999215  0.500000  1
  Mn  Mn5  1  0.249201  0.750799  0.000000  1
  Rh  Rh6  1  0.759230  0.240770  0.000000  1
  O  O7  1  0.902769  0.424547  0.917379  1
  O  O8  1  0.423431  0.901789  0.918520  1
  O  O9  1  0.098211  0.576569  0.081480  1
  O  O10  1  0.575453  0.097231  0.082621  1
  O  O11  1  0.094374  0.596877  0.576371  1
  O  O12  1  0.598066  0.099106  0.573558  1
  O  O13  1  0.900894  0.401934  0.426442  1
  O  O14  1  0.403123  0.905626  0.423629  1
  O  O15  1  0.010946  0.989483  0.818452  1
  O  O16  1  0.010517  0.989054  0.181548  1
  O  O17  1  0.493006  0.507399  0.815765  1
  O  O18  1  0.492601  0.506994  0.184235  1
