# generated using pymatgen
data_SmCo2P3RuRh2
_symmetry_space_group_name_H-M   'P 1'
_cell_length_a   3.81707300
_cell_length_b   10.65745000
_cell_length_c   12.17825200
_cell_angle_alpha   90.00000000
_cell_angle_beta   90.00000000
_cell_angle_gamma   90.00000000
_symmetry_Int_Tables_number   1
_chemical_formula_structural   SmCo2P3RuRh2
_chemical_formula_sum   'Sm4 Co8 P12 Ru4 Rh8'
_cell_volume   495.41451426
_cell_formula_units_Z   4
loop_
 _symmetry_equiv_pos_site_id
 _symmetry_equiv_pos_as_xyz
  1  'x, y, z'
loop_
 _atom_site_type_symbol
 _atom_site_label
 _atom_site_symmetry_multiplicity
 _atom_site_fract_x
 _atom_site_fract_y
 _atom_site_fract_z
 _atom_site_occupancy
  Sm  Sm0  1  0.250000  0.584491  0.708082  1
  Sm  Sm1  1  0.250000  0.915509  0.208082  1
  Sm  Sm2  1  0.750000  0.415509  0.291918  1
  Sm  Sm3  1  0.750000  0.084491  0.791918  1
  Co  Co4  1  0.250000  0.885578  0.697596  1
  Co  Co5  1  0.250000  0.614422  0.197596  1
  Co  Co6  1  0.750000  0.114422  0.302404  1
  Co  Co7  1  0.750000  0.385578  0.802404  1
  Co  Co8  1  0.250000  0.464192  0.933236  1
  Co  Co9  1  0.250000  0.035808  0.433236  1
  Co  Co10  1  0.750000  0.535808  0.066764  1
  Co  Co11  1  0.750000  0.964192  0.566764  1
  P  P12  1  0.250000  0.430014  0.109239  1
  P  P13  1  0.250000  0.069986  0.609239  1
  P  P14  1  0.750000  0.569986  0.890761  1
  P  P15  1  0.750000  0.930014  0.390761  1
  P  P16  1  0.250000  0.275903  0.873163  1
  P  P17  1  0.250000  0.224097  0.373163  1
  P  P18  1  0.750000  0.724097  0.126837  1
  P  P19  1  0.750000  0.775903  0.626837  1
  P  P20  1  0.250000  0.602820  0.383959  1
  P  P21  1  0.250000  0.897180  0.883959  1
  P  P22  1  0.750000  0.397180  0.616041  1
  P  P23  1  0.750000  0.102820  0.116041  1
  Ru  Ru24  1  0.250000  0.714839  0.991875  1
  Ru  Ru25  1  0.250000  0.785161  0.491875  1
  Ru  Ru26  1  0.750000  0.285161  0.008125  1
  Ru  Ru27  1  0.750000  0.214839  0.508125  1
  Rh  Rh28  1  0.250000  0.407770  0.484701  1
  Rh  Rh29  1  0.250000  0.092230  0.984701  1
  Rh  Rh30  1  0.750000  0.592230  0.515299  1
  Rh  Rh31  1  0.750000  0.907770  0.015299  1
  Rh  Rh32  1  0.250000  0.226428  0.180196  1
  Rh  Rh33  1  0.250000  0.273572  0.680196  1
  Rh  Rh34  1  0.750000  0.773572  0.819804  1
  Rh  Rh35  1  0.750000  0.726428  0.319804  1
