# generated using pymatgen
data_Dy3Lu2In2Sb
_symmetry_space_group_name_H-M   'P 1'
_cell_length_a   6.51592800
_cell_length_b   8.93607532
_cell_length_c   8.90089511
_cell_angle_alpha   119.88747511
_cell_angle_beta   89.99938320
_cell_angle_gamma   90.00081640
_symmetry_Int_Tables_number   1
_chemical_formula_structural   Dy3Lu2In2Sb
_chemical_formula_sum   'Dy6 Lu4 In4 Sb2'
_cell_volume   449.34377801
_cell_formula_units_Z   2
loop_
 _symmetry_equiv_pos_site_id
 _symmetry_equiv_pos_as_xyz
  1  'x, y, z'
loop_
 _atom_site_type_symbol
 _atom_site_label
 _atom_site_symmetry_multiplicity
 _atom_site_fract_x
 _atom_site_fract_y
 _atom_site_fract_z
 _atom_site_occupancy
  Dy  Dy0  1  0.749999  0.234586  0.996100  1
  Dy  Dy1  1  0.750013  0.765272  0.759833  1
  Dy  Dy2  1  0.750029  0.000480  0.237304  1
  Dy  Dy3  1  0.250017  0.763130  0.000010  1
  Dy  Dy4  1  0.250010  0.236590  0.237027  1
  Dy  Dy5  1  0.250001  0.999463  0.763563  1
  Lu  Lu6  1  0.495240  0.334252  0.668275  1
  Lu  Lu7  1  0.496053  0.665774  0.334423  1
  Lu  Lu8  1  0.003921  0.665821  0.334456  1
  Lu  Lu9  1  0.004750  0.334222  0.668256  1
  In  In10  1  0.749961  0.000095  0.594750  1
  In  In11  1  0.249995  0.398974  0.002090  1
  In  In12  1  0.250016  0.600768  0.602804  1
  In  In13  1  0.250022  0.000086  0.403005  1
  Sb  Sb14  1  0.749986  0.604469  0.001220  1
  Sb  Sb15  1  0.749986  0.396019  0.396884  1
