# generated using pymatgen
data_Dy8Cd3BiAu8
_symmetry_space_group_name_H-M   'P 1'
_cell_length_a   8.06777200
_cell_length_b   8.06777200
_cell_length_c   7.38526200
_cell_angle_alpha   90.00000000
_cell_angle_beta   90.00000000
_cell_angle_gamma   90.00000000
_symmetry_Int_Tables_number   1
_chemical_formula_structural   Dy8Cd3BiAu8
_chemical_formula_sum   'Dy8 Cd3 Bi1 Au8'
_cell_volume   480.69891245
_cell_formula_units_Z   1
loop_
 _symmetry_equiv_pos_site_id
 _symmetry_equiv_pos_as_xyz
  1  'x, y, z'
loop_
 _atom_site_type_symbol
 _atom_site_label
 _atom_site_symmetry_multiplicity
 _atom_site_fract_x
 _atom_site_fract_y
 _atom_site_fract_z
 _atom_site_occupancy
  Dy  Dy0  1  0.841648  0.162852  0.502887  1
  Dy  Dy1  1  0.158352  0.837148  0.502887  1
  Dy  Dy2  1  0.337148  0.341648  0.997113  1
  Dy  Dy3  1  0.662852  0.658352  0.997113  1
  Dy  Dy4  1  0.680127  0.676544  0.502442  1
  Dy  Dy5  1  0.319873  0.323456  0.502442  1
  Dy  Dy6  1  0.176544  0.819873  0.997558  1
  Dy  Dy7  1  0.823456  0.180127  0.997558  1
  Cd  Cd8  1  0.500000  0.000000  0.250000  1
  Cd  Cd9  1  0.000000  0.500000  0.750000  1
  Cd  Cd10  1  0.500000  0.000000  0.750000  1
  Bi  Bi11  1  0.000000  0.500000  0.250000  1
  Au  Au12  1  0.617693  0.362807  0.268499  1
  Au  Au13  1  0.382307  0.637193  0.268499  1
  Au  Au14  1  0.131191  0.126584  0.767218  1
  Au  Au15  1  0.868809  0.873416  0.767218  1
  Au  Au16  1  0.373416  0.631191  0.732782  1
  Au  Au17  1  0.626584  0.368809  0.732782  1
  Au  Au18  1  0.862807  0.882307  0.231501  1
  Au  Au19  1  0.137193  0.117693  0.231501  1
