# generated using pymatgen
data_Ce6Al24Re5Pd3
_symmetry_space_group_name_H-M   'P 1'
_cell_length_a   8.97549100
_cell_length_b   8.97108017
_cell_length_c   9.60674500
_cell_angle_alpha   89.05342584
_cell_angle_beta   90.00000000
_cell_angle_gamma   120.01626202
_symmetry_Int_Tables_number   1
_chemical_formula_structural   Ce6Al24Re5Pd3
_chemical_formula_sum   'Ce6 Al24 Re5 Pd3'
_cell_volume   669.66808475
_cell_formula_units_Z   1
loop_
 _symmetry_equiv_pos_site_id
 _symmetry_equiv_pos_as_xyz
  1  'x, y, z'
loop_
 _atom_site_type_symbol
 _atom_site_label
 _atom_site_symmetry_multiplicity
 _atom_site_fract_x
 _atom_site_fract_y
 _atom_site_fract_z
 _atom_site_occupancy
  Ce  Ce0  1  0.806990  0.613979  0.740913  1
  Ce  Ce1  1  0.192722  0.807677  0.251381  1
  Ce  Ce2  1  0.614954  0.807677  0.251381  1
  Ce  Ce3  1  0.385046  0.192323  0.748619  1
  Ce  Ce4  1  0.807278  0.192323  0.748619  1
  Ce  Ce5  1  0.193010  0.386021  0.259087  1
  Al  Al6  1  0.331817  0.663634  0.490508  1
  Al  Al7  1  0.665805  0.331608  0.985177  1
  Al  Al8  1  0.668183  0.336366  0.509492  1
  Al  Al9  1  0.334195  0.668392  0.014823  1
  Al  Al10  1  0.161934  0.323869  0.581248  1
  Al  Al11  1  0.676214  0.834842  0.578296  1
  Al  Al12  1  0.158629  0.834842  0.578296  1
  Al  Al13  1  0.834570  0.157038  0.079188  1
  Al  Al14  1  0.841371  0.165158  0.421704  1
  Al  Al15  1  0.838681  0.677363  0.078197  1
  Al  Al16  1  0.322467  0.157038  0.079188  1
  Al  Al17  1  0.677533  0.842962  0.920812  1
  Al  Al18  1  0.161319  0.322637  0.921803  1
  Al  Al19  1  0.838066  0.676131  0.418752  1
  Al  Al20  1  0.000241  0.000482  0.250075  1
  Al  Al21  1  0.999759  0.999518  0.749925  1
  Al  Al22  1  0.563114  0.126230  0.246934  1
  Al  Al23  1  0.437062  0.562868  0.749302  1
  Al  Al24  1  0.125805  0.562868  0.749302  1
  Al  Al25  1  0.874195  0.437132  0.250698  1
  Al  Al26  1  0.562938  0.437132  0.250698  1
  Al  Al27  1  0.436886  0.873770  0.753066  1
  Al  Al28  1  0.165430  0.842962  0.920812  1
  Al  Al29  1  0.323786  0.165158  0.421704  1
  Re  Re30  1  0.000000  0.000000  0.500000  1
  Re  Re31  1  0.000000  0.000000  0.000000  1
  Re  Re32  1  0.000000  0.500000  0.500000  1
  Re  Re33  1  0.500000  0.500000  0.500000  1
  Re  Re34  1  0.500000  0.000000  0.000000  1
  Pd  Pd35  1  0.500000  0.000000  0.500000  1
  Pd  Pd36  1  0.500000  0.500000  0.000000  1
  Pd  Pd37  1  0.000000  0.500000  0.000000  1
