# generated using pymatgen
data_Dy4Al18(IrPd)3
_symmetry_space_group_name_H-M   'P 1'
_cell_length_a   7.61530245
_cell_length_b   7.61530141
_cell_length_c   9.48165900
_cell_angle_alpha   89.96465332
_cell_angle_beta   89.96466085
_cell_angle_gamma   119.80950202
_symmetry_Int_Tables_number   1
_chemical_formula_structural   Dy4Al18(IrPd)3
_chemical_formula_sum   'Dy4 Al18 Ir3 Pd3'
_cell_volume   477.11092033
_cell_formula_units_Z   1
loop_
 _symmetry_equiv_pos_site_id
 _symmetry_equiv_pos_as_xyz
  1  'x, y, z'
loop_
 _atom_site_type_symbol
 _atom_site_label
 _atom_site_symmetry_multiplicity
 _atom_site_fract_x
 _atom_site_fract_y
 _atom_site_fract_z
 _atom_site_occupancy
  Dy  Dy0  1  0.994735  0.669679  0.750401  1
  Dy  Dy1  1  0.004215  0.329868  0.249304  1
  Dy  Dy2  1  0.670132  0.995785  0.750696  1
  Dy  Dy3  1  0.330321  0.005265  0.249599  1
  Al  Al4  1  0.130843  0.129728  0.750517  1
  Al  Al5  1  0.870272  0.869157  0.249483  1
  Al  Al6  1  0.004022  0.337828  0.576678  1
  Al  Al7  1  0.002414  0.665584  0.423458  1
  Al  Al8  1  0.000210  0.661614  0.074516  1
  Al  Al9  1  0.338386  0.999790  0.925484  1
  Al  Al10  1  0.999855  0.338349  0.924728  1
  Al  Al11  1  0.661651  0.000145  0.075272  1
  Al  Al12  1  0.662172  0.995978  0.423322  1
  Al  Al13  1  0.334416  0.997586  0.576542  1
  Al  Al14  1  0.335422  0.335394  0.053141  1
  Al  Al15  1  0.664606  0.664578  0.946859  1
  Al  Al16  1  0.663289  0.666266  0.558211  1
  Al  Al17  1  0.333734  0.336711  0.441789  1
  Al  Al18  1  0.339130  0.549050  0.750515  1
  Al  Al19  1  0.661978  0.453198  0.247303  1
  Al  Al20  1  0.546802  0.338022  0.752697  1
  Al  Al21  1  0.450950  0.660870  0.249485  1
  Ir  Ir22  1  0.328324  0.671676  0.500000  1
  Ir  Ir23  1  0.328398  0.671602  0.000000  1
  Ir  Ir24  1  0.671741  0.328259  0.000000  1
  Pd  Pd25  1  0.672175  0.327825  0.500000  1
  Pd  Pd26  1  0.999936  0.000064  0.500000  1
  Pd  Pd27  1  0.999871  0.000129  0.000000  1
