# generated using pymatgen
data_Sc6P5S
_symmetry_space_group_name_H-M   'P 1'
_cell_length_a   6.50081197
_cell_length_b   7.48932618
_cell_length_c   6.49749707
_cell_angle_alpha   106.78618744
_cell_angle_beta   119.98093741
_cell_angle_gamma   106.72581503
_symmetry_Int_Tables_number   1
_chemical_formula_structural   Sc6P5S
_chemical_formula_sum   'Sc6 P5 S1'
_cell_volume   223.90893928
_cell_formula_units_Z   1
loop_
 _symmetry_equiv_pos_site_id
 _symmetry_equiv_pos_as_xyz
  1  'x, y, z'
loop_
 _atom_site_type_symbol
 _atom_site_label
 _atom_site_symmetry_multiplicity
 _atom_site_fract_x
 _atom_site_fract_y
 _atom_site_fract_z
 _atom_site_occupancy
  Sc  Sc0  1  0.795390  0.549171  0.523898  1
  Sc  Sc1  1  0.134941  0.044661  0.188091  1
  Sc  Sc2  1  0.132904  0.548855  0.187957  1
  Sc  Sc3  1  0.796550  0.044543  0.524607  1
  Sc  Sc4  1  0.458739  0.044680  0.850404  1
  Sc  Sc5  1  0.470125  0.548880  0.860894  1
  P  P6  1  0.964669  0.796845  0.355731  1
  P  P7  1  0.632200  0.296884  0.689251  1
  P  P8  1  0.630662  0.797296  0.690963  1
  P  P9  1  0.299077  0.796342  0.021334  1
  P  P10  1  0.297735  0.297203  0.022898  1
  S  S11  1  0.964471  0.296360  0.355704  1
