# generated using pymatgen
data_TbY5U4O20
_symmetry_space_group_name_H-M   'P 1'
_cell_length_a   6.66916427
_cell_length_b   7.51633262
_cell_length_c   8.42977417
_cell_angle_alpha   100.83833546
_cell_angle_beta   97.66890510
_cell_angle_gamma   107.26654924
_symmetry_Int_Tables_number   1
_chemical_formula_structural   TbY5U4O20
_chemical_formula_sum   'Tb1 Y5 U4 O20'
_cell_volume   388.17039561
_cell_formula_units_Z   1
loop_
 _symmetry_equiv_pos_site_id
 _symmetry_equiv_pos_as_xyz
  1  'x, y, z'
loop_
 _atom_site_type_symbol
 _atom_site_label
 _atom_site_symmetry_multiplicity
 _atom_site_fract_x
 _atom_site_fract_y
 _atom_site_fract_z
 _atom_site_occupancy
  Tb  Tb0  1  0.000000  0.000000  0.500000  1
  Y  Y1  1  0.614650  0.703830  0.699522  1
  Y  Y2  1  0.385350  0.296170  0.300478  1
  Y  Y3  1  0.197657  0.896433  0.891634  1
  Y  Y4  1  0.000000  0.500000  0.500000  1
  Y  Y5  1  0.802343  0.103567  0.108366  1
  U  U6  1  0.401370  0.804313  0.301559  1
  U  U7  1  0.199276  0.400040  0.899530  1
  U  U8  1  0.800724  0.599960  0.100470  1
  U  U9  1  0.598630  0.195687  0.698441  1
  O  O10  1  0.439092  0.531594  0.137148  1
  O  O11  1  0.555697  0.987847  0.841654  1
  O  O12  1  0.269331  0.144868  0.745021  1
  O  O13  1  0.360113  0.594814  0.442155  1
  O  O14  1  0.054138  0.728786  0.331997  1
  O  O15  1  0.444303  0.012153  0.158346  1
  O  O16  1  0.150414  0.183634  0.031793  1
  O  O17  1  0.560908  0.468406  0.862852  1
  O  O18  1  0.854495  0.336643  0.951297  1
  O  O19  1  0.258119  0.605969  0.759050  1
  O  O20  1  0.953702  0.771400  0.652205  1
  O  O21  1  0.354408  0.062504  0.452814  1
  O  O22  1  0.645592  0.937496  0.547186  1
  O  O23  1  0.046298  0.228600  0.347795  1
  O  O24  1  0.741881  0.394031  0.240950  1
  O  O25  1  0.145505  0.663357  0.048703  1
  O  O26  1  0.849586  0.816366  0.968207  1
  O  O27  1  0.945862  0.271214  0.668003  1
  O  O28  1  0.639887  0.405186  0.557845  1
  O  O29  1  0.730669  0.855132  0.254979  1
