# generated using pymatgen
data_Dy10ZnIn8Rh3
_symmetry_space_group_name_H-M   'P 1'
_cell_length_a   3.63761600
_cell_length_b   8.11397355
_cell_length_c   18.29169522
_cell_angle_alpha   90.26820497
_cell_angle_beta   90.00000000
_cell_angle_gamma   90.00000000
_symmetry_Int_Tables_number   1
_chemical_formula_structural   Dy10ZnIn8Rh3
_chemical_formula_sum   'Dy10 Zn1 In8 Rh3'
_cell_volume   539.88298108
_cell_formula_units_Z   1
loop_
 _symmetry_equiv_pos_site_id
 _symmetry_equiv_pos_as_xyz
  1  'x, y, z'
loop_
 _atom_site_type_symbol
 _atom_site_label
 _atom_site_symmetry_multiplicity
 _atom_site_fract_x
 _atom_site_fract_y
 _atom_site_fract_z
 _atom_site_occupancy
  Dy  Dy0  1  0.000000  0.116443  0.414723  1
  Dy  Dy1  1  0.000000  0.882515  0.589117  1
  Dy  Dy2  1  0.000000  0.384594  0.910930  1
  Dy  Dy3  1  0.000000  0.623417  0.080418  1
  Dy  Dy4  1  0.000000  0.222671  0.221960  1
  Dy  Dy5  1  0.000000  0.754894  0.778263  1
  Dy  Dy6  1  0.000000  0.253592  0.721953  1
  Dy  Dy7  1  0.000000  0.762411  0.281916  1
  Dy  Dy8  1  0.000000  0.000037  0.999055  1
  Dy  Dy9  1  0.000000  0.500538  0.500808  1
  Zn  Zn10  1  0.500000  0.522844  0.198791  1
  In  In11  1  0.500000  0.422478  0.349770  1
  In  In12  1  0.500000  0.569728  0.650343  1
  In  In13  1  0.500000  0.071434  0.850584  1
  In  In14  1  0.500000  0.924226  0.148059  1
  In  In15  1  0.500000  0.295727  0.067189  1
  In  In16  1  0.500000  0.709056  0.929548  1
  In  In17  1  0.500000  0.207242  0.568883  1
  In  In18  1  0.500000  0.792598  0.433100  1
  Rh  Rh19  1  0.500000  0.025063  0.304803  1
  Rh  Rh20  1  0.500000  0.979443  0.695341  1
  Rh  Rh21  1  0.500000  0.479048  0.804447  1
