# generated using pymatgen
data_TmTh(InNi2)2
_symmetry_space_group_name_H-M   'P 1'
_cell_length_a   5.16873200
_cell_length_b   4.02832100
_cell_length_c   7.06260800
_cell_angle_alpha   90.00000000
_cell_angle_beta   90.00000000
_cell_angle_gamma   90.00000000
_symmetry_Int_Tables_number   1
_chemical_formula_structural   TmTh(InNi2)2
_chemical_formula_sum   'Tm1 Th1 In2 Ni4'
_cell_volume   147.05276229
_cell_formula_units_Z   1
loop_
 _symmetry_equiv_pos_site_id
 _symmetry_equiv_pos_as_xyz
  1  'x, y, z'
loop_
 _atom_site_type_symbol
 _atom_site_label
 _atom_site_symmetry_multiplicity
 _atom_site_fract_x
 _atom_site_fract_y
 _atom_site_fract_z
 _atom_site_occupancy
  Tm  Tm0  1  0.750000  0.000000  0.757900  1
  Th  Th1  1  0.250001  0.000000  0.247551  1
  In  In2  1  0.750000  0.500001  0.134493  1
  In  In3  1  0.250001  0.500001  0.854426  1
  Ni  Ni4  1  0.750000  0.000000  0.378714  1
  Ni  Ni5  1  0.995410  0.500001  0.501269  1
  Ni  Ni6  1  0.504589  0.500001  0.501269  1
  Ni  Ni7  1  0.250001  0.000000  0.624379  1
