# generated using pymatgen
data_Yb2Si14Ir5Pd
_symmetry_space_group_name_H-M   'P 1'
_cell_length_a   8.02317650
_cell_length_b   8.02317734
_cell_length_c   8.03631283
_cell_angle_alpha   56.90279143
_cell_angle_beta   56.90278169
_cell_angle_gamma   56.93816240
_symmetry_Int_Tables_number   1
_chemical_formula_structural   Yb2Si14Ir5Pd
_chemical_formula_sum   'Yb2 Si14 Ir5 Pd1'
_cell_volume   339.75779054
_cell_formula_units_Z   1
loop_
 _symmetry_equiv_pos_site_id
 _symmetry_equiv_pos_as_xyz
  1  'x, y, z'
loop_
 _atom_site_type_symbol
 _atom_site_label
 _atom_site_symmetry_multiplicity
 _atom_site_fract_x
 _atom_site_fract_y
 _atom_site_fract_z
 _atom_site_occupancy
  Yb  Yb0  1  0.500179  0.499966  0.500822  1
  Yb  Yb1  1  0.000034  0.999821  0.999178  1
  Si  Si2  1  0.351187  0.172252  0.566604  1
  Si  Si3  1  0.568936  0.350020  0.172275  1
  Si  Si4  1  0.180012  0.560543  0.352061  1
  Si  Si5  1  0.061911  0.679284  0.841988  1
  Si  Si6  1  0.849245  0.073053  0.668586  1
  Si  Si7  1  0.672279  0.854614  0.063477  1
  Si  Si8  1  0.645386  0.827721  0.436523  1
  Si  Si9  1  0.426947  0.650755  0.831414  1
  Si  Si10  1  0.820716  0.438089  0.658012  1
  Si  Si11  1  0.939457  0.319988  0.147939  1
  Si  Si12  1  0.149980  0.931064  0.327725  1
  Si  Si13  1  0.327748  0.148813  0.933396  1
  Si  Si14  1  0.253209  0.246791  0.250000  1
  Si  Si15  1  0.749171  0.750829  0.750000  1
  Ir  Ir16  1  0.248537  0.931250  0.569915  1
  Ir  Ir17  1  0.568750  0.251463  0.930085  1
  Ir  Ir18  1  0.751042  0.068098  0.429345  1
  Ir  Ir19  1  0.431902  0.748958  0.070655  1
  Ir  Ir20  1  0.070959  0.429041  0.750000  1
  Pd  Pd21  1  0.932412  0.567588  0.250000  1
