# generated using pymatgen
data_Nd3CuAg3Sn4
_symmetry_space_group_name_H-M   'P 1'
_cell_length_a   8.82128816
_cell_length_b   8.90313622
_cell_length_c   8.90313690
_cell_angle_alpha   149.54025747
_cell_angle_beta   130.94636977
_cell_angle_gamma   58.93185066
_symmetry_Int_Tables_number   1
_chemical_formula_structural   Nd3CuAg3Sn4
_chemical_formula_sum   'Nd3 Cu1 Ag3 Sn4'
_cell_volume   265.54514144
_cell_formula_units_Z   1
loop_
 _symmetry_equiv_pos_site_id
 _symmetry_equiv_pos_as_xyz
  1  'x, y, z'
loop_
 _atom_site_type_symbol
 _atom_site_label
 _atom_site_symmetry_multiplicity
 _atom_site_fract_x
 _atom_site_fract_y
 _atom_site_fract_z
 _atom_site_occupancy
  Nd  Nd0  1  0.506318  0.999164  0.507155  1
  Nd  Nd1  1  0.863458  0.870657  0.992801  1
  Nd  Nd2  1  0.148742  0.129660  0.019081  1
  Cu  Cu3  1  0.473252  0.667138  0.806115  1
  Ag  Ag4  1  0.861548  0.674755  0.186793  1
  Ag  Ag5  1  0.115943  0.321280  0.794663  1
  Ag  Ag6  1  0.525246  0.338353  0.186892  1
  Sn  Sn7  1  0.295752  0.780575  0.515177  1
  Sn  Sn8  1  0.683666  0.212176  0.471490  1
  Sn  Sn9  1  0.819708  0.505854  0.313854  1
  Sn  Sn10  1  0.206367  0.500390  0.705977  1
