# generated using pymatgen
data_La2Sb4Ir2Pt
_symmetry_space_group_name_H-M   'P 1'
_cell_length_a   4.61355100
_cell_length_b   11.30161400
_cell_length_c   16.40452100
_cell_angle_alpha   90.00000000
_cell_angle_beta   90.00000000
_cell_angle_gamma   90.00000000
_symmetry_Int_Tables_number   1
_chemical_formula_structural   La2Sb4Ir2Pt
_chemical_formula_sum   'La8 Sb16 Ir8 Pt4'
_cell_volume   855.34111770
_cell_formula_units_Z   4
loop_
 _symmetry_equiv_pos_site_id
 _symmetry_equiv_pos_as_xyz
  1  'x, y, z'
loop_
 _atom_site_type_symbol
 _atom_site_label
 _atom_site_symmetry_multiplicity
 _atom_site_fract_x
 _atom_site_fract_y
 _atom_site_fract_z
 _atom_site_occupancy
  La  La0  1  0.250000  0.748280  0.505560  1
  La  La1  1  0.250000  0.751720  0.005560  1
  La  La2  1  0.750000  0.251720  0.494440  1
  La  La3  1  0.750000  0.248280  0.994440  1
  La  La4  1  0.250000  0.587654  0.751282  1
  La  La5  1  0.250000  0.912346  0.251282  1
  La  La6  1  0.750000  0.412346  0.248718  1
  La  La7  1  0.750000  0.087654  0.748718  1
  Sb  Sb8  1  0.250000  0.269581  0.651769  1
  Sb  Sb9  1  0.250000  0.230419  0.151769  1
  Sb  Sb10  1  0.750000  0.730419  0.348231  1
  Sb  Sb11  1  0.750000  0.769581  0.848231  1
  Sb  Sb12  1  0.250000  0.886732  0.709001  1
  Sb  Sb13  1  0.250000  0.613268  0.209001  1
  Sb  Sb14  1  0.750000  0.113268  0.290999  1
  Sb  Sb15  1  0.750000  0.386732  0.790999  1
  Sb  Sb16  1  0.250000  0.070399  0.894401  1
  Sb  Sb17  1  0.250000  0.429601  0.394401  1
  Sb  Sb18  1  0.750000  0.929601  0.105599  1
  Sb  Sb19  1  0.750000  0.570399  0.605599  1
  Sb  Sb20  1  0.250000  0.446959  0.932524  1
  Sb  Sb21  1  0.250000  0.053041  0.432524  1
  Sb  Sb22  1  0.750000  0.553041  0.067476  1
  Sb  Sb23  1  0.750000  0.946959  0.567476  1
  Ir  Ir24  1  0.250000  0.054574  0.592969  1
  Ir  Ir25  1  0.250000  0.445426  0.092969  1
  Ir  Ir26  1  0.750000  0.945426  0.407031  1
  Ir  Ir27  1  0.750000  0.554574  0.907031  1
  Ir  Ir28  1  0.250000  0.278680  0.818858  1
  Ir  Ir29  1  0.250000  0.221320  0.318858  1
  Ir  Ir30  1  0.750000  0.721320  0.181142  1
  Ir  Ir31  1  0.750000  0.778680  0.681142  1
  Pt  Pt32  1  0.250000  0.464238  0.557953  1
  Pt  Pt33  1  0.250000  0.035762  0.057953  1
  Pt  Pt34  1  0.750000  0.535762  0.442047  1
  Pt  Pt35  1  0.750000  0.964238  0.942047  1
