# generated using pymatgen
data_Er4Tm4Re(B8Ru)3
_symmetry_space_group_name_H-M   'P 1'
_cell_length_a   3.63287300
_cell_length_b   9.08147576
_cell_length_c   11.46213000
_cell_angle_alpha   90.11855222
_cell_angle_beta   90.00000000
_cell_angle_gamma   90.00000000
_symmetry_Int_Tables_number   1
_chemical_formula_structural   Er4Tm4Re(B8Ru)3
_chemical_formula_sum   'Er4 Tm4 Re1 B24 Ru3'
_cell_volume   378.15604241
_cell_formula_units_Z   1
loop_
 _symmetry_equiv_pos_site_id
 _symmetry_equiv_pos_as_xyz
  1  'x, y, z'
loop_
 _atom_site_type_symbol
 _atom_site_label
 _atom_site_symmetry_multiplicity
 _atom_site_fract_x
 _atom_site_fract_y
 _atom_site_fract_z
 _atom_site_occupancy
  Er  Er0  1  0.000000  0.322375  0.415159  1
  Er  Er1  1  0.000000  0.680567  0.587994  1
  Er  Er2  1  0.000000  0.822254  0.083432  1
  Er  Er3  1  0.000000  0.176568  0.913438  1
  Tm  Tm4  1  0.000000  0.943258  0.371296  1
  Tm  Tm5  1  0.000000  0.056277  0.627605  1
  Tm  Tm6  1  0.000000  0.442754  0.128462  1
  Tm  Tm7  1  0.000000  0.555911  0.872509  1
  Re  Re8  1  0.000000  0.862250  0.821012  1
  B  B9  1  0.500000  0.554019  0.433537  1
  B  B10  1  0.500000  0.446264  0.566762  1
  B  B11  1  0.500000  0.053774  0.067232  1
  B  B12  1  0.500000  0.947183  0.933561  1
  B  B13  1  0.500000  0.749042  0.419622  1
  B  B14  1  0.500000  0.251254  0.580134  1
  B  B15  1  0.500000  0.248754  0.080583  1
  B  B16  1  0.500000  0.750538  0.919583  1
  B  B17  1  0.500000  0.790950  0.265468  1
  B  B18  1  0.500000  0.208741  0.733524  1
  B  B19  1  0.500000  0.291385  0.234588  1
  B  B20  1  0.500000  0.707707  0.765551  1
  B  B21  1  0.500000  0.630633  0.184779  1
  B  B22  1  0.500000  0.368678  0.814860  1
  B  B23  1  0.500000  0.131387  0.315369  1
  B  B24  1  0.500000  0.869139  0.684862  1
  B  B25  1  0.500000  0.982775  0.212614  1
  B  B26  1  0.500000  0.018604  0.787190  1
  B  B27  1  0.500000  0.482595  0.287880  1
  B  B28  1  0.500000  0.517285  0.712682  1
  B  B29  1  0.500000  0.604160  0.029598  1
  B  B30  1  0.500000  0.393762  0.971227  1
  B  B31  1  0.500000  0.106106  0.470259  1
  B  B32  1  0.500000  0.894736  0.528385  1
  Ru  Ru33  1  0.000000  0.637883  0.320887  1
  Ru  Ru34  1  0.000000  0.362274  0.678665  1
  Ru  Ru35  1  0.000000  0.138158  0.179693  1
