# generated using pymatgen
data_Er8Sb(Pd5Pt)4
_symmetry_space_group_name_H-M   'P 1'
_cell_length_a   8.37467200
_cell_length_b   8.38048800
_cell_length_c   8.37550900
_cell_angle_alpha   90.00000000
_cell_angle_beta   90.00000000
_cell_angle_gamma   90.00000000
_symmetry_Int_Tables_number   1
_chemical_formula_structural   Er8Sb(Pd5Pt)4
_chemical_formula_sum   'Er8 Sb1 Pd20 Pt4'
_cell_volume   587.82536850
_cell_formula_units_Z   1
loop_
 _symmetry_equiv_pos_site_id
 _symmetry_equiv_pos_as_xyz
  1  'x, y, z'
loop_
 _atom_site_type_symbol
 _atom_site_label
 _atom_site_symmetry_multiplicity
 _atom_site_fract_x
 _atom_site_fract_y
 _atom_site_fract_z
 _atom_site_occupancy
  Er  Er0  1  0.745093  0.746119  0.254975  1
  Er  Er1  1  0.745093  0.253881  0.745025  1
  Er  Er2  1  0.254840  0.745079  0.745169  1
  Er  Er3  1  0.745093  0.746119  0.745025  1
  Er  Er4  1  0.745093  0.253881  0.254975  1
  Er  Er5  1  0.254840  0.254921  0.745169  1
  Er  Er6  1  0.254840  0.745079  0.254831  1
  Er  Er7  1  0.254840  0.254921  0.254831  1
  Sb  Sb8  1  0.999920  0.000000  0.000000  1
  Pd  Pd9  1  0.000187  0.000000  0.304423  1
  Pd  Pd10  1  0.735376  0.500000  0.000000  1
  Pd  Pd11  1  0.499927  0.000000  0.735901  1
  Pd  Pd12  1  0.999987  0.735847  0.500000  1
  Pd  Pd13  1  0.499927  0.000000  0.264099  1
  Pd  Pd14  1  0.999987  0.264153  0.500000  1
  Pd  Pd15  1  0.500047  0.735922  0.000000  1
  Pd  Pd16  1  0.500160  0.254349  0.500000  1
  Pd  Pd17  1  0.500160  0.745651  0.500000  1
  Pd  Pd18  1  0.745318  0.500000  0.500000  1
  Pd  Pd19  1  0.304566  0.000000  0.000000  1
  Pd  Pd20  1  0.000187  0.000000  0.695577  1
  Pd  Pd21  1  0.000109  0.500000  0.264543  1
  Pd  Pd22  1  0.999965  0.305008  0.000000  1
  Pd  Pd23  1  0.999965  0.694992  0.000000  1
  Pd  Pd24  1  0.695429  0.000000  0.000000  1
  Pd  Pd25  1  0.264429  0.500000  0.000000  1
  Pd  Pd26  1  0.264163  0.000000  0.500000  1
  Pd  Pd27  1  0.000109  0.500000  0.735457  1
  Pd  Pd28  1  0.500047  0.264078  0.000000  1
  Pt  Pt29  1  0.736088  0.000000  0.500000  1
  Pt  Pt30  1  0.254415  0.500000  0.500000  1
  Pt  Pt31  1  0.499899  0.500000  0.745652  1
  Pt  Pt32  1  0.499899  0.500000  0.254348  1
