# generated using pymatgen
data_Ba4Zn(BiO4)3
_symmetry_space_group_name_H-M   'P 1'
_cell_length_a   6.08788439
_cell_length_b   6.05843984
_cell_length_c   8.68073430
_cell_angle_alpha   89.52539885
_cell_angle_beta   89.85939035
_cell_angle_gamma   89.95882898
_symmetry_Int_Tables_number   1
_chemical_formula_structural   Ba4Zn(BiO4)3
_chemical_formula_sum   'Ba4 Zn1 Bi3 O12'
_cell_volume   320.16020295
_cell_formula_units_Z   1
loop_
 _symmetry_equiv_pos_site_id
 _symmetry_equiv_pos_as_xyz
  1  'x, y, z'
loop_
 _atom_site_type_symbol
 _atom_site_label
 _atom_site_symmetry_multiplicity
 _atom_site_fract_x
 _atom_site_fract_y
 _atom_site_fract_z
 _atom_site_occupancy
  Ba  Ba0  1  0.500221  0.505429  0.768549  1
  Ba  Ba1  1  0.002887  0.006718  0.769335  1
  Ba  Ba2  1  0.499779  0.494571  0.231451  1
  Ba  Ba3  1  0.997113  0.993282  0.230665  1
  Zn  Zn4  1  0.000000  0.500000  0.000000  1
  Bi  Bi5  1  0.500000  0.000000  0.500000  1
  Bi  Bi6  1  0.000000  0.500000  0.500000  1
  Bi  Bi7  1  0.500000  0.000000  0.000000  1
  O  O8  1  0.253479  0.745689  0.984788  1
  O  O9  1  0.287090  0.284552  0.526740  1
  O  O10  1  0.782795  0.214069  0.471925  1
  O  O11  1  0.753751  0.752472  0.016599  1
  O  O12  1  0.746521  0.254311  0.015212  1
  O  O13  1  0.712910  0.715448  0.473260  1
  O  O14  1  0.217205  0.785931  0.528075  1
  O  O15  1  0.246249  0.247528  0.983401  1
  O  O16  1  0.544163  0.996703  0.749219  1
  O  O17  1  0.960423  0.494394  0.745939  1
  O  O18  1  0.455837  0.003297  0.250781  1
  O  O19  1  0.039577  0.505606  0.254061  1
