# generated using pymatgen
data_Hf6BeAl8(Fe3Si4)2
_symmetry_space_group_name_H-M   'P 1'
_cell_length_a   8.33029877
_cell_length_b   8.33029785
_cell_length_c   8.33029800
_cell_angle_alpha   59.99999145
_cell_angle_beta   59.99999511
_cell_angle_gamma   59.99999308
_symmetry_Int_Tables_number   1
_chemical_formula_structural   Hf6BeAl8(Fe3Si4)2
_chemical_formula_sum   'Hf6 Be1 Al8 Fe6 Si8'
_cell_volume   408.75829663
_cell_formula_units_Z   1
loop_
 _symmetry_equiv_pos_site_id
 _symmetry_equiv_pos_as_xyz
  1  'x, y, z'
loop_
 _atom_site_type_symbol
 _atom_site_label
 _atom_site_symmetry_multiplicity
 _atom_site_fract_x
 _atom_site_fract_y
 _atom_site_fract_z
 _atom_site_occupancy
  Hf  Hf0  1  0.692790  0.307209  0.307209  1
  Hf  Hf1  1  0.307209  0.692790  0.692790  1
  Hf  Hf2  1  0.307209  0.692790  0.307209  1
  Hf  Hf3  1  0.307209  0.307209  0.692790  1
  Hf  Hf4  1  0.692790  0.307209  0.692790  1
  Hf  Hf5  1  0.692790  0.692790  0.307209  1
  Be  Be6  1  0.000000  0.000000  0.000000  1
  Al  Al7  1  0.122278  0.122278  0.122278  1
  Al  Al8  1  0.122278  0.122278  0.633163  1
  Al  Al9  1  0.633163  0.122278  0.122278  1
  Al  Al10  1  0.122278  0.633163  0.122278  1
  Al  Al11  1  0.877721  0.877721  0.877721  1
  Al  Al12  1  0.877721  0.877721  0.366840  1
  Al  Al13  1  0.877721  0.366840  0.877721  1
  Al  Al14  1  0.366840  0.877721  0.877721  1
  Fe  Fe15  1  0.500000  0.000000  0.000000  1
  Fe  Fe16  1  0.000000  0.500000  0.500000  1
  Fe  Fe17  1  0.000000  0.500000  0.000000  1
  Fe  Fe18  1  0.000000  0.000000  0.500000  1
  Fe  Fe19  1  0.500000  0.000000  0.500000  1
  Fe  Fe20  1  0.500000  0.500000  0.000000  1
  Si  Si21  1  0.341131  0.341131  0.341131  1
  Si  Si22  1  0.341131  0.341131  0.976606  1
  Si  Si23  1  0.976606  0.341131  0.341131  1
  Si  Si24  1  0.341131  0.976606  0.341131  1
  Si  Si25  1  0.658869  0.658869  0.658869  1
  Si  Si26  1  0.658869  0.658869  0.023394  1
  Si  Si27  1  0.658869  0.023394  0.658869  1
  Si  Si28  1  0.023394  0.658869  0.658869  1
