# generated using pymatgen
data_Rb4TbDy11Se20
_symmetry_space_group_name_H-M   'P 1'
_cell_length_a   4.14911200
_cell_length_b   12.32115736
_cell_length_c   22.17952965
_cell_angle_alpha   90.02764812
_cell_angle_beta   90.00000000
_cell_angle_gamma   90.00000000
_symmetry_Int_Tables_number   1
_chemical_formula_structural   Rb4TbDy11Se20
_chemical_formula_sum   'Rb4 Tb1 Dy11 Se20'
_cell_volume   1133.85871844
_cell_formula_units_Z   1
loop_
 _symmetry_equiv_pos_site_id
 _symmetry_equiv_pos_as_xyz
  1  'x, y, z'
loop_
 _atom_site_type_symbol
 _atom_site_label
 _atom_site_symmetry_multiplicity
 _atom_site_fract_x
 _atom_site_fract_y
 _atom_site_fract_z
 _atom_site_occupancy
  Rb  Rb0  1  0.250000  0.845662  0.097691  1
  Rb  Rb1  1  0.750000  0.154364  0.902314  1
  Rb  Rb2  1  0.750000  0.345671  0.402314  1
  Rb  Rb3  1  0.250000  0.654325  0.597677  1
  Tb  Tb4  1  0.750000  0.803587  0.828600  1
  Dy  Dy5  1  0.250000  0.196317  0.171458  1
  Dy  Dy6  1  0.250000  0.303677  0.671459  1
  Dy  Dy7  1  0.750000  0.696319  0.328546  1
  Dy  Dy8  1  0.250000  0.960337  0.698634  1
  Dy  Dy9  1  0.750000  0.039735  0.301306  1
  Dy  Dy10  1  0.750000  0.460151  0.801294  1
  Dy  Dy11  1  0.250000  0.539746  0.198697  1
  Dy  Dy12  1  0.750000  0.388637  0.052590  1
  Dy  Dy13  1  0.250000  0.611256  0.947491  1
  Dy  Dy14  1  0.250000  0.888638  0.447419  1
  Dy  Dy15  1  0.750000  0.111356  0.552584  1
  Se  Se16  1  0.250000  0.948701  0.569719  1
  Se  Se17  1  0.750000  0.051310  0.430270  1
  Se  Se18  1  0.750000  0.448700  0.930277  1
  Se  Se19  1  0.250000  0.551297  0.069732  1
  Se  Se20  1  0.750000  0.769276  0.956214  1
  Se  Se21  1  0.250000  0.230577  0.044147  1
  Se  Se22  1  0.250000  0.269416  0.544151  1
  Se  Se23  1  0.750000  0.730583  0.455849  1
  Se  Se24  1  0.250000  0.959397  0.827315  1
  Se  Se25  1  0.750000  0.041471  0.172607  1
  Se  Se26  1  0.750000  0.458535  0.672609  1
  Se  Se27  1  0.250000  0.541464  0.327390  1
  Se  Se28  1  0.750000  0.130975  0.683196  1
  Se  Se29  1  0.250000  0.869024  0.316803  1
  Se  Se30  1  0.250000  0.630431  0.816777  1
  Se  Se31  1  0.750000  0.369026  0.183197  1
  Se  Se32  1  0.750000  0.693039  0.199830  1
  Se  Se33  1  0.250000  0.306944  0.800171  1
  Se  Se34  1  0.250000  0.193046  0.300173  1
  Se  Se35  1  0.750000  0.807013  0.699500  1
