# generated using pymatgen
data_Eu4CoW3O14
_symmetry_space_group_name_H-M   'P 1'
_cell_length_a   7.53577201
_cell_length_b   7.39755558
_cell_length_c   7.53577300
_cell_angle_alpha   59.37998716
_cell_angle_beta   60.00000004
_cell_angle_gamma   59.37998714
_symmetry_Int_Tables_number   1
_chemical_formula_structural   Eu4CoW3O14
_chemical_formula_sum   'Eu4 Co1 W3 O14'
_cell_volume   294.23517833
_cell_formula_units_Z   1
loop_
 _symmetry_equiv_pos_site_id
 _symmetry_equiv_pos_as_xyz
  1  'x, y, z'
loop_
 _atom_site_type_symbol
 _atom_site_label
 _atom_site_symmetry_multiplicity
 _atom_site_fract_x
 _atom_site_fract_y
 _atom_site_fract_z
 _atom_site_occupancy
  Eu  Eu0  1  0.125000  0.625000  0.125000  1
  Eu  Eu1  1  0.125000  0.125000  0.625000  1
  Eu  Eu2  1  0.625000  0.125000  0.125000  1
  Eu  Eu3  1  0.125000  0.125000  0.125000  1
  Co  Co4  1  0.625000  0.125000  0.625000  1
  W  W5  1  0.625000  0.625000  0.625000  1
  W  W6  1  0.125000  0.625000  0.625000  1
  W  W7  1  0.625000  0.625000  0.125000  1
  O  O8  1  0.299081  0.691559  0.710279  1
  O  O9  1  0.544353  0.944677  0.966617  1
  O  O10  1  0.710279  0.691559  0.299081  1
  O  O11  1  0.283383  0.305323  0.705647  1
  O  O12  1  0.998789  0.003635  0.998789  1
  O  O13  1  0.299081  0.691559  0.299081  1
  O  O14  1  0.705647  0.305323  0.705647  1
  O  O15  1  0.950919  0.558441  0.950919  1
  O  O16  1  0.539721  0.558441  0.950919  1
  O  O17  1  0.966617  0.944677  0.544353  1
  O  O18  1  0.251211  0.246365  0.251211  1
  O  O19  1  0.544353  0.944677  0.544353  1
  O  O20  1  0.705647  0.305323  0.283383  1
  O  O21  1  0.950919  0.558441  0.539721  1
