# generated using pymatgen
data_CaHo3(ZnSi3)2
_symmetry_space_group_name_H-M   'P 1'
_cell_length_a   4.07117200
_cell_length_b   4.09262300
_cell_length_c   13.96435000
_cell_angle_alpha   90.00000000
_cell_angle_beta   90.00000000
_cell_angle_gamma   90.00000000
_symmetry_Int_Tables_number   1
_chemical_formula_structural   CaHo3(ZnSi3)2
_chemical_formula_sum   'Ca1 Ho3 Zn2 Si6'
_cell_volume   232.67081812
_cell_formula_units_Z   1
loop_
 _symmetry_equiv_pos_site_id
 _symmetry_equiv_pos_as_xyz
  1  'x, y, z'
loop_
 _atom_site_type_symbol
 _atom_site_label
 _atom_site_symmetry_multiplicity
 _atom_site_fract_x
 _atom_site_fract_y
 _atom_site_fract_z
 _atom_site_occupancy
  Ca  Ca0  1  0.500000  0.500000  0.003181  1
  Ho  Ho1  1  0.000000  0.000000  0.505308  1
  Ho  Ho2  1  0.500000  0.000000  0.744092  1
  Ho  Ho3  1  0.000000  0.500000  0.247900  1
  Zn  Zn4  1  0.000000  0.000000  0.914666  1
  Zn  Zn5  1  0.500000  0.500000  0.415963  1
  Si  Si6  1  0.000000  0.500000  0.830532  1
  Si  Si7  1  0.500000  0.000000  0.334648  1
  Si  Si8  1  0.000000  0.000000  0.085549  1
  Si  Si9  1  0.500000  0.500000  0.582210  1
  Si  Si10  1  0.500000  0.000000  0.169895  1
  Si  Si11  1  0.000000  0.500000  0.666055  1
