# generated using pymatgen
data_Ti2Be8ReTc
_symmetry_space_group_name_H-M   'P 1'
_cell_length_a   4.44843600
_cell_length_b   4.44843600
_cell_length_c   7.19198700
_cell_angle_alpha   90.00000000
_cell_angle_beta   90.00000000
_cell_angle_gamma   120.00001491
_symmetry_Int_Tables_number   1
_chemical_formula_structural   Ti2Be8ReTc
_chemical_formula_sum   'Ti2 Be8 Re1 Tc1'
_cell_volume   123.25205047
_cell_formula_units_Z   1
loop_
 _symmetry_equiv_pos_site_id
 _symmetry_equiv_pos_as_xyz
  1  'x, y, z'
loop_
 _atom_site_type_symbol
 _atom_site_label
 _atom_site_symmetry_multiplicity
 _atom_site_fract_x
 _atom_site_fract_y
 _atom_site_fract_z
 _atom_site_occupancy
  Ti  Ti0  1  0.333333  0.666667  0.064358  1
  Ti  Ti1  1  0.666667  0.333333  0.566865  1
  Be  Be2  1  0.000000  0.000000  0.997031  1
  Be  Be3  1  0.000000  0.000000  0.497731  1
  Be  Be4  1  0.829441  0.658884  0.250784  1
  Be  Be5  1  0.170842  0.829158  0.749559  1
  Be  Be6  1  0.658317  0.829158  0.749559  1
  Be  Be7  1  0.341116  0.170559  0.250784  1
  Be  Be8  1  0.829441  0.170559  0.250784  1
  Be  Be9  1  0.170842  0.341683  0.749559  1
  Re  Re10  1  0.333333  0.666667  0.436619  1
  Tc  Tc11  1  0.666667  0.333333  0.936368  1
