# generated using pymatgen
data_Ho2TcB8Ru
_symmetry_space_group_name_H-M   'P 1'
_cell_length_a   3.56910600
_cell_length_b   5.95131205
_cell_length_c   11.51140802
_cell_angle_alpha   90.18736229
_cell_angle_beta   90.00000000
_cell_angle_gamma   90.00000000
_symmetry_Int_Tables_number   1
_chemical_formula_structural   Ho2TcB8Ru
_chemical_formula_sum   'Ho4 Tc2 B16 Ru2'
_cell_volume   244.51093957
_cell_formula_units_Z   2
loop_
 _symmetry_equiv_pos_site_id
 _symmetry_equiv_pos_as_xyz
  1  'x, y, z'
loop_
 _atom_site_type_symbol
 _atom_site_label
 _atom_site_symmetry_multiplicity
 _atom_site_fract_x
 _atom_site_fract_y
 _atom_site_fract_z
 _atom_site_occupancy
  Ho  Ho0  1  0.000000  0.628798  0.351406  1
  Ho  Ho1  1  0.000000  0.371202  0.648594  1
  Ho  Ho2  1  0.000000  0.128958  0.150958  1
  Ho  Ho3  1  0.000000  0.871042  0.849042  1
  Tc  Tc4  1  0.000000  0.633181  0.088359  1
  Tc  Tc5  1  0.000000  0.366819  0.911641  1
  B  B6  1  0.500000  0.789954  0.185388  1
  B  B7  1  0.500000  0.210046  0.814612  1
  B  B8  1  0.500000  0.290062  0.315045  1
  B  B9  1  0.500000  0.709938  0.684955  1
  B  B10  1  0.500000  0.864974  0.031078  1
  B  B11  1  0.500000  0.135026  0.968922  1
  B  B12  1  0.500000  0.364097  0.469380  1
  B  B13  1  0.500000  0.635903  0.530620  1
  B  B14  1  0.500000  0.887589  0.452980  1
  B  B15  1  0.500000  0.112411  0.547020  1
  B  B16  1  0.500000  0.387355  0.047260  1
  B  B17  1  0.500000  0.612645  0.952740  1
  B  B18  1  0.500000  0.976931  0.308195  1
  B  B19  1  0.500000  0.023069  0.691805  1
  B  B20  1  0.500000  0.478452  0.192828  1
  B  B21  1  0.500000  0.521548  0.807172  1
  Ru  Ru22  1  0.000000  0.140772  0.407705  1
  Ru  Ru23  1  0.000000  0.859228  0.592295  1
