# generated using pymatgen
data_Tb3Yb4Ho3Ir4
_symmetry_space_group_name_H-M   'P 1'
_cell_length_a   6.52800270
_cell_length_b   7.27210970
_cell_length_c   8.49860284
_cell_angle_alpha   96.99390867
_cell_angle_beta   112.63045156
_cell_angle_gamma   90.05389764
_symmetry_Int_Tables_number   1
_chemical_formula_structural   Tb3Yb4Ho3Ir4
_chemical_formula_sum   'Tb3 Yb4 Ho3 Ir4'
_cell_volume   369.11128248
_cell_formula_units_Z   1
loop_
 _symmetry_equiv_pos_site_id
 _symmetry_equiv_pos_as_xyz
  1  'x, y, z'
loop_
 _atom_site_type_symbol
 _atom_site_label
 _atom_site_symmetry_multiplicity
 _atom_site_fract_x
 _atom_site_fract_y
 _atom_site_fract_z
 _atom_site_occupancy
  Tb  Tb0  1  0.651136  0.817541  0.439767  1
  Tb  Tb1  1  0.210909  0.682301  0.560103  1
  Tb  Tb2  1  0.349134  0.182562  0.560110  1
  Yb  Yb3  1  0.973482  0.921057  0.182661  1
  Yb  Yb4  1  0.791049  0.578916  0.817263  1
  Yb  Yb5  1  0.026319  0.079176  0.817289  1
  Yb  Yb6  1  0.209113  0.420872  0.182639  1
  Ho  Ho7  1  0.788851  0.317756  0.439464  1
  Ho  Ho8  1  0.431304  0.749980  0.000016  1
  Ho  Ho9  1  0.568970  0.250046  0.000418  1
  Ir  Ir10  1  0.814847  0.571570  0.225667  1
  Ir  Ir11  1  0.589600  0.927939  0.774725  1
  Ir  Ir12  1  0.184417  0.427767  0.774211  1
  Ir  Ir13  1  0.410870  0.072518  0.225665  1
