# generated using pymatgen
data_Tm3Lu5(Sc3Ga4)4
_symmetry_space_group_name_H-M   'P 1'
_cell_length_a   7.20105401
_cell_length_b   7.50967404
_cell_length_c   14.38020908
_cell_angle_alpha   90.01128767
_cell_angle_beta   89.99600693
_cell_angle_gamma   89.99616763
_symmetry_Int_Tables_number   1
_chemical_formula_structural   Tm3Lu5(Sc3Ga4)4
_chemical_formula_sum   'Tm3 Lu5 Sc12 Ga16'
_cell_volume   777.64672064
_cell_formula_units_Z   1
loop_
 _symmetry_equiv_pos_site_id
 _symmetry_equiv_pos_as_xyz
  1  'x, y, z'
loop_
 _atom_site_type_symbol
 _atom_site_label
 _atom_site_symmetry_multiplicity
 _atom_site_fract_x
 _atom_site_fract_y
 _atom_site_fract_z
 _atom_site_occupancy
  Tm  Tm0  1  0.010545  0.179330  0.405383  1
  Tm  Tm1  1  0.510533  0.320656  0.405318  1
  Tm  Tm2  1  0.489507  0.679453  0.594693  1
  Lu  Lu3  1  0.010502  0.179509  0.094723  1
  Lu  Lu4  1  0.989463  0.820499  0.905310  1
  Lu  Lu5  1  0.489477  0.679506  0.905264  1
  Lu  Lu6  1  0.989478  0.820427  0.594753  1
  Lu  Lu7  1  0.510516  0.320490  0.094710  1
  Sc  Sc8  1  0.162761  0.504145  0.750077  1
  Sc  Sc9  1  0.837188  0.496039  0.249855  1
  Sc  Sc10  1  0.337128  0.004016  0.249862  1
  Sc  Sc11  1  0.662953  0.995889  0.750063  1
  Sc  Sc12  1  0.330012  0.173914  0.624518  1
  Sc  Sc13  1  0.669889  0.825971  0.375501  1
  Sc  Sc14  1  0.169766  0.673992  0.375560  1
  Sc  Sc15  1  0.669884  0.826003  0.124356  1
  Sc  Sc16  1  0.830189  0.326003  0.624498  1
  Sc  Sc17  1  0.330119  0.173981  0.875614  1
  Sc  Sc18  1  0.830116  0.326044  0.875575  1
  Sc  Sc19  1  0.169896  0.673945  0.124378  1
  Ga  Ga20  1  0.031046  0.115674  0.750030  1
  Ga  Ga21  1  0.968965  0.884221  0.249937  1
  Ga  Ga22  1  0.468936  0.615785  0.249929  1
  Ga  Ga23  1  0.531048  0.384234  0.750060  1
  Ga  Ga24  1  0.283395  0.869619  0.750105  1
  Ga  Ga25  1  0.716441  0.130368  0.249820  1
  Ga  Ga26  1  0.216458  0.369653  0.249800  1
  Ga  Ga27  1  0.783704  0.630483  0.750120  1
  Ga  Ga28  1  0.162226  0.465702  0.540381  1
  Ga  Ga29  1  0.837724  0.534631  0.459745  1
  Ga  Ga30  1  0.337586  0.965500  0.459694  1
  Ga  Ga31  1  0.837465  0.534258  0.040375  1
  Ga  Ga32  1  0.662578  0.034369  0.540407  1
  Ga  Ga33  1  0.162533  0.465719  0.959598  1
  Ga  Ga34  1  0.662542  0.034243  0.959616  1
  Ga  Ga35  1  0.337429  0.965732  0.040371  1
