# generated using pymatgen
data_Ga7CuRh8
_symmetry_space_group_name_H-M   'P 1'
_cell_length_a   6.05561400
_cell_length_b   6.05520300
_cell_length_c   6.07411100
_cell_angle_alpha   90.00000000
_cell_angle_beta   90.00000000
_cell_angle_gamma   90.00000000
_symmetry_Int_Tables_number   1
_chemical_formula_structural   Ga7CuRh8
_chemical_formula_sum   'Ga7 Cu1 Rh8'
_cell_volume   222.72533244
_cell_formula_units_Z   1
loop_
 _symmetry_equiv_pos_site_id
 _symmetry_equiv_pos_as_xyz
  1  'x, y, z'
loop_
 _atom_site_type_symbol
 _atom_site_label
 _atom_site_symmetry_multiplicity
 _atom_site_fract_x
 _atom_site_fract_y
 _atom_site_fract_z
 _atom_site_occupancy
  Ga  Ga0  1  0.749921  0.250000  0.000006  1
  Ga  Ga1  1  0.250092  0.749998  0.000004  1
  Ga  Ga2  1  0.750106  0.250001  0.499990  1
  Ga  Ga3  1  0.250070  0.250001  0.000007  1
  Ga  Ga4  1  0.749925  0.749999  0.000006  1
  Ga  Ga5  1  0.750117  0.749998  0.499985  1
  Ga  Ga6  1  0.249915  0.250000  0.499998  1
  Cu  Cu7  1  0.249864  0.749995  0.499997  1
  Rh  Rh8  1  0.998463  0.001552  0.248291  1
  Rh  Rh9  1  0.998454  0.498453  0.248302  1
  Rh  Rh10  1  0.501537  0.001543  0.248462  1
  Rh  Rh11  1  0.501545  0.498463  0.248448  1
  Rh  Rh12  1  0.501538  0.001528  0.751535  1
  Rh  Rh13  1  0.501540  0.498472  0.751549  1
  Rh  Rh14  1  0.998464  0.001541  0.751706  1
  Rh  Rh15  1  0.998449  0.498456  0.751720  1
