# generated using pymatgen
data_Ba3(Si2As3)2
_symmetry_space_group_name_H-M   'P 1'
_cell_length_a   7.56319100
_cell_length_b   7.91777374
_cell_length_c   11.97207754
_cell_angle_alpha   80.48906026
_cell_angle_beta   90.00000000
_cell_angle_gamma   90.00000000
_symmetry_Int_Tables_number   1
_chemical_formula_structural   Ba3(Si2As3)2
_chemical_formula_sum   'Ba6 Si8 As12'
_cell_volume   707.07663192
_cell_formula_units_Z   2
loop_
 _symmetry_equiv_pos_site_id
 _symmetry_equiv_pos_as_xyz
  1  'x, y, z'
loop_
 _atom_site_type_symbol
 _atom_site_label
 _atom_site_symmetry_multiplicity
 _atom_site_fract_x
 _atom_site_fract_y
 _atom_site_fract_z
 _atom_site_occupancy
  Ba  Ba0  1  0.750000  0.503163  0.487192  1
  Ba  Ba1  1  0.250000  0.496837  0.512808  1
  Ba  Ba2  1  0.750000  0.912931  0.849767  1
  Ba  Ba3  1  0.250000  0.087069  0.150233  1
  Ba  Ba4  1  0.750000  0.407437  0.865375  1
  Ba  Ba5  1  0.250000  0.592563  0.134625  1
  Si  Si6  1  0.418951  0.978024  0.586841  1
  Si  Si7  1  0.918951  0.021976  0.413159  1
  Si  Si8  1  0.581049  0.021976  0.413159  1
  Si  Si9  1  0.081049  0.978024  0.586841  1
  Si  Si10  1  0.750000  0.326273  0.202753  1
  Si  Si11  1  0.250000  0.177790  0.796730  1
  Si  Si12  1  0.250000  0.673727  0.797247  1
  Si  Si13  1  0.750000  0.822210  0.203270  1
  As  As14  1  0.995242  0.208620  0.680024  1
  As  As15  1  0.495242  0.791380  0.319976  1
  As  As16  1  0.250000  0.394827  0.917093  1
  As  As17  1  0.750000  0.605173  0.082907  1
  As  As18  1  0.250000  0.896917  0.916558  1
  As  As19  1  0.750000  0.103083  0.083442  1
  As  As20  1  0.504915  0.701215  0.680237  1
  As  As21  1  0.004915  0.298785  0.319763  1
  As  As22  1  0.495085  0.298785  0.319763  1
  As  As23  1  0.995085  0.701215  0.680237  1
  As  As24  1  0.504758  0.208620  0.680024  1
  As  As25  1  0.004758  0.791380  0.319976  1
