# generated using pymatgen
data_Y2Tm4Th2MgCdCo2
_symmetry_space_group_name_H-M   'P 1'
_cell_length_a   9.54951216
_cell_length_b   9.54131485
_cell_length_c   9.55850149
_cell_angle_alpha   59.99718187
_cell_angle_beta   59.91211427
_cell_angle_gamma   59.99597146
_symmetry_Int_Tables_number   1
_chemical_formula_structural   Y2Tm4Th2MgCdCo2
_chemical_formula_sum   'Y4 Tm8 Th4 Mg2 Cd2 Co4'
_cell_volume   615.39292122
_cell_formula_units_Z   2
loop_
 _symmetry_equiv_pos_site_id
 _symmetry_equiv_pos_as_xyz
  1  'x, y, z'
loop_
 _atom_site_type_symbol
 _atom_site_label
 _atom_site_symmetry_multiplicity
 _atom_site_fract_x
 _atom_site_fract_y
 _atom_site_fract_z
 _atom_site_occupancy
  Y  Y0  1  0.563521  0.936224  0.564521  1
  Y  Y1  1  0.936224  0.563521  0.935735  1
  Y  Y2  1  0.563580  0.563580  0.936420  1
  Y  Y3  1  0.935813  0.935813  0.564187  1
  Tm  Tm4  1  0.814352  0.184656  0.185554  1
  Tm  Tm5  1  0.184656  0.814352  0.815439  1
  Tm  Tm6  1  0.184843  0.814124  0.186119  1
  Tm  Tm7  1  0.814124  0.184843  0.814914  1
  Tm  Tm8  1  0.186098  0.186098  0.813902  1
  Tm  Tm9  1  0.813552  0.813552  0.186448  1
  Tm  Tm10  1  0.937127  0.562169  0.562768  1
  Tm  Tm11  1  0.562169  0.937127  0.937937  1
  Th  Th12  1  0.343974  0.345802  0.346548  1
  Th  Th13  1  0.345802  0.343974  0.963677  1
  Th  Th14  1  0.346609  0.962191  0.345369  1
  Th  Th15  1  0.962191  0.346609  0.345831  1
  Mg  Mg16  1  0.580277  0.265265  0.577508  1
  Mg  Mg17  1  0.265265  0.580277  0.576950  1
  Cd  Cd18  1  0.582420  0.581451  0.582665  1
  Cd  Cd19  1  0.581451  0.582420  0.253463  1
  Co  Co20  1  0.144202  0.143332  0.144813  1
  Co  Co21  1  0.143332  0.144202  0.567652  1
  Co  Co22  1  0.142959  0.565459  0.146177  1
  Co  Co23  1  0.565459  0.142959  0.145404  1
