# generated using pymatgen
data_Y7Ho(SiI6)2
_symmetry_space_group_name_H-M   'P 1'
_cell_length_a   4.21852100
_cell_length_b   14.02218000
_cell_length_c   14.80242500
_cell_angle_alpha   89.99776974
_cell_angle_beta   90.00000000
_cell_angle_gamma   90.00000000
_symmetry_Int_Tables_number   1
_chemical_formula_structural   Y7Ho(SiI6)2
_chemical_formula_sum   'Y7 Ho1 Si2 I12'
_cell_volume   875.60578513
_cell_formula_units_Z   1
loop_
 _symmetry_equiv_pos_site_id
 _symmetry_equiv_pos_as_xyz
  1  'x, y, z'
loop_
 _atom_site_type_symbol
 _atom_site_label
 _atom_site_symmetry_multiplicity
 _atom_site_fract_x
 _atom_site_fract_y
 _atom_site_fract_z
 _atom_site_occupancy
  Y  Y0  1  0.500000  0.114026  0.347658  1
  Y  Y1  1  0.500000  0.885975  0.652352  1
  Y  Y2  1  0.500000  0.613968  0.152271  1
  Y  Y3  1  0.000000  0.111169  0.574341  1
  Y  Y4  1  0.000000  0.888837  0.425656  1
  Y  Y5  1  0.000000  0.611153  0.925735  1
  Y  Y6  1  0.000000  0.388907  0.074344  1
  Ho  Ho7  1  0.500000  0.386146  0.847878  1
  Si  Si8  1  0.500000  0.000005  0.500009  1
  Si  Si9  1  0.500000  0.499694  0.999589  1
  I  I10  1  0.500000  0.245298  0.161497  1
  I  I11  1  0.500000  0.754683  0.838468  1
  I  I12  1  0.500000  0.745297  0.338482  1
  I  I13  1  0.500000  0.254864  0.661742  1
  I  I14  1  0.000000  0.258667  0.413895  1
  I  I15  1  0.000000  0.741331  0.586114  1
  I  I16  1  0.000000  0.758652  0.086111  1
  I  I17  1  0.000000  0.241890  0.913491  1
  I  I18  1  0.000000  0.999302  0.240436  1
  I  I19  1  0.000000  0.000707  0.759578  1
  I  I20  1  0.000000  0.499304  0.259560  1
  I  I21  1  0.000000  0.500125  0.740794  1
