# generated using pymatgen
data_Dy4Er2GaCo2
_symmetry_space_group_name_H-M   'P 1'
_cell_length_a   8.24407702
_cell_length_b   8.24407693
_cell_length_c   8.24407720
_cell_angle_alpha   112.01391774
_cell_angle_beta   109.41820958
_cell_angle_gamma   107.02010196
_symmetry_Int_Tables_number   1
_chemical_formula_structural   Dy4Er2GaCo2
_chemical_formula_sum   'Dy8 Er4 Ga2 Co4'
_cell_volume   430.50434416
_cell_formula_units_Z   2
loop_
 _symmetry_equiv_pos_site_id
 _symmetry_equiv_pos_as_xyz
  1  'x, y, z'
loop_
 _atom_site_type_symbol
 _atom_site_label
 _atom_site_symmetry_multiplicity
 _atom_site_fract_x
 _atom_site_fract_y
 _atom_site_fract_z
 _atom_site_occupancy
  Dy  Dy0  1  0.564277  0.261770  0.302507  1
  Dy  Dy1  1  0.959263  0.261770  0.697493  1
  Dy  Dy2  1  0.435723  0.738230  0.697492  1
  Dy  Dy3  1  0.040737  0.738230  0.302507  1
  Dy  Dy4  1  0.180999  0.219378  0.400377  1
  Dy  Dy5  1  0.819001  0.780622  0.599623  1
  Dy  Dy6  1  0.819001  0.219378  0.038380  1
  Dy  Dy7  1  0.180999  0.780621  0.961620  1
  Er  Er8  1  0.326330  0.513808  0.187477  1
  Er  Er9  1  0.326330  0.138853  0.812522  1
  Er  Er10  1  0.673670  0.861147  0.187477  1
  Er  Er11  1  0.673669  0.486192  0.812522  1
  Ga  Ga12  1  0.500000  0.000000  0.500000  1
  Ga  Ga13  1  0.000000  0.500000  0.500000  1
  Co  Co14  1  0.662185  0.500000  0.162185  1
  Co  Co15  1  0.337814  0.500000  0.837814  1
  Co  Co16  1  0.114892  0.114892  0.000000  1
  Co  Co17  1  0.885108  0.885108  0.000000  1
