# generated using pymatgen
data_Yb8LuPaIr4
_symmetry_space_group_name_H-M   'P 1'
_cell_length_a   8.57206759
_cell_length_b   8.57206741
_cell_length_c   7.26634893
_cell_angle_alpha   82.73570661
_cell_angle_beta   82.73570741
_cell_angle_gamma   45.13389616
_symmetry_Int_Tables_number   1
_chemical_formula_structural   Yb8LuPaIr4
_chemical_formula_sum   'Yb8 Lu1 Pa1 Ir4'
_cell_volume   374.86489809
_cell_formula_units_Z   1
loop_
 _symmetry_equiv_pos_site_id
 _symmetry_equiv_pos_as_xyz
  1  'x, y, z'
loop_
 _atom_site_type_symbol
 _atom_site_label
 _atom_site_symmetry_multiplicity
 _atom_site_fract_x
 _atom_site_fract_y
 _atom_site_fract_z
 _atom_site_occupancy
  Yb  Yb0  1  0.361667  0.205536  0.318893  1
  Yb  Yb1  1  0.201848  0.972267  0.080107  1
  Yb  Yb2  1  0.801509  0.026117  0.924672  1
  Yb  Yb3  1  0.973883  0.198491  0.575328  1
  Yb  Yb4  1  0.642546  0.798262  0.682538  1
  Yb  Yb5  1  0.201738  0.357454  0.817462  1
  Yb  Yb6  1  0.794464  0.638333  0.181107  1
  Yb  Yb7  1  0.027733  0.798152  0.419893  1
  Lu  Lu8  1  0.565500  0.434500  0.250000  1
  Pa  Pa9  1  0.436312  0.563688  0.750000  1
  Ir  Ir10  1  0.403482  0.794446  0.442910  1
  Ir  Ir11  1  0.205554  0.596518  0.057090  1
  Ir  Ir12  1  0.791906  0.408141  0.920510  1
  Ir  Ir13  1  0.591859  0.208094  0.579490  1
