# generated using pymatgen
data_ZnCuBi2(Pt2O7)2
_symmetry_space_group_name_H-M   'P 1'
_cell_length_a   7.23626979
_cell_length_b   7.08574774
_cell_length_c   7.23626912
_cell_angle_alpha   60.14346473
_cell_angle_beta   61.15638174
_cell_angle_gamma   60.14345963
_symmetry_Int_Tables_number   1
_chemical_formula_structural   ZnCuBi2(Pt2O7)2
_chemical_formula_sum   'Zn1 Cu1 Bi2 Pt4 O14'
_cell_volume   265.15966064
_cell_formula_units_Z   1
loop_
 _symmetry_equiv_pos_site_id
 _symmetry_equiv_pos_as_xyz
  1  'x, y, z'
loop_
 _atom_site_type_symbol
 _atom_site_label
 _atom_site_symmetry_multiplicity
 _atom_site_fract_x
 _atom_site_fract_y
 _atom_site_fract_z
 _atom_site_occupancy
  Zn  Zn0  1  0.125000  0.125000  0.125000  1
  Cu  Cu1  1  0.125000  0.625000  0.125000  1
  Bi  Bi2  1  0.125000  0.125000  0.625000  1
  Bi  Bi3  1  0.625000  0.125000  0.125000  1
  Pt  Pt4  1  0.625000  0.625000  0.125000  1
  Pt  Pt5  1  0.625000  0.125000  0.625000  1
  Pt  Pt6  1  0.125000  0.625000  0.625000  1
  Pt  Pt7  1  0.625000  0.625000  0.625000  1
  O  O8  1  0.232497  0.277989  0.232497  1
  O  O9  1  0.017503  0.972011  0.017503  1
  O  O10  1  0.536079  0.964706  0.536079  1
  O  O11  1  0.289177  0.714259  0.289177  1
  O  O12  1  0.536546  0.543437  0.958875  1
  O  O13  1  0.958875  0.543437  0.536546  1
  O  O14  1  0.531443  0.965438  0.961432  1
  O  O15  1  0.961432  0.965438  0.531443  1
  O  O16  1  0.960823  0.535741  0.960823  1
  O  O17  1  0.718557  0.284562  0.288568  1
  O  O18  1  0.291125  0.706563  0.713454  1
  O  O19  1  0.713921  0.285294  0.713921  1
  O  O20  1  0.288568  0.284562  0.718557  1
  O  O21  1  0.713454  0.706563  0.291125  1
