# generated using pymatgen
data_Ho5In4CuPt
_symmetry_space_group_name_H-M   'P 1'
_cell_length_a   3.63471700
_cell_length_b   8.08617703
_cell_length_c   18.12402309
_cell_angle_alpha   89.98912501
_cell_angle_beta   90.00000000
_cell_angle_gamma   90.00000000
_symmetry_Int_Tables_number   1
_chemical_formula_structural   Ho5In4CuPt
_chemical_formula_sum   'Ho10 In8 Cu2 Pt2'
_cell_volume   532.68252098
_cell_formula_units_Z   2
loop_
 _symmetry_equiv_pos_site_id
 _symmetry_equiv_pos_as_xyz
  1  'x, y, z'
loop_
 _atom_site_type_symbol
 _atom_site_label
 _atom_site_symmetry_multiplicity
 _atom_site_fract_x
 _atom_site_fract_y
 _atom_site_fract_z
 _atom_site_occupancy
  Ho  Ho0  1  0.000000  0.117130  0.416109  1
  Ho  Ho1  1  0.000000  0.882870  0.583891  1
  Ho  Ho2  1  0.000000  0.382137  0.915729  1
  Ho  Ho3  1  0.000000  0.617863  0.084271  1
  Ho  Ho4  1  0.000000  0.248875  0.219404  1
  Ho  Ho5  1  0.000000  0.751125  0.780596  1
  Ho  Ho6  1  0.000000  0.260892  0.719640  1
  Ho  Ho7  1  0.000000  0.739108  0.280360  1
  Ho  Ho8  1  0.000000  0.000000  0.000000  1
  Ho  Ho9  1  0.000000  0.500000  0.500000  1
  In  In10  1  0.500000  0.419700  0.352721  1
  In  In11  1  0.500000  0.580300  0.647279  1
  In  In12  1  0.500000  0.072565  0.848756  1
  In  In13  1  0.500000  0.927435  0.151244  1
  In  In14  1  0.500000  0.291445  0.066464  1
  In  In15  1  0.500000  0.708555  0.933536  1
  In  In16  1  0.500000  0.206923  0.568169  1
  In  In17  1  0.500000  0.793077  0.431831  1
  Cu  Cu18  1  0.500000  0.028570  0.302803  1
  Cu  Cu19  1  0.500000  0.971430  0.697197  1
  Pt  Pt20  1  0.500000  0.470959  0.802532  1
  Pt  Pt21  1  0.500000  0.529041  0.197468  1
