# generated using pymatgen
data_HoEr3ReTcB12
_symmetry_space_group_name_H-M   'P 1'
_cell_length_a   3.66088200
_cell_length_b   9.12988316
_cell_length_c   11.50429700
_cell_angle_alpha   90.05588763
_cell_angle_beta   90.00000000
_cell_angle_gamma   90.00000000
_symmetry_Int_Tables_number   1
_chemical_formula_structural   HoEr3ReTcB12
_chemical_formula_sum   'Ho2 Er6 Re2 Tc2 B24'
_cell_volume   384.51282436
_cell_formula_units_Z   2
loop_
 _symmetry_equiv_pos_site_id
 _symmetry_equiv_pos_as_xyz
  1  'x, y, z'
loop_
 _atom_site_type_symbol
 _atom_site_label
 _atom_site_symmetry_multiplicity
 _atom_site_fract_x
 _atom_site_fract_y
 _atom_site_fract_z
 _atom_site_occupancy
  Ho  Ho0  1  0.000000  0.323897  0.414007  1
  Ho  Ho1  1  0.000000  0.676103  0.585993  1
  Er  Er2  1  0.000000  0.823410  0.086084  1
  Er  Er3  1  0.000000  0.176590  0.913916  1
  Er  Er4  1  0.000000  0.942405  0.370010  1
  Er  Er5  1  0.000000  0.057595  0.629990  1
  Er  Er6  1  0.000000  0.443981  0.130308  1
  Er  Er7  1  0.000000  0.556019  0.869692  1
  Re  Re8  1  0.000000  0.138810  0.179227  1
  Re  Re9  1  0.000000  0.861190  0.820773  1
  Tc  Tc10  1  0.000000  0.639087  0.320590  1
  Tc  Tc11  1  0.000000  0.360913  0.679410  1
  B  B12  1  0.500000  0.553458  0.433058  1
  B  B13  1  0.500000  0.446542  0.566942  1
  B  B14  1  0.500000  0.053245  0.066668  1
  B  B15  1  0.500000  0.946755  0.933332  1
  B  B16  1  0.500000  0.749393  0.418934  1
  B  B17  1  0.500000  0.250607  0.581066  1
  B  B18  1  0.500000  0.249847  0.080789  1
  B  B19  1  0.500000  0.750153  0.919211  1
  B  B20  1  0.500000  0.792520  0.265352  1
  B  B21  1  0.500000  0.207480  0.734648  1
  B  B22  1  0.500000  0.292840  0.234623  1
  B  B23  1  0.500000  0.707160  0.765377  1
  B  B24  1  0.500000  0.631215  0.185415  1
  B  B25  1  0.500000  0.368785  0.814585  1
  B  B26  1  0.500000  0.130828  0.314768  1
  B  B27  1  0.500000  0.869172  0.685232  1
  B  B28  1  0.500000  0.981781  0.211885  1
  B  B29  1  0.500000  0.018219  0.788115  1
  B  B30  1  0.500000  0.482373  0.288100  1
  B  B31  1  0.500000  0.517627  0.711900  1
  B  B32  1  0.500000  0.600284  0.027952  1
  B  B33  1  0.500000  0.399716  0.972048  1
  B  B34  1  0.500000  0.099895  0.471971  1
  B  B35  1  0.500000  0.900105  0.528029  1
