# generated using pymatgen
data_LiEu2Pt3
_symmetry_space_group_name_H-M   'P 1'
_cell_length_a   5.35936745
_cell_length_b   5.35936632
_cell_length_c   5.35936748
_cell_angle_alpha   63.57760820
_cell_angle_beta   63.57760882
_cell_angle_gamma   63.57761289
_symmetry_Int_Tables_number   1
_chemical_formula_structural   LiEu2Pt3
_chemical_formula_sum   'Li1 Eu2 Pt3'
_cell_volume   117.45529386
_cell_formula_units_Z   1
loop_
 _symmetry_equiv_pos_site_id
 _symmetry_equiv_pos_as_xyz
  1  'x, y, z'
loop_
 _atom_site_type_symbol
 _atom_site_label
 _atom_site_symmetry_multiplicity
 _atom_site_fract_x
 _atom_site_fract_y
 _atom_site_fract_z
 _atom_site_occupancy
  Li  Li0  1  0.625000  0.625000  0.625000  1
  Eu  Eu1  1  0.249012  0.249012  0.249012  1
  Eu  Eu2  1  0.000988  0.000988  0.000988  1
  Pt  Pt3  1  0.625000  0.125000  0.625000  1
  Pt  Pt4  1  0.625000  0.625000  0.125000  1
  Pt  Pt5  1  0.125000  0.625000  0.625000  1
