# generated using pymatgen
data_Dy7Ho5Co4
_symmetry_space_group_name_H-M   'P 1'
_cell_length_a   6.91229501
_cell_length_b   9.41477616
_cell_length_c   6.17759111
_cell_angle_alpha   90.02067852
_cell_angle_beta   89.99458820
_cell_angle_gamma   90.00415625
_symmetry_Int_Tables_number   1
_chemical_formula_structural   Dy7Ho5Co4
_chemical_formula_sum   'Dy7 Ho5 Co4'
_cell_volume   402.02345534
_cell_formula_units_Z   1
loop_
 _symmetry_equiv_pos_site_id
 _symmetry_equiv_pos_as_xyz
  1  'x, y, z'
loop_
 _atom_site_type_symbol
 _atom_site_label
 _atom_site_symmetry_multiplicity
 _atom_site_fract_x
 _atom_site_fract_y
 _atom_site_fract_z
 _atom_site_occupancy
  Dy  Dy0  1  0.457309  0.749766  0.141085  1
  Dy  Dy1  1  0.957659  0.749873  0.358922  1
  Dy  Dy2  1  0.042946  0.250181  0.640361  1
  Dy  Dy3  1  0.324566  0.932676  0.675799  1
  Dy  Dy4  1  0.824583  0.567034  0.824177  1
  Dy  Dy5  1  0.824630  0.933009  0.824363  1
  Dy  Dy6  1  0.542725  0.250151  0.859590  1
  Ho  Ho7  1  0.175414  0.067792  0.175677  1
  Ho  Ho8  1  0.175444  0.432437  0.175730  1
  Ho  Ho9  1  0.675325  0.067743  0.324488  1
  Ho  Ho10  1  0.675209  0.432351  0.324469  1
  Ho  Ho11  1  0.324611  0.567190  0.675553  1
  Co  Co12  1  0.887120  0.249964  0.049446  1
  Co  Co13  1  0.387100  0.250335  0.450669  1
  Co  Co14  1  0.612535  0.749731  0.548731  1
  Co  Co15  1  0.112820  0.749764  0.950940  1
