# generated using pymatgen
data_PrNpU2F15
_symmetry_space_group_name_H-M   'P 1'
_cell_length_a   7.93337631
_cell_length_b   7.92634105
_cell_length_c   7.93337642
_cell_angle_alpha   112.82614598
_cell_angle_beta   113.29772997
_cell_angle_gamma   112.82615622
_symmetry_Int_Tables_number   1
_chemical_formula_structural   PrNpU2F15
_chemical_formula_sum   'Pr1 Np1 U2 F15'
_cell_volume   324.66524212
_cell_formula_units_Z   1
loop_
 _symmetry_equiv_pos_site_id
 _symmetry_equiv_pos_as_xyz
  1  'x, y, z'
loop_
 _atom_site_type_symbol
 _atom_site_label
 _atom_site_symmetry_multiplicity
 _atom_site_fract_x
 _atom_site_fract_y
 _atom_site_fract_z
 _atom_site_occupancy
  Pr  Pr0  1  0.495413  0.497671  0.495413  1
  Np  Np1  1  0.856197  0.288917  0.856197  1
  U  U2  1  0.287051  0.857402  0.858367  1
  U  U3  1  0.858367  0.857402  0.287051  1
  F  F4  1  0.605414  0.935192  0.146946  1
  F  F5  1  0.930264  0.137710  0.600555  1
  F  F6  1  0.149143  0.605252  0.934906  1
  F  F7  1  0.934906  0.605252  0.149143  1
  F  F8  1  0.596288  0.593762  0.254694  1
  F  F9  1  0.254694  0.593762  0.596288  1
  F  F10  1  0.594666  0.268858  0.594666  1
  F  F11  1  0.142482  0.143524  0.358833  1
  F  F12  1  0.358833  0.143524  0.142482  1
  F  F13  1  0.147706  0.362264  0.147706  1
  F  F14  1  0.662379  0.664367  0.895814  1
  F  F15  1  0.895814  0.664367  0.662379  1
  F  F16  1  0.670049  0.895038  0.670049  1
  F  F17  1  0.146946  0.935192  0.605414  1
  F  F18  1  0.600555  0.137710  0.930264  1
