# generated using pymatgen
data_Ho3Er5Tm8(Ga3Co)2
_symmetry_space_group_name_H-M   'P 1'
_cell_length_a   9.89288700
_cell_length_b   9.89376590
_cell_length_c   6.88551200
_cell_angle_alpha   89.99958924
_cell_angle_beta   90.00126370
_cell_angle_gamma   119.99646272
_symmetry_Int_Tables_number   1
_chemical_formula_structural   Ho3Er5Tm8(Ga3Co)2
_chemical_formula_sum   'Ho3 Er5 Tm8 Ga6 Co2'
_cell_volume   583.66953909
_cell_formula_units_Z   1
loop_
 _symmetry_equiv_pos_site_id
 _symmetry_equiv_pos_as_xyz
  1  'x, y, z'
loop_
 _atom_site_type_symbol
 _atom_site_label
 _atom_site_symmetry_multiplicity
 _atom_site_fract_x
 _atom_site_fract_y
 _atom_site_fract_z
 _atom_site_occupancy
  Ho  Ho0  1  0.536046  0.072085  0.707908  1
  Ho  Ho1  1  0.000021  0.000054  0.231083  1
  Ho  Ho2  1  0.000000  0.999991  0.731103  1
  Er  Er3  1  0.463833  0.536141  0.207869  1
  Er  Er4  1  0.072337  0.536159  0.207865  1
  Er  Er5  1  0.463804  0.927620  0.207915  1
  Er  Er6  1  0.536176  0.463913  0.707874  1
  Er  Er7  1  0.927745  0.463922  0.707883  1
  Tm  Tm8  1  0.173406  0.826407  0.511045  1
  Tm  Tm9  1  0.653004  0.826410  0.511052  1
  Tm  Tm10  1  0.173514  0.347045  0.511115  1
  Tm  Tm11  1  0.826587  0.173541  0.011235  1
  Tm  Tm12  1  0.346955  0.173534  0.011238  1
  Tm  Tm13  1  0.826468  0.652939  0.011119  1
  Tm  Tm14  1  0.333285  0.666581  0.827234  1
  Tm  Tm15  1  0.666732  0.333456  0.327108  1
  Ga  Ga16  1  0.163547  0.836447  0.958976  1
  Ga  Ga17  1  0.672892  0.836440  0.958989  1
  Ga  Ga18  1  0.163545  0.327104  0.958913  1
  Ga  Ga19  1  0.836539  0.163573  0.458836  1
  Ga  Ga20  1  0.327033  0.163588  0.458853  1
  Ga  Ga21  1  0.836441  0.672884  0.458942  1
  Co  Co22  1  0.333330  0.666660  0.444881  1
  Co  Co23  1  0.666759  0.333507  0.945007  1
