# generated using pymatgen
data_Tm12Ni4SnRu
_symmetry_space_group_name_H-M   'P 1'
_cell_length_a   8.18146935
_cell_length_b   8.18554298
_cell_length_c   8.18437236
_cell_angle_alpha   106.87306802
_cell_angle_beta   110.04047558
_cell_angle_gamma   111.53542114
_symmetry_Int_Tables_number   1
_chemical_formula_structural   Tm12Ni4SnRu
_chemical_formula_sum   'Tm12 Ni4 Sn1 Ru1'
_cell_volume   421.20541080
_cell_formula_units_Z   1
loop_
 _symmetry_equiv_pos_site_id
 _symmetry_equiv_pos_as_xyz
  1  'x, y, z'
loop_
 _atom_site_type_symbol
 _atom_site_label
 _atom_site_symmetry_multiplicity
 _atom_site_fract_x
 _atom_site_fract_y
 _atom_site_fract_z
 _atom_site_occupancy
  Tm  Tm0  1  0.690751  0.280846  0.971590  1
  Tm  Tm1  1  0.309245  0.718939  0.028259  1
  Tm  Tm2  1  0.690586  0.719153  0.409770  1
  Tm  Tm3  1  0.309414  0.280738  0.590182  1
  Tm  Tm4  1  0.806278  0.126703  0.320470  1
  Tm  Tm5  1  0.806257  0.485788  0.679499  1
  Tm  Tm6  1  0.193714  0.873371  0.679654  1
  Tm  Tm7  1  0.193904  0.514284  0.320455  1
  Tm  Tm8  1  0.604243  0.785741  0.818419  1
  Tm  Tm9  1  0.967417  0.785727  0.181657  1
  Tm  Tm10  1  0.032613  0.214122  0.818401  1
  Tm  Tm11  1  0.395762  0.214136  0.181577  1
  Ni  Ni12  1  0.857983  0.500516  0.358277  1
  Ni  Ni13  1  0.141881  0.500228  0.641608  1
  Ni  Ni14  1  0.999775  0.122078  0.121667  1
  Ni  Ni15  1  0.999997  0.877765  0.878478  1
  Sn  Sn16  1  0.500211  0.999951  0.500028  1
  Ru  Ru17  1  0.499968  0.499915  0.000007  1
