# generated using pymatgen
data_MnNb4Fe5Si2
_symmetry_space_group_name_H-M   'P 1'
_cell_length_a   4.85396124
_cell_length_b   4.85396258
_cell_length_c   7.88364400
_cell_angle_alpha   90.00000000
_cell_angle_beta   90.00000000
_cell_angle_gamma   120.19525560
_symmetry_Int_Tables_number   1
_chemical_formula_structural   MnNb4Fe5Si2
_chemical_formula_sum   'Mn1 Nb4 Fe5 Si2'
_cell_volume   160.54342086
_cell_formula_units_Z   1
loop_
 _symmetry_equiv_pos_site_id
 _symmetry_equiv_pos_as_xyz
  1  'x, y, z'
loop_
 _atom_site_type_symbol
 _atom_site_label
 _atom_site_symmetry_multiplicity
 _atom_site_fract_x
 _atom_site_fract_y
 _atom_site_fract_z
 _atom_site_occupancy
  Mn  Mn0  1  0.171717  0.828283  0.750000  1
  Nb  Nb1  1  0.666480  0.333520  0.936235  1
  Nb  Nb2  1  0.332931  0.667069  0.437227  1
  Nb  Nb3  1  0.666480  0.333520  0.563765  1
  Nb  Nb4  1  0.332931  0.667069  0.062773  1
  Fe  Fe5  1  0.659145  0.829466  0.750000  1
  Fe  Fe6  1  0.829004  0.170996  0.250000  1
  Fe  Fe7  1  0.170534  0.340855  0.750000  1
  Fe  Fe8  1  0.829043  0.657297  0.250000  1
  Fe  Fe9  1  0.342703  0.170957  0.250000  1
  Si  Si10  1  0.999516  0.000484  0.499787  1
  Si  Si11  1  0.999516  0.000484  0.000213  1
