# generated using pymatgen
data_Lu8V11ReSi16
_symmetry_space_group_name_H-M   'P 1'
_cell_length_a   6.58990346
_cell_length_b   6.79306180
_cell_length_c   12.75711200
_cell_angle_alpha   90.00000000
_cell_angle_beta   90.00000000
_cell_angle_gamma   90.02037979
_symmetry_Int_Tables_number   1
_chemical_formula_structural   Lu8V11ReSi16
_chemical_formula_sum   'Lu8 V11 Re1 Si16'
_cell_volume   571.08001065
_cell_formula_units_Z   1
loop_
 _symmetry_equiv_pos_site_id
 _symmetry_equiv_pos_as_xyz
  1  'x, y, z'
loop_
 _atom_site_type_symbol
 _atom_site_label
 _atom_site_symmetry_multiplicity
 _atom_site_fract_x
 _atom_site_fract_y
 _atom_site_fract_z
 _atom_site_occupancy
  Lu  Lu0  1  0.498132  0.330168  0.094287  1
  Lu  Lu1  1  0.998064  0.169580  0.405694  1
  Lu  Lu2  1  0.500888  0.669969  0.595456  1
  Lu  Lu3  1  0.001348  0.830727  0.904490  1
  Lu  Lu4  1  0.500888  0.669969  0.904544  1
  Lu  Lu5  1  0.001348  0.830727  0.595510  1
  Lu  Lu6  1  0.498132  0.330168  0.405713  1
  Lu  Lu7  1  0.998064  0.169580  0.094306  1
  V  V8  1  0.835840  0.329091  0.626035  1
  V  V9  1  0.335579  0.170893  0.873785  1
  V  V10  1  0.165781  0.669328  0.126275  1
  V  V11  1  0.664233  0.830610  0.373864  1
  V  V12  1  0.165781  0.669328  0.373725  1
  V  V13  1  0.664233  0.830610  0.126136  1
  V  V14  1  0.835840  0.329091  0.873965  1
  V  V15  1  0.335579  0.170893  0.626215  1
  V  V16  1  0.663560  0.011817  0.750000  1
  V  V17  1  0.163232  0.487865  0.750000  1
  V  V18  1  0.336271  0.988365  0.250000  1
  Re  Re19  1  0.836126  0.508245  0.250000  1
  Si  Si20  1  0.662132  0.042503  0.544549  1
  Si  Si21  1  0.163095  0.457533  0.955793  1
  Si  Si22  1  0.337884  0.957621  0.043600  1
  Si  Si23  1  0.837839  0.544391  0.456873  1
  Si  Si24  1  0.337884  0.957621  0.456400  1
  Si  Si25  1  0.837839  0.544391  0.043127  1
  Si  Si26  1  0.662132  0.042503  0.955451  1
  Si  Si27  1  0.163095  0.457533  0.544207  1
  Si  Si28  1  0.536889  0.368936  0.750000  1
  Si  Si29  1  0.036916  0.130394  0.750000  1
  Si  Si30  1  0.463358  0.631900  0.250000  1
  Si  Si31  1  0.963943  0.869620  0.250000  1
  Si  Si32  1  0.802434  0.623621  0.750000  1
  Si  Si33  1  0.302523  0.876966  0.750000  1
  Si  Si34  1  0.198120  0.373932  0.250000  1
  Si  Si35  1  0.694999  0.123511  0.250000  1
