# generated using pymatgen
data_NaMnFe2Sb12Rh
_symmetry_space_group_name_H-M   'P 1'
_cell_length_a   8.05066026
_cell_length_b   8.02219332
_cell_length_c   8.08912539
_cell_angle_alpha   109.32105746
_cell_angle_beta   109.45393411
_cell_angle_gamma   109.46348777
_symmetry_Int_Tables_number   1
_chemical_formula_structural   NaMnFe2Sb12Rh
_chemical_formula_sum   'Na1 Mn1 Fe2 Sb12 Rh1'
_cell_volume   403.03157320
_cell_formula_units_Z   1
loop_
 _symmetry_equiv_pos_site_id
 _symmetry_equiv_pos_as_xyz
  1  'x, y, z'
loop_
 _atom_site_type_symbol
 _atom_site_label
 _atom_site_symmetry_multiplicity
 _atom_site_fract_x
 _atom_site_fract_y
 _atom_site_fract_z
 _atom_site_occupancy
  Na  Na0  1  0.000000  0.000000  0.000000  1
  Mn  Mn1  1  0.000000  0.500000  0.000000  1
  Fe  Fe2  1  0.000000  0.000000  0.500000  1
  Fe  Fe3  1  0.500000  0.500000  0.500000  1
  Sb  Sb4  1  0.670903  0.822172  0.165609  1
  Sb  Sb5  1  0.844931  0.345155  0.191558  1
  Sb  Sb6  1  0.503560  0.834162  0.656035  1
  Sb  Sb7  1  0.837795  0.670606  0.508576  1
  Sb  Sb8  1  0.496440  0.165838  0.343965  1
  Sb  Sb9  1  0.155069  0.654845  0.808442  1
  Sb  Sb10  1  0.820585  0.150572  0.653512  1
  Sb  Sb11  1  0.179415  0.849428  0.346488  1
  Sb  Sb12  1  0.162205  0.329394  0.491424  1
  Sb  Sb13  1  0.654083  0.504439  0.833431  1
  Sb  Sb14  1  0.345917  0.495561  0.166569  1
  Sb  Sb15  1  0.329097  0.177828  0.834391  1
  Rh  Rh16  1  0.500000  0.000000  0.000000  1
