# generated using pymatgen
data_TmLu11(CoTc)2
_symmetry_space_group_name_H-M   'P 1'
_cell_length_a   6.12418211
_cell_length_b   7.14457853
_cell_length_c   8.90407500
_cell_angle_alpha   90.00000000
_cell_angle_beta   90.00000000
_cell_angle_gamma   90.49225254
_symmetry_Int_Tables_number   1
_chemical_formula_structural   TmLu11(CoTc)2
_chemical_formula_sum   'Tm1 Lu11 Co2 Tc2'
_cell_volume   389.58075209
_cell_formula_units_Z   1
loop_
 _symmetry_equiv_pos_site_id
 _symmetry_equiv_pos_as_xyz
  1  'x, y, z'
loop_
 _atom_site_type_symbol
 _atom_site_label
 _atom_site_symmetry_multiplicity
 _atom_site_fract_x
 _atom_site_fract_y
 _atom_site_fract_z
 _atom_site_occupancy
  Tm  Tm0  1  0.858387  0.537194  0.250000  1
  Lu  Lu1  1  0.329254  0.674195  0.066032  1
  Lu  Lu2  1  0.168311  0.177801  0.438851  1
  Lu  Lu3  1  0.671068  0.325762  0.566488  1
  Lu  Lu4  1  0.832142  0.822437  0.938664  1
  Lu  Lu5  1  0.671068  0.325762  0.933512  1
  Lu  Lu6  1  0.832142  0.822437  0.561336  1
  Lu  Lu7  1  0.329254  0.674195  0.433968  1
  Lu  Lu8  1  0.168311  0.177801  0.061149  1
  Lu  Lu9  1  0.623408  0.046772  0.250000  1
  Lu  Lu10  1  0.142151  0.462199  0.750000  1
  Lu  Lu11  1  0.376036  0.953036  0.750000  1
  Co  Co12  1  0.459364  0.385916  0.250000  1
  Co  Co13  1  0.538881  0.614147  0.750000  1
  Tc  Tc14  1  0.037046  0.887096  0.250000  1
  Tc  Tc15  1  0.963178  0.113253  0.750000  1
