# generated using pymatgen
data_Si2B6Pb3O16
_symmetry_space_group_name_H-M   'P 1'
_cell_length_a   5.01632125
_cell_length_b   7.51705098
_cell_length_c   8.48287548
_cell_angle_alpha   102.26000902
_cell_angle_beta   101.98460567
_cell_angle_gamma   88.43503260
_symmetry_Int_Tables_number   1
_chemical_formula_structural   Si2B6Pb3O16
_chemical_formula_sum   'Si2 B6 Pb3 O16'
_cell_volume   305.71655714
_cell_formula_units_Z   1
loop_
 _symmetry_equiv_pos_site_id
 _symmetry_equiv_pos_as_xyz
  1  'x, y, z'
loop_
 _atom_site_type_symbol
 _atom_site_label
 _atom_site_symmetry_multiplicity
 _atom_site_fract_x
 _atom_site_fract_y
 _atom_site_fract_z
 _atom_site_occupancy
  Si  Si0  1  0.787180  0.185962  0.942545  1
  Si  Si1  1  0.212820  0.814038  0.057455  1
  B  B2  1  0.217979  0.249878  0.802645  1
  B  B3  1  0.782021  0.750122  0.197355  1
  B  B4  1  0.030539  0.693020  0.470418  1
  B  B5  1  0.969461  0.306980  0.529582  1
  B  B6  1  0.964824  0.084738  0.247230  1
  B  B7  1  0.035176  0.915262  0.752770  1
  Pb  Pb8  1  0.500000  0.000000  0.500000  1
  Pb  Pb9  1  0.420976  0.422457  0.255962  1
  Pb  Pb10  1  0.579024  0.577543  0.744038  1
  O  O11  1  0.779799  0.180885  0.133790  1
  O  O12  1  0.220201  0.819115  0.866210  1
  O  O13  1  0.854806  0.624483  0.318141  1
  O  O14  1  0.145194  0.375517  0.681859  1
  O  O15  1  0.059609  0.295605  0.932849  1
  O  O16  1  0.940391  0.704395  0.067151  1
  O  O17  1  0.088718  0.218238  0.401553  1
  O  O18  1  0.911282  0.781762  0.598447  1
  O  O19  1  0.305474  0.669702  0.488467  1
  O  O20  1  0.694526  0.330298  0.511533  1
  O  O21  1  0.486938  0.705678  0.124824  1
  O  O22  1  0.513062  0.294322  0.875176  1
  O  O23  1  0.171716  0.061622  0.709029  1
  O  O24  1  0.828284  0.938378  0.290971  1
  O  O25  1  0.207120  0.016813  0.177445  1
  O  O26  1  0.792880  0.983187  0.822555  1
