# generated using pymatgen
data_CeDy3Te4
_symmetry_space_group_name_H-M   'P 1'
_cell_length_a   4.27515500
_cell_length_b   4.27515626
_cell_length_c   15.18702400
_cell_angle_alpha   90.00000000
_cell_angle_beta   90.00000000
_cell_angle_gamma   119.99999800
_symmetry_Int_Tables_number   1
_chemical_formula_structural   CeDy3Te4
_chemical_formula_sum   'Ce1 Dy3 Te4'
_cell_volume   240.38489683
_cell_formula_units_Z   1
loop_
 _symmetry_equiv_pos_site_id
 _symmetry_equiv_pos_as_xyz
  1  'x, y, z'
loop_
 _atom_site_type_symbol
 _atom_site_label
 _atom_site_symmetry_multiplicity
 _atom_site_fract_x
 _atom_site_fract_y
 _atom_site_fract_z
 _atom_site_occupancy
  Ce  Ce0  1  0.333333  0.666667  0.619099  1
  Dy  Dy1  1  0.333333  0.666667  0.885485  1
  Dy  Dy2  1  0.666667  0.333333  0.118865  1
  Dy  Dy3  1  0.666667  0.333333  0.376575  1
  Te  Te4  1  0.333333  0.666667  0.248025  1
  Te  Te5  1  0.666667  0.333333  0.758282  1
  Te  Te6  1  0.000000  0.000000  0.491429  1
  Te  Te7  1  0.000000  0.000000  0.002240  1
