# generated using pymatgen
data_Y2TmTh11Ru6
_symmetry_space_group_name_H-M   'P 1'
_cell_length_a   9.81907261
_cell_length_b   9.90284981
_cell_length_c   6.40944581
_cell_angle_alpha   90.22736907
_cell_angle_beta   89.88961742
_cell_angle_gamma   120.43502440
_symmetry_Int_Tables_number   1
_chemical_formula_structural   Y2TmTh11Ru6
_chemical_formula_sum   'Y2 Tm1 Th11 Ru6'
_cell_volume   537.35073064
_cell_formula_units_Z   1
loop_
 _symmetry_equiv_pos_site_id
 _symmetry_equiv_pos_as_xyz
  1  'x, y, z'
loop_
 _atom_site_type_symbol
 _atom_site_label
 _atom_site_symmetry_multiplicity
 _atom_site_fract_x
 _atom_site_fract_y
 _atom_site_fract_z
 _atom_site_occupancy
  Y  Y0  1  0.074406  0.535761  0.298878  1
  Y  Y1  1  0.926426  0.462864  0.798131  1
  Tm  Tm2  1  0.460187  0.536973  0.297498  1
  Th  Th3  1  0.249741  0.126742  0.510408  1
  Th  Th4  1  0.542153  0.082873  0.796429  1
  Th  Th5  1  0.747360  0.873409  0.013589  1
  Th  Th6  1  0.665752  0.333391  0.278332  1
  Th  Th7  1  0.125174  0.871168  0.009148  1
  Th  Th8  1  0.459002  0.916123  0.295963  1
  Th  Th9  1  0.539056  0.464257  0.799435  1
  Th  Th10  1  0.876430  0.128259  0.511272  1
  Th  Th11  1  0.124346  0.252039  0.014551  1
  Th  Th12  1  0.873865  0.748572  0.508767  1
  Th  Th13  1  0.334284  0.665807  0.773577  1
  Ru  Ru14  1  0.810924  0.631573  0.048613  1
  Ru  Ru15  1  0.813951  0.180472  0.046409  1
  Ru  Ru16  1  0.631134  0.814626  0.544283  1
  Ru  Ru17  1  0.370541  0.188384  0.042262  1
  Ru  Ru18  1  0.186159  0.365826  0.552518  1
  Ru  Ru19  1  0.189112  0.820880  0.543931  1
