# generated using pymatgen
data_SrDySn5Pt3
_symmetry_space_group_name_H-M   'P 1'
_cell_length_a   13.64792300
_cell_length_b   13.64792214
_cell_length_c   7.47951600
_cell_angle_alpha   90.00000000
_cell_angle_beta   90.00000000
_cell_angle_gamma   160.81598661
_symmetry_Int_Tables_number   1
_chemical_formula_structural   SrDySn5Pt3
_chemical_formula_sum   'Sr2 Dy2 Sn10 Pt6'
_cell_volume   457.80264516
_cell_formula_units_Z   2
loop_
 _symmetry_equiv_pos_site_id
 _symmetry_equiv_pos_as_xyz
  1  'x, y, z'
loop_
 _atom_site_type_symbol
 _atom_site_label
 _atom_site_symmetry_multiplicity
 _atom_site_fract_x
 _atom_site_fract_y
 _atom_site_fract_z
 _atom_site_occupancy
  Sr  Sr0  1  0.172896  0.827104  0.753532  1
  Sr  Sr1  1  0.827104  0.172896  0.253532  1
  Dy  Dy2  1  0.477494  0.522506  0.738954  1
  Dy  Dy3  1  0.522506  0.477494  0.238954  1
  Sn  Sn4  1  0.881092  0.118908  0.734550  1
  Sn  Sn5  1  0.118908  0.881092  0.234550  1
  Sn  Sn6  1  0.702101  0.297899  0.052286  1
  Sn  Sn7  1  0.297899  0.702101  0.552286  1
  Sn  Sn8  1  0.596728  0.403272  0.608297  1
  Sn  Sn9  1  0.403272  0.596728  0.108297  1
  Sn  Sn10  1  0.953727  0.046273  0.394433  1
  Sn  Sn11  1  0.046273  0.953727  0.894433  1
  Sn  Sn12  1  0.289275  0.710725  0.975940  1
  Sn  Sn13  1  0.710725  0.289275  0.475940  1
  Pt  Pt14  1  0.049212  0.950788  0.514546  1
  Pt  Pt15  1  0.950788  0.049212  0.014546  1
  Pt  Pt16  1  0.777728  0.222272  0.770091  1
  Pt  Pt17  1  0.222272  0.777728  0.270091  1
  Pt  Pt18  1  0.399043  0.600957  0.485371  1
  Pt  Pt19  1  0.600957  0.399043  0.985371  1
