# generated using pymatgen
data_Li6Zn11GePt6
_symmetry_space_group_name_H-M   'P 1'
_cell_length_a   4.36368700
_cell_length_b   5.93078400
_cell_length_c   13.23378300
_cell_angle_alpha   90.00000000
_cell_angle_beta   89.99868541
_cell_angle_gamma   90.00000000
_symmetry_Int_Tables_number   1
_chemical_formula_structural   Li6Zn11GePt6
_chemical_formula_sum   'Li6 Zn11 Ge1 Pt6'
_cell_volume   342.49142940
_cell_formula_units_Z   1
loop_
 _symmetry_equiv_pos_site_id
 _symmetry_equiv_pos_as_xyz
  1  'x, y, z'
loop_
 _atom_site_type_symbol
 _atom_site_label
 _atom_site_symmetry_multiplicity
 _atom_site_fract_x
 _atom_site_fract_y
 _atom_site_fract_z
 _atom_site_occupancy
  Li  Li0  1  0.000000  0.505261  0.000000  1
  Li  Li1  1  0.499889  0.997092  0.168458  1
  Li  Li2  1  0.999842  0.501457  0.334244  1
  Li  Li3  1  0.500001  0.998577  0.500000  1
  Li  Li4  1  0.000158  0.501457  0.665756  1
  Li  Li5  1  0.500113  0.997092  0.831542  1
  Zn  Zn6  1  0.500001  0.755127  0.000000  1
  Zn  Zn7  1  0.999883  0.244954  0.172675  1
  Zn  Zn8  1  0.999873  0.754192  0.166927  1
  Zn  Zn9  1  0.499840  0.253476  0.333559  1
  Zn  Zn10  1  0.499843  0.744431  0.331002  1
  Zn  Zn11  1  0.000000  0.245282  0.500000  1
  Zn  Zn12  1  0.000000  0.753765  0.500000  1
  Zn  Zn13  1  0.500159  0.253476  0.666441  1
  Zn  Zn14  1  0.500156  0.744431  0.668998  1
  Zn  Zn15  1  0.000117  0.244954  0.827324  1
  Zn  Zn16  1  0.000127  0.754192  0.833072  1
  Ge  Ge17  1  0.500001  0.252215  0.000000  1
  Pt  Pt18  1  0.000000  0.015722  0.000000  1
  Pt  Pt19  1  0.499869  0.493194  0.162235  1
  Pt  Pt20  1  0.999844  0.998193  0.334775  1
  Pt  Pt21  1  0.500001  0.500071  0.500000  1
  Pt  Pt22  1  0.000155  0.998193  0.665225  1
  Pt  Pt23  1  0.500128  0.493194  0.837765  1
