# generated using pymatgen
data_PrHo2(P2Rh3)3
_symmetry_space_group_name_H-M   'P 1'
_cell_length_a   3.94338400
_cell_length_b   11.21230600
_cell_length_c   12.84333600
_cell_angle_alpha   90.00000000
_cell_angle_beta   90.00000000
_cell_angle_gamma   90.00000000
_symmetry_Int_Tables_number   1
_chemical_formula_structural   PrHo2(P2Rh3)3
_chemical_formula_sum   'Pr2 Ho4 P12 Rh18'
_cell_volume   567.86075592
_cell_formula_units_Z   2
loop_
 _symmetry_equiv_pos_site_id
 _symmetry_equiv_pos_as_xyz
  1  'x, y, z'
loop_
 _atom_site_type_symbol
 _atom_site_label
 _atom_site_symmetry_multiplicity
 _atom_site_fract_x
 _atom_site_fract_y
 _atom_site_fract_z
 _atom_site_occupancy
  Pr  Pr0  1  0.000000  0.500000  0.522376  1
  Pr  Pr1  1  0.500000  0.000000  0.477624  1
  Ho  Ho2  1  0.500000  0.814011  0.204677  1
  Ho  Ho3  1  0.500000  0.185989  0.204677  1
  Ho  Ho4  1  0.000000  0.685989  0.795323  1
  Ho  Ho5  1  0.000000  0.314011  0.795323  1
  P  P6  1  0.500000  0.313005  0.619840  1
  P  P7  1  0.500000  0.686995  0.619840  1
  P  P8  1  0.000000  0.186995  0.380160  1
  P  P9  1  0.000000  0.813005  0.380160  1
  P  P10  1  0.500000  0.500000  0.878931  1
  P  P11  1  0.000000  0.000000  0.121069  1
  P  P12  1  0.500000  0.846636  0.893419  1
  P  P13  1  0.500000  0.153364  0.893419  1
  P  P14  1  0.000000  0.653364  0.106581  1
  P  P15  1  0.000000  0.346636  0.106581  1
  P  P16  1  0.500000  0.500000  0.348357  1
  P  P17  1  0.000000  0.000000  0.651643  1
  Rh  Rh18  1  0.000000  0.500000  0.978003  1
  Rh  Rh19  1  0.500000  0.000000  0.021997  1
  Rh  Rh20  1  0.500000  0.293381  0.429529  1
  Rh  Rh21  1  0.500000  0.706619  0.429529  1
  Rh  Rh22  1  0.000000  0.206619  0.570471  1
  Rh  Rh23  1  0.000000  0.793381  0.570471  1
  Rh  Rh24  1  0.500000  0.872530  0.712465  1
  Rh  Rh25  1  0.500000  0.127470  0.712465  1
  Rh  Rh26  1  0.000000  0.627470  0.287535  1
  Rh  Rh27  1  0.000000  0.372530  0.287535  1
  Rh  Rh28  1  0.500000  0.334130  0.993551  1
  Rh  Rh29  1  0.500000  0.665870  0.993551  1
  Rh  Rh30  1  0.000000  0.165870  0.006449  1
  Rh  Rh31  1  0.000000  0.834130  0.006449  1
  Rh  Rh32  1  0.500000  0.500000  0.169007  1
  Rh  Rh33  1  0.000000  0.000000  0.830993  1
  Rh  Rh34  1  0.500000  0.500000  0.704188  1
  Rh  Rh35  1  0.000000  0.000000  0.295812  1
