# generated using pymatgen
data_Tb2Mo3P7Ir2Rh7
_symmetry_space_group_name_H-M   'P 1'
_cell_length_a   3.95634068
_cell_length_b   9.54014414
_cell_length_c   9.52083300
_cell_angle_alpha   119.85357849
_cell_angle_beta   90.00551112
_cell_angle_gamma   89.99309618
_symmetry_Int_Tables_number   1
_chemical_formula_structural   Tb2Mo3P7Ir2Rh7
_chemical_formula_sum   'Tb2 Mo3 P7 Ir2 Rh7'
_cell_volume   311.66862186
_cell_formula_units_Z   1
loop_
 _symmetry_equiv_pos_site_id
 _symmetry_equiv_pos_as_xyz
  1  'x, y, z'
loop_
 _atom_site_type_symbol
 _atom_site_label
 _atom_site_symmetry_multiplicity
 _atom_site_fract_x
 _atom_site_fract_y
 _atom_site_fract_z
 _atom_site_occupancy
  Tb  Tb0  1  0.261869  0.666642  0.333317  1
  Tb  Tb1  1  0.761928  0.333205  0.666509  1
  Mo  Mo2  1  0.761910  0.090971  0.871027  1
  Mo  Mo3  1  0.761942  0.128339  0.221088  1
  Mo  Mo4  1  0.761953  0.778115  0.908774  1
  P  P5  1  0.261928  0.003089  0.001224  1
  P  P6  1  0.761905  0.881294  0.594805  1
  P  P7  1  0.761900  0.405046  0.286833  1
  P  P8  1  0.761853  0.711906  0.118913  1
  P  P9  1  0.261917  0.118682  0.412785  1
  P  P10  1  0.261917  0.586021  0.703801  1
  P  P11  1  0.261862  0.295717  0.882125  1
  Ir  Ir12  1  0.261863  0.885889  0.160152  1
  Ir  Ir13  1  0.261905  0.840349  0.726467  1
  Rh  Rh14  1  0.261909  0.276287  0.114927  1
  Rh  Rh15  1  0.761925  0.611658  0.557656  1
  Rh  Rh16  1  0.761880  0.441655  0.052914  1
  Rh  Rh17  1  0.761904  0.943916  0.388206  1
  Rh  Rh18  1  0.261910  0.370075  0.437647  1
  Rh  Rh19  1  0.261896  0.561571  0.930571  1
  Rh  Rh20  1  0.261924  0.069573  0.630258  1
