# generated using pymatgen
data_TbSmNi2(SnH)2
_symmetry_space_group_name_H-M   'P 1'
_cell_length_a   4.32520100
_cell_length_b   7.14923535
_cell_length_c   8.33733457
_cell_angle_alpha   90.07043919
_cell_angle_beta   90.00000000
_cell_angle_gamma   90.00000000
_symmetry_Int_Tables_number   1
_chemical_formula_structural   TbSmNi2(SnH)2
_chemical_formula_sum   'Tb2 Sm2 Ni4 Sn4 H4'
_cell_volume   257.80586349
_cell_formula_units_Z   2
loop_
 _symmetry_equiv_pos_site_id
 _symmetry_equiv_pos_as_xyz
  1  'x, y, z'
loop_
 _atom_site_type_symbol
 _atom_site_label
 _atom_site_symmetry_multiplicity
 _atom_site_fract_x
 _atom_site_fract_y
 _atom_site_fract_z
 _atom_site_occupancy
  Tb  Tb0  1  0.750000  0.015969  0.685894  1
  Tb  Tb1  1  0.250000  0.984031  0.314106  1
  Sm  Sm2  1  0.250000  0.483836  0.187923  1
  Sm  Sm3  1  0.750000  0.516164  0.812077  1
  Ni  Ni4  1  0.750000  0.776548  0.107639  1
  Ni  Ni5  1  0.250000  0.223452  0.892361  1
  Ni  Ni6  1  0.250000  0.728784  0.604092  1
  Ni  Ni7  1  0.750000  0.271216  0.395908  1
  Sn  Sn8  1  0.750000  0.658511  0.431203  1
  Sn  Sn9  1  0.250000  0.341489  0.568797  1
  Sn  Sn10  1  0.250000  0.843931  0.931022  1
  Sn  Sn11  1  0.750000  0.156069  0.068978  1
  H  H12  1  0.250000  0.444833  0.918916  1
  H  H13  1  0.750000  0.555167  0.081084  1
  H  H14  1  0.750000  0.050213  0.420513  1
  H  H15  1  0.250000  0.949787  0.579487  1
