# generated using pymatgen
data_Ac2RhO6
_symmetry_space_group_name_H-M   'P 1'
_cell_length_a   5.55918900
_cell_length_b   9.54806400
_cell_length_c   10.49626900
_cell_angle_alpha   90.00000000
_cell_angle_beta   90.00000000
_cell_angle_gamma   90.00000000
_symmetry_Int_Tables_number   1
_chemical_formula_structural   Ac2RhO6
_chemical_formula_sum   'Ac8 Rh4 O24'
_cell_volume   557.13663020
_cell_formula_units_Z   4
loop_
 _symmetry_equiv_pos_site_id
 _symmetry_equiv_pos_as_xyz
  1  'x, y, z'
loop_
 _atom_site_type_symbol
 _atom_site_label
 _atom_site_symmetry_multiplicity
 _atom_site_fract_x
 _atom_site_fract_y
 _atom_site_fract_z
 _atom_site_occupancy
  Ac  Ac0  1  0.537698  0.104651  0.953356  1
  Ac  Ac1  1  0.037698  0.395349  0.046644  1
  Ac  Ac2  1  0.462302  0.604651  0.546644  1
  Ac  Ac3  1  0.962302  0.895349  0.453356  1
  Ac  Ac4  1  0.517157  0.219524  0.359619  1
  Ac  Ac5  1  0.017157  0.280476  0.640381  1
  Ac  Ac6  1  0.482843  0.719524  0.140381  1
  Ac  Ac7  1  0.982843  0.780476  0.859619  1
  Rh  Rh8  1  0.450718  0.996308  0.631724  1
  Rh  Rh9  1  0.950718  0.503692  0.368276  1
  Rh  Rh10  1  0.549282  0.496308  0.868276  1
  Rh  Rh11  1  0.049282  0.003692  0.131724  1
  O  O12  1  0.306065  0.138251  0.167934  1
  O  O13  1  0.806065  0.361749  0.832066  1
  O  O14  1  0.693935  0.638251  0.332066  1
  O  O15  1  0.193935  0.861749  0.667934  1
  O  O16  1  0.715240  0.108944  0.554983  1
  O  O17  1  0.215240  0.391056  0.445017  1
  O  O18  1  0.284760  0.608944  0.945017  1
  O  O19  1  0.784760  0.891056  0.054983  1
  O  O20  1  0.671857  0.633736  0.749707  1
  O  O21  1  0.171857  0.866264  0.250293  1
  O  O22  1  0.328143  0.133736  0.750293  1
  O  O23  1  0.828143  0.366264  0.249707  1
  O  O24  1  0.666701  0.937065  0.763392  1
  O  O25  1  0.166701  0.562935  0.236608  1
  O  O26  1  0.333299  0.437065  0.736608  1
  O  O27  1  0.833299  0.062935  0.263392  1
  O  O28  1  0.232493  0.091719  0.506015  1
  O  O29  1  0.732493  0.408281  0.493985  1
  O  O30  1  0.767507  0.591719  0.993985  1
  O  O31  1  0.267507  0.908281  0.006015  1
  O  O32  1  0.030177  0.639543  0.502804  1
  O  O33  1  0.530177  0.860457  0.497196  1
  O  O34  1  0.969823  0.139543  0.997196  1
  O  O35  1  0.469823  0.360457  0.002804  1
