# generated using pymatgen
data_Pr16MgCd2AgIr4
_symmetry_space_group_name_H-M   'P 1'
_cell_length_a   10.03440362
_cell_length_b   10.03440353
_cell_length_c   10.01409022
_cell_angle_alpha   60.14848628
_cell_angle_beta   60.14849418
_cell_angle_gamma   60.06535302
_symmetry_Int_Tables_number   1
_chemical_formula_structural   Pr16MgCd2AgIr4
_chemical_formula_sum   'Pr16 Mg1 Cd2 Ag1 Ir4'
_cell_volume   714.93364392
_cell_formula_units_Z   1
loop_
 _symmetry_equiv_pos_site_id
 _symmetry_equiv_pos_as_xyz
  1  'x, y, z'
loop_
 _atom_site_type_symbol
 _atom_site_label
 _atom_site_symmetry_multiplicity
 _atom_site_fract_x
 _atom_site_fract_y
 _atom_site_fract_z
 _atom_site_occupancy
  Pr  Pr0  1  0.346954  0.346954  0.347654  1
  Pr  Pr1  1  0.348675  0.348675  0.953354  1
  Pr  Pr2  1  0.347872  0.956060  0.348481  1
  Pr  Pr3  1  0.956060  0.347872  0.348481  1
  Pr  Pr4  1  0.810123  0.189589  0.189685  1
  Pr  Pr5  1  0.190946  0.808199  0.807808  1
  Pr  Pr6  1  0.189589  0.810123  0.189685  1
  Pr  Pr7  1  0.808199  0.190946  0.807808  1
  Pr  Pr8  1  0.191078  0.191078  0.809018  1
  Pr  Pr9  1  0.810242  0.810242  0.188149  1
  Pr  Pr10  1  0.936960  0.561317  0.560672  1
  Pr  Pr11  1  0.560855  0.938841  0.937433  1
  Pr  Pr12  1  0.561317  0.936960  0.560672  1
  Pr  Pr13  1  0.938841  0.560855  0.937433  1
  Pr  Pr14  1  0.561707  0.561707  0.935379  1
  Pr  Pr15  1  0.938751  0.938751  0.560281  1
  Mg  Mg16  1  0.575734  0.575734  0.275494  1
  Cd  Cd17  1  0.580439  0.260928  0.579967  1
  Cd  Cd18  1  0.260928  0.580439  0.579967  1
  Ag  Ag19  1  0.582440  0.582440  0.580386  1
  Ir  Ir20  1  0.141531  0.141531  0.141443  1
  Ir  Ir21  1  0.142188  0.142188  0.576448  1
  Ir  Ir22  1  0.142497  0.576071  0.142150  1
  Ir  Ir23  1  0.576071  0.142497  0.142150  1
