# generated using pymatgen
data_Zr8Ti12Ga15Ge
_symmetry_space_group_name_H-M   'P 1'
_cell_length_a   6.87321686
_cell_length_b   7.04787289
_cell_length_c   13.24476000
_cell_angle_alpha   90.00000000
_cell_angle_beta   90.00000000
_cell_angle_gamma   90.05746174
_symmetry_Int_Tables_number   1
_chemical_formula_structural   Zr8Ti12Ga15Ge
_chemical_formula_sum   'Zr8 Ti12 Ga15 Ge1'
_cell_volume   641.59649737
_cell_formula_units_Z   1
loop_
 _symmetry_equiv_pos_site_id
 _symmetry_equiv_pos_as_xyz
  1  'x, y, z'
loop_
 _atom_site_type_symbol
 _atom_site_label
 _atom_site_symmetry_multiplicity
 _atom_site_fract_x
 _atom_site_fract_y
 _atom_site_fract_z
 _atom_site_occupancy
  Zr  Zr0  1  0.500585  0.673565  0.093921  1
  Zr  Zr1  1  0.999998  0.825680  0.405719  1
  Zr  Zr2  1  0.500008  0.326191  0.593501  1
  Zr  Zr3  1  0.999522  0.172020  0.904280  1
  Zr  Zr4  1  0.500008  0.326191  0.906499  1
  Zr  Zr5  1  0.999522  0.172020  0.595720  1
  Zr  Zr6  1  0.500585  0.673565  0.406079  1
  Zr  Zr7  1  0.999998  0.825680  0.094281  1
  Ti  Ti8  1  0.335580  0.006019  0.250000  1
  Ti  Ti9  1  0.835881  0.493759  0.250000  1
  Ti  Ti10  1  0.665487  0.994120  0.750000  1
  Ti  Ti11  1  0.163586  0.508502  0.750000  1
  Ti  Ti12  1  0.658407  0.171338  0.128180  1
  Ti  Ti13  1  0.159145  0.328100  0.371819  1
  Ti  Ti14  1  0.339526  0.829354  0.629346  1
  Ti  Ti15  1  0.842293  0.672659  0.871386  1
  Ti  Ti16  1  0.339526  0.829354  0.870654  1
  Ti  Ti17  1  0.842293  0.672659  0.628614  1
  Ti  Ti18  1  0.658407  0.171338  0.371820  1
  Ti  Ti19  1  0.159145  0.328100  0.128181  1
  Ga  Ga20  1  0.698202  0.857651  0.250000  1
  Ga  Ga21  1  0.199273  0.642350  0.250000  1
  Ga  Ga22  1  0.304815  0.146645  0.750000  1
  Ga  Ga23  1  0.800475  0.358582  0.750000  1
  Ga  Ga24  1  0.672651  0.959156  0.959942  1
  Ga  Ga25  1  0.173519  0.539645  0.539953  1
  Ga  Ga26  1  0.325679  0.039566  0.460153  1
  Ga  Ga27  1  0.827057  0.459447  0.039519  1
  Ga  Ga28  1  0.325679  0.039566  0.039847  1
  Ga  Ga29  1  0.827057  0.459447  0.460481  1
  Ga  Ga30  1  0.672651  0.959156  0.540058  1
  Ga  Ga31  1  0.173519  0.539645  0.960047  1
  Ga  Ga32  1  0.463664  0.385190  0.250000  1
  Ga  Ga33  1  0.963118  0.114644  0.250000  1
  Ga  Ga34  1  0.536226  0.614680  0.750000  1
  Ge  Ge35  1  0.036914  0.884419  0.750000  1
