# generated using pymatgen
data_Ho4LuBi3C
_symmetry_space_group_name_H-M   'P 1'
_cell_length_a   6.44227400
_cell_length_b   9.10716437
_cell_length_c   9.09643314
_cell_angle_alpha   119.94651139
_cell_angle_beta   89.99918797
_cell_angle_gamma   90.00236283
_symmetry_Int_Tables_number   1
_chemical_formula_structural   Ho4LuBi3C
_chemical_formula_sum   'Ho8 Lu2 Bi6 C2'
_cell_volume   462.44273079
_cell_formula_units_Z   2
loop_
 _symmetry_equiv_pos_site_id
 _symmetry_equiv_pos_as_xyz
  1  'x, y, z'
loop_
 _atom_site_type_symbol
 _atom_site_label
 _atom_site_symmetry_multiplicity
 _atom_site_fract_x
 _atom_site_fract_y
 _atom_site_fract_z
 _atom_site_occupancy
  Ho  Ho0  1  0.499006  0.333354  0.666518  1
  Ho  Ho1  1  0.499016  0.666652  0.333098  1
  Ho  Ho2  1  0.001014  0.666678  0.333094  1
  Ho  Ho3  1  0.001006  0.333354  0.666529  1
  Ho  Ho4  1  0.750044  0.999919  0.209047  1
  Ho  Ho5  1  0.250026  0.792311  0.998941  1
  Ho  Ho6  1  0.250011  0.207745  0.206614  1
  Ho  Ho7  1  0.249953  0.000068  0.790716  1
  Lu  Lu8  1  0.749970  0.200740  0.000227  1
  Lu  Lu9  1  0.749994  0.799191  0.799510  1
  Bi  Bi10  1  0.749971  0.598774  0.998497  1
  Bi  Bi11  1  0.750005  0.401125  0.399637  1
  Bi  Bi12  1  0.749991  0.999981  0.601168  1
  Bi  Bi13  1  0.250014  0.400929  0.000229  1
  Bi  Bi14  1  0.249989  0.599161  0.599365  1
  Bi  Bi15  1  0.250006  0.000033  0.399907  1
  C  C16  1  0.502765  0.000001  0.998459  1
  C  C17  1  0.997222  0.999985  0.998444  1
