# generated using pymatgen
data_K2RbCu3As2
_symmetry_space_group_name_H-M   'P 1'
_cell_length_a   7.68830242
_cell_length_b   7.68830236
_cell_length_c   7.68830200
_cell_angle_alpha   45.33111105
_cell_angle_beta   45.33111153
_cell_angle_gamma   45.33110929
_symmetry_Int_Tables_number   1
_chemical_formula_structural   K2RbCu3As2
_chemical_formula_sum   'K2 Rb1 Cu3 As2'
_cell_volume   209.35557187
_cell_formula_units_Z   1
loop_
 _symmetry_equiv_pos_site_id
 _symmetry_equiv_pos_as_xyz
  1  'x, y, z'
loop_
 _atom_site_type_symbol
 _atom_site_label
 _atom_site_symmetry_multiplicity
 _atom_site_fract_x
 _atom_site_fract_y
 _atom_site_fract_z
 _atom_site_occupancy
  K  K0  1  0.911627  0.911627  0.911627  1
  K  K1  1  0.088373  0.088373  0.088373  1
  Rb  Rb2  1  0.500000  0.500000  0.500000  1
  Cu  Cu3  1  0.000000  0.500000  0.500000  1
  Cu  Cu4  1  0.500000  0.500000  0.000000  1
  Cu  Cu5  1  0.500000  0.000000  0.500000  1
  As  As6  1  0.254518  0.254518  0.254518  1
  As  As7  1  0.745482  0.745482  0.745482  1
