# generated using pymatgen
data_Zr6Tl4CBr18
_symmetry_space_group_name_H-M   'P 1'
_cell_length_a   10.26017546
_cell_length_b   10.40921140
_cell_length_c   10.50610200
_cell_angle_alpha   118.49964044
_cell_angle_beta   100.09615780
_cell_angle_gamma   103.98847028
_symmetry_Int_Tables_number   1
_chemical_formula_structural   Zr6Tl4CBr18
_chemical_formula_sum   'Zr6 Tl4 C1 Br18'
_cell_volume   899.55250122
_cell_formula_units_Z   1
loop_
 _symmetry_equiv_pos_site_id
 _symmetry_equiv_pos_as_xyz
  1  'x, y, z'
loop_
 _atom_site_type_symbol
 _atom_site_label
 _atom_site_symmetry_multiplicity
 _atom_site_fract_x
 _atom_site_fract_y
 _atom_site_fract_z
 _atom_site_occupancy
  Zr  Zr0  1  0.351141  0.444444  0.772196  1
  Zr  Zr1  1  0.363528  0.625355  0.132099  1
  Zr  Zr2  1  0.644343  0.736662  0.044781  1
  Zr  Zr3  1  0.648859  0.555556  0.227804  1
  Zr  Zr4  1  0.355657  0.263338  0.955219  1
  Zr  Zr5  1  0.636472  0.374645  0.867901  1
  Tl  Tl6  1  0.184020  0.723652  0.562068  1
  Tl  Tl7  1  0.848649  0.962873  0.773831  1
  Tl  Tl8  1  0.151351  0.037127  0.226169  1
  Tl  Tl9  1  0.815980  0.276348  0.437932  1
  C  C10  1  0.500000  0.500000  0.000000  1
  Br  Br11  1  0.825967  0.420597  0.111237  1
  Br  Br12  1  0.515531  0.708056  0.415517  1
  Br  Br13  1  0.173310  0.971648  0.898537  1
  Br  Br14  1  0.174033  0.579403  0.888763  1
  Br  Br15  1  0.835157  0.839628  0.316875  1
  Br  Br16  1  0.503521  0.292213  0.212548  1
  Br  Br17  1  0.800974  0.221033  0.707260  1
  Br  Br18  1  0.164843  0.160372  0.683125  1
  Br  Br19  1  0.508007  0.916330  0.200043  1
  Br  Br20  1  0.822606  0.629646  0.900971  1
  Br  Br21  1  0.199026  0.778967  0.292740  1
  Br  Br22  1  0.161833  0.376690  0.492218  1
  Br  Br23  1  0.496479  0.707787  0.787452  1
  Br  Br24  1  0.826690  0.028352  0.101463  1
  Br  Br25  1  0.484469  0.291944  0.584483  1
  Br  Br26  1  0.177394  0.370354  0.099029  1
  Br  Br27  1  0.838167  0.623310  0.507782  1
  Br  Br28  1  0.491993  0.083670  0.799957  1
