# generated using pymatgen
data_Nd8NpU3Se20
_symmetry_space_group_name_H-M   'P 1'
_cell_length_a   7.88392665
_cell_length_b   8.43340900
_cell_length_c   12.47180117
_cell_angle_alpha   90.00000000
_cell_angle_beta   90.15985980
_cell_angle_gamma   90.00000000
_symmetry_Int_Tables_number   1
_chemical_formula_structural   Nd8NpU3Se20
_chemical_formula_sum   'Nd8 Np1 U3 Se20'
_cell_volume   829.22660252
_cell_formula_units_Z   1
loop_
 _symmetry_equiv_pos_site_id
 _symmetry_equiv_pos_as_xyz
  1  'x, y, z'
loop_
 _atom_site_type_symbol
 _atom_site_label
 _atom_site_symmetry_multiplicity
 _atom_site_fract_x
 _atom_site_fract_y
 _atom_site_fract_z
 _atom_site_occupancy
  Nd  Nd0  1  0.525977  0.499372  0.322088  1
  Nd  Nd1  1  0.973521  0.001732  0.821686  1
  Nd  Nd2  1  0.474084  0.998021  0.677463  1
  Nd  Nd3  1  0.026234  0.502227  0.178927  1
  Nd  Nd4  1  0.474084  0.501979  0.677463  1
  Nd  Nd5  1  0.026234  0.997773  0.178927  1
  Nd  Nd6  1  0.525977  0.000628  0.322088  1
  Nd  Nd7  1  0.973521  0.498268  0.821686  1
  Np  Np8  1  0.069142  0.750000  0.493330  1
  U  U9  1  0.426736  0.750000  0.990621  1
  U  U10  1  0.930365  0.250000  0.507169  1
  U  U11  1  0.572508  0.250000  0.009183  1
  Se  Se12  1  0.833709  0.958640  0.594996  1
  Se  Se13  1  0.665280  0.543967  0.093961  1
  Se  Se14  1  0.166185  0.456392  0.405792  1
  Se  Se15  1  0.334767  0.044199  0.905709  1
  Se  Se16  1  0.166185  0.043608  0.405792  1
  Se  Se17  1  0.334767  0.455801  0.905709  1
  Se  Se18  1  0.833709  0.541360  0.594996  1
  Se  Se19  1  0.665280  0.956033  0.093961  1
  Se  Se20  1  0.830222  0.750000  0.312945  1
  Se  Se21  1  0.668869  0.750000  0.814487  1
  Se  Se22  1  0.168792  0.250000  0.685388  1
  Se  Se23  1  0.331887  0.250000  0.185095  1
  Se  Se24  1  0.456617  0.750000  0.499641  1
  Se  Se25  1  0.044275  0.750000  0.999945  1
  Se  Se26  1  0.545198  0.250000  0.499674  1
  Se  Se27  1  0.955628  0.250000  0.000186  1
  Se  Se28  1  0.194354  0.750000  0.715891  1
  Se  Se29  1  0.306503  0.750000  0.214400  1
  Se  Se30  1  0.806247  0.250000  0.285198  1
  Se  Se31  1  0.693142  0.250000  0.785603  1
