# generated using pymatgen
data_Tm4FeTc3B8
_symmetry_space_group_name_H-M   'P 1'
_cell_length_a   5.87739434
_cell_length_b   5.22600300
_cell_length_c   6.34324973
_cell_angle_alpha   90.00000000
_cell_angle_beta   90.65436125
_cell_angle_gamma   90.00000000
_symmetry_Int_Tables_number   1
_chemical_formula_structural   Tm4FeTc3B8
_chemical_formula_sum   'Tm4 Fe1 Tc3 B8'
_cell_volume   194.82198801
_cell_formula_units_Z   1
loop_
 _symmetry_equiv_pos_site_id
 _symmetry_equiv_pos_as_xyz
  1  'x, y, z'
loop_
 _atom_site_type_symbol
 _atom_site_label
 _atom_site_symmetry_multiplicity
 _atom_site_fract_x
 _atom_site_fract_y
 _atom_site_fract_z
 _atom_site_occupancy
  Tm  Tm0  1  0.013341  0.250000  0.339257  1
  Tm  Tm1  1  0.512312  0.250000  0.163281  1
  Tm  Tm2  1  0.987786  0.750000  0.659862  1
  Tm  Tm3  1  0.489013  0.750000  0.839162  1
  Fe  Fe4  1  0.321178  0.750000  0.314923  1
  Tc  Tc5  1  0.182909  0.250000  0.817002  1
  Tc  Tc6  1  0.680534  0.250000  0.683841  1
  Tc  Tc7  1  0.819268  0.750000  0.187633  1
  B  B8  1  0.365480  0.076855  0.531464  1
  B  B9  1  0.871097  0.424049  0.964586  1
  B  B10  1  0.623305  0.580585  0.460197  1
  B  B11  1  0.136947  0.919112  0.041274  1
  B  B12  1  0.623305  0.919415  0.460197  1
  B  B13  1  0.136947  0.580888  0.041274  1
  B  B14  1  0.365480  0.423145  0.531464  1
  B  B15  1  0.871097  0.075951  0.964586  1
