# generated using pymatgen
data_Nd3Sm3(Os2O9)2
_symmetry_space_group_name_H-M   'P 1'
_cell_length_a   5.61839923
_cell_length_b   6.88274193
_cell_length_c   10.98185315
_cell_angle_alpha   77.22409689
_cell_angle_beta   75.00415971
_cell_angle_gamma   69.28349074
_symmetry_Int_Tables_number   1
_chemical_formula_structural   Nd3Sm3(Os2O9)2
_chemical_formula_sum   'Nd3 Sm3 Os4 O18'
_cell_volume   379.71456330
_cell_formula_units_Z   1
loop_
 _symmetry_equiv_pos_site_id
 _symmetry_equiv_pos_as_xyz
  1  'x, y, z'
loop_
 _atom_site_type_symbol
 _atom_site_label
 _atom_site_symmetry_multiplicity
 _atom_site_fract_x
 _atom_site_fract_y
 _atom_site_fract_z
 _atom_site_occupancy
  Nd  Nd0  1  0.014889  0.210613  0.270958  1
  Nd  Nd1  1  0.985639  0.788209  0.728396  1
  Nd  Nd2  1  0.239526  0.149944  0.885431  1
  Sm  Sm3  1  0.755800  0.854580  0.115138  1
  Sm  Sm4  1  0.291698  0.608831  0.373078  1
  Sm  Sm5  1  0.709126  0.391019  0.626657  1
  Os  Os6  1  0.351116  0.128175  0.568027  1
  Os  Os7  1  0.649525  0.871076  0.430813  1
  Os  Os8  1  0.521941  0.391061  0.091047  1
  Os  Os9  1  0.477596  0.610334  0.910214  1
  O  O10  1  0.064793  0.121082  0.719450  1
  O  O11  1  0.934265  0.876825  0.278799  1
  O  O12  1  0.076466  0.215006  0.474009  1
  O  O13  1  0.924560  0.785358  0.524805  1
  O  O14  1  0.199593  0.487648  0.207065  1
  O  O15  1  0.801988  0.510944  0.793945  1
  O  O16  1  0.290287  0.422390  0.579821  1
  O  O17  1  0.709777  0.576749  0.420162  1
  O  O18  1  0.397247  0.166711  0.074470  1
  O  O19  1  0.604621  0.831466  0.927606  1
  O  O20  1  0.591041  0.078741  0.688256  1
  O  O21  1  0.409956  0.920216  0.310516  1
  O  O22  1  0.603512  0.182485  0.407232  1
  O  O23  1  0.397098  0.817447  0.591557  1
  O  O24  1  0.659771  0.528912  0.180342  1
  O  O25  1  0.341585  0.476418  0.817639  1
  O  O26  1  0.867063  0.187681  0.061035  1
  O  O27  1  0.129520  0.810077  0.943533  1
