# generated using pymatgen
data_Ho16Zn3HgRh4
_symmetry_space_group_name_H-M   'P 1'
_cell_length_a   9.48507893
_cell_length_b   9.47436190
_cell_length_c   9.48507900
_cell_angle_alpha   59.96257069
_cell_angle_beta   59.99999626
_cell_angle_gamma   59.96257395
_symmetry_Int_Tables_number   1
_chemical_formula_structural   Ho16Zn3HgRh4
_chemical_formula_sum   'Ho16 Zn3 Hg1 Rh4'
_cell_volume   602.38055013
_cell_formula_units_Z   1
loop_
 _symmetry_equiv_pos_site_id
 _symmetry_equiv_pos_as_xyz
  1  'x, y, z'
loop_
 _atom_site_type_symbol
 _atom_site_label
 _atom_site_symmetry_multiplicity
 _atom_site_fract_x
 _atom_site_fract_y
 _atom_site_fract_z
 _atom_site_occupancy
  Ho  Ho0  1  0.188921  0.181409  0.814835  1
  Ho  Ho1  1  0.602636  0.603906  0.190822  1
  Ho  Ho2  1  0.439787  0.060436  0.439787  1
  Ho  Ho3  1  0.439604  0.440173  0.060111  1
  Ho  Ho4  1  0.814835  0.181409  0.814835  1
  Ho  Ho5  1  0.185538  0.813816  0.185538  1
  Ho  Ho6  1  0.439787  0.060436  0.059990  1
  Ho  Ho7  1  0.185538  0.813816  0.815108  1
  Ho  Ho8  1  0.060111  0.440173  0.060111  1
  Ho  Ho9  1  0.815108  0.813816  0.185538  1
  Ho  Ho10  1  0.190822  0.603906  0.602636  1
  Ho  Ho11  1  0.060111  0.440173  0.439604  1
  Ho  Ho12  1  0.059990  0.060436  0.439787  1
  Ho  Ho13  1  0.814835  0.181409  0.188921  1
  Ho  Ho14  1  0.604142  0.187573  0.604142  1
  Ho  Ho15  1  0.602636  0.603906  0.602636  1
  Zn  Zn16  1  0.829630  0.832945  0.829630  1
  Zn  Zn17  1  0.829630  0.832945  0.507795  1
  Zn  Zn18  1  0.507795  0.832945  0.829630  1
  Hg  Hg19  1  0.828663  0.514013  0.828663  1
  Rh  Rh20  1  0.393233  0.820302  0.393233  1
  Rh  Rh21  1  0.393857  0.393352  0.393857  1
  Rh  Rh22  1  0.818936  0.393352  0.393857  1
  Rh  Rh23  1  0.393857  0.393352  0.818936  1
