# generated using pymatgen
data_Al2Zn4Pd7Pt3
_symmetry_space_group_name_H-M   'P 1'
_cell_length_a   4.12090100
_cell_length_b   5.44839200
_cell_length_c   10.57401801
_cell_angle_alpha   90.00428529
_cell_angle_beta   90.00000000
_cell_angle_gamma   90.00000000
_symmetry_Int_Tables_number   1
_chemical_formula_structural   Al2Zn4Pd7Pt3
_chemical_formula_sum   'Al2 Zn4 Pd7 Pt3'
_cell_volume   237.41085526
_cell_formula_units_Z   1
loop_
 _symmetry_equiv_pos_site_id
 _symmetry_equiv_pos_as_xyz
  1  'x, y, z'
loop_
 _atom_site_type_symbol
 _atom_site_label
 _atom_site_symmetry_multiplicity
 _atom_site_fract_x
 _atom_site_fract_y
 _atom_site_fract_z
 _atom_site_occupancy
  Al  Al0  1  0.000000  0.999965  0.999955  1
  Al  Al1  1  0.000000  0.500645  0.499891  1
  Zn  Zn2  1  0.500000  0.162620  0.360243  1
  Zn  Zn3  1  0.500000  0.837503  0.639601  1
  Zn  Zn4  1  0.500000  0.662212  0.139845  1
  Zn  Zn5  1  0.500000  0.337495  0.860292  1
  Pd  Pd6  1  0.500000  0.319154  0.607050  1
  Pd  Pd7  1  0.000000  0.000913  0.500034  1
  Pd  Pd8  1  0.000000  0.499783  0.999931  1
  Pd  Pd9  1  0.000000  0.902522  0.235106  1
  Pd  Pd10  1  0.000000  0.098166  0.764677  1
  Pd  Pd11  1  0.000000  0.402249  0.265279  1
  Pd  Pd12  1  0.000000  0.597449  0.734390  1
  Pt  Pt13  1  0.500000  0.180242  0.106613  1
  Pt  Pt14  1  0.500000  0.819264  0.893125  1
  Pt  Pt15  1  0.500000  0.679819  0.393970  1
