# generated using pymatgen
data_La8Lu12Si15P
_symmetry_space_group_name_H-M   'P 1'
_cell_length_a   7.76435279
_cell_length_b   7.71940092
_cell_length_c   14.19403061
_cell_angle_alpha   90.29819904
_cell_angle_beta   89.27314583
_cell_angle_gamma   90.15399385
_symmetry_Int_Tables_number   1
_chemical_formula_structural   La8Lu12Si15P
_chemical_formula_sum   'La8 Lu12 Si15 P1'
_cell_volume   850.65267635
_cell_formula_units_Z   1
loop_
 _symmetry_equiv_pos_site_id
 _symmetry_equiv_pos_as_xyz
  1  'x, y, z'
loop_
 _atom_site_type_symbol
 _atom_site_label
 _atom_site_symmetry_multiplicity
 _atom_site_fract_x
 _atom_site_fract_y
 _atom_site_fract_z
 _atom_site_occupancy
  La  La0  1  0.995141  0.647936  0.040048  1
  La  La1  1  0.008637  0.358137  0.536768  1
  La  La2  1  0.649953  0.992784  0.960831  1
  La  La3  1  0.150839  0.507397  0.787367  1
  La  La4  1  0.847610  0.492633  0.287679  1
  La  La5  1  0.504979  0.150104  0.212355  1
  La  La6  1  0.499543  0.854414  0.712864  1
  La  La7  1  0.347513  0.000239  0.462144  1
  Lu  Lu8  1  0.346136  0.501265  0.380330  1
  Lu  Lu9  1  0.852042  0.003185  0.372883  1
  Lu  Lu10  1  0.995043  0.144667  0.125640  1
  Lu  Lu11  1  0.012111  0.850343  0.619063  1
  Lu  Lu12  1  0.646363  0.505457  0.876076  1
  Lu  Lu13  1  0.501103  0.350716  0.626545  1
  Lu  Lu14  1  0.503799  0.644587  0.124479  1
  Lu  Lu15  1  0.145079  0.995382  0.873843  1
  Lu  Lu16  1  0.674067  0.678994  0.500571  1
  Lu  Lu17  1  0.826453  0.179072  0.748500  1
  Lu  Lu18  1  0.175046  0.820662  0.250478  1
  Lu  Lu19  1  0.321893  0.320877  0.000503  1
  Si  Si20  1  0.941951  0.289017  0.937202  1
  Si  Si21  1  0.714080  0.058469  0.561598  1
  Si  Si22  1  0.209540  0.441538  0.188211  1
  Si  Si23  1  0.796185  0.559316  0.687062  1
  Si  Si24  1  0.442785  0.213574  0.814806  1
  Si  Si25  1  0.551892  0.788726  0.313626  1
  Si  Si26  1  0.290312  0.941173  0.063258  1
  Si  Si27  1  0.858779  0.793083  0.809637  1
  Si  Si28  1  0.143167  0.205185  0.314367  1
  Si  Si29  1  0.792831  0.856137  0.185993  1
  Si  Si30  1  0.312444  0.639016  0.574716  1
  Si  Si31  1  0.706226  0.354546  0.061870  1
  Si  Si32  1  0.641629  0.294884  0.436956  1
  Si  Si33  1  0.355104  0.707589  0.939244  1
  Si  Si34  1  0.203922  0.143523  0.685564  1
  P  P35  1  0.035804  0.715374  0.426923  1
