# generated using pymatgen
data_Er5In4CoPd
_symmetry_space_group_name_H-M   'P 1'
_cell_length_a   3.56590300
_cell_length_b   8.02847099
_cell_length_c   17.98133377
_cell_angle_alpha   90.14088589
_cell_angle_beta   90.00000000
_cell_angle_gamma   90.00000000
_symmetry_Int_Tables_number   1
_chemical_formula_structural   Er5In4CoPd
_chemical_formula_sum   'Er10 In8 Co2 Pd2'
_cell_volume   514.78153099
_cell_formula_units_Z   2
loop_
 _symmetry_equiv_pos_site_id
 _symmetry_equiv_pos_as_xyz
  1  'x, y, z'
loop_
 _atom_site_type_symbol
 _atom_site_label
 _atom_site_symmetry_multiplicity
 _atom_site_fract_x
 _atom_site_fract_y
 _atom_site_fract_z
 _atom_site_occupancy
  Er  Er0  1  0.000000  0.500000  0.500000  1
  Er  Er1  1  0.000000  0.000000  0.000000  1
  Er  Er2  1  0.000000  0.724902  0.275677  1
  Er  Er3  1  0.000000  0.275098  0.724323  1
  Er  Er4  1  0.000000  0.741489  0.780823  1
  Er  Er5  1  0.000000  0.258511  0.219177  1
  Er  Er6  1  0.000000  0.610861  0.088931  1
  Er  Er7  1  0.000000  0.389139  0.911069  1
  Er  Er8  1  0.000000  0.883001  0.584875  1
  Er  Er9  1  0.000000  0.116999  0.415125  1
  In  In10  1  0.500000  0.707917  0.931180  1
  In  In11  1  0.500000  0.292083  0.068820  1
  In  In12  1  0.500000  0.789224  0.430817  1
  In  In13  1  0.500000  0.210776  0.569183  1
  In  In14  1  0.500000  0.576440  0.651327  1
  In  In15  1  0.500000  0.423560  0.348673  1
  In  In16  1  0.500000  0.920556  0.149297  1
  In  In17  1  0.500000  0.079444  0.850703  1
  Co  Co18  1  0.500000  0.518040  0.194485  1
  Co  Co19  1  0.500000  0.481960  0.805515  1
  Pd  Pd20  1  0.500000  0.979031  0.696875  1
  Pd  Pd21  1  0.500000  0.020969  0.303125  1
