# generated using pymatgen
data_Nb12Al8Cr3CuC4
_symmetry_space_group_name_H-M   'P 1'
_cell_length_a   8.30106279
_cell_length_b   8.30106229
_cell_length_c   8.30106282
_cell_angle_alpha   60.11636058
_cell_angle_beta   60.11636296
_cell_angle_gamma   60.11635717
_symmetry_Int_Tables_number   1
_chemical_formula_structural   Nb12Al8Cr3CuC4
_chemical_formula_sum   'Nb12 Al8 Cr3 Cu1 C4'
_cell_volume   405.53605313
_cell_formula_units_Z   1
loop_
 _symmetry_equiv_pos_site_id
 _symmetry_equiv_pos_as_xyz
  1  'x, y, z'
loop_
 _atom_site_type_symbol
 _atom_site_label
 _atom_site_symmetry_multiplicity
 _atom_site_fract_x
 _atom_site_fract_y
 _atom_site_fract_z
 _atom_site_occupancy
  Nb  Nb0  1  0.554800  0.944687  0.554800  1
  Nb  Nb1  1  0.305313  0.695200  0.695200  1
  Nb  Nb2  1  0.683165  0.309519  0.309519  1
  Nb  Nb3  1  0.309519  0.683165  0.309519  1
  Nb  Nb4  1  0.695200  0.695200  0.305313  1
  Nb  Nb5  1  0.309519  0.309519  0.683165  1
  Nb  Nb6  1  0.554800  0.554800  0.944687  1
  Nb  Nb7  1  0.944687  0.554800  0.554800  1
  Nb  Nb8  1  0.566835  0.940481  0.940481  1
  Nb  Nb9  1  0.940481  0.940481  0.566835  1
  Nb  Nb10  1  0.695200  0.305313  0.695200  1
  Nb  Nb11  1  0.940481  0.566835  0.940481  1
  Al  Al12  1  0.918107  0.918107  0.918107  1
  Al  Al13  1  0.996127  0.332981  0.332981  1
  Al  Al14  1  0.332981  0.996127  0.332981  1
  Al  Al15  1  0.332981  0.332981  0.996127  1
  Al  Al16  1  0.917019  0.253873  0.917019  1
  Al  Al17  1  0.917019  0.917019  0.253873  1
  Al  Al18  1  0.253873  0.917019  0.917019  1
  Al  Al19  1  0.331893  0.331893  0.331893  1
  Cr  Cr20  1  0.625000  0.125000  0.125000  1
  Cr  Cr21  1  0.125000  0.625000  0.125000  1
  Cr  Cr22  1  0.125000  0.125000  0.625000  1
  Cu  Cu23  1  0.125000  0.125000  0.125000  1
  C  C24  1  0.625000  0.625000  0.625000  1
  C  C25  1  0.125000  0.625000  0.625000  1
  C  C26  1  0.625000  0.125000  0.625000  1
  C  C27  1  0.625000  0.625000  0.125000  1
