# generated using pymatgen
data_CeSm2(BN2)2
_symmetry_space_group_name_H-M   'P 1'
_cell_length_a   6.40214638
_cell_length_b   6.40214669
_cell_length_c   6.40214649
_cell_angle_alpha   148.18730108
_cell_angle_beta   121.83356746
_cell_angle_gamma   67.83782379
_symmetry_Int_Tables_number   1
_chemical_formula_structural   CeSm2(BN2)2
_chemical_formula_sum   'Ce1 Sm2 B2 N4'
_cell_volume   116.03447349
_cell_formula_units_Z   1
loop_
 _symmetry_equiv_pos_site_id
 _symmetry_equiv_pos_as_xyz
  1  'x, y, z'
loop_
 _atom_site_type_symbol
 _atom_site_label
 _atom_site_symmetry_multiplicity
 _atom_site_fract_x
 _atom_site_fract_y
 _atom_site_fract_z
 _atom_site_occupancy
  Ce  Ce0  1  0.298146  0.798146  0.500000  1
  Sm  Sm1  1  0.698916  0.198916  0.500000  1
  Sm  Sm2  1  0.999866  0.999866  0.000000  1
  B  B3  1  0.358501  0.501053  0.857449  1
  B  B4  1  0.643604  0.501053  0.142551  1
  N  N5  1  0.361166  0.621855  0.739311  1
  N  N6  1  0.882543  0.621855  0.260689  1
  N  N7  1  0.123313  0.378628  0.744683  1
  N  N8  1  0.633945  0.378628  0.255317  1
