# generated using pymatgen
data_Y2Tm5Se8
_symmetry_space_group_name_H-M   'P 1'
_cell_length_a   8.02232507
_cell_length_b   8.01993030
_cell_length_c   8.02232500
_cell_angle_alpha   119.99012476
_cell_angle_beta   89.99247229
_cell_angle_gamma   119.99012188
_symmetry_Int_Tables_number   1
_chemical_formula_structural   Y2Tm5Se8
_chemical_formula_sum   'Y2 Tm5 Se8'
_cell_volume   365.10199535
_cell_formula_units_Z   1
loop_
 _symmetry_equiv_pos_site_id
 _symmetry_equiv_pos_as_xyz
  1  'x, y, z'
loop_
 _atom_site_type_symbol
 _atom_site_label
 _atom_site_symmetry_multiplicity
 _atom_site_fract_x
 _atom_site_fract_y
 _atom_site_fract_z
 _atom_site_occupancy
  Y  Y0  1  0.250004  0.500001  0.749999  1
  Y  Y1  1  0.249995  0.000000  0.750006  1
  Tm  Tm2  1  0.249989  0.000002  0.249989  1
  Tm  Tm3  1  0.249989  0.499975  0.249989  1
  Tm  Tm4  1  0.750005  0.000000  0.249996  1
  Tm  Tm5  1  0.750011  0.999998  0.750011  1
  Tm  Tm6  1  0.750011  0.500024  0.750011  1
  Se  Se7  1  0.997928  0.000000  0.002072  1
  Se  Se8  1  0.502069  0.000000  0.497931  1
  Se  Se9  1  0.991818  0.987892  0.491822  1
  Se  Se10  1  0.991818  0.495748  0.491822  1
  Se  Se11  1  0.506568  0.500001  0.493435  1
  Se  Se12  1  0.993442  0.500001  0.006560  1
  Se  Se13  1  0.508179  0.504254  0.008182  1
  Se  Se14  1  0.508179  0.012107  0.008182  1
