# generated using pymatgen
data_Tb5In2BiTe
_symmetry_space_group_name_H-M   'P 1'
_cell_length_a   8.90986160
_cell_length_b   8.90985968
_cell_length_c   8.19118400
_cell_angle_alpha   89.84265578
_cell_angle_beta   89.84265582
_cell_angle_gamma   125.13309204
_symmetry_Int_Tables_number   1
_chemical_formula_structural   Tb5In2BiTe
_chemical_formula_sum   'Tb10 In4 Bi2 Te2'
_cell_volume   531.78633885
_cell_formula_units_Z   2
loop_
 _symmetry_equiv_pos_site_id
 _symmetry_equiv_pos_as_xyz
  1  'x, y, z'
loop_
 _atom_site_type_symbol
 _atom_site_label
 _atom_site_symmetry_multiplicity
 _atom_site_fract_x
 _atom_site_fract_y
 _atom_site_fract_z
 _atom_site_occupancy
  Tb  Tb0  1  0.035592  0.308565  0.333306  1
  Tb  Tb1  1  0.964408  0.691435  0.666694  1
  Tb  Tb2  1  0.465027  0.198022  0.831891  1
  Tb  Tb3  1  0.801978  0.534973  0.168109  1
  Tb  Tb4  1  0.534973  0.801978  0.168109  1
  Tb  Tb5  1  0.198022  0.465027  0.831891  1
  Tb  Tb6  1  0.691435  0.964408  0.666694  1
  Tb  Tb7  1  0.308565  0.035592  0.333306  1
  Tb  Tb8  1  0.000000  0.000000  0.000000  1
  Tb  Tb9  1  0.500000  0.500000  0.500000  1
  In  In10  1  0.370079  0.370079  0.128353  1
  In  In11  1  0.629921  0.629921  0.871647  1
  In  In12  1  0.127407  0.127407  0.627057  1
  In  In13  1  0.872593  0.872593  0.372943  1
  Bi  Bi14  1  0.794609  0.205391  0.000000  1
  Bi  Bi15  1  0.205391  0.794609  0.000000  1
  Te  Te16  1  0.702091  0.297909  0.500000  1
  Te  Te17  1  0.297909  0.702091  0.500000  1
