# generated using pymatgen
data_Ho3Zn2In3Ru
_symmetry_space_group_name_H-M   'P 1'
_cell_length_a   7.73416700
_cell_length_b   7.73416753
_cell_length_c   3.84982800
_cell_angle_alpha   90.00000000
_cell_angle_beta   90.00000000
_cell_angle_gamma   119.99999346
_symmetry_Int_Tables_number   1
_chemical_formula_structural   Ho3Zn2In3Ru
_chemical_formula_sum   'Ho3 Zn2 In3 Ru1'
_cell_volume   199.43395763
_cell_formula_units_Z   1
loop_
 _symmetry_equiv_pos_site_id
 _symmetry_equiv_pos_as_xyz
  1  'x, y, z'
loop_
 _atom_site_type_symbol
 _atom_site_label
 _atom_site_symmetry_multiplicity
 _atom_site_fract_x
 _atom_site_fract_y
 _atom_site_fract_z
 _atom_site_occupancy
  Ho  Ho0  1  0.582108  0.611872  0.000000  1
  Ho  Ho1  1  0.388128  0.970236  0.000000  1
  Ho  Ho2  1  0.029764  0.417892  0.000000  1
  Zn  Zn3  1  0.000000  0.000000  0.000000  1
  Zn  Zn4  1  0.666667  0.333333  0.500000  1
  In  In5  1  0.996264  0.732738  0.500000  1
  In  In6  1  0.267262  0.263526  0.500000  1
  In  In7  1  0.736474  0.003736  0.500000  1
  Ru  Ru8  1  0.333333  0.666667  0.500000  1
