# generated using pymatgen
data_Yb4TaAl2SbO12
_symmetry_space_group_name_H-M   'P 1'
_cell_length_a   5.33888028
_cell_length_b   5.44606725
_cell_length_c   7.60281387
_cell_angle_alpha   90.19184979
_cell_angle_beta   90.21021128
_cell_angle_gamma   89.91081730
_symmetry_Int_Tables_number   1
_chemical_formula_structural   Yb4TaAl2SbO12
_chemical_formula_sum   'Yb4 Ta1 Al2 Sb1 O12'
_cell_volume   221.05567322
_cell_formula_units_Z   1
loop_
 _symmetry_equiv_pos_site_id
 _symmetry_equiv_pos_as_xyz
  1  'x, y, z'
loop_
 _atom_site_type_symbol
 _atom_site_label
 _atom_site_symmetry_multiplicity
 _atom_site_fract_x
 _atom_site_fract_y
 _atom_site_fract_z
 _atom_site_occupancy
  Yb  Yb0  1  0.509655  0.546637  0.247739  1
  Yb  Yb1  1  0.986144  0.046977  0.249590  1
  Yb  Yb2  1  0.490345  0.453363  0.752261  1
  Yb  Yb3  1  0.013856  0.953023  0.750410  1
  Ta  Ta4  1  0.000000  0.500000  0.000000  1
  Al  Al5  1  0.000000  0.500000  0.500000  1
  Al  Al6  1  0.500000  0.000000  0.000000  1
  Sb  Sb7  1  0.500000  0.000000  0.500000  1
  O  O8  1  0.412274  0.976414  0.245447  1
  O  O9  1  0.077731  0.479563  0.255891  1
  O  O10  1  0.587726  0.023586  0.754553  1
  O  O11  1  0.922269  0.520437  0.744109  1
  O  O12  1  0.785790  0.794996  0.040778  1
  O  O13  1  0.709922  0.296692  0.453542  1
  O  O14  1  0.201241  0.211817  0.546686  1
  O  O15  1  0.297056  0.713852  0.959866  1
  O  O16  1  0.214210  0.205004  0.959222  1
  O  O17  1  0.290078  0.703308  0.546458  1
  O  O18  1  0.798759  0.788183  0.453314  1
  O  O19  1  0.702944  0.286148  0.040134  1
