# generated using pymatgen
data_Mg4CuB4SbRh10
_symmetry_space_group_name_H-M   'P 1'
_cell_length_a   9.49747600
_cell_length_b   2.97259200
_cell_length_c   9.49747600
_cell_angle_alpha   90.00000000
_cell_angle_beta   90.00000000
_cell_angle_gamma   90.00000000
_symmetry_Int_Tables_number   1
_chemical_formula_structural   Mg4CuB4SbRh10
_chemical_formula_sum   'Mg4 Cu1 B4 Sb1 Rh10'
_cell_volume   268.13389332
_cell_formula_units_Z   1
loop_
 _symmetry_equiv_pos_site_id
 _symmetry_equiv_pos_as_xyz
  1  'x, y, z'
loop_
 _atom_site_type_symbol
 _atom_site_label
 _atom_site_symmetry_multiplicity
 _atom_site_fract_x
 _atom_site_fract_y
 _atom_site_fract_z
 _atom_site_occupancy
  Mg  Mg0  1  0.330137  0.000000  0.182338  1
  Mg  Mg1  1  0.817661  0.000000  0.330137  1
  Mg  Mg2  1  0.182338  0.000000  0.669864  1
  Mg  Mg3  1  0.669864  0.000000  0.817661  1
  Cu  Cu4  1  0.499999  0.000000  0.499999  1
  B  B5  1  0.615540  0.000000  0.133216  1
  B  B6  1  0.133216  0.000000  0.384461  1
  B  B7  1  0.866783  0.000000  0.615540  1
  B  B8  1  0.384461  0.000000  0.866783  1
  Sb  Sb9  1  0.000000  0.000000  0.000000  1
  Rh  Rh10  1  0.499999  0.500001  0.000000  1
  Rh  Rh11  1  0.778278  0.500001  0.073717  1
  Rh  Rh12  1  0.073717  0.500001  0.221723  1
  Rh  Rh13  1  0.568980  0.500001  0.284756  1
  Rh  Rh14  1  0.284756  0.500001  0.431020  1
  Rh  Rh15  1  0.000000  0.500001  0.499999  1
  Rh  Rh16  1  0.715244  0.500001  0.568980  1
  Rh  Rh17  1  0.431020  0.500001  0.715244  1
  Rh  Rh18  1  0.926284  0.500001  0.778278  1
  Rh  Rh19  1  0.221723  0.500001  0.926284  1
