# generated using pymatgen
data_Tb20Ir7PtRh4
_symmetry_space_group_name_H-M   'P 1'
_cell_length_a   10.95839642
_cell_length_b   10.95839642
_cell_length_c   6.40280100
_cell_angle_alpha   89.99736851
_cell_angle_beta   89.99736851
_cell_angle_gamma   89.74366819
_symmetry_Int_Tables_number   1
_chemical_formula_structural   Tb20Ir7PtRh4
_chemical_formula_sum   'Tb20 Ir7 Pt1 Rh4'
_cell_volume   768.88195960
_cell_formula_units_Z   1
loop_
 _symmetry_equiv_pos_site_id
 _symmetry_equiv_pos_as_xyz
  1  'x, y, z'
loop_
 _atom_site_type_symbol
 _atom_site_label
 _atom_site_symmetry_multiplicity
 _atom_site_fract_x
 _atom_site_fract_y
 _atom_site_fract_z
 _atom_site_occupancy
  Tb  Tb0  1  0.290498  0.089374  0.380241  1
  Tb  Tb1  1  0.290995  0.910281  0.879446  1
  Tb  Tb2  1  0.707421  0.088063  0.875896  1
  Tb  Tb3  1  0.707887  0.907769  0.380922  1
  Tb  Tb4  1  0.589278  0.790674  0.880360  1
  Tb  Tb5  1  0.586050  0.209819  0.380704  1
  Tb  Tb6  1  0.410421  0.790616  0.380041  1
  Tb  Tb7  1  0.410172  0.209245  0.879824  1
  Tb  Tb8  1  0.209326  0.410722  0.619640  1
  Tb  Tb9  1  0.209384  0.589579  0.119959  1
  Tb  Tb10  1  0.790181  0.413950  0.119296  1
  Tb  Tb11  1  0.790755  0.589828  0.620176  1
  Tb  Tb12  1  0.910626  0.709502  0.119759  1
  Tb  Tb13  1  0.911937  0.292579  0.624104  1
  Tb  Tb14  1  0.089719  0.709005  0.620554  1
  Tb  Tb15  1  0.092231  0.292113  0.119078  1
  Tb  Tb16  1  0.001341  0.998470  0.500538  1
  Tb  Tb17  1  0.001530  0.998659  0.999462  1
  Tb  Tb18  1  0.499704  0.499950  0.999711  1
  Tb  Tb19  1  0.500050  0.500296  0.500289  1
  Ir  Ir20  1  0.845879  0.846851  0.749891  1
  Ir  Ir21  1  0.153149  0.154121  0.750109  1
  Ir  Ir22  1  0.154172  0.845828  0.250000  1
  Ir  Ir23  1  0.655069  0.344931  0.750000  1
  Ir  Ir24  1  0.654285  0.653778  0.249700  1
  Ir  Ir25  1  0.346222  0.345715  0.250300  1
  Ir  Ir26  1  0.345958  0.654042  0.750000  1
  Pt  Pt27  1  0.845411  0.154589  0.250000  1
  Rh  Rh28  1  0.500472  0.000107  0.123763  1
  Rh  Rh29  1  0.500389  0.000405  0.622573  1
  Rh  Rh30  1  0.999595  0.499611  0.877427  1
  Rh  Rh31  1  0.999893  0.499528  0.376237  1
