# generated using pymatgen
data_Ho2Th2Al24PdPt8
_symmetry_space_group_name_H-M   'P 1'
_cell_length_a   7.59035525
_cell_length_b   7.60647530
_cell_length_c   13.19812935
_cell_angle_alpha   84.49091249
_cell_angle_beta   78.92927836
_cell_angle_gamma   59.95204522
_symmetry_Int_Tables_number   1
_chemical_formula_structural   Ho2Th2Al24PdPt8
_chemical_formula_sum   'Ho2 Th2 Al24 Pd1 Pt8'
_cell_volume   647.32225181
_cell_formula_units_Z   1
loop_
 _symmetry_equiv_pos_site_id
 _symmetry_equiv_pos_as_xyz
  1  'x, y, z'
loop_
 _atom_site_type_symbol
 _atom_site_label
 _atom_site_symmetry_multiplicity
 _atom_site_fract_x
 _atom_site_fract_y
 _atom_site_fract_z
 _atom_site_occupancy
  Ho  Ho0  1  0.733630  0.498469  0.806722  1
  Ho  Ho1  1  0.266370  0.501531  0.193278  1
  Th  Th2  1  0.394762  0.168158  0.806804  1
  Th  Th3  1  0.605238  0.831842  0.193196  1
  Al  Al4  1  0.688106  0.830152  0.943780  1
  Al  Al5  1  0.311894  0.169848  0.056220  1
  Al  Al6  1  0.145679  0.832871  0.561491  1
  Al  Al7  1  0.854321  0.167129  0.438509  1
  Al  Al8  1  0.480767  0.167263  0.557627  1
  Al  Al9  1  0.519233  0.832737  0.442373  1
  Al  Al10  1  0.212846  0.168868  0.333127  1
  Al  Al11  1  0.787154  0.831132  0.666873  1
  Al  Al12  1  0.438332  0.510313  0.667350  1
  Al  Al13  1  0.561668  0.489687  0.332650  1
  Al  Al14  1  0.107561  0.160060  0.665646  1
  Al  Al15  1  0.892439  0.839940  0.334354  1
  Al  Al16  1  0.352164  0.502399  0.945970  1
  Al  Al17  1  0.647836  0.497601  0.054030  1
  Al  Al18  1  0.012423  0.167766  0.954301  1
  Al  Al19  1  0.987577  0.832234  0.045699  1
  Al  Al20  1  0.186169  0.500060  0.440996  1
  Al  Al21  1  0.813831  0.499940  0.559004  1
  Al  Al22  1  0.734642  0.167611  0.183536  1
  Al  Al23  1  0.265358  0.832389  0.816464  1
  Al  Al24  1  0.059143  0.634189  0.815044  1
  Al  Al25  1  0.940857  0.365811  0.184956  1
  Al  Al26  1  0.859988  0.040979  0.815879  1
  Al  Al27  1  0.140012  0.959021  0.184121  1
  Pd  Pd28  1  0.000000  0.500000  0.000000  1
  Pt  Pt29  1  0.120498  0.491509  0.638660  1
  Pt  Pt30  1  0.879502  0.508491  0.361340  1
  Pt  Pt31  1  0.656416  0.171134  0.999818  1
  Pt  Pt32  1  0.343584  0.828866  0.000182  1
  Pt  Pt33  1  0.537634  0.166136  0.361241  1
  Pt  Pt34  1  0.462366  0.833864  0.638759  1
  Pt  Pt35  1  0.778253  0.175314  0.637670  1
  Pt  Pt36  1  0.221747  0.824686  0.362330  1
