# generated using pymatgen
data_Tb7Er9(C2Br3)4
_symmetry_space_group_name_H-M   'P 1'
_cell_length_a   3.68709500
_cell_length_b   10.66648876
_cell_length_c   20.47229200
_cell_angle_alpha   90.02156685
_cell_angle_beta   90.00000000
_cell_angle_gamma   90.00000000
_symmetry_Int_Tables_number   1
_chemical_formula_structural   Tb7Er9(C2Br3)4
_chemical_formula_sum   'Tb7 Er9 C8 Br12'
_cell_volume   805.14155868
_cell_formula_units_Z   1
loop_
 _symmetry_equiv_pos_site_id
 _symmetry_equiv_pos_as_xyz
  1  'x, y, z'
loop_
 _atom_site_type_symbol
 _atom_site_label
 _atom_site_symmetry_multiplicity
 _atom_site_fract_x
 _atom_site_fract_y
 _atom_site_fract_z
 _atom_site_occupancy
  Tb  Tb0  1  0.250000  0.867643  0.580265  1
  Tb  Tb1  1  0.750000  0.132480  0.420014  1
  Tb  Tb2  1  0.750000  0.632219  0.079957  1
  Tb  Tb3  1  0.250000  0.367812  0.919196  1
  Tb  Tb4  1  0.250000  0.868370  0.745141  1
  Tb  Tb5  1  0.750000  0.131727  0.254722  1
  Tb  Tb6  1  0.750000  0.631677  0.245140  1
  Er  Er7  1  0.250000  0.368221  0.755797  1
  Er  Er8  1  0.250000  0.864841  0.169965  1
  Er  Er9  1  0.750000  0.135283  0.829624  1
  Er  Er10  1  0.750000  0.634700  0.670188  1
  Er  Er11  1  0.250000  0.365113  0.329906  1
  Er  Er12  1  0.250000  0.898416  0.327579  1
  Er  Er13  1  0.750000  0.101889  0.672366  1
  Er  Er14  1  0.750000  0.601171  0.827412  1
  Er  Er15  1  0.250000  0.398334  0.172242  1
  C  C16  1  0.250000  0.614998  0.750695  1
  C  C17  1  0.750000  0.382283  0.249331  1
  C  C18  1  0.750000  0.882655  0.250560  1
  C  C19  1  0.250000  0.119451  0.749418  1
  C  C20  1  0.250000  0.630639  0.156486  1
  C  C21  1  0.750000  0.369165  0.842166  1
  C  C22  1  0.750000  0.869119  0.656872  1
  C  C23  1  0.250000  0.130737  0.343490  1
  Br  Br24  1  0.250000  0.610575  0.557881  1
  Br  Br25  1  0.750000  0.389093  0.442673  1
  Br  Br26  1  0.750000  0.888872  0.057277  1
  Br  Br27  1  0.250000  0.111532  0.942236  1
  Br  Br28  1  0.250000  0.630719  0.952017  1
  Br  Br29  1  0.750000  0.369208  0.046768  1
  Br  Br30  1  0.750000  0.869383  0.452907  1
  Br  Br31  1  0.250000  0.131300  0.548014  1
  Br  Br32  1  0.250000  0.634071  0.357707  1
  Br  Br33  1  0.750000  0.366202  0.644509  1
  Br  Br34  1  0.750000  0.866123  0.857340  1
  Br  Br35  1  0.250000  0.133979  0.142140  1
