# generated using pymatgen
data_PaCo4C
_symmetry_space_group_name_H-M   'P 1'
_cell_length_a   4.90505802
_cell_length_b   4.90530414
_cell_length_c   13.65584700
_cell_angle_alpha   90.00000000
_cell_angle_beta   90.00000000
_cell_angle_gamma   120.00829309
_symmetry_Int_Tables_number   1
_chemical_formula_structural   PaCo4C
_chemical_formula_sum   'Pa4 Co16 C4'
_cell_volume   284.52672420
_cell_formula_units_Z   4
loop_
 _symmetry_equiv_pos_site_id
 _symmetry_equiv_pos_as_xyz
  1  'x, y, z'
loop_
 _atom_site_type_symbol
 _atom_site_label
 _atom_site_symmetry_multiplicity
 _atom_site_fract_x
 _atom_site_fract_y
 _atom_site_fract_z
 _atom_site_occupancy
  Pa  Pa0  1  0.333332  0.666665  0.749973  1
  Pa  Pa1  1  0.333332  0.666665  0.250027  1
  Pa  Pa2  1  0.333330  0.666665  0.500000  1
  Pa  Pa3  1  0.333336  0.666666  0.000000  1
  Co  Co4  1  0.333332  0.166666  0.599841  1
  Co  Co5  1  0.333333  0.166666  0.099840  1
  Co  Co6  1  0.833331  0.166667  0.599830  1
  Co  Co7  1  0.833334  0.166663  0.099816  1
  Co  Co8  1  0.833330  0.666664  0.599848  1
  Co  Co9  1  0.833337  0.666670  0.099821  1
  Co  Co10  1  0.333332  0.166666  0.400159  1
  Co  Co11  1  0.333333  0.166666  0.900160  1
  Co  Co12  1  0.833331  0.166667  0.400170  1
  Co  Co13  1  0.833334  0.166663  0.900184  1
  Co  Co14  1  0.833330  0.666664  0.400152  1
  Co  Co15  1  0.833337  0.666670  0.900179  1
  Co  Co16  1  0.666672  0.333277  0.749990  1
  Co  Co17  1  0.666672  0.333277  0.250010  1
  Co  Co18  1  0.999999  0.000059  0.749991  1
  Co  Co19  1  0.999999  0.000059  0.250009  1
  C  C20  1  0.666642  0.333336  0.000000  1
  C  C21  1  0.000024  0.999981  0.500000  1
  C  C22  1  0.000030  0.999998  0.000000  1
  C  C23  1  0.666640  0.333352  0.500000  1
