# generated using pymatgen
data_Ca4SiSb3Pt4
_symmetry_space_group_name_H-M   'P 1'
_cell_length_a   4.53896600
_cell_length_b   7.33876531
_cell_length_c   7.88664621
_cell_angle_alpha   90.23030411
_cell_angle_beta   90.00000000
_cell_angle_gamma   90.00000000
_symmetry_Int_Tables_number   1
_chemical_formula_structural   Ca4SiSb3Pt4
_chemical_formula_sum   'Ca4 Si1 Sb3 Pt4'
_cell_volume   262.70526677
_cell_formula_units_Z   1
loop_
 _symmetry_equiv_pos_site_id
 _symmetry_equiv_pos_as_xyz
  1  'x, y, z'
loop_
 _atom_site_type_symbol
 _atom_site_label
 _atom_site_symmetry_multiplicity
 _atom_site_fract_x
 _atom_site_fract_y
 _atom_site_fract_z
 _atom_site_occupancy
  Ca  Ca0  1  0.750000  0.513255  0.802544  1
  Ca  Ca1  1  0.250000  0.984008  0.304608  1
  Ca  Ca2  1  0.750000  0.002713  0.685302  1
  Ca  Ca3  1  0.250000  0.500735  0.200176  1
  Si  Si4  1  0.750000  0.678500  0.416515  1
  Sb  Sb5  1  0.250000  0.814228  0.910609  1
  Sb  Sb6  1  0.250000  0.314218  0.586592  1
  Sb  Sb7  1  0.750000  0.181921  0.089596  1
  Pt  Pt8  1  0.250000  0.699401  0.563928  1
  Pt  Pt9  1  0.250000  0.199039  0.910405  1
  Pt  Pt10  1  0.750000  0.788843  0.123055  1
  Pt  Pt11  1  0.750000  0.323138  0.406669  1
