# generated using pymatgen
data_CePaF7
_symmetry_space_group_name_H-M   'P 1'
_cell_length_a   6.17195800
_cell_length_b   6.57378190
_cell_length_c   8.87319421
_cell_angle_alpha   76.88800954
_cell_angle_beta   90.00000000
_cell_angle_gamma   90.00000000
_symmetry_Int_Tables_number   1
_chemical_formula_structural   CePaF7
_chemical_formula_sum   'Ce2 Pa2 F14'
_cell_volume   350.62697267
_cell_formula_units_Z   2
loop_
 _symmetry_equiv_pos_site_id
 _symmetry_equiv_pos_as_xyz
  1  'x, y, z'
loop_
 _atom_site_type_symbol
 _atom_site_label
 _atom_site_symmetry_multiplicity
 _atom_site_fract_x
 _atom_site_fract_y
 _atom_site_fract_z
 _atom_site_occupancy
  Ce  Ce0  1  0.241884  0.845977  0.183016  1
  Ce  Ce1  1  0.741884  0.154023  0.816984  1
  Pa  Pa2  1  0.749176  0.311311  0.276273  1
  Pa  Pa3  1  0.249176  0.688689  0.723727  1
  F  F4  1  0.480523  0.427418  0.734751  1
  F  F5  1  0.022529  0.951888  0.712842  1
  F  F6  1  0.994876  0.442893  0.745359  1
  F  F7  1  0.037549  0.106935  0.281258  1
  F  F8  1  0.980523  0.572582  0.265249  1
  F  F9  1  0.443618  0.036948  0.981593  1
  F  F10  1  0.943618  0.963052  0.018407  1
  F  F11  1  0.241319  0.742463  0.470321  1
  F  F12  1  0.537549  0.893065  0.718742  1
  F  F13  1  0.522529  0.048112  0.287158  1
  F  F14  1  0.494876  0.557107  0.254641  1
  F  F15  1  0.741319  0.257537  0.529679  1
  F  F16  1  0.748328  0.357832  0.022598  1
  F  F17  1  0.248328  0.642168  0.977402  1
