# generated using pymatgen
data_Dy3Lu3Al24(CoOs3)2
_symmetry_space_group_name_H-M   'P 1'
_cell_length_a   8.73626633
_cell_length_b   8.74653933
_cell_length_c   9.48666300
_cell_angle_alpha   90.00000000
_cell_angle_beta   90.00000000
_cell_angle_gamma   119.89801521
_symmetry_Int_Tables_number   1
_chemical_formula_structural   Dy3Lu3Al24(CoOs3)2
_chemical_formula_sum   'Dy3 Lu3 Al24 Co2 Os6'
_cell_volume   628.42234187
_cell_formula_units_Z   1
loop_
 _symmetry_equiv_pos_site_id
 _symmetry_equiv_pos_as_xyz
  1  'x, y, z'
loop_
 _atom_site_type_symbol
 _atom_site_label
 _atom_site_symmetry_multiplicity
 _atom_site_fract_x
 _atom_site_fract_y
 _atom_site_fract_z
 _atom_site_occupancy
  Dy  Dy0  1  0.387303  0.193415  0.750000  1
  Dy  Dy1  1  0.193720  0.806926  0.250000  1
  Dy  Dy2  1  0.806594  0.193437  0.750000  1
  Lu  Lu3  1  0.196249  0.392545  0.250000  1
  Lu  Lu4  1  0.803755  0.607010  0.750000  1
  Lu  Lu5  1  0.607861  0.804291  0.250000  1
  Al  Al6  1  0.333368  0.666717  0.016424  1
  Al  Al7  1  0.666666  0.333186  0.984552  1
  Al  Al8  1  0.666666  0.333186  0.515448  1
  Al  Al9  1  0.333368  0.666717  0.483576  1
  Al  Al10  1  0.159788  0.319267  0.575653  1
  Al  Al11  1  0.840385  0.681910  0.423281  1
  Al  Al12  1  0.681774  0.840206  0.576111  1
  Al  Al13  1  0.840385  0.681910  0.076719  1
  Al  Al14  1  0.318807  0.160263  0.422397  1
  Al  Al15  1  0.159788  0.319267  0.924347  1
  Al  Al16  1  0.158723  0.839872  0.576991  1
  Al  Al17  1  0.318807  0.160263  0.077603  1
  Al  Al18  1  0.841176  0.159033  0.422052  1
  Al  Al19  1  0.681774  0.840206  0.923889  1
  Al  Al20  1  0.841176  0.159033  0.077948  1
  Al  Al21  1  0.158723  0.839872  0.923009  1
  Al  Al22  1  0.562288  0.123261  0.250000  1
  Al  Al23  1  0.438490  0.876154  0.750000  1
  Al  Al24  1  0.877299  0.438408  0.250000  1
  Al  Al25  1  0.122954  0.561646  0.750000  1
  Al  Al26  1  0.561413  0.439557  0.250000  1
  Al  Al27  1  0.439375  0.561905  0.750000  1
  Al  Al28  1  0.998409  0.002162  0.250000  1
  Al  Al29  1  0.998201  0.995842  0.750000  1
  Co  Co30  1  0.001054  0.000607  0.999815  1
  Co  Co31  1  0.001054  0.000607  0.500185  1
  Os  Os32  1  0.500430  0.999353  0.000695  1
  Os  Os33  1  0.000241  0.500061  0.000061  1
  Os  Os34  1  0.500430  0.999353  0.499305  1
  Os  Os35  1  0.500632  0.501244  0.000664  1
  Os  Os36  1  0.000241  0.500061  0.499939  1
  Os  Os37  1  0.500632  0.501244  0.499336  1
