# generated using pymatgen
data_Ho12CuTc3
_symmetry_space_group_name_H-M   'P 1'
_cell_length_a   6.28578932
_cell_length_b   7.35057301
_cell_length_c   9.15016300
_cell_angle_alpha   90.00000000
_cell_angle_beta   90.00000000
_cell_angle_gamma   90.05591910
_symmetry_Int_Tables_number   1
_chemical_formula_structural   Ho12CuTc3
_chemical_formula_sum   'Ho12 Cu1 Tc3'
_cell_volume   422.77533264
_cell_formula_units_Z   1
loop_
 _symmetry_equiv_pos_site_id
 _symmetry_equiv_pos_as_xyz
  1  'x, y, z'
loop_
 _atom_site_type_symbol
 _atom_site_label
 _atom_site_symmetry_multiplicity
 _atom_site_fract_x
 _atom_site_fract_y
 _atom_site_fract_z
 _atom_site_occupancy
  Ho  Ho0  1  0.328391  0.676532  0.067662  1
  Ho  Ho1  1  0.165353  0.177980  0.436329  1
  Ho  Ho2  1  0.667290  0.317434  0.558629  1
  Ho  Ho3  1  0.838752  0.827462  0.940945  1
  Ho  Ho4  1  0.667290  0.317434  0.941371  1
  Ho  Ho5  1  0.838752  0.827462  0.559055  1
  Ho  Ho6  1  0.328391  0.676532  0.432338  1
  Ho  Ho7  1  0.165353  0.177980  0.063671  1
  Ho  Ho8  1  0.871559  0.542487  0.250000  1
  Ho  Ho9  1  0.624205  0.038934  0.250000  1
  Ho  Ho10  1  0.128696  0.455529  0.750000  1
  Ho  Ho11  1  0.371060  0.966167  0.750000  1
  Cu  Cu12  1  0.546891  0.611700  0.750000  1
  Tc  Tc13  1  0.037075  0.885879  0.250000  1
  Tc  Tc14  1  0.464759  0.387402  0.250000  1
  Tc  Tc15  1  0.956184  0.113083  0.750000  1
