# generated using pymatgen
data_LiMnInPd5
_symmetry_space_group_name_H-M   'P 1'
_cell_length_a   5.51981497
_cell_length_b   5.51981517
_cell_length_c   4.10270400
_cell_angle_alpha   90.00000000
_cell_angle_beta   90.00000000
_cell_angle_gamma   96.25057261
_symmetry_Int_Tables_number   1
_chemical_formula_structural   LiMnInPd5
_chemical_formula_sum   'Li1 Mn1 In1 Pd5'
_cell_volume   124.25954643
_cell_formula_units_Z   1
loop_
 _symmetry_equiv_pos_site_id
 _symmetry_equiv_pos_as_xyz
  1  'x, y, z'
loop_
 _atom_site_type_symbol
 _atom_site_label
 _atom_site_symmetry_multiplicity
 _atom_site_fract_x
 _atom_site_fract_y
 _atom_site_fract_z
 _atom_site_occupancy
  Li  Li0  1  0.997458  0.002542  0.000000  1
  Mn  Mn1  1  0.727119  0.272881  0.500000  1
  In  In2  1  0.269757  0.730243  0.500000  1
  Pd  Pd3  1  0.503515  0.496485  0.000000  1
  Pd  Pd4  1  0.511225  0.007293  0.000000  1
  Pd  Pd5  1  0.992707  0.488775  0.000000  1
  Pd  Pd6  1  0.220908  0.222688  0.500000  1
  Pd  Pd7  1  0.777312  0.779092  0.500000  1
