# generated using pymatgen
data_Pr4YEr5Pb6
_symmetry_space_group_name_H-M   'P 1'
_cell_length_a   9.16581171
_cell_length_b   9.16581292
_cell_length_c   6.70983900
_cell_angle_alpha   90.00000000
_cell_angle_beta   90.00000000
_cell_angle_gamma   119.53738862
_symmetry_Int_Tables_number   1
_chemical_formula_structural   Pr4YEr5Pb6
_chemical_formula_sum   'Pr4 Y1 Er5 Pb6'
_cell_volume   490.44502433
_cell_formula_units_Z   1
loop_
 _symmetry_equiv_pos_site_id
 _symmetry_equiv_pos_as_xyz
  1  'x, y, z'
loop_
 _atom_site_type_symbol
 _atom_site_label
 _atom_site_symmetry_multiplicity
 _atom_site_fract_x
 _atom_site_fract_y
 _atom_site_fract_z
 _atom_site_occupancy
  Pr  Pr0  1  0.238040  0.000972  0.750000  1
  Pr  Pr1  1  0.000972  0.238040  0.750000  1
  Pr  Pr2  1  0.762041  0.998484  0.250000  1
  Pr  Pr3  1  0.998484  0.762041  0.250000  1
  Y  Y4  1  0.244068  0.244068  0.250000  1
  Er  Er5  1  0.666502  0.333289  0.999917  1
  Er  Er6  1  0.333289  0.666502  0.999917  1
  Er  Er7  1  0.333289  0.666502  0.500083  1
  Er  Er8  1  0.666502  0.333289  0.500083  1
  Er  Er9  1  0.757160  0.757160  0.750000  1
  Pb  Pb10  1  0.403611  0.403611  0.750000  1
  Pb  Pb11  1  0.602894  0.995960  0.750000  1
  Pb  Pb12  1  0.995960  0.602894  0.750000  1
  Pb  Pb13  1  0.597091  0.597091  0.250000  1
  Pb  Pb14  1  0.397438  0.002660  0.250000  1
  Pb  Pb15  1  0.002660  0.397438  0.250000  1
