# generated using pymatgen
data_Nd6BAsI6
_symmetry_space_group_name_H-M   'P 1'
_cell_length_a   10.79081885
_cell_length_b   10.79081952
_cell_length_c   10.58101312
_cell_angle_alpha   109.49605238
_cell_angle_beta   109.49605502
_cell_angle_gamma   110.21196576
_symmetry_Int_Tables_number   1
_chemical_formula_structural   Nd6BAsI6
_chemical_formula_sum   'Nd12 B2 As2 I12'
_cell_volume   939.04707418
_cell_formula_units_Z   2
loop_
 _symmetry_equiv_pos_site_id
 _symmetry_equiv_pos_as_xyz
  1  'x, y, z'
loop_
 _atom_site_type_symbol
 _atom_site_label
 _atom_site_symmetry_multiplicity
 _atom_site_fract_x
 _atom_site_fract_y
 _atom_site_fract_z
 _atom_site_occupancy
  Nd  Nd0  1  0.454527  0.488856  0.215230  1
  Nd  Nd1  1  0.773627  0.239296  0.284770  1
  Nd  Nd2  1  0.770500  0.032493  0.491810  1
  Nd  Nd3  1  0.221310  0.459318  0.491810  1
  Nd  Nd4  1  0.260704  0.726373  0.215230  1
  Nd  Nd5  1  0.040682  0.278690  0.008190  1
  Nd  Nd6  1  0.011144  0.045473  0.284770  1
  Nd  Nd7  1  0.467507  0.729500  0.008190  1
  Nd  Nd8  1  0.484606  0.234606  0.469213  1
  Nd  Nd9  1  0.025363  0.474637  0.750000  1
  Nd  Nd10  1  0.265394  0.015394  0.030787  1
  Nd  Nd11  1  0.224637  0.275363  0.750000  1
  B  B12  1  0.000154  0.250154  0.500307  1
  B  B13  1  0.249846  0.499846  0.999693  1
  As  As14  1  0.249027  0.250973  0.250000  1
  As  As15  1  0.500973  0.999027  0.250000  1
  I  I16  1  0.248201  0.758199  0.739712  1
  I  I17  1  0.518488  0.508490  0.760288  1
  I  I18  1  0.985978  0.742231  0.992798  1
  I  I19  1  0.741801  0.251799  0.760288  1
  I  I20  1  0.991510  0.981512  0.739712  1
  I  I21  1  0.249433  0.993181  0.507202  1
  I  I22  1  0.757769  0.514022  0.507202  1
  I  I23  1  0.506819  0.250567  0.992798  1
  I  I24  1  0.758160  0.741840  0.250000  1
  I  I25  1  0.742528  0.992528  0.985057  1
  I  I26  1  0.991840  0.508160  0.250000  1
  I  I27  1  0.507472  0.757472  0.514943  1
