# generated using pymatgen
data_Dy8In2CoPt
_symmetry_space_group_name_H-M   'P 1'
_cell_length_a   9.59203526
_cell_length_b   9.63024864
_cell_length_c   9.63024939
_cell_angle_alpha   60.33927164
_cell_angle_beta   60.13117414
_cell_angle_gamma   60.13117042
_symmetry_Int_Tables_number   1
_chemical_formula_structural   Dy8In2CoPt
_chemical_formula_sum   'Dy16 In4 Co2 Pt2'
_cell_volume   631.88004248
_cell_formula_units_Z   2
loop_
 _symmetry_equiv_pos_site_id
 _symmetry_equiv_pos_as_xyz
  1  'x, y, z'
loop_
 _atom_site_type_symbol
 _atom_site_label
 _atom_site_symmetry_multiplicity
 _atom_site_fract_x
 _atom_site_fract_y
 _atom_site_fract_z
 _atom_site_occupancy
  Dy  Dy0  1  0.149029  0.543154  0.158787  1
  Dy  Dy1  1  0.697275  0.309629  0.681920  1
  Dy  Dy2  1  0.688872  0.311128  0.311128  1
  Dy  Dy3  1  0.936617  0.563383  0.563383  1
  Dy  Dy4  1  0.548191  0.154574  0.154574  1
  Dy  Dy5  1  0.149029  0.158787  0.543154  1
  Dy  Dy6  1  0.937388  0.938740  0.562862  1
  Dy  Dy7  1  0.311177  0.681920  0.309629  1
  Dy  Dy8  1  0.560087  0.939913  0.939913  1
  Dy  Dy9  1  0.561010  0.938740  0.562862  1
  Dy  Dy10  1  0.697275  0.681920  0.309629  1
  Dy  Dy11  1  0.561010  0.562862  0.938740  1
  Dy  Dy12  1  0.937388  0.562862  0.938740  1
  Dy  Dy13  1  0.309048  0.690952  0.690952  1
  Dy  Dy14  1  0.142660  0.154574  0.154574  1
  Dy  Dy15  1  0.311177  0.309629  0.681920  1
  In  In16  1  0.918115  0.247811  0.915960  1
  In  In17  1  0.918606  0.917039  0.917039  1
  In  In18  1  0.918115  0.915960  0.247811  1
  In  In19  1  0.247317  0.917039  0.917039  1
  Co  Co20  1  0.924212  0.358511  0.358511  1
  Co  Co21  1  0.358767  0.358511  0.358511  1
  Pt  Pt22  1  0.358818  0.356311  0.926054  1
  Pt  Pt23  1  0.358818  0.926054  0.356311  1
