# generated using pymatgen
data_Yb7Dy(HoIr2)2
_symmetry_space_group_name_H-M   'P 1'
_cell_length_a   6.52090372
_cell_length_b   7.32971909
_cell_length_c   8.53871667
_cell_angle_alpha   96.76494419
_cell_angle_beta   112.97402914
_cell_angle_gamma   90.43121607
_symmetry_Int_Tables_number   1
_chemical_formula_structural   Yb7Dy(HoIr2)2
_chemical_formula_sum   'Yb7 Dy1 Ho2 Ir4'
_cell_volume   372.49302846
_cell_formula_units_Z   1
loop_
 _symmetry_equiv_pos_site_id
 _symmetry_equiv_pos_as_xyz
  1  'x, y, z'
loop_
 _atom_site_type_symbol
 _atom_site_label
 _atom_site_symmetry_multiplicity
 _atom_site_fract_x
 _atom_site_fract_y
 _atom_site_fract_z
 _atom_site_occupancy
  Yb  Yb0  1  0.799232  0.576685  0.824688  1
  Yb  Yb1  1  0.026626  0.079661  0.823839  1
  Yb  Yb2  1  0.195291  0.419520  0.170776  1
  Yb  Yb3  1  0.640039  0.819726  0.434245  1
  Yb  Yb4  1  0.204818  0.681210  0.564202  1
  Yb  Yb5  1  0.359879  0.179259  0.564694  1
  Yb  Yb6  1  0.799064  0.318209  0.435719  1
  Dy  Dy7  1  0.972918  0.917951  0.166665  1
  Ho  Ho8  1  0.429632  0.749009  0.998956  1
  Ho  Ho9  1  0.564326  0.250974  0.001184  1
  Ir  Ir10  1  0.816786  0.583859  0.212599  1
  Ir  Ir11  1  0.613538  0.927199  0.803333  1
  Ir  Ir12  1  0.188376  0.424179  0.787278  1
  Ir  Ir13  1  0.389476  0.072559  0.211823  1
