# generated using pymatgen
data_PrNdRe17C3
_symmetry_space_group_name_H-M   'P 1'
_cell_length_a   7.06273192
_cell_length_b   7.06273131
_cell_length_c   7.06273046
_cell_angle_alpha   82.85903471
_cell_angle_beta   82.85904047
_cell_angle_gamma   82.85902709
_symmetry_Int_Tables_number   1
_chemical_formula_structural   PrNdRe17C3
_chemical_formula_sum   'Pr1 Nd1 Re17 C3'
_cell_volume   344.73345476
_cell_formula_units_Z   1
loop_
 _symmetry_equiv_pos_site_id
 _symmetry_equiv_pos_as_xyz
  1  'x, y, z'
loop_
 _atom_site_type_symbol
 _atom_site_label
 _atom_site_symmetry_multiplicity
 _atom_site_fract_x
 _atom_site_fract_y
 _atom_site_fract_z
 _atom_site_occupancy
  Pr  Pr0  1  0.650663  0.650663  0.650663  1
  Nd  Nd1  1  0.349192  0.349192  0.349192  1
  Re  Re2  1  0.000074  0.000074  0.499976  1
  Re  Re3  1  0.499976  0.000074  0.000074  1
  Re  Re4  1  0.000074  0.499976  0.000074  1
  Re  Re5  1  0.721101  0.278809  0.000126  1
  Re  Re6  1  0.000126  0.721101  0.278809  1
  Re  Re7  1  0.278809  0.000126  0.721101  1
  Re  Re8  1  0.000126  0.278809  0.721101  1
  Re  Re9  1  0.721101  0.000126  0.278809  1
  Re  Re10  1  0.278809  0.721101  0.000126  1
  Re  Re11  1  0.348375  0.862923  0.348375  1
  Re  Re12  1  0.348375  0.348375  0.862923  1
  Re  Re13  1  0.862923  0.348375  0.348375  1
  Re  Re14  1  0.651440  0.137291  0.651440  1
  Re  Re15  1  0.651440  0.651440  0.137291  1
  Re  Re16  1  0.137291  0.651440  0.651440  1
  Re  Re17  1  0.902634  0.902634  0.902634  1
  Re  Re18  1  0.097434  0.097434  0.097434  1
  C  C19  1  0.499798  0.499798  0.000443  1
  C  C20  1  0.000443  0.499798  0.499798  1
  C  C21  1  0.499798  0.000443  0.499798  1
