# generated using pymatgen
data_YHo3TiPt3F28
_symmetry_space_group_name_H-M   'P 1'
_cell_length_a   5.55660133
_cell_length_b   8.87544466
_cell_length_c   11.97973300
_cell_angle_alpha   62.52735597
_cell_angle_beta   89.92848081
_cell_angle_gamma   89.95151313
_symmetry_Int_Tables_number   1
_chemical_formula_structural   YHo3TiPt3F28
_chemical_formula_sum   'Y1 Ho3 Ti1 Pt3 F28'
_cell_volume   524.18301198
_cell_formula_units_Z   1
loop_
 _symmetry_equiv_pos_site_id
 _symmetry_equiv_pos_as_xyz
  1  'x, y, z'
loop_
 _atom_site_type_symbol
 _atom_site_label
 _atom_site_symmetry_multiplicity
 _atom_site_fract_x
 _atom_site_fract_y
 _atom_site_fract_z
 _atom_site_occupancy
  Y  Y0  1  0.761139  0.814244  0.763983  1
  Ho  Ho1  1  0.258569  0.187892  0.735670  1
  Ho  Ho2  1  0.238406  0.187458  0.233610  1
  Ho  Ho3  1  0.739690  0.816305  0.263144  1
  Ti  Ti4  1  0.756376  0.274112  0.956272  1
  Pt  Pt5  1  0.258974  0.727469  0.542420  1
  Pt  Pt6  1  0.241421  0.727945  0.043352  1
  Pt  Pt7  1  0.740323  0.273445  0.455736  1
  F  F8  1  0.437472  0.701414  0.916845  1
  F  F9  1  0.934348  0.296946  0.584340  1
  F  F10  1  0.552038  0.289206  0.075828  1
  F  F11  1  0.063575  0.703045  0.415059  1
  F  F12  1  0.440037  0.278890  0.542372  1
  F  F13  1  0.941843  0.720415  0.957839  1
  F  F14  1  0.559455  0.722222  0.456178  1
  F  F15  1  0.039623  0.276986  0.046556  1
  F  F16  1  0.773694  0.513311  0.863601  1
  F  F17  1  0.273289  0.477922  0.642129  1
  F  F18  1  0.227474  0.478729  0.142204  1
  F  F19  1  0.726091  0.523085  0.357116  1
  F  F20  1  0.757125  0.035485  0.052910  1
  F  F21  1  0.255574  0.976494  0.449070  1
  F  F22  1  0.245220  0.976977  0.949395  1
  F  F23  1  0.745272  0.024334  0.549085  1
  F  F24  1  0.966244  0.723800  0.636373  1
  F  F25  1  0.488957  0.267944  0.860775  1
  F  F26  1  0.033419  0.274572  0.362745  1
  F  F27  1  0.533609  0.728570  0.135758  1
  F  F28  1  0.050599  0.748301  0.174631  1
  F  F29  1  0.551782  0.254916  0.322712  1
  F  F30  1  0.957724  0.251988  0.834423  1
  F  F31  1  0.448430  0.744150  0.675592  1
  F  F32  1  0.417728  0.971310  0.233224  1
  F  F33  1  0.919137  0.027691  0.269711  1
  F  F34  1  0.580755  0.030631  0.766709  1
  F  F35  1  0.084589  0.971793  0.732634  1
