# generated using pymatgen
data_In14CuPt5
_symmetry_space_group_name_H-M   'P 1'
_cell_length_a   8.29895247
_cell_length_b   8.29893838
_cell_length_c   8.29893713
_cell_angle_alpha   109.63249782
_cell_angle_beta   109.39147171
_cell_angle_gamma   109.39147408
_symmetry_Int_Tables_number   1
_chemical_formula_structural   In14CuPt5
_chemical_formula_sum   'In14 Cu1 Pt5'
_cell_volume   439.98201929
_cell_formula_units_Z   1
loop_
 _symmetry_equiv_pos_site_id
 _symmetry_equiv_pos_as_xyz
  1  'x, y, z'
loop_
 _atom_site_type_symbol
 _atom_site_label
 _atom_site_symmetry_multiplicity
 _atom_site_fract_x
 _atom_site_fract_y
 _atom_site_fract_z
 _atom_site_occupancy
  In  In0  1  0.499420  0.749835  0.249404  1
  In  In1  1  0.499420  0.249404  0.749835  1
  In  In2  1  0.250896  0.500896  0.751633  1
  In  In3  1  0.749088  0.500576  0.250146  1
  In  In4  1  0.749088  0.250146  0.500576  1
  In  In5  1  0.250896  0.751633  0.500896  1
  In  In6  1  0.324044  0.326818  0.326818  1
  In  In7  1  0.673767  0.672621  0.672621  1
  In  In8  1  0.000045  0.998805  0.672466  1
  In  In9  1  0.000045  0.672466  0.998805  1
  In  In10  1  0.999985  0.002922  0.326709  1
  In  In11  1  0.999985  0.326709  0.002922  1
  In  In12  1  0.676298  0.002780  0.002780  1
  In  In13  1  0.326490  0.998847  0.998847  1
  Cu  Cu14  1  0.000326  0.349619  0.349619  1
  Pt  Pt15  1  0.000164  0.648337  0.648337  1
  Pt  Pt16  1  0.344029  0.999430  0.343456  1
  Pt  Pt17  1  0.655992  0.999530  0.655168  1
  Pt  Pt18  1  0.344029  0.343456  0.999430  1
  Pt  Pt19  1  0.655992  0.655168  0.999530  1
