# generated using pymatgen
data_Yb10PtAu5
_symmetry_space_group_name_H-M   'P 1'
_cell_length_a   8.91943049
_cell_length_b   8.91943046
_cell_length_c   8.92841919
_cell_angle_alpha   128.22887022
_cell_angle_beta   128.22886555
_cell_angle_gamma   76.18098297
_symmetry_Int_Tables_number   1
_chemical_formula_structural   Yb10PtAu5
_chemical_formula_sum   'Yb10 Pt1 Au5'
_cell_volume   426.20769919
_cell_formula_units_Z   1
loop_
 _symmetry_equiv_pos_site_id
 _symmetry_equiv_pos_as_xyz
  1  'x, y, z'
loop_
 _atom_site_type_symbol
 _atom_site_label
 _atom_site_symmetry_multiplicity
 _atom_site_fract_x
 _atom_site_fract_y
 _atom_site_fract_z
 _atom_site_occupancy
  Yb  Yb0  1  0.527875  0.021628  0.831023  1
  Yb  Yb1  1  0.311665  0.472945  0.500000  1
  Yb  Yb2  1  0.478372  0.972125  0.168977  1
  Yb  Yb3  1  0.027055  0.188335  0.500000  1
  Yb  Yb4  1  0.196852  0.690604  0.168977  1
  Yb  Yb5  1  0.686107  0.535129  0.500000  1
  Yb  Yb6  1  0.502341  0.505836  0.008177  1
  Yb  Yb7  1  0.964871  0.813893  0.500000  1
  Yb  Yb8  1  0.809396  0.303148  0.831023  1
  Yb  Yb9  1  0.994164  0.997659  0.991823  1
  Pt  Pt10  1  0.632225  0.867775  0.500000  1
  Au  Au11  1  0.250089  0.249911  0.000000  1
  Au  Au12  1  0.368680  0.131320  0.500000  1
  Au  Au13  1  0.132190  0.631973  0.764162  1
  Au  Au14  1  0.868027  0.367810  0.235838  1
  Au  Au15  1  0.750089  0.749911  0.000000  1
