# generated using pymatgen
data_Tb13Y3MgAg3Rh4
_symmetry_space_group_name_H-M   'P 1'
_cell_length_a   9.57390405
_cell_length_b   9.59440030
_cell_length_c   9.59717744
_cell_angle_alpha   60.25887204
_cell_angle_beta   60.33701850
_cell_angle_gamma   60.30331084
_symmetry_Int_Tables_number   1
_chemical_formula_structural   Tb13Y3MgAg3Rh4
_chemical_formula_sum   'Tb13 Y3 Mg1 Ag3 Rh4'
_cell_volume   627.58245883
_cell_formula_units_Z   1
loop_
 _symmetry_equiv_pos_site_id
 _symmetry_equiv_pos_as_xyz
  1  'x, y, z'
loop_
 _atom_site_type_symbol
 _atom_site_label
 _atom_site_symmetry_multiplicity
 _atom_site_fract_x
 _atom_site_fract_y
 _atom_site_fract_z
 _atom_site_occupancy
  Tb  Tb0  1  0.601334  0.598671  0.598524  1
  Tb  Tb1  1  0.600060  0.598622  0.202161  1
  Tb  Tb2  1  0.600185  0.202111  0.598413  1
  Tb  Tb3  1  0.184987  0.605128  0.604785  1
  Tb  Tb4  1  0.060141  0.438414  0.438661  1
  Tb  Tb5  1  0.436676  0.062587  0.062667  1
  Tb  Tb6  1  0.436059  0.063180  0.436567  1
  Tb  Tb7  1  0.059775  0.438857  0.060930  1
  Tb  Tb8  1  0.435782  0.436332  0.063365  1
  Tb  Tb9  1  0.060140  0.060963  0.438878  1
  Tb  Tb10  1  0.184563  0.813894  0.813981  1
  Tb  Tb11  1  0.814984  0.185563  0.185538  1
  Tb  Tb12  1  0.813609  0.186096  0.815087  1
  Y  Y13  1  0.184428  0.814414  0.186849  1
  Y  Y14  1  0.813938  0.815427  0.186108  1
  Y  Y15  1  0.184269  0.186666  0.814434  1
  Mg  Mg16  1  0.539666  0.820546  0.820621  1
  Ag  Ag17  1  0.832679  0.835024  0.834943  1
  Ag  Ag18  1  0.832542  0.834990  0.498997  1
  Ag  Ag19  1  0.832688  0.498568  0.835005  1
  Rh  Rh20  1  0.388395  0.394411  0.394498  1
  Rh  Rh21  1  0.390535  0.395280  0.820987  1
  Rh  Rh22  1  0.390722  0.820989  0.395100  1
  Rh  Rh23  1  0.821844  0.393272  0.392899  1
