# generated using pymatgen
data_AcYb3(MgPt)4
_symmetry_space_group_name_H-M   'P 1'
_cell_length_a   4.22414500
_cell_length_b   7.29796008
_cell_length_c   8.61323500
_cell_angle_alpha   89.99158380
_cell_angle_beta   90.00000000
_cell_angle_gamma   90.00000000
_symmetry_Int_Tables_number   1
_chemical_formula_structural   AcYb3(MgPt)4
_chemical_formula_sum   'Ac1 Yb3 Mg4 Pt4'
_cell_volume   265.52571853
_cell_formula_units_Z   1
loop_
 _symmetry_equiv_pos_site_id
 _symmetry_equiv_pos_as_xyz
  1  'x, y, z'
loop_
 _atom_site_type_symbol
 _atom_site_label
 _atom_site_symmetry_multiplicity
 _atom_site_fract_x
 _atom_site_fract_y
 _atom_site_fract_z
 _atom_site_occupancy
  Ac  Ac0  1  0.750000  0.463432  0.824228  1
  Yb  Yb1  1  0.250000  0.036212  0.325247  1
  Yb  Yb2  1  0.250000  0.539552  0.182251  1
  Yb  Yb3  1  0.750000  0.962025  0.670591  1
  Mg  Mg4  1  0.250000  0.127330  0.943999  1
  Mg  Mg5  1  0.250000  0.644216  0.552433  1
  Mg  Mg6  1  0.750000  0.865525  0.067048  1
  Mg  Mg7  1  0.750000  0.361921  0.433099  1
  Pt  Pt8  1  0.250000  0.257452  0.624423  1
  Pt  Pt9  1  0.250000  0.766171  0.874884  1
  Pt  Pt10  1  0.750000  0.738943  0.373212  1
  Pt  Pt11  1  0.750000  0.237223  0.128588  1
