# generated using pymatgen
data_Li7Y6Ho2CdSn8
_symmetry_space_group_name_H-M   'P 1'
_cell_length_a   9.45162004
_cell_length_b   9.43866100
_cell_length_c   7.29304210
_cell_angle_alpha   90.10064973
_cell_angle_beta   90.00047877
_cell_angle_gamma   120.04438813
_symmetry_Int_Tables_number   1
_chemical_formula_structural   Li7Y6Ho2CdSn8
_chemical_formula_sum   'Li7 Y6 Ho2 Cd1 Sn8'
_cell_volume   563.19743644
_cell_formula_units_Z   1
loop_
 _symmetry_equiv_pos_site_id
 _symmetry_equiv_pos_as_xyz
  1  'x, y, z'
loop_
 _atom_site_type_symbol
 _atom_site_label
 _atom_site_symmetry_multiplicity
 _atom_site_fract_x
 _atom_site_fract_y
 _atom_site_fract_z
 _atom_site_occupancy
  Li  Li0  1  0.164123  0.832263  0.289551  1
  Li  Li1  1  0.668124  0.832245  0.289546  1
  Li  Li2  1  0.833372  0.666692  0.790999  1
  Li  Li3  1  0.831917  0.165851  0.788109  1
  Li  Li4  1  0.333977  0.165924  0.788120  1
  Li  Li5  1  0.333388  0.666795  0.675307  1
  Li  Li6  1  0.668876  0.337740  0.172413  1
  Y  Y7  1  0.511563  0.023129  0.497273  1
  Y  Y8  1  0.516847  0.490179  0.494804  1
  Y  Y9  1  0.973341  0.490195  0.494810  1
  Y  Y10  1  0.488575  0.977151  0.988415  1
  Y  Y11  1  0.488710  0.512231  0.992486  1
  Y  Y12  1  0.023527  0.512251  0.992462  1
  Ho  Ho13  1  0.996685  0.993405  0.502913  1
  Ho  Ho14  1  0.000549  0.001100  0.999561  1
  Cd  Cd15  1  0.166341  0.332710  0.296739  1
  Sn  Sn16  1  0.165945  0.331902  0.735673  1
  Sn  Sn17  1  0.165495  0.832439  0.728660  1
  Sn  Sn18  1  0.666918  0.832362  0.728714  1
  Sn  Sn19  1  0.834114  0.668198  0.230257  1
  Sn  Sn20  1  0.822602  0.161392  0.224791  1
  Sn  Sn21  1  0.338772  0.161384  0.224713  1
  Sn  Sn22  1  0.339246  0.678498  0.255569  1
  Sn  Sn23  1  0.666992  0.333965  0.760085  1
