# generated using pymatgen
data_Sc5Ti(Co5B2)2
_symmetry_space_group_name_H-M   'P 1'
_cell_length_a   8.90516000
_cell_length_b   8.90516000
_cell_length_c   2.98364200
_cell_angle_alpha   90.00000000
_cell_angle_beta   90.00000000
_cell_angle_gamma   90.00000000
_symmetry_Int_Tables_number   1
_chemical_formula_structural   Sc5Ti(Co5B2)2
_chemical_formula_sum   'Sc5 Ti1 Co10 B4'
_cell_volume   236.60840381
_cell_formula_units_Z   1
loop_
 _symmetry_equiv_pos_site_id
 _symmetry_equiv_pos_as_xyz
  1  'x, y, z'
loop_
 _atom_site_type_symbol
 _atom_site_label
 _atom_site_symmetry_multiplicity
 _atom_site_fract_x
 _atom_site_fract_y
 _atom_site_fract_z
 _atom_site_occupancy
  Sc  Sc0  1  0.000000  0.000000  0.000000  1
  Sc  Sc1  1  0.824476  0.325938  0.000000  1
  Sc  Sc2  1  0.325938  0.175524  0.000000  1
  Sc  Sc3  1  0.674062  0.824476  0.000000  1
  Sc  Sc4  1  0.175524  0.674062  0.000000  1
  Ti  Ti5  1  0.500000  0.500000  0.000000  1
  Co  Co6  1  0.500000  0.000000  0.500000  1
  Co  Co7  1  0.000000  0.500000  0.500000  1
  Co  Co8  1  0.073722  0.231037  0.500000  1
  Co  Co9  1  0.231037  0.926278  0.500000  1
  Co  Co10  1  0.768963  0.073722  0.500000  1
  Co  Co11  1  0.926278  0.768963  0.500000  1
  Co  Co12  1  0.432642  0.722189  0.500000  1
  Co  Co13  1  0.567358  0.277811  0.500000  1
  Co  Co14  1  0.722189  0.567358  0.500000  1
  Co  Co15  1  0.277811  0.432642  0.500000  1
  B  B16  1  0.618666  0.119521  0.000000  1
  B  B17  1  0.119521  0.381334  0.000000  1
  B  B18  1  0.880479  0.618666  0.000000  1
  B  B19  1  0.381334  0.880479  0.000000  1
