# generated using pymatgen
data_CeNiOs2C
_symmetry_space_group_name_H-M   'P 1'
_cell_length_a   5.56487903
_cell_length_b   5.56487944
_cell_length_c   7.52299700
_cell_angle_alpha   90.00000000
_cell_angle_beta   90.00000000
_cell_angle_gamma   138.41137244
_symmetry_Int_Tables_number   1
_chemical_formula_structural   CeNiOs2C
_chemical_formula_sum   'Ce2 Ni2 Os4 C2'
_cell_volume   154.64115377
_cell_formula_units_Z   2
loop_
 _symmetry_equiv_pos_site_id
 _symmetry_equiv_pos_as_xyz
  1  'x, y, z'
loop_
 _atom_site_type_symbol
 _atom_site_label
 _atom_site_symmetry_multiplicity
 _atom_site_fract_x
 _atom_site_fract_y
 _atom_site_fract_z
 _atom_site_occupancy
  Ce  Ce0  1  0.533670  0.466330  0.250000  1
  Ce  Ce1  1  0.466330  0.533670  0.750000  1
  Ni  Ni2  1  0.261144  0.738856  0.250000  1
  Ni  Ni3  1  0.738856  0.261144  0.750000  1
  Os  Os4  1  0.822948  0.177052  0.061039  1
  Os  Os5  1  0.177052  0.822948  0.938961  1
  Os  Os6  1  0.177052  0.822948  0.561039  1
  Os  Os7  1  0.822948  0.177052  0.438961  1
  C  C8  1  0.000000  0.000000  0.000000  1
  C  C9  1  0.000000  0.000000  0.500000  1
