# generated using pymatgen
data_Lu2Be4Ru5
_symmetry_space_group_name_H-M   'P 1'
_cell_length_a   3.22800800
_cell_length_b   8.87428704
_cell_length_c   10.24873705
_cell_angle_alpha   89.99989330
_cell_angle_beta   90.00000000
_cell_angle_gamma   90.00000000
_symmetry_Int_Tables_number   1
_chemical_formula_structural   Lu2Be4Ru5
_chemical_formula_sum   'Lu4 Be8 Ru10'
_cell_volume   293.58808439
_cell_formula_units_Z   2
loop_
 _symmetry_equiv_pos_site_id
 _symmetry_equiv_pos_as_xyz
  1  'x, y, z'
loop_
 _atom_site_type_symbol
 _atom_site_label
 _atom_site_symmetry_multiplicity
 _atom_site_fract_x
 _atom_site_fract_y
 _atom_site_fract_z
 _atom_site_occupancy
  Lu  Lu0  1  0.500000  0.834664  0.183853  1
  Lu  Lu1  1  0.500000  0.165336  0.816147  1
  Lu  Lu2  1  0.500000  0.665581  0.684055  1
  Lu  Lu3  1  0.500000  0.334419  0.315945  1
  Be  Be4  1  0.500000  0.965006  0.593625  1
  Be  Be5  1  0.500000  0.034994  0.406375  1
  Be  Be6  1  0.500000  0.838330  0.906968  1
  Be  Be7  1  0.500000  0.161670  0.093032  1
  Be  Be8  1  0.500000  0.661841  0.406994  1
  Be  Be9  1  0.500000  0.338159  0.593006  1
  Be  Be10  1  0.500000  0.465109  0.906388  1
  Be  Be11  1  0.500000  0.534891  0.093612  1
  Ru  Ru12  1  0.000000  0.656278  0.954872  1
  Ru  Ru13  1  0.000000  0.343722  0.045128  1
  Ru  Ru14  1  0.000000  0.843735  0.454789  1
  Ru  Ru15  1  0.000000  0.156265  0.545211  1
  Ru  Ru16  1  0.000000  0.000000  0.000000  1
  Ru  Ru17  1  0.000000  0.411786  0.752880  1
  Ru  Ru18  1  0.000000  0.588214  0.247120  1
  Ru  Ru19  1  0.000000  0.500000  0.500000  1
  Ru  Ru20  1  0.000000  0.911772  0.747030  1
  Ru  Ru21  1  0.000000  0.088228  0.252970  1
