# generated using pymatgen
data_Ca2PaRh2
_symmetry_space_group_name_H-M   'P 1'
_cell_length_a   6.42853620
_cell_length_b   6.42853659
_cell_length_c   7.19036817
_cell_angle_alpha   82.74299520
_cell_angle_beta   82.74300583
_cell_angle_gamma   60.18921790
_symmetry_Int_Tables_number   1
_chemical_formula_structural   Ca2PaRh2
_chemical_formula_sum   'Ca4 Pa2 Rh4'
_cell_volume   255.06568796
_cell_formula_units_Z   2
loop_
 _symmetry_equiv_pos_site_id
 _symmetry_equiv_pos_as_xyz
  1  'x, y, z'
loop_
 _atom_site_type_symbol
 _atom_site_label
 _atom_site_symmetry_multiplicity
 _atom_site_fract_x
 _atom_site_fract_y
 _atom_site_fract_z
 _atom_site_occupancy
  Ca  Ca0  1  0.956900  0.737902  0.144141  1
  Ca  Ca1  1  0.262098  0.043100  0.355859  1
  Ca  Ca2  1  0.043100  0.262098  0.855859  1
  Ca  Ca3  1  0.737902  0.956900  0.644141  1
  Pa  Pa4  1  0.430062  0.569938  0.750000  1
  Pa  Pa5  1  0.569938  0.430062  0.250000  1
  Rh  Rh6  1  0.501054  0.788263  0.986300  1
  Rh  Rh7  1  0.211737  0.498946  0.513700  1
  Rh  Rh8  1  0.498946  0.211737  0.013700  1
  Rh  Rh9  1  0.788263  0.501054  0.486300  1
