# generated using pymatgen
data_Lu6Sc4Sn5Bi
_symmetry_space_group_name_H-M   'P 1'
_cell_length_a   8.70033288
_cell_length_b   8.70033382
_cell_length_c   6.19008400
_cell_angle_alpha   90.00000000
_cell_angle_beta   90.00000000
_cell_angle_gamma   119.89180399
_symmetry_Int_Tables_number   1
_chemical_formula_structural   Lu6Sc4Sn5Bi
_chemical_formula_sum   'Lu6 Sc4 Sn5 Bi1'
_cell_volume   406.22946362
_cell_formula_units_Z   1
loop_
 _symmetry_equiv_pos_site_id
 _symmetry_equiv_pos_as_xyz
  1  'x, y, z'
loop_
 _atom_site_type_symbol
 _atom_site_label
 _atom_site_symmetry_multiplicity
 _atom_site_fract_x
 _atom_site_fract_y
 _atom_site_fract_z
 _atom_site_occupancy
  Lu  Lu0  1  0.766151  0.766151  0.750000  1
  Lu  Lu1  1  0.235025  0.993362  0.750000  1
  Lu  Lu2  1  0.993362  0.235025  0.750000  1
  Lu  Lu3  1  0.236748  0.236748  0.250000  1
  Lu  Lu4  1  0.762487  0.000637  0.250000  1
  Lu  Lu5  1  0.000637  0.762487  0.250000  1
  Sc  Sc6  1  0.670659  0.332321  0.002308  1
  Sc  Sc7  1  0.332321  0.670659  0.002308  1
  Sc  Sc8  1  0.332321  0.670659  0.497692  1
  Sc  Sc9  1  0.670659  0.332321  0.497692  1
  Sn  Sn10  1  0.599968  0.998804  0.750000  1
  Sn  Sn11  1  0.998804  0.599968  0.750000  1
  Sn  Sn12  1  0.603291  0.603291  0.250000  1
  Sn  Sn13  1  0.398766  0.002599  0.250000  1
  Sn  Sn14  1  0.002599  0.398766  0.250000  1
  Bi  Bi15  1  0.396201  0.396201  0.750000  1
