# generated using pymatgen
data_Ca4GaSi6Ni
_symmetry_space_group_name_H-M   'P 1'
_cell_length_a   8.24442811
_cell_length_b   8.06286307
_cell_length_c   5.96405160
_cell_angle_alpha   70.18032666
_cell_angle_beta   66.93283456
_cell_angle_gamma   42.88682835
_symmetry_Int_Tables_number   1
_chemical_formula_structural   Ca4GaSi6Ni
_chemical_formula_sum   'Ca4 Ga1 Si6 Ni1'
_cell_volume   247.37773724
_cell_formula_units_Z   1
loop_
 _symmetry_equiv_pos_site_id
 _symmetry_equiv_pos_as_xyz
  1  'x, y, z'
loop_
 _atom_site_type_symbol
 _atom_site_label
 _atom_site_symmetry_multiplicity
 _atom_site_fract_x
 _atom_site_fract_y
 _atom_site_fract_z
 _atom_site_occupancy
  Ca  Ca0  1  0.746714  0.746714  0.753286  1
  Ca  Ca1  1  0.754675  0.251590  0.748410  1
  Ca  Ca2  1  0.246714  0.246714  0.253286  1
  Ca  Ca3  1  0.251590  0.754675  0.245325  1
  Ga  Ga4  1  0.334416  0.334416  0.665584  1
  Si  Si5  1  0.823069  0.351913  0.176931  1
  Si  Si6  1  0.680252  0.159750  0.319748  1
  Si  Si7  1  0.159750  0.680252  0.840250  1
  Si  Si8  1  0.351913  0.823069  0.648087  1
  Si  Si9  1  0.159779  0.159779  0.840221  1
  Si  Si10  1  0.824630  0.824630  0.175370  1
  Ni  Ni11  1  0.666497  0.666497  0.333503  1
