# generated using pymatgen
data_Ta2Fe3P7Ru9
_symmetry_space_group_name_H-M   'P 1'
_cell_length_a   9.21116900
_cell_length_b   9.21116894
_cell_length_c   3.76566300
_cell_angle_alpha   90.00000000
_cell_angle_beta   90.00000000
_cell_angle_gamma   120.00000379
_symmetry_Int_Tables_number   1
_chemical_formula_structural   Ta2Fe3P7Ru9
_chemical_formula_sum   'Ta2 Fe3 P7 Ru9'
_cell_volume   276.69516141
_cell_formula_units_Z   1
loop_
 _symmetry_equiv_pos_site_id
 _symmetry_equiv_pos_as_xyz
  1  'x, y, z'
loop_
 _atom_site_type_symbol
 _atom_site_label
 _atom_site_symmetry_multiplicity
 _atom_site_fract_x
 _atom_site_fract_y
 _atom_site_fract_z
 _atom_site_occupancy
  Ta  Ta0  1  0.000000  0.000000  0.000000  1
  Ta  Ta1  1  0.333333  0.666667  0.500000  1
  Fe  Fe2  1  0.824988  0.608880  0.000000  1
  Fe  Fe3  1  0.783893  0.175012  0.000000  1
  Fe  Fe4  1  0.391120  0.216107  0.000000  1
  P  P5  1  0.077483  0.634555  0.000000  1
  P  P6  1  0.557071  0.922517  0.000000  1
  P  P7  1  0.365445  0.442929  0.000000  1
  P  P8  1  0.787770  0.734474  0.500000  1
  P  P9  1  0.946704  0.212230  0.500000  1
  P  P10  1  0.265526  0.053296  0.500000  1
  P  P11  1  0.666667  0.333333  0.000000  1
  Ru  Ru12  1  0.102012  0.406386  0.000000  1
  Ru  Ru13  1  0.304374  0.897988  0.000000  1
  Ru  Ru14  1  0.593614  0.695626  0.000000  1
  Ru  Ru15  1  0.053704  0.781650  0.500000  1
  Ru  Ru16  1  0.727947  0.946296  0.500000  1
  Ru  Ru17  1  0.218350  0.272053  0.500000  1
  Ru  Ru18  1  0.880571  0.424802  0.500000  1
  Ru  Ru19  1  0.544231  0.119429  0.500000  1
  Ru  Ru20  1  0.575198  0.455769  0.500000  1
