# generated using pymatgen
data_Y2Mn4Fe10(SiC)3
_symmetry_space_group_name_H-M   'P 1'
_cell_length_a   6.43767174
_cell_length_b   6.43767149
_cell_length_c   6.42816529
_cell_angle_alpha   83.47435263
_cell_angle_beta   83.47435600
_cell_angle_gamma   83.43053446
_symmetry_Int_Tables_number   1
_chemical_formula_structural   Y2Mn4Fe10(SiC)3
_chemical_formula_sum   'Y2 Mn4 Fe10 Si3 C3'
_cell_volume   261.57182681
_cell_formula_units_Z   1
loop_
 _symmetry_equiv_pos_site_id
 _symmetry_equiv_pos_as_xyz
  1  'x, y, z'
loop_
 _atom_site_type_symbol
 _atom_site_label
 _atom_site_symmetry_multiplicity
 _atom_site_fract_x
 _atom_site_fract_y
 _atom_site_fract_z
 _atom_site_occupancy
  Y  Y0  1  0.653472  0.652801  0.653008  1
  Y  Y1  1  0.347199  0.346528  0.346992  1
  Mn  Mn2  1  0.717555  0.282445  0.000000  1
  Mn  Mn3  1  0.001002  0.716574  0.281085  1
  Mn  Mn4  1  0.283426  0.998998  0.718915  1
  Mn  Mn5  1  0.281914  0.718086  0.000000  1
  Fe  Fe6  1  0.000096  0.283917  0.715704  1
  Fe  Fe7  1  0.716083  0.999904  0.284296  1
  Fe  Fe8  1  0.340806  0.337951  0.862006  1
  Fe  Fe9  1  0.862193  0.341275  0.338426  1
  Fe  Fe10  1  0.337465  0.861471  0.341816  1
  Fe  Fe11  1  0.662049  0.659194  0.137994  1
  Fe  Fe12  1  0.138529  0.662535  0.658184  1
  Fe  Fe13  1  0.658725  0.137807  0.661574  1
  Fe  Fe14  1  0.903463  0.904145  0.902842  1
  Fe  Fe15  1  0.095855  0.096537  0.097158  1
  Si  Si16  1  0.998358  0.001642  0.500000  1
  Si  Si17  1  0.500976  0.998679  0.002614  1
  Si  Si18  1  0.001321  0.499024  0.997386  1
  C  C19  1  0.499232  0.500768  0.000000  1
  C  C20  1  0.000248  0.499968  0.499737  1
  C  C21  1  0.500032  0.999752  0.500263  1
