# generated using pymatgen
data_Sr8Mg6CdSi16Ag
_symmetry_space_group_name_H-M   'P 1'
_cell_length_a   4.40293400
_cell_length_b   11.42180821
_cell_length_c   14.43832427
_cell_angle_alpha   90.02187478
_cell_angle_beta   90.00000000
_cell_angle_gamma   90.00000000
_symmetry_Int_Tables_number   1
_chemical_formula_structural   Sr8Mg6CdSi16Ag
_chemical_formula_sum   'Sr8 Mg6 Cd1 Si16 Ag1'
_cell_volume   726.09558877
_cell_formula_units_Z   1
loop_
 _symmetry_equiv_pos_site_id
 _symmetry_equiv_pos_as_xyz
  1  'x, y, z'
loop_
 _atom_site_type_symbol
 _atom_site_label
 _atom_site_symmetry_multiplicity
 _atom_site_fract_x
 _atom_site_fract_y
 _atom_site_fract_z
 _atom_site_occupancy
  Sr  Sr0  1  0.250000  0.522883  0.199664  1
  Sr  Sr1  1  0.250000  0.740585  0.938836  1
  Sr  Sr2  1  0.750000  0.259323  0.061895  1
  Sr  Sr3  1  0.750000  0.244296  0.559529  1
  Sr  Sr4  1  0.250000  0.755646  0.438389  1
  Sr  Sr5  1  0.250000  0.977059  0.696183  1
  Sr  Sr6  1  0.750000  0.024917  0.303448  1
  Sr  Sr7  1  0.750000  0.475554  0.802391  1
  Mg  Mg8  1  0.750000  0.552728  0.555066  1
  Mg  Mg9  1  0.750000  0.942326  0.059032  1
  Mg  Mg10  1  0.250000  0.677693  0.689476  1
  Mg  Mg11  1  0.750000  0.324284  0.314291  1
  Mg  Mg12  1  0.750000  0.178290  0.809042  1
  Mg  Mg13  1  0.250000  0.820068  0.190799  1
  Cd  Cd14  1  0.250000  0.057713  0.942182  1
  Si  Si15  1  0.750000  0.951545  0.865941  1
  Si  Si16  1  0.250000  0.451954  0.632372  1
  Si  Si17  1  0.750000  0.548378  0.367230  1
  Si  Si18  1  0.250000  0.031092  0.466019  1
  Si  Si19  1  0.250000  0.047070  0.135048  1
  Si  Si20  1  0.250000  0.274430  0.721965  1
  Si  Si21  1  0.750000  0.725790  0.277832  1
  Si  Si22  1  0.750000  0.773373  0.777051  1
  Si  Si23  1  0.250000  0.215994  0.393164  1
  Si  Si24  1  0.750000  0.969913  0.532749  1
  Si  Si25  1  0.750000  0.529707  0.033841  1
  Si  Si26  1  0.250000  0.469775  0.966760  1
  Si  Si27  1  0.250000  0.288127  0.892036  1
  Si  Si28  1  0.750000  0.785454  0.606254  1
  Si  Si29  1  0.750000  0.713054  0.106661  1
  Si  Si30  1  0.250000  0.226144  0.223309  1
  Ag  Ag31  1  0.250000  0.444839  0.441546  1
