# generated using pymatgen
data_Pr2Y2Zn4Si3Ge
_symmetry_space_group_name_H-M   'P 1'
_cell_length_a   4.21257000
_cell_length_b   4.21257018
_cell_length_c   16.33315600
_cell_angle_alpha   90.00000000
_cell_angle_beta   90.00000000
_cell_angle_gamma   119.99996716
_symmetry_Int_Tables_number   1
_chemical_formula_structural   Pr2Y2Zn4Si3Ge
_chemical_formula_sum   'Pr2 Y2 Zn4 Si3 Ge1'
_cell_volume   251.01239380
_cell_formula_units_Z   1
loop_
 _symmetry_equiv_pos_site_id
 _symmetry_equiv_pos_as_xyz
  1  'x, y, z'
loop_
 _atom_site_type_symbol
 _atom_site_label
 _atom_site_symmetry_multiplicity
 _atom_site_fract_x
 _atom_site_fract_y
 _atom_site_fract_z
 _atom_site_occupancy
  Pr  Pr0  1  0.000000  0.000000  0.001700  1
  Pr  Pr1  1  0.000000  0.000000  0.499600  1
  Y  Y2  1  0.000000  0.000000  0.250725  1
  Y  Y3  1  0.000000  0.000000  0.748448  1
  Zn  Zn4  1  0.333333  0.666667  0.143677  1
  Zn  Zn5  1  0.666667  0.333333  0.852837  1
  Zn  Zn6  1  0.666667  0.333333  0.641462  1
  Zn  Zn7  1  0.333333  0.666667  0.357536  1
  Si  Si8  1  0.333333  0.666667  0.621667  1
  Si  Si9  1  0.666667  0.333333  0.377961  1
  Si  Si10  1  0.666667  0.333333  0.123123  1
  Ge  Ge11  1  0.333333  0.666667  0.881264  1
