# generated using pymatgen
data_Dy5HoEr10(In3Co)2
_symmetry_space_group_name_H-M   'P 1'
_cell_length_a   10.27426300
_cell_length_b   10.27781567
_cell_length_c   7.04010000
_cell_angle_alpha   90.00686278
_cell_angle_beta   90.00000000
_cell_angle_gamma   119.98856297
_symmetry_Int_Tables_number   1
_chemical_formula_structural   Dy5HoEr10(In3Co)2
_chemical_formula_sum   'Dy5 Ho1 Er10 In6 Co2'
_cell_volume   643.88898877
_cell_formula_units_Z   1
loop_
 _symmetry_equiv_pos_site_id
 _symmetry_equiv_pos_as_xyz
  1  'x, y, z'
loop_
 _atom_site_type_symbol
 _atom_site_label
 _atom_site_symmetry_multiplicity
 _atom_site_fract_x
 _atom_site_fract_y
 _atom_site_fract_z
 _atom_site_occupancy
  Dy  Dy0  1  0.535700  0.464189  0.713443  1
  Dy  Dy1  1  0.928490  0.464189  0.713443  1
  Dy  Dy2  1  0.535831  0.071661  0.713899  1
  Dy  Dy3  1  0.999960  0.999921  0.225796  1
  Dy  Dy4  1  0.000022  0.000045  0.726013  1
  Ho  Ho5  1  0.463624  0.927248  0.213396  1
  Er  Er6  1  0.178326  0.821147  0.507360  1
  Er  Er7  1  0.642821  0.821147  0.507360  1
  Er  Er8  1  0.178520  0.357041  0.506718  1
  Er  Er9  1  0.821822  0.178792  0.008849  1
  Er  Er10  1  0.356970  0.178792  0.008849  1
  Er  Er11  1  0.821485  0.642972  0.008714  1
  Er  Er12  1  0.333223  0.666444  0.820219  1
  Er  Er13  1  0.666785  0.333569  0.320060  1
  Er  Er14  1  0.463502  0.536576  0.212886  1
  Er  Er15  1  0.073073  0.536576  0.212886  1
  In  In16  1  0.163462  0.836585  0.962547  1
  In  In17  1  0.673122  0.836585  0.962547  1
  In  In18  1  0.163589  0.327179  0.962408  1
  In  In19  1  0.836582  0.163218  0.462498  1
  In  In20  1  0.326637  0.163218  0.462498  1
  In  In21  1  0.836682  0.673363  0.462336  1
  Co  Co22  1  0.333043  0.666089  0.439445  1
  Co  Co23  1  0.666727  0.333452  0.940664  1
