# generated using pymatgen
data_La2Gd4RhI10
_symmetry_space_group_name_H-M   'P 1'
_cell_length_a   7.83760249
_cell_length_b   9.88655979
_cell_length_c   9.90140000
_cell_angle_alpha   107.03484687
_cell_angle_beta   96.50001626
_cell_angle_gamma   105.22146895
_symmetry_Int_Tables_number   1
_chemical_formula_structural   La2Gd4RhI10
_chemical_formula_sum   'La2 Gd4 Rh1 I10'
_cell_volume   692.64099505
_cell_formula_units_Z   1
loop_
 _symmetry_equiv_pos_site_id
 _symmetry_equiv_pos_as_xyz
  1  'x, y, z'
loop_
 _atom_site_type_symbol
 _atom_site_label
 _atom_site_symmetry_multiplicity
 _atom_site_fract_x
 _atom_site_fract_y
 _atom_site_fract_z
 _atom_site_occupancy
  La  La0  1  0.618071  0.544220  0.262014  1
  La  La1  1  0.381929  0.455780  0.737986  1
  Gd  Gd2  1  0.531565  0.209135  0.411726  1
  Gd  Gd3  1  0.468435  0.790865  0.588274  1
  Gd  Gd4  1  0.145679  0.371108  0.331783  1
  Gd  Gd5  1  0.854321  0.628892  0.668217  1
  Rh  Rh6  1  0.500000  0.500000  0.500000  1
  I  I7  1  0.148308  0.048131  0.227712  1
  I  I8  1  0.851692  0.951869  0.772288  1
  I  I9  1  0.230921  0.410151  0.039306  1
  I  I10  1  0.769079  0.589849  0.960694  1
  I  I11  1  0.722532  0.236846  0.153439  1
  I  I12  1  0.277468  0.763154  0.846561  1
  I  I13  1  0.052268  0.683550  0.411770  1
  I  I14  1  0.947732  0.316450  0.588230  1
  I  I15  1  0.414996  0.121925  0.676669  1
  I  I16  1  0.585004  0.878075  0.323331  1
