# generated using pymatgen
data_U8Nb11Si16Ru
_symmetry_space_group_name_H-M   'P 1'
_cell_length_a   7.02026753
_cell_length_b   7.02903205
_cell_length_c   12.95209159
_cell_angle_alpha   89.94025597
_cell_angle_beta   90.04142888
_cell_angle_gamma   90.01726144
_symmetry_Int_Tables_number   1
_chemical_formula_structural   U8Nb11Si16Ru
_chemical_formula_sum   'U8 Nb11 Si16 Ru1'
_cell_volume   639.12929455
_cell_formula_units_Z   1
loop_
 _symmetry_equiv_pos_site_id
 _symmetry_equiv_pos_as_xyz
  1  'x, y, z'
loop_
 _atom_site_type_symbol
 _atom_site_label
 _atom_site_symmetry_multiplicity
 _atom_site_fract_x
 _atom_site_fract_y
 _atom_site_fract_z
 _atom_site_occupancy
  U  U0  1  0.996127  0.334658  0.221355  1
  U  U1  1  0.008341  0.671816  0.717134  1
  U  U2  1  0.166503  0.498081  0.468874  1
  U  U3  1  0.503823  0.831543  0.033963  1
  U  U4  1  0.830493  0.505920  0.969350  1
  U  U5  1  0.495695  0.165906  0.529053  1
  U  U6  1  0.328743  0.992981  0.779377  1
  U  U7  1  0.670406  0.004475  0.279434  1
  Nb  Nb8  1  0.167763  0.166602  0.001232  1
  Nb  Nb9  1  0.829934  0.832882  0.499761  1
  Nb  Nb10  1  0.329061  0.665286  0.249757  1
  Nb  Nb11  1  0.668124  0.331065  0.749431  1
  Nb  Nb12  1  0.843689  0.001797  0.874050  1
  Nb  Nb13  1  0.495377  0.658338  0.623358  1
  Nb  Nb14  1  0.344137  0.499391  0.876041  1
  Nb  Nb15  1  0.496019  0.338347  0.125629  1
  Nb  Nb16  1  0.658645  0.497313  0.375396  1
  Nb  Nb17  1  0.998080  0.157648  0.626943  1
  Nb  Nb18  1  0.996511  0.840327  0.123207  1
  Si  Si19  1  0.291872  0.035746  0.189196  1
  Si  Si20  1  0.702089  0.959639  0.684013  1
  Si  Si21  1  0.458892  0.796267  0.432232  1
  Si  Si22  1  0.202925  0.538180  0.065218  1
  Si  Si23  1  0.538995  0.201596  0.934723  1
  Si  Si24  1  0.794221  0.459955  0.565062  1
  Si  Si25  1  0.040941  0.298349  0.815794  1
  Si  Si26  1  0.965008  0.716674  0.316334  1
  Si  Si27  1  0.370866  0.290578  0.317144  1
  Si  Si28  1  0.629320  0.707088  0.815483  1
  Si  Si29  1  0.203405  0.873117  0.561594  1
  Si  Si30  1  0.129156  0.793354  0.933824  1
  Si  Si31  1  0.793207  0.130144  0.066803  1
  Si  Si32  1  0.880328  0.200559  0.433893  1
  Si  Si33  1  0.293831  0.369683  0.683426  1
  Si  Si34  1  0.706148  0.624670  0.184905  1
  Ru  Ru35  1  0.171326  0.010026  0.377013  1
