# generated using pymatgen
data_Tb3Pr2Y3(WO6)4
_symmetry_space_group_name_H-M   'P 1'
_cell_length_a   5.47183501
_cell_length_b   7.81058460
_cell_length_c   11.59848012
_cell_angle_alpha   75.65409452
_cell_angle_beta   90.00218022
_cell_angle_gamma   90.00728366
_symmetry_Int_Tables_number   1
_chemical_formula_structural   Tb3Pr2Y3(WO6)4
_chemical_formula_sum   'Tb3 Pr2 Y3 W4 O24'
_cell_volume   480.24140307
_cell_formula_units_Z   1
loop_
 _symmetry_equiv_pos_site_id
 _symmetry_equiv_pos_as_xyz
  1  'x, y, z'
loop_
 _atom_site_type_symbol
 _atom_site_label
 _atom_site_symmetry_multiplicity
 _atom_site_fract_x
 _atom_site_fract_y
 _atom_site_fract_z
 _atom_site_occupancy
  Tb  Tb0  1  0.186820  0.797179  0.076715  1
  Tb  Tb1  1  0.258264  0.000014  0.749947  1
  Tb  Tb2  1  0.741715  0.000026  0.250055  1
  Pr  Pr3  1  0.314728  0.500008  0.749994  1
  Pr  Pr4  1  0.685290  0.499931  0.250054  1
  Y  Y5  1  0.186904  0.203008  0.423099  1
  Y  Y6  1  0.813061  0.203079  0.923075  1
  Y  Y7  1  0.813078  0.796983  0.576904  1
  W  W8  1  0.746557  0.727918  0.884248  1
  W  W9  1  0.253523  0.727950  0.384334  1
  W  W10  1  0.746525  0.272048  0.615691  1
  W  W11  1  0.253436  0.271995  0.115716  1
  O  O12  1  0.853253  0.357765  0.455053  1
  O  O13  1  0.468599  0.845932  0.930258  1
  O  O14  1  0.852899  0.642073  0.044951  1
  O  O15  1  0.013569  0.280842  0.729651  1
  O  O16  1  0.986441  0.280888  0.229681  1
  O  O17  1  0.146762  0.357774  0.955045  1
  O  O18  1  0.651611  0.494738  0.887221  1
  O  O19  1  0.531756  0.154069  0.069539  1
  O  O20  1  0.146756  0.642224  0.544956  1
  O  O21  1  0.013602  0.719154  0.770362  1
  O  O22  1  0.454832  0.205777  0.272258  1
  O  O23  1  0.043525  0.940791  0.395852  1
  O  O24  1  0.468181  0.154161  0.569541  1
  O  O25  1  0.986392  0.719114  0.270434  1
  O  O26  1  0.956499  0.059234  0.604135  1
  O  O27  1  0.545153  0.205796  0.772253  1
  O  O28  1  0.545147  0.794187  0.727722  1
  O  O29  1  0.043284  0.059514  0.104162  1
  O  O30  1  0.651654  0.505226  0.612742  1
  O  O31  1  0.348502  0.505067  0.112788  1
  O  O32  1  0.455079  0.794103  0.227972  1
  O  O33  1  0.348341  0.494748  0.387249  1
  O  O34  1  0.531824  0.845882  0.430513  1
  O  O35  1  0.956436  0.940802  0.895832  1
