# generated using pymatgen
data_Dy4CrIr3O14
_symmetry_space_group_name_H-M   'P 1'
_cell_length_a   7.24503920
_cell_length_b   7.24504038
_cell_length_c   7.24503900
_cell_angle_alpha   59.99318924
_cell_angle_beta   59.99318385
_cell_angle_gamma   59.99318331
_symmetry_Int_Tables_number   1
_chemical_formula_structural   Dy4CrIr3O14
_chemical_formula_sum   'Dy4 Cr1 Ir3 O14'
_cell_volume   268.86865310
_cell_formula_units_Z   1
loop_
 _symmetry_equiv_pos_site_id
 _symmetry_equiv_pos_as_xyz
  1  'x, y, z'
loop_
 _atom_site_type_symbol
 _atom_site_label
 _atom_site_symmetry_multiplicity
 _atom_site_fract_x
 _atom_site_fract_y
 _atom_site_fract_z
 _atom_site_occupancy
  Dy  Dy0  1  0.625000  0.125000  0.125000  1
  Dy  Dy1  1  0.125000  0.625000  0.125000  1
  Dy  Dy2  1  0.125000  0.125000  0.625000  1
  Dy  Dy3  1  0.125000  0.125000  0.125000  1
  Cr  Cr4  1  0.625000  0.625000  0.625000  1
  Ir  Ir5  1  0.125000  0.625000  0.625000  1
  Ir  Ir6  1  0.625000  0.125000  0.625000  1
  Ir  Ir7  1  0.625000  0.625000  0.125000  1
  O  O8  1  0.714862  0.714862  0.283185  1
  O  O9  1  0.291862  0.291862  0.714845  1
  O  O10  1  0.714862  0.283185  0.714862  1
  O  O11  1  0.291862  0.714845  0.291862  1
  O  O12  1  0.283185  0.714862  0.714862  1
  O  O13  1  0.714845  0.291862  0.291862  1
  O  O14  1  0.535138  0.535138  0.966815  1
  O  O15  1  0.958138  0.958138  0.535155  1
  O  O16  1  0.535138  0.966815  0.535138  1
  O  O17  1  0.958138  0.535155  0.958138  1
  O  O18  1  0.966815  0.535138  0.535138  1
  O  O19  1  0.535155  0.958138  0.958138  1
  O  O20  1  0.248618  0.248618  0.248618  1
  O  O21  1  0.001382  0.001382  0.001382  1
