# generated using pymatgen
data_Ho4Re6TcW
_symmetry_space_group_name_H-M   'P 1'
_cell_length_a   5.43500000
_cell_length_b   5.43499994
_cell_length_c   8.88539800
_cell_angle_alpha   90.00000000
_cell_angle_beta   90.00000000
_cell_angle_gamma   120.00000037
_symmetry_Int_Tables_number   1
_chemical_formula_structural   Ho4Re6TcW
_chemical_formula_sum   'Ho4 Re6 Tc1 W1'
_cell_volume   227.30375377
_cell_formula_units_Z   1
loop_
 _symmetry_equiv_pos_site_id
 _symmetry_equiv_pos_as_xyz
  1  'x, y, z'
loop_
 _atom_site_type_symbol
 _atom_site_label
 _atom_site_symmetry_multiplicity
 _atom_site_fract_x
 _atom_site_fract_y
 _atom_site_fract_z
 _atom_site_occupancy
  Ho  Ho0  1  0.333333  0.666667  0.435638  1
  Ho  Ho1  1  0.666667  0.333333  0.564362  1
  Ho  Ho2  1  0.666667  0.333333  0.938069  1
  Ho  Ho3  1  0.333333  0.666667  0.061931  1
  Re  Re4  1  0.828552  0.171448  0.250268  1
  Re  Re5  1  0.828552  0.657105  0.250268  1
  Re  Re6  1  0.342895  0.171448  0.250268  1
  Re  Re7  1  0.171448  0.828552  0.749732  1
  Re  Re8  1  0.171448  0.342895  0.749732  1
  Re  Re9  1  0.657105  0.828552  0.749732  1
  Tc  Tc10  1  0.000000  0.000000  0.000000  1
  W  W11  1  0.000000  0.000000  0.500000  1
