# generated using pymatgen
data_TbYbY2(AlPd)4
_symmetry_space_group_name_H-M   'P 1'
_cell_length_a   4.43585900
_cell_length_b   6.94268084
_cell_length_c   7.83911209
_cell_angle_alpha   90.57484758
_cell_angle_beta   90.00000000
_cell_angle_gamma   90.00000000
_symmetry_Int_Tables_number   1
_chemical_formula_structural   TbYbY2(AlPd)4
_chemical_formula_sum   'Tb1 Yb1 Y2 Al4 Pd4'
_cell_volume   241.40705048
_cell_formula_units_Z   1
loop_
 _symmetry_equiv_pos_site_id
 _symmetry_equiv_pos_as_xyz
  1  'x, y, z'
loop_
 _atom_site_type_symbol
 _atom_site_label
 _atom_site_symmetry_multiplicity
 _atom_site_fract_x
 _atom_site_fract_y
 _atom_site_fract_z
 _atom_site_occupancy
  Tb  Tb0  1  0.750000  0.965167  0.678758  1
  Yb  Yb1  1  0.750000  0.467776  0.822289  1
  Y  Y2  1  0.250000  0.032864  0.320867  1
  Y  Y3  1  0.250000  0.532650  0.178580  1
  Al  Al4  1  0.250000  0.140049  0.940495  1
  Al  Al5  1  0.250000  0.641673  0.559192  1
  Al  Al6  1  0.750000  0.859747  0.062754  1
  Al  Al7  1  0.750000  0.359071  0.437565  1
  Pd  Pd8  1  0.250000  0.273395  0.622149  1
  Pd  Pd9  1  0.250000  0.774345  0.878553  1
  Pd  Pd10  1  0.750000  0.726976  0.377797  1
  Pd  Pd11  1  0.750000  0.226284  0.121003  1
