# generated using pymatgen
data_Tb3YGe3Sb3Rh7
_symmetry_space_group_name_H-M   'P 1'
_cell_length_a   7.48970428
_cell_length_b   7.45341070
_cell_length_c   7.45341100
_cell_angle_alpha   109.37236979
_cell_angle_beta   109.56988680
_cell_angle_gamma   109.56989341
_symmetry_Int_Tables_number   1
_chemical_formula_structural   Tb3YGe3Sb3Rh7
_chemical_formula_sum   'Tb3 Y1 Ge3 Sb3 Rh7'
_cell_volume   319.90616835
_cell_formula_units_Z   1
loop_
 _symmetry_equiv_pos_site_id
 _symmetry_equiv_pos_as_xyz
  1  'x, y, z'
loop_
 _atom_site_type_symbol
 _atom_site_label
 _atom_site_symmetry_multiplicity
 _atom_site_fract_x
 _atom_site_fract_y
 _atom_site_fract_z
 _atom_site_occupancy
  Tb  Tb0  1  0.988455  0.480577  0.000000  1
  Tb  Tb1  1  0.988455  0.000000  0.480577  1
  Tb  Tb2  1  0.507878  0.519423  0.519423  1
  Y  Y3  1  0.542493  0.000000  0.000000  1
  Ge  Ge4  1  0.005357  0.333385  0.333385  1
  Ge  Ge5  1  0.671972  0.000000  0.666615  1
  Ge  Ge6  1  0.671972  0.666615  0.000000  1
  Sb  Sb7  1  0.008531  0.694383  0.694383  1
  Sb  Sb8  1  0.314149  0.000000  0.305617  1
  Sb  Sb9  1  0.314149  0.305617  0.000000  1
  Rh  Rh10  1  0.964731  0.000000  0.000000  1
  Rh  Rh11  1  0.503466  0.749869  0.249599  1
  Rh  Rh12  1  0.753596  0.499729  0.250131  1
  Rh  Rh13  1  0.253867  0.750401  0.500271  1
  Rh  Rh14  1  0.253867  0.500271  0.750401  1
  Rh  Rh15  1  0.503466  0.249599  0.749869  1
  Rh  Rh16  1  0.753596  0.250131  0.499729  1
