# generated using pymatgen
data_Tb2Er8In8IrPd3
_symmetry_space_group_name_H-M   'P 1'
_cell_length_a   3.60880800
_cell_length_b   8.12786237
_cell_length_c   18.25088589
_cell_angle_alpha   90.08981934
_cell_angle_beta   90.00000000
_cell_angle_gamma   90.00000000
_symmetry_Int_Tables_number   1
_chemical_formula_structural   Tb2Er8In8IrPd3
_chemical_formula_sum   'Tb2 Er8 In8 Ir1 Pd3'
_cell_volume   535.33240607
_cell_formula_units_Z   1
loop_
 _symmetry_equiv_pos_site_id
 _symmetry_equiv_pos_as_xyz
  1  'x, y, z'
loop_
 _atom_site_type_symbol
 _atom_site_label
 _atom_site_symmetry_multiplicity
 _atom_site_fract_x
 _atom_site_fract_y
 _atom_site_fract_z
 _atom_site_occupancy
  Tb  Tb0  1  0.000000  0.500347  0.499776  1
  Tb  Tb1  1  0.000000  0.000611  0.000818  1
  Er  Er2  1  0.000000  0.729262  0.277468  1
  Er  Er3  1  0.000000  0.259676  0.719341  1
  Er  Er4  1  0.000000  0.758979  0.779877  1
  Er  Er5  1  0.000000  0.254820  0.220292  1
  Er  Er6  1  0.000000  0.615601  0.087325  1
  Er  Er7  1  0.000000  0.382574  0.916191  1
  Er  Er8  1  0.000000  0.882421  0.583367  1
  Er  Er9  1  0.000000  0.117147  0.415129  1
  In  In10  1  0.500000  0.707518  0.932454  1
  In  In11  1  0.500000  0.293665  0.068375  1
  In  In12  1  0.500000  0.792924  0.431757  1
  In  In13  1  0.500000  0.206281  0.567206  1
  In  In14  1  0.500000  0.578843  0.649682  1
  In  In15  1  0.500000  0.422217  0.351249  1
  In  In16  1  0.500000  0.924328  0.150566  1
  In  In17  1  0.500000  0.078402  0.849852  1
  Ir  Ir18  1  0.500000  0.520884  0.195791  1
  Pd  Pd19  1  0.500000  0.475954  0.803992  1
  Pd  Pd20  1  0.500000  0.976500  0.695593  1
  Pd  Pd21  1  0.500000  0.021044  0.303900  1
