# generated using pymatgen
data_RbPr5Tm(CBr6)2
_symmetry_space_group_name_H-M   'P 1'
_cell_length_a   9.17582089
_cell_length_b   9.19409152
_cell_length_c   9.66304379
_cell_angle_alpha   71.95184239
_cell_angle_beta   70.52983681
_cell_angle_gamma   72.47068593
_symmetry_Int_Tables_number   1
_chemical_formula_structural   RbPr5Tm(CBr6)2
_chemical_formula_sum   'Rb1 Pr5 Tm1 C2 Br12'
_cell_volume   712.73645120
_cell_formula_units_Z   1
loop_
 _symmetry_equiv_pos_site_id
 _symmetry_equiv_pos_as_xyz
  1  'x, y, z'
loop_
 _atom_site_type_symbol
 _atom_site_label
 _atom_site_symmetry_multiplicity
 _atom_site_fract_x
 _atom_site_fract_y
 _atom_site_fract_z
 _atom_site_occupancy
  Rb  Rb0  1  0.002330  0.499488  0.999391  1
  Pr  Pr1  1  0.785562  0.032359  0.402503  1
  Pr  Pr2  1  0.596777  0.717733  0.475036  1
  Pr  Pr3  1  0.404097  0.282647  0.526386  1
  Pr  Pr4  1  0.214657  0.968637  0.594163  1
  Pr  Pr5  1  0.521365  0.883556  0.821747  1
  Tm  Tm6  1  0.475905  0.113679  0.189246  1
  C  C7  1  0.494252  0.027278  0.422580  1
  C  C8  1  0.505742  0.975388  0.573003  1
  Br  Br9  1  0.783928  0.161944  0.078686  1
  Br  Br10  1  0.583678  0.799300  0.143297  1
  Br  Br11  1  0.355978  0.421121  0.215777  1
  Br  Br12  1  0.149828  0.075844  0.282767  1
  Br  Br13  1  0.931710  0.718609  0.350382  1
  Br  Br14  1  0.720790  0.366869  0.425441  1
  Br  Br15  1  0.280471  0.632918  0.572212  1
  Br  Br16  1  0.069856  0.281753  0.649367  1
  Br  Br17  1  0.862974  0.926259  0.708164  1
  Br  Br18  1  0.650907  0.563784  0.778763  1
  Br  Br19  1  0.413306  0.215424  0.869461  1
  Br  Br20  1  0.195892  0.835406  0.921627  1
