# generated using pymatgen
data_Yb4Ir4OsRu3
_symmetry_space_group_name_H-M   'P 1'
_cell_length_a   5.28931169
_cell_length_b   5.39235809
_cell_length_c   8.86995300
_cell_angle_alpha   90.00000000
_cell_angle_beta   90.00000000
_cell_angle_gamma   123.22557224
_symmetry_Int_Tables_number   1
_chemical_formula_structural   Yb4Ir4OsRu3
_chemical_formula_sum   'Yb4 Ir4 Os1 Ru3'
_cell_volume   211.62913152
_cell_formula_units_Z   1
loop_
 _symmetry_equiv_pos_site_id
 _symmetry_equiv_pos_as_xyz
  1  'x, y, z'
loop_
 _atom_site_type_symbol
 _atom_site_label
 _atom_site_symmetry_multiplicity
 _atom_site_fract_x
 _atom_site_fract_y
 _atom_site_fract_z
 _atom_site_occupancy
  Yb  Yb0  1  0.327927  0.661968  0.433503  1
  Yb  Yb1  1  0.663537  0.333125  0.565148  1
  Yb  Yb2  1  0.663537  0.333125  0.934852  1
  Yb  Yb3  1  0.327927  0.661968  0.066497  1
  Ir  Ir4  1  0.989384  0.994337  0.499986  1
  Ir  Ir5  1  0.989384  0.994337  0.000014  1
  Ir  Ir6  1  0.827352  0.165751  0.250000  1
  Ir  Ir7  1  0.178328  0.830358  0.750000  1
  Os  Os8  1  0.670722  0.837743  0.750000  1
  Ru  Ru9  1  0.832887  0.665688  0.250000  1
  Ru  Ru10  1  0.348665  0.173386  0.250000  1
  Ru  Ru11  1  0.180350  0.348216  0.750000  1
