# generated using pymatgen
data_YLu(Tc2P)4
_symmetry_space_group_name_H-M   'P 1'
_cell_length_a   7.39796931
_cell_length_b   7.39796931
_cell_length_c   3.94689300
_cell_angle_alpha   90.00000000
_cell_angle_beta   90.00000000
_cell_angle_gamma   89.72495097
_symmetry_Int_Tables_number   1
_chemical_formula_structural   YLu(Tc2P)4
_chemical_formula_sum   'Y1 Lu1 Tc8 P4'
_cell_volume   216.01076724
_cell_formula_units_Z   1
loop_
 _symmetry_equiv_pos_site_id
 _symmetry_equiv_pos_as_xyz
  1  'x, y, z'
loop_
 _atom_site_type_symbol
 _atom_site_label
 _atom_site_symmetry_multiplicity
 _atom_site_fract_x
 _atom_site_fract_y
 _atom_site_fract_z
 _atom_site_occupancy
  Y  Y0  1  0.500000  0.500000  0.000000  1
  Lu  Lu1  1  0.000000  0.000000  0.500000  1
  Tc  Tc2  1  0.159941  0.583586  0.500000  1
  Tc  Tc3  1  0.840059  0.416414  0.500000  1
  Tc  Tc4  1  0.337634  0.082117  0.000000  1
  Tc  Tc5  1  0.662366  0.917883  0.000000  1
  Tc  Tc6  1  0.583586  0.159941  0.500000  1
  Tc  Tc7  1  0.416414  0.840059  0.500000  1
  Tc  Tc8  1  0.082117  0.337634  0.000000  1
  Tc  Tc9  1  0.917883  0.662366  0.000000  1
  P  P10  1  0.712741  0.712741  0.500000  1
  P  P11  1  0.287259  0.287259  0.500000  1
  P  P12  1  0.789776  0.210224  0.000000  1
  P  P13  1  0.210224  0.789776  0.000000  1
