# generated using pymatgen
data_Ho10IrPd3Ru2
_symmetry_space_group_name_H-M   'P 1'
_cell_length_a   10.94900400
_cell_length_b   10.93117600
_cell_length_c   6.39716900
_cell_angle_alpha   90.00000000
_cell_angle_beta   90.00319926
_cell_angle_gamma   90.00000000
_symmetry_Int_Tables_number   1
_chemical_formula_structural   Ho10IrPd3Ru2
_chemical_formula_sum   'Ho20 Ir2 Pd6 Ru4'
_cell_volume   765.64830417
_cell_formula_units_Z   2
loop_
 _symmetry_equiv_pos_site_id
 _symmetry_equiv_pos_as_xyz
  1  'x, y, z'
loop_
 _atom_site_type_symbol
 _atom_site_label
 _atom_site_symmetry_multiplicity
 _atom_site_fract_x
 _atom_site_fract_y
 _atom_site_fract_z
 _atom_site_occupancy
  Ho  Ho0  1  0.297921  0.090435  0.371802  1
  Ho  Ho1  1  0.297921  0.909565  0.871802  1
  Ho  Ho2  1  0.701354  0.085105  0.870657  1
  Ho  Ho3  1  0.701354  0.914895  0.370657  1
  Ho  Ho4  1  0.580535  0.793902  0.871061  1
  Ho  Ho5  1  0.580535  0.206098  0.371061  1
  Ho  Ho6  1  0.411766  0.795128  0.378689  1
  Ho  Ho7  1  0.411766  0.204872  0.878689  1
  Ho  Ho8  1  0.208029  0.416558  0.622820  1
  Ho  Ho9  1  0.208029  0.583442  0.122820  1
  Ho  Ho10  1  0.797926  0.414389  0.126865  1
  Ho  Ho11  1  0.797926  0.585611  0.626865  1
  Ho  Ho12  1  0.916206  0.701827  0.128496  1
  Ho  Ho13  1  0.916206  0.298173  0.628496  1
  Ho  Ho14  1  0.091935  0.701521  0.629454  1
  Ho  Ho15  1  0.091935  0.298479  0.129454  1
  Ho  Ho16  1  0.999783  0.999459  0.499762  1
  Ho  Ho17  1  0.999783  0.000541  0.999762  1
  Ho  Ho18  1  0.495350  0.499439  0.000414  1
  Ho  Ho19  1  0.495350  0.500561  0.500414  1
  Ir  Ir20  1  0.347292  0.345449  0.250061  1
  Ir  Ir21  1  0.347292  0.654551  0.750061  1
  Pd  Pd22  1  0.845519  0.153578  0.250479  1
  Pd  Pd23  1  0.845519  0.846422  0.750479  1
  Pd  Pd24  1  0.152673  0.153486  0.749180  1
  Pd  Pd25  1  0.152673  0.846514  0.249180  1
  Pd  Pd26  1  0.654308  0.346309  0.750098  1
  Pd  Pd27  1  0.654308  0.653691  0.250098  1
  Ru  Ru28  1  0.501196  0.999839  0.125088  1
  Ru  Ru29  1  0.501196  0.000161  0.625088  1
  Ru  Ru30  1  0.998205  0.500132  0.875075  1
  Ru  Ru31  1  0.998205  0.499868  0.375075  1
