# generated using pymatgen
data_Li2La2IrPt
_symmetry_space_group_name_H-M   'P 1'
_cell_length_a   4.11073400
_cell_length_b   7.24275200
_cell_length_c   8.65935000
_cell_angle_alpha   90.00000000
_cell_angle_beta   90.00000000
_cell_angle_gamma   90.00000000
_symmetry_Int_Tables_number   1
_chemical_formula_structural   Li2La2IrPt
_chemical_formula_sum   'Li4 La4 Ir2 Pt2'
_cell_volume   257.81506049
_cell_formula_units_Z   2
loop_
 _symmetry_equiv_pos_site_id
 _symmetry_equiv_pos_as_xyz
  1  'x, y, z'
loop_
 _atom_site_type_symbol
 _atom_site_label
 _atom_site_symmetry_multiplicity
 _atom_site_fract_x
 _atom_site_fract_y
 _atom_site_fract_z
 _atom_site_occupancy
  Li  Li0  1  0.250000  0.123938  0.051915  1
  Li  Li1  1  0.250000  0.623938  0.448085  1
  Li  Li2  1  0.750000  0.874560  0.944946  1
  Li  Li3  1  0.750000  0.374560  0.555054  1
  La  La4  1  0.250000  0.050065  0.671270  1
  La  La5  1  0.250000  0.550065  0.828730  1
  La  La6  1  0.750000  0.960448  0.308796  1
  La  La7  1  0.750000  0.460448  0.191204  1
  Ir  Ir8  1  0.250000  0.240649  0.376082  1
  Ir  Ir9  1  0.250000  0.740649  0.123918  1
  Pt  Pt10  1  0.750000  0.750338  0.624224  1
  Pt  Pt11  1  0.750000  0.250338  0.875776  1
