# generated using pymatgen
data_NaB2SbO6
_symmetry_space_group_name_H-M   'P 1'
_cell_length_a   6.14936089
_cell_length_b   6.14936108
_cell_length_c   6.14936043
_cell_angle_alpha   46.65053766
_cell_angle_beta   46.65053386
_cell_angle_gamma   46.65054838
_symmetry_Int_Tables_number   1
_chemical_formula_structural   NaB2SbO6
_chemical_formula_sum   'Na1 B2 Sb1 O6'
_cell_volume   112.31579813
_cell_formula_units_Z   1
loop_
 _symmetry_equiv_pos_site_id
 _symmetry_equiv_pos_as_xyz
  1  'x, y, z'
loop_
 _atom_site_type_symbol
 _atom_site_label
 _atom_site_symmetry_multiplicity
 _atom_site_fract_x
 _atom_site_fract_y
 _atom_site_fract_z
 _atom_site_occupancy
  Na  Na0  1  0.500000  0.500000  0.500000  1
  B  B1  1  0.264981  0.264981  0.264981  1
  B  B2  1  0.735019  0.735019  0.735019  1
  Sb  Sb3  1  0.000000  0.000000  0.000000  1
  O  O4  1  0.777067  0.001035  0.435890  1
  O  O5  1  0.998965  0.564110  0.222933  1
  O  O6  1  0.564110  0.222933  0.998965  1
  O  O7  1  0.435890  0.777067  0.001035  1
  O  O8  1  0.001035  0.435890  0.777067  1
  O  O9  1  0.222933  0.998965  0.564110  1
