# generated using pymatgen
data_HfMg2Rh3
_symmetry_space_group_name_H-M   'P 1'
_cell_length_a   7.77048500
_cell_length_b   7.77048490
_cell_length_c   5.46922300
_cell_angle_alpha   90.00000000
_cell_angle_beta   90.00000000
_cell_angle_gamma   120.00000470
_symmetry_Int_Tables_number   1
_chemical_formula_structural   HfMg2Rh3
_chemical_formula_sum   'Hf3 Mg6 Rh9'
_cell_volume   285.99108119
_cell_formula_units_Z   3
loop_
 _symmetry_equiv_pos_site_id
 _symmetry_equiv_pos_as_xyz
  1  'x, y, z'
loop_
 _atom_site_type_symbol
 _atom_site_label
 _atom_site_symmetry_multiplicity
 _atom_site_fract_x
 _atom_site_fract_y
 _atom_site_fract_z
 _atom_site_occupancy
  Hf  Hf0  1  0.333537  0.000000  0.892051  1
  Hf  Hf1  1  0.000000  0.333537  0.892051  1
  Hf  Hf2  1  0.666463  0.666463  0.892051  1
  Mg  Mg3  1  0.667002  0.000000  0.232510  1
  Mg  Mg4  1  0.332997  0.332998  0.232510  1
  Mg  Mg5  1  0.000000  0.667002  0.232510  1
  Mg  Mg6  1  0.000000  0.000000  0.551364  1
  Mg  Mg7  1  0.666666  0.333333  0.551916  1
  Mg  Mg8  1  0.333334  0.666667  0.551916  1
  Rh  Rh9  1  0.000000  0.000000  0.056856  1
  Rh  Rh10  1  0.666666  0.333333  0.057717  1
  Rh  Rh11  1  0.333334  0.666667  0.057717  1
  Rh  Rh12  1  0.333576  0.000000  0.392054  1
  Rh  Rh13  1  0.000000  0.333576  0.392054  1
  Rh  Rh14  1  0.666425  0.666424  0.392054  1
  Rh  Rh15  1  0.666859  0.000000  0.726842  1
  Rh  Rh16  1  0.333142  0.333142  0.726842  1
  Rh  Rh17  1  0.000000  0.666858  0.726842  1
