# generated using pymatgen
data_Re3BrCl8
_symmetry_space_group_name_H-M   'P 1'
_cell_length_a   9.72000814
_cell_length_b   9.80966759
_cell_length_c   9.72000776
_cell_angle_alpha   64.37135208
_cell_angle_beta   64.31168502
_cell_angle_gamma   64.37135196
_symmetry_Int_Tables_number   1
_chemical_formula_structural   Re3BrCl8
_chemical_formula_sum   'Re6 Br2 Cl16'
_cell_volume   717.97005255
_cell_formula_units_Z   2
loop_
 _symmetry_equiv_pos_site_id
 _symmetry_equiv_pos_as_xyz
  1  'x, y, z'
loop_
 _atom_site_type_symbol
 _atom_site_label
 _atom_site_symmetry_multiplicity
 _atom_site_fract_x
 _atom_site_fract_y
 _atom_site_fract_z
 _atom_site_occupancy
  Re  Re0  1  0.358605  0.359111  0.121761  1
  Re  Re1  1  0.121761  0.359111  0.358605  1
  Re  Re2  1  0.358409  0.123112  0.358409  1
  Re  Re3  1  0.641618  0.877050  0.641618  1
  Re  Re4  1  0.640654  0.641976  0.877580  1
  Re  Re5  1  0.877580  0.641976  0.640654  1
  Br  Br6  1  0.114032  0.118714  0.610239  1
  Br  Br7  1  0.610239  0.118714  0.114032  1
  Cl  Cl8  1  0.124936  0.591520  0.124936  1
  Cl  Cl9  1  0.873759  0.409828  0.873759  1
  Cl  Cl10  1  0.875918  0.874239  0.407837  1
  Cl  Cl11  1  0.407837  0.874239  0.875918  1
  Cl  Cl12  1  0.829442  0.516291  0.509710  1
  Cl  Cl13  1  0.509710  0.516291  0.829442  1
  Cl  Cl14  1  0.511810  0.832192  0.511810  1
  Cl  Cl15  1  0.488592  0.167790  0.488592  1
  Cl  Cl16  1  0.169231  0.487937  0.487233  1
  Cl  Cl17  1  0.487233  0.487937  0.169231  1
  Cl  Cl18  1  0.027294  0.709131  0.711662  1
  Cl  Cl19  1  0.711662  0.709131  0.027294  1
  Cl  Cl20  1  0.712601  0.023060  0.712601  1
  Cl  Cl21  1  0.287429  0.977055  0.287429  1
  Cl  Cl22  1  0.972270  0.291797  0.287377  1
  Cl  Cl23  1  0.287377  0.291797  0.972270  1
