# generated using pymatgen
data_Pa6Si13Rh20
_symmetry_space_group_name_H-M   'P 1'
_cell_length_a   13.51240700
_cell_length_b   13.51240612
_cell_length_c   3.94827500
_cell_angle_alpha   90.00000000
_cell_angle_beta   90.00000000
_cell_angle_gamma   119.99999971
_symmetry_Int_Tables_number   1
_chemical_formula_structural   Pa6Si13Rh20
_chemical_formula_sum   'Pa6 Si13 Rh20'
_cell_volume   624.31451826
_cell_formula_units_Z   1
loop_
 _symmetry_equiv_pos_site_id
 _symmetry_equiv_pos_as_xyz
  1  'x, y, z'
loop_
 _atom_site_type_symbol
 _atom_site_label
 _atom_site_symmetry_multiplicity
 _atom_site_fract_x
 _atom_site_fract_y
 _atom_site_fract_z
 _atom_site_occupancy
  Pa  Pa0  1  0.529102  0.721579  0.247403  1
  Pa  Pa1  1  0.278421  0.807524  0.247403  1
  Pa  Pa2  1  0.192476  0.470898  0.247403  1
  Pa  Pa3  1  0.470898  0.278421  0.752597  1
  Pa  Pa4  1  0.721579  0.192476  0.752597  1
  Pa  Pa5  1  0.807524  0.529102  0.752597  1
  Si  Si6  1  0.524040  0.132935  0.250870  1
  Si  Si7  1  0.867065  0.391106  0.250870  1
  Si  Si8  1  0.608894  0.475960  0.250870  1
  Si  Si9  1  0.956540  0.722709  0.251376  1
  Si  Si10  1  0.277291  0.233833  0.251376  1
  Si  Si11  1  0.766167  0.043460  0.251376  1
  Si  Si12  1  0.391106  0.524040  0.749130  1
  Si  Si13  1  0.475960  0.867065  0.749130  1
  Si  Si14  1  0.132935  0.608894  0.749130  1
  Si  Si15  1  0.722709  0.766167  0.748624  1
  Si  Si16  1  0.233833  0.956540  0.748624  1
  Si  Si17  1  0.043460  0.277291  0.748624  1
  Si  Si18  1  0.000000  0.000000  0.000000  1
  Rh  Rh19  1  0.333333  0.666667  0.745695  1
  Rh  Rh20  1  0.913811  0.242703  0.253667  1
  Rh  Rh21  1  0.757297  0.671108  0.253667  1
  Rh  Rh22  1  0.328892  0.086189  0.253667  1
  Rh  Rh23  1  0.436803  0.022795  0.751078  1
  Rh  Rh24  1  0.977205  0.414010  0.751078  1
  Rh  Rh25  1  0.585990  0.563197  0.751078  1
  Rh  Rh26  1  0.666667  0.333333  0.254305  1
  Rh  Rh27  1  0.084395  0.188569  0.245882  1
  Rh  Rh28  1  0.811431  0.895826  0.245882  1
  Rh  Rh29  1  0.104174  0.915605  0.245882  1
  Rh  Rh30  1  0.022795  0.585990  0.248922  1
  Rh  Rh31  1  0.414010  0.436803  0.248922  1
  Rh  Rh32  1  0.563197  0.977205  0.248922  1
  Rh  Rh33  1  0.671108  0.913811  0.746333  1
  Rh  Rh34  1  0.086189  0.757297  0.746333  1
  Rh  Rh35  1  0.242703  0.328892  0.746333  1
  Rh  Rh36  1  0.915605  0.811431  0.754118  1
  Rh  Rh37  1  0.188569  0.104174  0.754118  1
  Rh  Rh38  1  0.895826  0.084395  0.754118  1
