# generated using pymatgen
data_Hf4TaSi4W3
_symmetry_space_group_name_H-M   'P 1'
_cell_length_a   3.53702200
_cell_length_b   6.94591825
_cell_length_c   8.27252464
_cell_angle_alpha   90.09188814
_cell_angle_beta   90.00000000
_cell_angle_gamma   90.00000000
_symmetry_Int_Tables_number   1
_chemical_formula_structural   Hf4TaSi4W3
_chemical_formula_sum   'Hf4 Ta1 Si4 W3'
_cell_volume   203.23801265
_cell_formula_units_Z   1
loop_
 _symmetry_equiv_pos_site_id
 _symmetry_equiv_pos_as_xyz
  1  'x, y, z'
loop_
 _atom_site_type_symbol
 _atom_site_label
 _atom_site_symmetry_multiplicity
 _atom_site_fract_x
 _atom_site_fract_y
 _atom_site_fract_z
 _atom_site_occupancy
  Hf  Hf0  1  0.250000  0.542645  0.164963  1
  Hf  Hf1  1  0.250000  0.042530  0.333166  1
  Hf  Hf2  1  0.750000  0.456376  0.834557  1
  Hf  Hf3  1  0.750000  0.960926  0.670036  1
  Ta  Ta4  1  0.250000  0.632494  0.560541  1
  Si  Si5  1  0.250000  0.758052  0.862240  1
  Si  Si6  1  0.250000  0.255423  0.639881  1
  Si  Si7  1  0.750000  0.242934  0.139799  1
  Si  Si8  1  0.750000  0.742953  0.355829  1
  W  W9  1  0.250000  0.135020  0.939459  1
  W  W10  1  0.750000  0.362545  0.438251  1
  W  W11  1  0.750000  0.868102  0.061278  1
