# generated using pymatgen
data_PrI2F
_symmetry_space_group_name_H-M   'P 1'
_cell_length_a   4.27759086
_cell_length_b   4.27638211
_cell_length_c   8.78447720
_cell_angle_alpha   104.64462280
_cell_angle_beta   74.20377932
_cell_angle_gamma   120.01730202
_symmetry_Int_Tables_number   1
_chemical_formula_structural   PrI2F
_chemical_formula_sum   'Pr1 I2 F1'
_cell_volume   132.56530464
_cell_formula_units_Z   1
loop_
 _symmetry_equiv_pos_site_id
 _symmetry_equiv_pos_as_xyz
  1  'x, y, z'
loop_
 _atom_site_type_symbol
 _atom_site_label
 _atom_site_symmetry_multiplicity
 _atom_site_fract_x
 _atom_site_fract_y
 _atom_site_fract_z
 _atom_site_occupancy
  Pr  Pr0  1  0.893971  0.382454  0.802111  1
  I  I1  1  0.332574  0.965479  0.537508  1
  I  I2  1  0.121220  0.133191  0.066606  1
  F  F3  1  0.560469  0.715899  0.802596  1
