# generated using pymatgen
data_Cs6Cr(IrBr6)3
_symmetry_space_group_name_H-M   'P 1'
_cell_length_a   7.76921000
_cell_length_b   7.76920930
_cell_length_c   19.68146400
_cell_angle_alpha   90.00000000
_cell_angle_beta   90.00000000
_cell_angle_gamma   119.99999445
_symmetry_Int_Tables_number   1
_chemical_formula_structural   Cs6Cr(IrBr6)3
_chemical_formula_sum   'Cs6 Cr1 Ir3 Br18'
_cell_volume   1028.82554318
_cell_formula_units_Z   1
loop_
 _symmetry_equiv_pos_site_id
 _symmetry_equiv_pos_as_xyz
  1  'x, y, z'
loop_
 _atom_site_type_symbol
 _atom_site_label
 _atom_site_symmetry_multiplicity
 _atom_site_fract_x
 _atom_site_fract_y
 _atom_site_fract_z
 _atom_site_occupancy
  Cs  Cs0  1  0.666667  0.333333  0.932687  1
  Cs  Cs1  1  0.333333  0.666667  0.434400  1
  Cs  Cs2  1  0.666667  0.333333  0.569224  1
  Cs  Cs3  1  0.333333  0.666667  0.066477  1
  Cs  Cs4  1  0.000000  0.000000  0.748145  1
  Cs  Cs5  1  0.000000  0.000000  0.250230  1
  Cr  Cr6  1  0.333333  0.666667  0.835781  1
  Ir  Ir7  1  0.333333  0.666667  0.668741  1
  Ir  Ir8  1  0.666667  0.333333  0.165370  1
  Ir  Ir9  1  0.666667  0.333333  0.334137  1
  Br  Br10  1  0.819211  0.638421  0.405883  1
  Br  Br11  1  0.179286  0.358573  0.903773  1
  Br  Br12  1  0.179286  0.820714  0.903773  1
  Br  Br13  1  0.181238  0.362477  0.596049  1
  Br  Br14  1  0.641427  0.820714  0.903773  1
  Br  Br15  1  0.361579  0.180789  0.405883  1
  Br  Br16  1  0.038177  0.519088  0.749245  1
  Br  Br17  1  0.819211  0.180789  0.405883  1
  Br  Br18  1  0.522353  0.044707  0.249688  1
  Br  Br19  1  0.480912  0.519088  0.749245  1
  Br  Br20  1  0.522353  0.477647  0.249688  1
  Br  Br21  1  0.955293  0.477647  0.249688  1
  Br  Br22  1  0.361354  0.180677  0.093631  1
  Br  Br23  1  0.480912  0.961823  0.749245  1
  Br  Br24  1  0.819323  0.638646  0.093631  1
  Br  Br25  1  0.181238  0.818762  0.596049  1
  Br  Br26  1  0.637523  0.818762  0.596049  1
  Br  Br27  1  0.819323  0.180677  0.093631  1
