# generated using pymatgen
data_Yb6ErCo4Sn13
_symmetry_space_group_name_H-M   'P 1'
_cell_length_a   11.17503000
_cell_length_b   11.17503000
_cell_length_c   4.61900700
_cell_angle_alpha   90.00000000
_cell_angle_beta   90.00000000
_cell_angle_gamma   90.00000000
_symmetry_Int_Tables_number   1
_chemical_formula_structural   Yb6ErCo4Sn13
_chemical_formula_sum   'Yb6 Er1 Co4 Sn13'
_cell_volume   576.82757809
_cell_formula_units_Z   1
loop_
 _symmetry_equiv_pos_site_id
 _symmetry_equiv_pos_as_xyz
  1  'x, y, z'
loop_
 _atom_site_type_symbol
 _atom_site_label
 _atom_site_symmetry_multiplicity
 _atom_site_fract_x
 _atom_site_fract_y
 _atom_site_fract_z
 _atom_site_occupancy
  Yb  Yb0  1  0.340166  0.670071  0.500000  1
  Yb  Yb1  1  0.659834  0.329929  0.500000  1
  Yb  Yb2  1  0.329929  0.340166  0.500000  1
  Yb  Yb3  1  0.670071  0.659834  0.500000  1
  Yb  Yb4  1  0.500000  0.000000  0.500000  1
  Yb  Yb5  1  0.000000  0.500000  0.500000  1
  Er  Er6  1  0.000000  0.000000  0.000000  1
  Co  Co7  1  0.117713  0.727693  0.000000  1
  Co  Co8  1  0.882287  0.272307  0.000000  1
  Co  Co9  1  0.272307  0.117713  0.000000  1
  Co  Co10  1  0.727693  0.882287  0.000000  1
  Sn  Sn11  1  0.283800  0.888171  0.000000  1
  Sn  Sn12  1  0.716200  0.111829  0.000000  1
  Sn  Sn13  1  0.111829  0.283800  0.000000  1
  Sn  Sn14  1  0.888171  0.716200  0.000000  1
  Sn  Sn15  1  0.077752  0.804557  0.500000  1
  Sn  Sn16  1  0.922248  0.195443  0.500000  1
  Sn  Sn17  1  0.195443  0.077752  0.500000  1
  Sn  Sn18  1  0.804557  0.922248  0.500000  1
  Sn  Sn19  1  0.523376  0.786942  0.000000  1
  Sn  Sn20  1  0.476624  0.213058  0.000000  1
  Sn  Sn21  1  0.213058  0.523376  0.000000  1
  Sn  Sn22  1  0.786942  0.476624  0.000000  1
  Sn  Sn23  1  0.500000  0.500000  0.000000  1
