# generated using pymatgen
data_Tb3Sm5(AsBr6)2
_symmetry_space_group_name_H-M   'P 1'
_cell_length_a   4.11612900
_cell_length_b   13.46371331
_cell_length_c   14.19196891
_cell_angle_alpha   90.14849257
_cell_angle_beta   90.00000000
_cell_angle_gamma   90.00000000
_symmetry_Int_Tables_number   1
_chemical_formula_structural   Tb3Sm5(AsBr6)2
_chemical_formula_sum   'Tb3 Sm5 As2 Br12'
_cell_volume   786.49329599
_cell_formula_units_Z   1
loop_
 _symmetry_equiv_pos_site_id
 _symmetry_equiv_pos_as_xyz
  1  'x, y, z'
loop_
 _atom_site_type_symbol
 _atom_site_label
 _atom_site_symmetry_multiplicity
 _atom_site_fract_x
 _atom_site_fract_y
 _atom_site_fract_z
 _atom_site_occupancy
  Tb  Tb0  1  0.500000  0.880602  0.660039  1
  Tb  Tb1  1  0.500000  0.618558  0.158828  1
  Tb  Tb2  1  0.500000  0.381482  0.841092  1
  Sm  Sm3  1  0.500000  0.118696  0.341014  1
  Sm  Sm4  1  0.000000  0.119412  0.578765  1
  Sm  Sm5  1  0.000000  0.881297  0.420194  1
  Sm  Sm6  1  0.000000  0.618803  0.921001  1
  Sm  Sm7  1  0.000000  0.381572  0.078799  1
  As  As8  1  0.500000  0.998584  0.501893  1
  As  As9  1  0.500000  0.500191  0.999854  1
  Br  Br10  1  0.500000  0.242266  0.162815  1
  Br  Br11  1  0.500000  0.759028  0.834873  1
  Br  Br12  1  0.500000  0.740543  0.334805  1
  Br  Br13  1  0.500000  0.259170  0.665681  1
  Br  Br14  1  0.000000  0.257051  0.412391  1
  Br  Br15  1  0.000000  0.746631  0.590373  1
  Br  Br16  1  0.000000  0.753260  0.090488  1
  Br  Br17  1  0.000000  0.246720  0.909410  1
  Br  Br18  1  0.000000  0.000224  0.241927  1
  Br  Br19  1  0.000000  0.995829  0.755814  1
  Br  Br20  1  0.000000  0.504387  0.255745  1
  Br  Br21  1  0.000000  0.495695  0.744200  1
