# generated using pymatgen
data_CaYTh2(Al3Ir)6
_symmetry_space_group_name_H-M   'P 1'
_cell_length_a   7.61800495
_cell_length_b   7.62180910
_cell_length_c   9.53219900
_cell_angle_alpha   90.00000000
_cell_angle_beta   90.00000000
_cell_angle_gamma   119.43031236
_symmetry_Int_Tables_number   1
_chemical_formula_structural   CaYTh2(Al3Ir)6
_chemical_formula_sum   'Ca1 Y1 Th2 Al18 Ir6'
_cell_volume   482.04504616
_cell_formula_units_Z   1
loop_
 _symmetry_equiv_pos_site_id
 _symmetry_equiv_pos_as_xyz
  1  'x, y, z'
loop_
 _atom_site_type_symbol
 _atom_site_label
 _atom_site_symmetry_multiplicity
 _atom_site_fract_x
 _atom_site_fract_y
 _atom_site_fract_z
 _atom_site_occupancy
  Ca  Ca0  1  0.003606  0.327582  0.750000  1
  Y  Y1  1  0.327793  0.004695  0.750000  1
  Th  Th2  1  0.994917  0.671060  0.250000  1
  Th  Th3  1  0.672047  0.995508  0.250000  1
  Al  Al4  1  0.135345  0.134948  0.250000  1
  Al  Al5  1  0.873054  0.872795  0.750000  1
  Al  Al6  1  0.005972  0.335722  0.069291  1
  Al  Al7  1  0.000047  0.664369  0.919468  1
  Al  Al8  1  0.000047  0.664369  0.580532  1
  Al  Al9  1  0.335651  0.005468  0.430096  1
  Al  Al10  1  0.005972  0.335722  0.430709  1
  Al  Al11  1  0.664279  0.999737  0.580499  1
  Al  Al12  1  0.664279  0.999737  0.919501  1
  Al  Al13  1  0.335651  0.005468  0.069904  1
  Al  Al14  1  0.332011  0.332577  0.554800  1
  Al  Al15  1  0.663156  0.663100  0.457323  1
  Al  Al16  1  0.663156  0.663100  0.042677  1
  Al  Al17  1  0.332011  0.332577  0.945200  1
  Al  Al18  1  0.340583  0.543269  0.250000  1
  Al  Al19  1  0.658162  0.448826  0.750000  1
  Al  Al20  1  0.543723  0.339771  0.250000  1
  Al  Al21  1  0.448587  0.659986  0.750000  1
  Ir  Ir22  1  0.671860  0.328497  0.002116  1
  Ir  Ir23  1  0.329475  0.673752  0.002045  1
  Ir  Ir24  1  0.329475  0.673752  0.497955  1
  Ir  Ir25  1  0.671860  0.328497  0.497884  1
  Ir  Ir26  1  0.998643  0.997560  0.002392  1
  Ir  Ir27  1  0.998643  0.997560  0.497608  1
