# generated using pymatgen
data_Y6Mn6Ni12P13Pt2
_symmetry_space_group_name_H-M   'P 1'
_cell_length_a   12.91911000
_cell_length_b   12.91911097
_cell_length_c   3.77209800
_cell_angle_alpha   90.00000000
_cell_angle_beta   90.00000000
_cell_angle_gamma   120.00000263
_symmetry_Int_Tables_number   1
_chemical_formula_structural   Y6Mn6Ni12P13Pt2
_chemical_formula_sum   'Y6 Mn6 Ni12 P13 Pt2'
_cell_volume   545.22883047
_cell_formula_units_Z   1
loop_
 _symmetry_equiv_pos_site_id
 _symmetry_equiv_pos_as_xyz
  1  'x, y, z'
loop_
 _atom_site_type_symbol
 _atom_site_label
 _atom_site_symmetry_multiplicity
 _atom_site_fract_x
 _atom_site_fract_y
 _atom_site_fract_z
 _atom_site_occupancy
  Y  Y0  1  0.465869  0.184501  0.000000  1
  Y  Y1  1  0.718633  0.534131  0.000000  1
  Y  Y2  1  0.815499  0.281367  0.000000  1
  Y  Y3  1  0.533929  0.814673  0.500000  1
  Y  Y4  1  0.280745  0.466071  0.500000  1
  Y  Y5  1  0.185327  0.719255  0.500000  1
  Mn  Mn6  1  0.196771  0.092069  0.000000  1
  Mn  Mn7  1  0.895296  0.803229  0.000000  1
  Mn  Mn8  1  0.907931  0.104704  0.000000  1
  Mn  Mn9  1  0.845087  0.929530  0.500000  1
  Mn  Mn10  1  0.084442  0.154913  0.500000  1
  Mn  Mn11  1  0.070470  0.915558  0.500000  1
  Ni  Ni12  1  0.435138  0.413686  0.000000  1
  Ni  Ni13  1  0.978549  0.564862  0.000000  1
  Ni  Ni14  1  0.586314  0.021451  0.000000  1
  Ni  Ni15  1  0.567057  0.588130  0.500000  1
  Ni  Ni16  1  0.021073  0.432943  0.500000  1
  Ni  Ni17  1  0.411870  0.978927  0.500000  1
  Ni  Ni18  1  0.078511  0.317348  0.000000  1
  Ni  Ni19  1  0.238837  0.921489  0.000000  1
  Ni  Ni20  1  0.682652  0.761163  0.000000  1
  Ni  Ni21  1  0.928145  0.681052  0.500000  1
  Ni  Ni22  1  0.752907  0.071855  0.500000  1
  Ni  Ni23  1  0.318948  0.247093  0.500000  1
  P  P24  1  0.232916  0.280334  0.000000  1
  P  P25  1  0.047418  0.767084  0.000000  1
  P  P26  1  0.719666  0.952582  0.000000  1
  P  P27  1  0.770524  0.721486  0.500000  1
  P  P28  1  0.950963  0.229476  0.500000  1
  P  P29  1  0.278514  0.049037  0.500000  1
  P  P30  1  0.484873  0.613397  0.000000  1
  P  P31  1  0.128523  0.515127  0.000000  1
  P  P32  1  0.386603  0.871477  0.000000  1
  P  P33  1  0.518148  0.389785  0.500000  1
  P  P34  1  0.871636  0.481852  0.500000  1
  P  P35  1  0.610215  0.128364  0.500000  1
  P  P36  1  0.000000  0.000000  0.000000  1
  Pt  Pt37  1  0.333333  0.666667  0.000000  1
  Pt  Pt38  1  0.666667  0.333333  0.500000  1
