# generated using pymatgen
data_Ce2SmPa(InRh2)2
_symmetry_space_group_name_H-M   'P 1'
_cell_length_a   7.71420762
_cell_length_b   7.75437505
_cell_length_c   3.69146200
_cell_angle_alpha   90.00000000
_cell_angle_beta   90.00000000
_cell_angle_gamma   92.73266936
_symmetry_Int_Tables_number   1
_chemical_formula_structural   Ce2SmPa(InRh2)2
_chemical_formula_sum   'Ce2 Sm1 Pa1 In2 Rh4'
_cell_volume   220.56794164
_cell_formula_units_Z   1
loop_
 _symmetry_equiv_pos_site_id
 _symmetry_equiv_pos_as_xyz
  1  'x, y, z'
loop_
 _atom_site_type_symbol
 _atom_site_label
 _atom_site_symmetry_multiplicity
 _atom_site_fract_x
 _atom_site_fract_y
 _atom_site_fract_z
 _atom_site_occupancy
  Ce  Ce0  1  0.327553  0.827636  0.500000  1
  Ce  Ce1  1  0.831676  0.672952  0.500000  1
  Sm  Sm2  1  0.169888  0.330694  0.500000  1
  Pa  Pa3  1  0.664152  0.167843  0.500000  1
  In  In4  1  0.002117  0.005118  0.000000  1
  In  In5  1  0.496887  0.503849  0.000000  1
  Rh  Rh6  1  0.124589  0.642797  0.000000  1
  Rh  Rh7  1  0.845201  0.353393  0.000000  1
  Rh  Rh8  1  0.644611  0.867583  0.000000  1
  Rh  Rh9  1  0.393328  0.128136  0.000000  1
