# generated using pymatgen
data_Sm2Fe2Co3P4Rh
_symmetry_space_group_name_H-M   'P 1'
_cell_length_a   3.76042000
_cell_length_b   10.73734900
_cell_length_c   12.30984900
_cell_angle_alpha   90.00000000
_cell_angle_beta   90.00000000
_cell_angle_gamma   90.00000000
_symmetry_Int_Tables_number   1
_chemical_formula_structural   Sm2Fe2Co3P4Rh
_chemical_formula_sum   'Sm6 Fe6 Co9 P12 Rh3'
_cell_volume   497.03405820
_cell_formula_units_Z   3
loop_
 _symmetry_equiv_pos_site_id
 _symmetry_equiv_pos_as_xyz
  1  'x, y, z'
loop_
 _atom_site_type_symbol
 _atom_site_label
 _atom_site_symmetry_multiplicity
 _atom_site_fract_x
 _atom_site_fract_y
 _atom_site_fract_z
 _atom_site_occupancy
  Sm  Sm0  1  0.000000  0.500000  0.521761  1
  Sm  Sm1  1  0.500000  0.000000  0.474731  1
  Sm  Sm2  1  0.500000  0.820975  0.204591  1
  Sm  Sm3  1  0.500000  0.179025  0.204591  1
  Sm  Sm4  1  0.000000  0.684135  0.795285  1
  Sm  Sm5  1  0.000000  0.315865  0.795285  1
  Fe  Fe6  1  0.000000  0.500000  0.992717  1
  Fe  Fe7  1  0.500000  0.000000  0.009289  1
  Fe  Fe8  1  0.000000  0.168642  0.004801  1
  Fe  Fe9  1  0.000000  0.831358  0.004801  1
  Fe  Fe10  1  0.000000  0.199344  0.568560  1
  Fe  Fe11  1  0.000000  0.800656  0.568560  1
  Co  Co12  1  0.000000  0.000000  0.294770  1
  Co  Co13  1  0.500000  0.333698  0.996640  1
  Co  Co14  1  0.500000  0.666302  0.996640  1
  Co  Co15  1  0.500000  0.295820  0.427623  1
  Co  Co16  1  0.500000  0.704180  0.427623  1
  Co  Co17  1  0.500000  0.881904  0.710823  1
  Co  Co18  1  0.500000  0.118096  0.710823  1
  Co  Co19  1  0.000000  0.620258  0.290599  1
  Co  Co20  1  0.000000  0.379742  0.290599  1
  P  P21  1  0.500000  0.500000  0.894008  1
  P  P22  1  0.000000  0.000000  0.110090  1
  P  P23  1  0.500000  0.500000  0.348746  1
  P  P24  1  0.000000  0.000000  0.650523  1
  P  P25  1  0.500000  0.297742  0.611615  1
  P  P26  1  0.500000  0.702258  0.611615  1
  P  P27  1  0.000000  0.190969  0.384547  1
  P  P28  1  0.000000  0.809031  0.384547  1
  P  P29  1  0.500000  0.843125  0.900716  1
  P  P30  1  0.500000  0.156875  0.900716  1
  P  P31  1  0.000000  0.657146  0.103624  1
  P  P32  1  0.000000  0.342854  0.103624  1
  Rh  Rh33  1  0.500000  0.500000  0.160254  1
  Rh  Rh34  1  0.000000  0.000000  0.841575  1
  Rh  Rh35  1  0.500000  0.500000  0.702690  1
