# generated using pymatgen
data_TaNb3Co2(Si2Ir)2
_symmetry_space_group_name_H-M   'P 1'
_cell_length_a   3.73865200
_cell_length_b   6.37198329
_cell_length_c   7.22915233
_cell_angle_alpha   89.96550958
_cell_angle_beta   90.00000000
_cell_angle_gamma   90.00000000
_symmetry_Int_Tables_number   1
_chemical_formula_structural   TaNb3Co2(Si2Ir)2
_chemical_formula_sum   'Ta1 Nb3 Co2 Si4 Ir2'
_cell_volume   172.21737593
_cell_formula_units_Z   1
loop_
 _symmetry_equiv_pos_site_id
 _symmetry_equiv_pos_as_xyz
  1  'x, y, z'
loop_
 _atom_site_type_symbol
 _atom_site_label
 _atom_site_symmetry_multiplicity
 _atom_site_fract_x
 _atom_site_fract_y
 _atom_site_fract_z
 _atom_site_occupancy
  Ta  Ta0  1  0.750000  0.023269  0.678263  1
  Nb  Nb1  1  0.750000  0.523909  0.822108  1
  Nb  Nb2  1  0.250000  0.976929  0.328644  1
  Nb  Nb3  1  0.250000  0.476664  0.172410  1
  Co  Co4  1  0.250000  0.858002  0.935828  1
  Co  Co5  1  0.250000  0.355187  0.562761  1
  Si  Si6  1  0.250000  0.230032  0.867577  1
  Si  Si7  1  0.250000  0.729260  0.632657  1
  Si  Si8  1  0.750000  0.770859  0.114316  1
  Si  Si9  1  0.750000  0.270700  0.385739  1
  Ir  Ir10  1  0.750000  0.642773  0.438425  1
  Ir  Ir11  1  0.750000  0.142412  0.061272  1
