# generated using pymatgen
data_TbDy4Ho2CoI12
_symmetry_space_group_name_H-M   'P 1'
_cell_length_a   9.75825068
_cell_length_b   9.75300638
_cell_length_c   9.74917412
_cell_angle_alpha   106.74777556
_cell_angle_beta   106.86453242
_cell_angle_gamma   106.81390544
_symmetry_Int_Tables_number   1
_chemical_formula_structural   TbDy4Ho2CoI12
_chemical_formula_sum   'Tb1 Dy4 Ho2 Co1 I12'
_cell_volume   776.71903571
_cell_formula_units_Z   1
loop_
 _symmetry_equiv_pos_site_id
 _symmetry_equiv_pos_as_xyz
  1  'x, y, z'
loop_
 _atom_site_type_symbol
 _atom_site_label
 _atom_site_symmetry_multiplicity
 _atom_site_fract_x
 _atom_site_fract_y
 _atom_site_fract_z
 _atom_site_occupancy
  Tb  Tb0  1  0.710893  0.978782  0.907574  1
  Dy  Dy1  1  0.500365  0.499965  0.500141  1
  Dy  Dy2  1  0.021167  0.091368  0.286870  1
  Dy  Dy3  1  0.092017  0.286846  0.020837  1
  Dy  Dy4  1  0.286363  0.020758  0.091480  1
  Ho  Ho5  1  0.978512  0.908682  0.714111  1
  Ho  Ho6  1  0.909095  0.714286  0.979025  1
  Co  Co7  1  0.999327  0.999808  0.999621  1
  I  I8  1  0.161046  0.462223  0.385415  1
  I  I9  1  0.462626  0.385373  0.160838  1
  I  I10  1  0.385643  0.160777  0.462590  1
  I  I11  1  0.839613  0.538051  0.614743  1
  I  I12  1  0.537858  0.612863  0.839316  1
  I  I13  1  0.614675  0.838380  0.535632  1
  I  I14  1  0.677235  0.071292  0.226043  1
  I  I15  1  0.070570  0.223358  0.676571  1
  I  I16  1  0.223776  0.676546  0.070444  1
  I  I17  1  0.321882  0.928846  0.775443  1
  I  I18  1  0.929594  0.776162  0.323306  1
  I  I19  1  0.777745  0.325631  0.930001  1
