# generated using pymatgen
data_Ca3AlZnPd2
_symmetry_space_group_name_H-M   'P 1'
_cell_length_a   5.76281000
_cell_length_b   7.98794800
_cell_length_c   14.19190300
_cell_angle_alpha   90.00000000
_cell_angle_beta   90.00000000
_cell_angle_gamma   90.00000000
_symmetry_Int_Tables_number   1
_chemical_formula_structural   Ca3AlZnPd2
_chemical_formula_sum   'Ca12 Al4 Zn4 Pd8'
_cell_volume   653.29624850
_cell_formula_units_Z   4
loop_
 _symmetry_equiv_pos_site_id
 _symmetry_equiv_pos_as_xyz
  1  'x, y, z'
loop_
 _atom_site_type_symbol
 _atom_site_label
 _atom_site_symmetry_multiplicity
 _atom_site_fract_x
 _atom_site_fract_y
 _atom_site_fract_z
 _atom_site_occupancy
  Ca  Ca0  1  0.133357  0.604807  0.098598  1
  Ca  Ca1  1  0.133357  0.895193  0.901402  1
  Ca  Ca2  1  0.866643  0.104807  0.401402  1
  Ca  Ca3  1  0.866643  0.395193  0.598598  1
  Ca  Ca4  1  0.866643  0.395193  0.901402  1
  Ca  Ca5  1  0.866643  0.104807  0.098598  1
  Ca  Ca6  1  0.133357  0.895193  0.598598  1
  Ca  Ca7  1  0.133357  0.604807  0.401402  1
  Ca  Ca8  1  0.374525  0.252037  0.250000  1
  Ca  Ca9  1  0.374525  0.247963  0.750000  1
  Ca  Ca10  1  0.625475  0.752037  0.250000  1
  Ca  Ca11  1  0.625475  0.747963  0.750000  1
  Al  Al12  1  0.387174  0.250000  0.000000  1
  Al  Al13  1  0.612826  0.750000  0.500000  1
  Al  Al14  1  0.612826  0.750000  0.000000  1
  Al  Al15  1  0.387174  0.250000  0.500000  1
  Zn  Zn16  1  0.857013  0.403204  0.250000  1
  Zn  Zn17  1  0.857013  0.096796  0.750000  1
  Zn  Zn18  1  0.142987  0.903204  0.250000  1
  Zn  Zn19  1  0.142987  0.596796  0.750000  1
  Pd  Pd20  1  0.630362  0.470094  0.091023  1
  Pd  Pd21  1  0.630362  0.029906  0.908977  1
  Pd  Pd22  1  0.369638  0.970094  0.408977  1
  Pd  Pd23  1  0.369638  0.529906  0.591023  1
  Pd  Pd24  1  0.369638  0.529906  0.908977  1
  Pd  Pd25  1  0.369638  0.970094  0.091023  1
  Pd  Pd26  1  0.630362  0.029906  0.591023  1
  Pd  Pd27  1  0.630362  0.470094  0.408977  1
