# generated using pymatgen
data_Lu2Fe5(PIr)7
_symmetry_space_group_name_H-M   'P 1'
_cell_length_a   9.38569300
_cell_length_b   9.35972749
_cell_length_c   3.66958300
_cell_angle_alpha   90.00000000
_cell_angle_beta   90.00000000
_cell_angle_gamma   120.09132680
_symmetry_Int_Tables_number   1
_chemical_formula_structural   Lu2Fe5(PIr)7
_chemical_formula_sum   'Lu2 Fe5 P7 Ir7'
_cell_volume   278.91796754
_cell_formula_units_Z   1
loop_
 _symmetry_equiv_pos_site_id
 _symmetry_equiv_pos_as_xyz
  1  'x, y, z'
loop_
 _atom_site_type_symbol
 _atom_site_label
 _atom_site_symmetry_multiplicity
 _atom_site_fract_x
 _atom_site_fract_y
 _atom_site_fract_z
 _atom_site_occupancy
  Lu  Lu0  1  0.330839  0.665287  0.000000  1
  Lu  Lu1  1  0.009331  0.001162  0.500000  1
  Fe  Fe2  1  0.232217  0.272545  0.000000  1
  Fe  Fe3  1  0.042825  0.770572  0.000000  1
  Fe  Fe4  1  0.933525  0.451114  0.000000  1
  Fe  Fe5  1  0.514167  0.064651  0.000000  1
  Fe  Fe6  1  0.550480  0.482270  0.000000  1
  P  P7  1  0.971546  0.223006  0.000000  1
  P  P8  1  0.252229  0.040966  0.000000  1
  P  P9  1  0.792532  0.739828  0.000000  1
  P  P10  1  0.066665  0.620347  0.500000  1
  P  P11  1  0.543483  0.930577  0.500000  1
  P  P12  1  0.376744  0.445779  0.500000  1
  P  P13  1  0.665965  0.331206  0.000000  1
  Ir  Ir14  1  0.741312  0.961516  0.000000  1
  Ir  Ir15  1  0.110804  0.395689  0.500000  1
  Ir  Ir16  1  0.279305  0.885595  0.500000  1
  Ir  Ir17  1  0.595649  0.712519  0.500000  1
  Ir  Ir18  1  0.769127  0.198588  0.500000  1
  Ir  Ir19  1  0.415339  0.223396  0.500000  1
  Ir  Ir20  1  0.805924  0.583387  0.500000  1
