# generated using pymatgen
data_Sc8SiGeBr12
_symmetry_space_group_name_H-M   'P 1'
_cell_length_a   3.84228900
_cell_length_b   12.61960817
_cell_length_c   13.38135818
_cell_angle_alpha   90.01868787
_cell_angle_beta   90.00000000
_cell_angle_gamma   90.00000000
_symmetry_Int_Tables_number   1
_chemical_formula_structural   Sc8SiGeBr12
_chemical_formula_sum   'Sc8 Si1 Ge1 Br12'
_cell_volume   648.83769151
_cell_formula_units_Z   1
loop_
 _symmetry_equiv_pos_site_id
 _symmetry_equiv_pos_as_xyz
  1  'x, y, z'
loop_
 _atom_site_type_symbol
 _atom_site_label
 _atom_site_symmetry_multiplicity
 _atom_site_fract_x
 _atom_site_fract_y
 _atom_site_fract_z
 _atom_site_occupancy
  Sc  Sc0  1  0.500000  0.118424  0.341540  1
  Sc  Sc1  1  0.500000  0.881576  0.658460  1
  Sc  Sc2  1  0.500000  0.617005  0.156592  1
  Sc  Sc3  1  0.500000  0.382995  0.843408  1
  Sc  Sc4  1  0.000000  0.118393  0.578935  1
  Sc  Sc5  1  0.000000  0.881607  0.421065  1
  Sc  Sc6  1  0.000000  0.616794  0.922143  1
  Sc  Sc7  1  0.000000  0.383206  0.077857  1
  Si  Si8  1  0.500000  0.500000  0.000000  1
  Ge  Ge9  1  0.500000  0.000000  0.500000  1
  Br  Br10  1  0.500000  0.246503  0.162273  1
  Br  Br11  1  0.500000  0.753497  0.837727  1
  Br  Br12  1  0.500000  0.746607  0.337885  1
  Br  Br13  1  0.500000  0.253393  0.662115  1
  Br  Br14  1  0.000000  0.254188  0.412947  1
  Br  Br15  1  0.000000  0.745812  0.587053  1
  Br  Br16  1  0.000000  0.754185  0.087200  1
  Br  Br17  1  0.000000  0.245815  0.912800  1
  Br  Br18  1  0.000000  0.001848  0.244515  1
  Br  Br19  1  0.000000  0.998152  0.755485  1
  Br  Br20  1  0.000000  0.502020  0.255517  1
  Br  Br21  1  0.000000  0.497980  0.744483  1
