# generated using pymatgen
data_MgSc4Ga2B4Ru9
_symmetry_space_group_name_H-M   'P 1'
_cell_length_a   9.40730221
_cell_length_b   9.48284058
_cell_length_c   3.07646400
_cell_angle_alpha   90.00000000
_cell_angle_beta   90.00000000
_cell_angle_gamma   89.70693967
_symmetry_Int_Tables_number   1
_chemical_formula_structural   MgSc4Ga2B4Ru9
_chemical_formula_sum   'Mg1 Sc4 Ga2 B4 Ru9'
_cell_volume   274.44144776
_cell_formula_units_Z   1
loop_
 _symmetry_equiv_pos_site_id
 _symmetry_equiv_pos_as_xyz
  1  'x, y, z'
loop_
 _atom_site_type_symbol
 _atom_site_label
 _atom_site_symmetry_multiplicity
 _atom_site_fract_x
 _atom_site_fract_y
 _atom_site_fract_z
 _atom_site_occupancy
  Mg  Mg0  1  0.207929  0.065684  0.500000  1
  Sc  Sc1  1  0.688936  0.173019  0.000000  1
  Sc  Sc2  1  0.339962  0.794275  0.000000  1
  Sc  Sc3  1  0.170631  0.352267  0.000000  1
  Sc  Sc4  1  0.826111  0.680081  0.000000  1
  Ga  Ga5  1  0.973069  0.994064  0.000000  1
  Ga  Ga6  1  0.497779  0.499336  0.000000  1
  B  B7  1  0.119818  0.630571  0.000000  1
  B  B8  1  0.877023  0.376089  0.000000  1
  B  B9  1  0.617218  0.867180  0.000000  1
  B  B10  1  0.422551  0.138667  0.000000  1
  Ru  Ru11  1  0.769903  0.928218  0.500000  1
  Ru  Ru12  1  0.074263  0.792729  0.500000  1
  Ru  Ru13  1  0.714813  0.426378  0.500000  1
  Ru  Ru14  1  0.941699  0.216370  0.500000  1
  Ru  Ru15  1  0.280122  0.566661  0.500000  1
  Ru  Ru16  1  0.573031  0.709802  0.500000  1
  Ru  Ru17  1  0.423250  0.284063  0.500000  1
  Ru  Ru18  1  0.487544  0.997493  0.500000  1
  Ru  Ru19  1  0.994349  0.507053  0.500000  1
