# generated using pymatgen
data_Tb3Ho4FeBr12
_symmetry_space_group_name_H-M   'P 1'
_cell_length_a   9.25939243
_cell_length_b   9.17114288
_cell_length_c   9.28511494
_cell_angle_alpha   106.82672752
_cell_angle_beta   106.86990729
_cell_angle_gamma   106.96274762
_symmetry_Int_Tables_number   1
_chemical_formula_structural   Tb3Ho4FeBr12
_chemical_formula_sum   'Tb3 Ho4 Fe1 Br12'
_cell_volume   658.68002965
_cell_formula_units_Z   1
loop_
 _symmetry_equiv_pos_site_id
 _symmetry_equiv_pos_as_xyz
  1  'x, y, z'
loop_
 _atom_site_type_symbol
 _atom_site_label
 _atom_site_symmetry_multiplicity
 _atom_site_fract_x
 _atom_site_fract_y
 _atom_site_fract_z
 _atom_site_occupancy
  Tb  Tb0  1  0.479609  0.401844  0.194577  1
  Tb  Tb1  1  0.593877  0.792745  0.520732  1
  Tb  Tb2  1  0.407160  0.207457  0.477869  1
  Ho  Ho3  1  0.804836  0.521992  0.598446  1
  Ho  Ho4  1  0.520510  0.596676  0.800908  1
  Ho  Ho5  1  0.196507  0.479038  0.402845  1
  Ho  Ho6  1  0.998491  0.999980  0.001407  1
  Fe  Fe7  1  0.500484  0.499944  0.498585  1
  Br  Br8  1  0.723897  0.183302  0.573288  1
  Br  Br9  1  0.961460  0.886550  0.671706  1
  Br  Br10  1  0.572152  0.723236  0.180502  1
  Br  Br11  1  0.112569  0.333301  0.040150  1
  Br  Br12  1  0.667031  0.960341  0.885156  1
  Br  Br13  1  0.883739  0.665832  0.960649  1
  Br  Br14  1  0.039364  0.114285  0.331724  1
  Br  Br15  1  0.824913  0.430233  0.282368  1
  Br  Br16  1  0.329464  0.036864  0.113700  1
  Br  Br17  1  0.277291  0.817565  0.428237  1
  Br  Br18  1  0.179330  0.570763  0.720898  1
  Br  Br19  1  0.427320  0.278054  0.816249  1
