# generated using pymatgen
data_Yb2ErTm5(B6Ru)4
_symmetry_space_group_name_H-M   'P 1'
_cell_length_a   3.62153200
_cell_length_b   9.08816906
_cell_length_c   11.47384700
_cell_angle_alpha   89.84658642
_cell_angle_beta   90.00000000
_cell_angle_gamma   90.00000000
_symmetry_Int_Tables_number   1
_chemical_formula_structural   Yb2ErTm5(B6Ru)4
_chemical_formula_sum   'Yb2 Er1 Tm5 B24 Ru4'
_cell_volume   377.63846357
_cell_formula_units_Z   1
loop_
 _symmetry_equiv_pos_site_id
 _symmetry_equiv_pos_as_xyz
  1  'x, y, z'
loop_
 _atom_site_type_symbol
 _atom_site_label
 _atom_site_symmetry_multiplicity
 _atom_site_fract_x
 _atom_site_fract_y
 _atom_site_fract_z
 _atom_site_occupancy
  Yb  Yb0  1  0.000000  0.324703  0.414862  1
  Yb  Yb1  1  0.000000  0.675291  0.585168  1
  Er  Er2  1  0.000000  0.822048  0.085942  1
  Tm  Tm3  1  0.000000  0.178023  0.914022  1
  Tm  Tm4  1  0.000000  0.941914  0.369749  1
  Tm  Tm5  1  0.000000  0.058139  0.630283  1
  Tm  Tm6  1  0.000000  0.442583  0.130544  1
  Tm  Tm7  1  0.000000  0.557287  0.869403  1
  B  B8  1  0.500000  0.554234  0.432287  1
  B  B9  1  0.500000  0.445697  0.567778  1
  B  B10  1  0.500000  0.053774  0.066306  1
  B  B11  1  0.500000  0.946553  0.933508  1
  B  B12  1  0.500000  0.748589  0.417734  1
  B  B13  1  0.500000  0.251406  0.582349  1
  B  B14  1  0.500000  0.248777  0.080735  1
  B  B15  1  0.500000  0.751244  0.918984  1
  B  B16  1  0.500000  0.791585  0.264094  1
  B  B17  1  0.500000  0.208304  0.736111  1
  B  B18  1  0.500000  0.290389  0.234337  1
  B  B19  1  0.500000  0.709642  0.765594  1
  B  B20  1  0.500000  0.631063  0.184508  1
  B  B21  1  0.500000  0.368729  0.815631  1
  B  B22  1  0.500000  0.130361  0.314190  1
  B  B23  1  0.500000  0.869735  0.685819  1
  B  B24  1  0.500000  0.982596  0.211460  1
  B  B25  1  0.500000  0.017696  0.788604  1
  B  B26  1  0.500000  0.483470  0.287794  1
  B  B27  1  0.500000  0.516425  0.712232  1
  B  B28  1  0.500000  0.602789  0.028177  1
  B  B29  1  0.500000  0.396856  0.971716  1
  B  B30  1  0.500000  0.098786  0.472786  1
  B  B31  1  0.500000  0.901251  0.527252  1
  Ru  Ru32  1  0.000000  0.640230  0.318326  1
  Ru  Ru33  1  0.000000  0.359621  0.681808  1
  Ru  Ru34  1  0.000000  0.137089  0.178031  1
  Ru  Ru35  1  0.000000  0.863119  0.821876  1
