# generated using pymatgen
data_Tm4Al2ZnGaPt4
_symmetry_space_group_name_H-M   'P 1'
_cell_length_a   4.39341000
_cell_length_b   6.75360444
_cell_length_c   7.76897931
_cell_angle_alpha   89.85884482
_cell_angle_beta   90.00000000
_cell_angle_gamma   90.00000000
_symmetry_Int_Tables_number   1
_chemical_formula_structural   Tm4Al2ZnGaPt4
_chemical_formula_sum   'Tm4 Al2 Zn1 Ga1 Pt4'
_cell_volume   230.51543000
_cell_formula_units_Z   1
loop_
 _symmetry_equiv_pos_site_id
 _symmetry_equiv_pos_as_xyz
  1  'x, y, z'
loop_
 _atom_site_type_symbol
 _atom_site_label
 _atom_site_symmetry_multiplicity
 _atom_site_fract_x
 _atom_site_fract_y
 _atom_site_fract_z
 _atom_site_occupancy
  Tm  Tm0  1  0.250000  0.026699  0.687479  1
  Tm  Tm1  1  0.250000  0.527617  0.818902  1
  Tm  Tm2  1  0.750000  0.971454  0.313731  1
  Tm  Tm3  1  0.750000  0.471157  0.178679  1
  Al  Al4  1  0.250000  0.648563  0.439011  1
  Al  Al5  1  0.750000  0.355421  0.559467  1
  Zn  Zn6  1  0.250000  0.152775  0.066700  1
  Ga  Ga7  1  0.750000  0.849745  0.936667  1
  Pt  Pt8  1  0.250000  0.270464  0.390849  1
  Pt  Pt9  1  0.250000  0.760361  0.121373  1
  Pt  Pt10  1  0.750000  0.730722  0.613085  1
  Pt  Pt11  1  0.750000  0.235023  0.874057  1
