# generated using pymatgen
data_CeY2(Al3Ru)4
_symmetry_space_group_name_H-M   'P 1'
_cell_length_a   8.85488844
_cell_length_b   8.84457705
_cell_length_c   9.59485900
_cell_angle_alpha   90.00000000
_cell_angle_beta   90.00000000
_cell_angle_gamma   119.96148191
_symmetry_Int_Tables_number   1
_chemical_formula_structural   CeY2(Al3Ru)4
_chemical_formula_sum   'Ce2 Y4 Al24 Ru8'
_cell_volume   651.02523972
_cell_formula_units_Z   2
loop_
 _symmetry_equiv_pos_site_id
 _symmetry_equiv_pos_as_xyz
  1  'x, y, z'
loop_
 _atom_site_type_symbol
 _atom_site_label
 _atom_site_symmetry_multiplicity
 _atom_site_fract_x
 _atom_site_fract_y
 _atom_site_fract_z
 _atom_site_occupancy
  Ce  Ce0  1  0.191915  0.802821  0.250000  1
  Ce  Ce1  1  0.191915  0.389095  0.250000  1
  Y  Y2  1  0.613484  0.806742  0.250000  1
  Y  Y3  1  0.807583  0.191926  0.750000  1
  Y  Y4  1  0.807583  0.615657  0.750000  1
  Y  Y5  1  0.386800  0.193400  0.750000  1
  Al  Al6  1  0.561882  0.438592  0.250000  1
  Al  Al7  1  0.561882  0.123290  0.250000  1
  Al  Al8  1  0.870814  0.435406  0.250000  1
  Al  Al9  1  0.440505  0.560869  0.750000  1
  Al  Al10  1  0.440505  0.879637  0.750000  1
  Al  Al11  1  0.120010  0.560005  0.750000  1
  Al  Al12  1  0.325023  0.162512  0.423564  1
  Al  Al13  1  0.835780  0.161486  0.424386  1
  Al  Al14  1  0.835780  0.674294  0.424386  1
  Al  Al15  1  0.675358  0.837679  0.577955  1
  Al  Al16  1  0.162640  0.837831  0.578180  1
  Al  Al17  1  0.162640  0.324809  0.578180  1
  Al  Al18  1  0.675358  0.837679  0.922045  1
  Al  Al19  1  0.162640  0.837831  0.921820  1
  Al  Al20  1  0.162640  0.324809  0.921820  1
  Al  Al21  1  0.325023  0.162512  0.076436  1
  Al  Al22  1  0.835780  0.161486  0.075614  1
  Al  Al23  1  0.835780  0.674294  0.075614  1
  Al  Al24  1  0.667277  0.333638  0.517155  1
  Al  Al25  1  0.336522  0.668261  0.491560  1
  Al  Al26  1  0.336522  0.668261  0.008440  1
  Al  Al27  1  0.667277  0.333638  0.982845  1
  Al  Al28  1  0.999882  0.999941  0.250000  1
  Al  Al29  1  0.001712  0.000856  0.750000  1
  Ru  Ru30  1  0.999026  0.999513  0.500585  1
  Ru  Ru31  1  0.999026  0.999513  0.999415  1
  Ru  Ru32  1  0.499399  0.499661  0.498665  1
  Ru  Ru33  1  0.499399  0.999739  0.498665  1
  Ru  Ru34  1  0.002917  0.501458  0.496140  1
  Ru  Ru35  1  0.499399  0.499661  0.001335  1
  Ru  Ru36  1  0.499399  0.999739  0.001335  1
  Ru  Ru37  1  0.002917  0.501458  0.003860  1
