# generated using pymatgen
data_PrNdY2(Co2I)2
_symmetry_space_group_name_H-M   'P 1'
_cell_length_a   3.98133600
_cell_length_b   3.98133540
_cell_length_c   17.41907100
_cell_angle_alpha   90.00000000
_cell_angle_beta   90.00000000
_cell_angle_gamma   119.99998838
_symmetry_Int_Tables_number   1
_chemical_formula_structural   PrNdY2(Co2I)2
_chemical_formula_sum   'Pr1 Nd1 Y2 Co4 I2'
_cell_volume   239.11854976
_cell_formula_units_Z   1
loop_
 _symmetry_equiv_pos_site_id
 _symmetry_equiv_pos_as_xyz
  1  'x, y, z'
loop_
 _atom_site_type_symbol
 _atom_site_label
 _atom_site_symmetry_multiplicity
 _atom_site_fract_x
 _atom_site_fract_y
 _atom_site_fract_z
 _atom_site_occupancy
  Pr  Pr0  1  0.000000  0.000000  0.608288  1
  Nd  Nd1  1  0.000000  0.000000  0.392279  1
  Y  Y2  1  0.000000  0.000000  0.101167  1
  Y  Y3  1  0.000000  0.000000  0.898894  1
  Co  Co4  1  0.333333  0.666667  0.499142  1
  Co  Co5  1  0.666667  0.333333  0.499585  1
  Co  Co6  1  0.666667  0.333333  0.001704  1
  Co  Co7  1  0.333333  0.666667  0.998307  1
  I  I8  1  0.333333  0.666667  0.242879  1
  I  I9  1  0.666667  0.333333  0.757754  1
