# generated using pymatgen
data_Y5Tm5Si5Sb
_symmetry_space_group_name_H-M   'P 1'
_cell_length_a   8.40047600
_cell_length_b   8.40654575
_cell_length_c   6.29156600
_cell_angle_alpha   90.00000000
_cell_angle_beta   90.00000000
_cell_angle_gamma   120.03125767
_symmetry_Int_Tables_number   1
_chemical_formula_structural   Y5Tm5Si5Sb
_chemical_formula_sum   'Y5 Tm5 Si5 Sb1'
_cell_volume   384.65730755
_cell_formula_units_Z   1
loop_
 _symmetry_equiv_pos_site_id
 _symmetry_equiv_pos_as_xyz
  1  'x, y, z'
loop_
 _atom_site_type_symbol
 _atom_site_label
 _atom_site_symmetry_multiplicity
 _atom_site_fract_x
 _atom_site_fract_y
 _atom_site_fract_z
 _atom_site_occupancy
  Y  Y0  1  0.765589  0.765026  0.250000  1
  Y  Y1  1  0.240273  0.987144  0.250000  1
  Y  Y2  1  0.987464  0.241692  0.250000  1
  Y  Y3  1  0.241804  0.241698  0.750000  1
  Y  Y4  1  0.755487  0.999312  0.750000  1
  Tm  Tm5  1  0.674629  0.331793  0.504036  1
  Tm  Tm6  1  0.331227  0.674512  0.503974  1
  Tm  Tm7  1  0.331227  0.674512  0.996026  1
  Tm  Tm8  1  0.674629  0.331793  0.995964  1
  Tm  Tm9  1  0.999524  0.754338  0.750000  1
  Si  Si10  1  0.602328  0.998587  0.250000  1
  Si  Si11  1  0.998746  0.602213  0.250000  1
  Si  Si12  1  0.607325  0.605868  0.750000  1
  Si  Si13  1  0.393643  0.000695  0.750000  1
  Si  Si14  1  0.002066  0.396792  0.750000  1
  Sb  Sb15  1  0.394038  0.394024  0.250000  1
