# generated using pymatgen
data_RbGa(CO3)2
_symmetry_space_group_name_H-M   'P 1'
_cell_length_a   6.25911029
_cell_length_b   6.25911129
_cell_length_c   7.03374519
_cell_angle_alpha   105.39226957
_cell_angle_beta   105.39227659
_cell_angle_gamma   94.25986305
_symmetry_Int_Tables_number   1
_chemical_formula_structural   RbGa(CO3)2
_chemical_formula_sum   'Rb2 Ga2 C4 O12'
_cell_volume   253.02015218
_cell_formula_units_Z   2
loop_
 _symmetry_equiv_pos_site_id
 _symmetry_equiv_pos_as_xyz
  1  'x, y, z'
loop_
 _atom_site_type_symbol
 _atom_site_label
 _atom_site_symmetry_multiplicity
 _atom_site_fract_x
 _atom_site_fract_y
 _atom_site_fract_z
 _atom_site_occupancy
  Rb  Rb0  1  0.898561  0.101439  0.250000  1
  Rb  Rb1  1  0.101439  0.898561  0.750000  1
  Ga  Ga2  1  0.350628  0.649372  0.250000  1
  Ga  Ga3  1  0.649372  0.350628  0.750000  1
  C  C4  1  0.407742  0.189086  0.301304  1
  C  C5  1  0.810914  0.592258  0.198697  1
  C  C6  1  0.189086  0.407742  0.801304  1
  C  C7  1  0.592258  0.810914  0.698697  1
  O  O8  1  0.727357  0.409857  0.046941  1
  O  O9  1  0.298498  0.317762  0.204393  1
  O  O10  1  0.330815  0.977674  0.230204  1
  O  O11  1  0.022326  0.669186  0.269797  1
  O  O12  1  0.682238  0.701502  0.295608  1
  O  O13  1  0.590143  0.272643  0.453059  1
  O  O14  1  0.409856  0.727357  0.546941  1
  O  O15  1  0.317761  0.298498  0.704393  1
  O  O16  1  0.977674  0.330814  0.730204  1
  O  O17  1  0.669185  0.022326  0.769797  1
  O  O18  1  0.701502  0.682238  0.795608  1
  O  O19  1  0.272643  0.590143  0.953059  1
