# generated using pymatgen
data_Rb8Na3Li(DySb2)4
_symmetry_space_group_name_H-M   'P 1'
_cell_length_a   11.33270989
_cell_length_b   11.33270975
_cell_length_c   7.42727247
_cell_angle_alpha   89.96930107
_cell_angle_beta   90.03069730
_cell_angle_gamma   98.79684191
_symmetry_Int_Tables_number   1
_chemical_formula_structural   Rb8Na3Li(DySb2)4
_chemical_formula_sum   'Rb8 Na3 Li1 Dy4 Sb8'
_cell_volume   942.66593427
_cell_formula_units_Z   1
loop_
 _symmetry_equiv_pos_site_id
 _symmetry_equiv_pos_as_xyz
  1  'x, y, z'
loop_
 _atom_site_type_symbol
 _atom_site_label
 _atom_site_symmetry_multiplicity
 _atom_site_fract_x
 _atom_site_fract_y
 _atom_site_fract_z
 _atom_site_occupancy
  Rb  Rb0  1  0.071313  0.430410  0.248952  1
  Rb  Rb1  1  0.430410  0.071313  0.751048  1
  Rb  Rb2  1  0.930637  0.569399  0.750413  1
  Rb  Rb3  1  0.569399  0.930637  0.249587  1
  Rb  Rb4  1  0.675166  0.323205  0.213244  1
  Rb  Rb5  1  0.822486  0.177721  0.714893  1
  Rb  Rb6  1  0.323205  0.675166  0.786756  1
  Rb  Rb7  1  0.177721  0.822486  0.285107  1
  Na  Na8  1  0.118455  0.118455  0.500000  1
  Na  Na9  1  0.615401  0.615401  0.000000  1
  Na  Na10  1  0.882252  0.882252  0.500000  1
  Li  Li11  1  0.376914  0.376914  0.000000  1
  Dy  Dy12  1  0.131915  0.131915  0.000000  1
  Dy  Dy13  1  0.369947  0.369947  0.500000  1
  Dy  Dy14  1  0.869166  0.869166  0.000000  1
  Dy  Dy15  1  0.629597  0.629597  0.500000  1
  Sb  Sb16  1  0.847706  0.651848  0.250737  1
  Sb  Sb17  1  0.651848  0.847706  0.749263  1
  Sb  Sb18  1  0.160434  0.350534  0.759933  1
  Sb  Sb19  1  0.350534  0.160434  0.240067  1
  Sb  Sb20  1  0.899228  0.101377  0.212816  1
  Sb  Sb21  1  0.595592  0.399297  0.722415  1
  Sb  Sb22  1  0.101377  0.899228  0.787184  1
  Sb  Sb23  1  0.399297  0.595592  0.277585  1
