# generated using pymatgen
data_Er9Lu(GePb3)2
_symmetry_space_group_name_H-M   'P 1'
_cell_length_a   9.25846500
_cell_length_b   9.25846448
_cell_length_c   6.47858900
_cell_angle_alpha   90.00000000
_cell_angle_beta   90.00000000
_cell_angle_gamma   120.00000543
_symmetry_Int_Tables_number   1
_chemical_formula_structural   Er9Lu(GePb3)2
_chemical_formula_sum   'Er9 Lu1 Ge2 Pb6'
_cell_volume   480.93788707
_cell_formula_units_Z   1
loop_
 _symmetry_equiv_pos_site_id
 _symmetry_equiv_pos_as_xyz
  1  'x, y, z'
loop_
 _atom_site_type_symbol
 _atom_site_label
 _atom_site_symmetry_multiplicity
 _atom_site_fract_x
 _atom_site_fract_y
 _atom_site_fract_z
 _atom_site_occupancy
  Er  Er0  1  0.251708  0.999871  0.749848  1
  Er  Er1  1  0.748164  0.999871  0.250152  1
  Er  Er2  1  0.000129  0.251836  0.749848  1
  Er  Er3  1  0.000129  0.748292  0.250152  1
  Er  Er4  1  0.748164  0.748292  0.749848  1
  Er  Er5  1  0.251708  0.251836  0.250152  1
  Er  Er6  1  0.333333  0.666667  0.500000  1
  Er  Er7  1  0.666667  0.333333  0.500000  1
  Er  Er8  1  0.666667  0.333333  0.000000  1
  Lu  Lu9  1  0.333333  0.666667  0.000000  1
  Ge  Ge10  1  0.000000  0.000000  0.500000  1
  Ge  Ge11  1  0.000000  0.000000  0.000000  1
  Pb  Pb12  1  0.606887  0.999525  0.750162  1
  Pb  Pb13  1  0.392639  0.999525  0.249838  1
  Pb  Pb14  1  0.000475  0.607361  0.750162  1
  Pb  Pb15  1  0.000475  0.393113  0.249838  1
  Pb  Pb16  1  0.392639  0.393113  0.750162  1
  Pb  Pb17  1  0.606887  0.607361  0.249838  1
