# generated using pymatgen
data_Mn3GeRh4
_symmetry_space_group_name_H-M   'P 1'
_cell_length_a   7.46637104
_cell_length_b   7.46637143
_cell_length_c   7.46637131
_cell_angle_alpha   33.52501836
_cell_angle_beta   33.52502739
_cell_angle_gamma   33.52501290
_symmetry_Int_Tables_number   1
_chemical_formula_structural   Mn3GeRh4
_chemical_formula_sum   'Mn3 Ge1 Rh4'
_cell_volume   113.08379905
_cell_formula_units_Z   1
loop_
 _symmetry_equiv_pos_site_id
 _symmetry_equiv_pos_as_xyz
  1  'x, y, z'
loop_
 _atom_site_type_symbol
 _atom_site_label
 _atom_site_symmetry_multiplicity
 _atom_site_fract_x
 _atom_site_fract_y
 _atom_site_fract_z
 _atom_site_occupancy
  Mn  Mn0  1  0.248529  0.248529  0.248529  1
  Mn  Mn1  1  0.751471  0.751471  0.751471  1
  Mn  Mn2  1  0.500000  0.500000  0.500000  1
  Ge  Ge3  1  0.000000  0.000000  0.000000  1
  Rh  Rh4  1  0.876207  0.876207  0.876207  1
  Rh  Rh5  1  0.373914  0.373914  0.373914  1
  Rh  Rh6  1  0.123793  0.123793  0.123793  1
  Rh  Rh7  1  0.626086  0.626086  0.626086  1
