# generated using pymatgen
data_Nd3HoLuPb3
_symmetry_space_group_name_H-M   'P 1'
_cell_length_a   9.23768200
_cell_length_b   9.23768225
_cell_length_c   6.73230800
_cell_angle_alpha   90.00000000
_cell_angle_beta   90.00000000
_cell_angle_gamma   120.00000625
_symmetry_Int_Tables_number   1
_chemical_formula_structural   Nd3HoLuPb3
_chemical_formula_sum   'Nd6 Ho2 Lu2 Pb6'
_cell_volume   497.53153023
_cell_formula_units_Z   2
loop_
 _symmetry_equiv_pos_site_id
 _symmetry_equiv_pos_as_xyz
  1  'x, y, z'
loop_
 _atom_site_type_symbol
 _atom_site_label
 _atom_site_symmetry_multiplicity
 _atom_site_fract_x
 _atom_site_fract_y
 _atom_site_fract_z
 _atom_site_occupancy
  Nd  Nd0  1  0.759417  0.759417  0.749651  1
  Nd  Nd1  1  0.240583  0.000000  0.749651  1
  Nd  Nd2  1  0.000000  0.240583  0.749651  1
  Nd  Nd3  1  0.240583  0.240583  0.250349  1
  Nd  Nd4  1  0.759417  0.000000  0.250349  1
  Nd  Nd5  1  0.000000  0.759417  0.250349  1
  Ho  Ho6  1  0.666667  0.333333  0.000000  1
  Ho  Ho7  1  0.333333  0.666667  0.000000  1
  Lu  Lu8  1  0.333333  0.666667  0.500000  1
  Lu  Lu9  1  0.666667  0.333333  0.500000  1
  Pb  Pb10  1  0.398136  0.398136  0.749106  1
  Pb  Pb11  1  0.601864  0.000000  0.749106  1
  Pb  Pb12  1  0.000000  0.601864  0.749106  1
  Pb  Pb13  1  0.601864  0.601864  0.250894  1
  Pb  Pb14  1  0.398136  0.000000  0.250894  1
  Pb  Pb15  1  0.000000  0.398136  0.250894  1
