# generated using pymatgen
data_La2PrCd3Ge2Au
_symmetry_space_group_name_H-M   'P 1'
_cell_length_a   7.60032103
_cell_length_b   7.60032175
_cell_length_c   4.48951800
_cell_angle_alpha   90.00000000
_cell_angle_beta   90.00000000
_cell_angle_gamma   119.99046656
_symmetry_Int_Tables_number   1
_chemical_formula_structural   La2PrCd3Ge2Au
_chemical_formula_sum   'La2 Pr1 Cd3 Ge2 Au1'
_cell_volume   224.61356255
_cell_formula_units_Z   1
loop_
 _symmetry_equiv_pos_site_id
 _symmetry_equiv_pos_as_xyz
  1  'x, y, z'
loop_
 _atom_site_type_symbol
 _atom_site_label
 _atom_site_symmetry_multiplicity
 _atom_site_fract_x
 _atom_site_fract_y
 _atom_site_fract_z
 _atom_site_occupancy
  La  La0  1  0.586814  0.999582  0.000000  1
  La  La1  1  0.999582  0.586814  0.000000  1
  Pr  Pr2  1  0.412344  0.412344  0.000000  1
  Cd  Cd3  1  0.247697  0.000947  0.500000  1
  Cd  Cd4  1  0.000947  0.247697  0.500000  1
  Cd  Cd5  1  0.751736  0.751736  0.500000  1
  Ge  Ge6  1  0.334265  0.665986  0.500000  1
  Ge  Ge7  1  0.665986  0.334265  0.500000  1
  Au  Au8  1  0.000629  0.000629  0.000000  1
