# generated using pymatgen
data_CeTm5SbO12
_symmetry_space_group_name_H-M   'P 1'
_cell_length_a   6.42180291
_cell_length_b   6.40596574
_cell_length_c   6.41429200
_cell_angle_alpha   98.81045343
_cell_angle_beta   98.96862603
_cell_angle_gamma   98.87613482
_symmetry_Int_Tables_number   1
_chemical_formula_structural   CeTm5SbO12
_chemical_formula_sum   'Ce1 Tm5 Sb1 O12'
_cell_volume   253.24122970
_cell_formula_units_Z   1
loop_
 _symmetry_equiv_pos_site_id
 _symmetry_equiv_pos_as_xyz
  1  'x, y, z'
loop_
 _atom_site_type_symbol
 _atom_site_label
 _atom_site_symmetry_multiplicity
 _atom_site_fract_x
 _atom_site_fract_y
 _atom_site_fract_z
 _atom_site_occupancy
  Ce  Ce0  1  0.690207  0.859004  0.394821  1
  Tm  Tm1  1  0.387421  0.686215  0.855895  1
  Tm  Tm2  1  0.861748  0.393216  0.697996  1
  Tm  Tm3  1  0.307681  0.144830  0.612893  1
  Tm  Tm4  1  0.607442  0.307342  0.134361  1
  Tm  Tm5  1  0.141527  0.605211  0.309931  1
  Sb  Sb6  1  0.003653  0.000792  0.002958  1
  O  O7  1  0.430710  0.586598  0.176777  1
  O  O8  1  0.175252  0.432738  0.586900  1
  O  O9  1  0.590170  0.175809  0.431102  1
  O  O10  1  0.566840  0.410857  0.820030  1
  O  O11  1  0.819124  0.568543  0.411609  1
  O  O12  1  0.408924  0.822966  0.567540  1
  O  O13  1  0.933968  0.050004  0.696339  1
  O  O14  1  0.955932  0.306512  0.074493  1
  O  O15  1  0.307863  0.074265  0.958812  1
  O  O16  1  0.075451  0.954356  0.307462  1
  O  O17  1  0.042765  0.694185  0.925009  1
  O  O18  1  0.693320  0.926559  0.035073  1
