# generated using pymatgen
data_Gd6Ga4IrRh3
_symmetry_space_group_name_H-M   'P 1'
_cell_length_a   5.58854666
_cell_length_b   7.84840807
_cell_length_c   13.60760400
_cell_angle_alpha   89.88422437
_cell_angle_beta   90.20751843
_cell_angle_gamma   90.20297271
_symmetry_Int_Tables_number   1
_chemical_formula_structural   Gd6Ga4IrRh3
_chemical_formula_sum   'Gd12 Ga8 Ir2 Rh6'
_cell_volume   596.83690498
_cell_formula_units_Z   2
loop_
 _symmetry_equiv_pos_site_id
 _symmetry_equiv_pos_as_xyz
  1  'x, y, z'
loop_
 _atom_site_type_symbol
 _atom_site_label
 _atom_site_symmetry_multiplicity
 _atom_site_fract_x
 _atom_site_fract_y
 _atom_site_fract_z
 _atom_site_occupancy
  Gd  Gd0  1  0.626904  0.262180  0.248743  1
  Gd  Gd1  1  0.373096  0.737820  0.751257  1
  Gd  Gd2  1  0.371628  0.764134  0.247673  1
  Gd  Gd3  1  0.628372  0.235866  0.752327  1
  Gd  Gd4  1  0.151461  0.397116  0.096754  1
  Gd  Gd5  1  0.848539  0.602884  0.903246  1
  Gd  Gd6  1  0.848520  0.599475  0.597498  1
  Gd  Gd7  1  0.849871  0.899232  0.402778  1
  Gd  Gd8  1  0.151480  0.400525  0.402502  1
  Gd  Gd9  1  0.150129  0.100768  0.597222  1
  Gd  Gd10  1  0.148285  0.098646  0.901853  1
  Gd  Gd11  1  0.851715  0.901354  0.098147  1
  Ga  Ga12  1  0.123697  0.111643  0.250812  1
  Ga  Ga13  1  0.876303  0.888357  0.749188  1
  Ga  Ga14  1  0.875532  0.610053  0.249611  1
  Ga  Ga15  1  0.124468  0.389947  0.750389  1
  Ga  Ga16  1  0.643815  0.250929  0.999100  1
  Ga  Ga17  1  0.356185  0.749071  0.000900  1
  Ga  Ga18  1  0.356720  0.749374  0.499387  1
  Ga  Ga19  1  0.643280  0.250626  0.500613  1
  Ir  Ir20  1  0.358911  0.038386  0.094167  1
  Ir  Ir21  1  0.641089  0.961614  0.905833  1
  Rh  Rh22  1  0.640780  0.961986  0.592846  1
  Rh  Rh23  1  0.641608  0.537358  0.406354  1
  Rh  Rh24  1  0.359220  0.038014  0.407154  1
  Rh  Rh25  1  0.358392  0.462642  0.593646  1
  Rh  Rh26  1  0.357926  0.464016  0.906708  1
  Rh  Rh27  1  0.642074  0.535984  0.093292  1
