# generated using pymatgen
data_V12Si3Sn
_symmetry_space_group_name_H-M   'P 1'
_cell_length_a   4.75439400
_cell_length_b   4.79988500
_cell_length_c   9.56128900
_cell_angle_alpha   90.00000000
_cell_angle_beta   90.00000000
_cell_angle_gamma   90.00000000
_symmetry_Int_Tables_number   1
_chemical_formula_structural   V12Si3Sn
_chemical_formula_sum   'V12 Si3 Sn1'
_cell_volume   218.19382057
_cell_formula_units_Z   1
loop_
 _symmetry_equiv_pos_site_id
 _symmetry_equiv_pos_as_xyz
  1  'x, y, z'
loop_
 _atom_site_type_symbol
 _atom_site_label
 _atom_site_symmetry_multiplicity
 _atom_site_fract_x
 _atom_site_fract_y
 _atom_site_fract_z
 _atom_site_occupancy
  V  V0  1  0.000000  0.500000  0.136795  1
  V  V1  1  0.000000  0.500000  0.625123  1
  V  V2  1  0.500000  0.244230  0.737760  1
  V  V3  1  0.500000  0.244230  0.262240  1
  V  V4  1  0.768946  0.000000  0.000000  1
  V  V5  1  0.744574  0.000000  0.500000  1
  V  V6  1  0.000000  0.500000  0.863205  1
  V  V7  1  0.000000  0.500000  0.374877  1
  V  V8  1  0.500000  0.755770  0.737760  1
  V  V9  1  0.500000  0.755770  0.262240  1
  V  V10  1  0.231054  0.000000  0.000000  1
  V  V11  1  0.255426  0.000000  0.500000  1
  Si  Si12  1  0.500000  0.500000  0.500000  1
  Si  Si13  1  0.000000  0.000000  0.747858  1
  Si  Si14  1  0.000000  0.000000  0.252142  1
  Sn  Sn15  1  0.500000  0.500000  0.000000  1
