# generated using pymatgen
data_Cr20CoMoWC6
_symmetry_space_group_name_H-M   'P 1'
_cell_length_a   7.52144037
_cell_length_b   7.52176438
_cell_length_c   7.52174900
_cell_angle_alpha   60.00124000
_cell_angle_beta   59.99772347
_cell_angle_gamma   60.00086890
_symmetry_Int_Tables_number   1
_chemical_formula_structural   Cr20CoMoWC6
_chemical_formula_sum   'Cr20 Co1 Mo1 W1 C6'
_cell_volume   300.90127626
_cell_formula_units_Z   1
loop_
 _symmetry_equiv_pos_site_id
 _symmetry_equiv_pos_as_xyz
  1  'x, y, z'
loop_
 _atom_site_type_symbol
 _atom_site_label
 _atom_site_symmetry_multiplicity
 _atom_site_fract_x
 _atom_site_fract_y
 _atom_site_fract_z
 _atom_site_occupancy
  Cr  Cr0  1  0.616397  0.616237  0.151013  1
  Cr  Cr1  1  0.616357  0.151049  0.616258  1
  Cr  Cr2  1  0.150948  0.616288  0.616353  1
  Cr  Cr3  1  0.616428  0.616284  0.616325  1
  Cr  Cr4  1  0.384404  0.384547  0.846619  1
  Cr  Cr5  1  0.384458  0.846563  0.384517  1
  Cr  Cr6  1  0.846670  0.384516  0.384429  1
  Cr  Cr7  1  0.384380  0.384510  0.384449  1
  Cr  Cr8  1  0.000157  0.000185  0.331672  1
  Cr  Cr9  1  0.667991  0.000165  0.331695  1
  Cr  Cr10  1  0.000200  0.667867  0.331710  1
  Cr  Cr11  1  0.668041  0.331748  0.000119  1
  Cr  Cr12  1  0.000109  0.331751  0.000137  1
  Cr  Cr13  1  0.000144  0.331764  0.667959  1
  Cr  Cr14  1  0.331642  0.667828  0.000261  1
  Cr  Cr15  1  0.331652  0.000251  0.667863  1
  Cr  Cr16  1  0.331609  0.000232  0.000225  1
  Cr  Cr17  1  0.000225  0.000218  0.667903  1
  Cr  Cr18  1  0.000232  0.667816  0.000265  1
  Cr  Cr19  1  0.667976  0.000185  0.000199  1
  Co  Co20  1  0.999966  0.000047  0.000012  1
  Mo  Mo21  1  0.750052  0.749881  0.749992  1
  W  W22  1  0.249964  0.250046  0.250035  1
  C  C23  1  0.723972  0.723880  0.276098  1
  C  C24  1  0.276058  0.723872  0.276125  1
  C  C25  1  0.723938  0.276103  0.276029  1
  C  C26  1  0.276001  0.276126  0.723912  1
  C  C27  1  0.723944  0.276145  0.723896  1
  C  C28  1  0.276085  0.723896  0.723929  1
