# generated using pymatgen
data_Nb2ZnSiNi12
_symmetry_space_group_name_H-M   'P 1'
_cell_length_a   3.62655900
_cell_length_b   3.62655900
_cell_length_c   14.18722500
_cell_angle_alpha   90.00000000
_cell_angle_beta   90.00000000
_cell_angle_gamma   90.00000000
_symmetry_Int_Tables_number   1
_chemical_formula_structural   Nb2ZnSiNi12
_chemical_formula_sum   'Nb2 Zn1 Si1 Ni12'
_cell_volume   186.58939265
_cell_formula_units_Z   1
loop_
 _symmetry_equiv_pos_site_id
 _symmetry_equiv_pos_as_xyz
  1  'x, y, z'
loop_
 _atom_site_type_symbol
 _atom_site_label
 _atom_site_symmetry_multiplicity
 _atom_site_fract_x
 _atom_site_fract_y
 _atom_site_fract_z
 _atom_site_occupancy
  Nb  Nb0  1  0.000000  0.000000  0.248990  1
  Nb  Nb1  1  0.000000  0.000000  0.751010  1
  Zn  Zn2  1  0.000000  0.000000  0.000000  1
  Si  Si3  1  0.000000  0.000000  0.500000  1
  Ni  Ni4  1  0.500000  0.500000  0.000000  1
  Ni  Ni5  1  0.500000  0.500000  0.255220  1
  Ni  Ni6  1  0.500000  0.500000  0.500000  1
  Ni  Ni7  1  0.500000  0.500000  0.744780  1
  Ni  Ni8  1  0.500000  0.000000  0.124823  1
  Ni  Ni9  1  0.500000  0.000000  0.382997  1
  Ni  Ni10  1  0.500000  0.000000  0.617003  1
  Ni  Ni11  1  0.500000  0.000000  0.875177  1
  Ni  Ni12  1  0.000000  0.500000  0.124823  1
  Ni  Ni13  1  0.000000  0.500000  0.382997  1
  Ni  Ni14  1  0.000000  0.500000  0.617003  1
  Ni  Ni15  1  0.000000  0.500000  0.875177  1
