# generated using pymatgen
data_Pr3Mg3Ge2Pt
_symmetry_space_group_name_H-M   'P 1'
_cell_length_a   7.46275900
_cell_length_b   7.46275936
_cell_length_c   4.44952800
_cell_angle_alpha   90.00000000
_cell_angle_beta   90.00000000
_cell_angle_gamma   120.00000285
_symmetry_Int_Tables_number   1
_chemical_formula_structural   Pr3Mg3Ge2Pt
_chemical_formula_sum   'Pr3 Mg3 Ge2 Pt1'
_cell_volume   214.60676984
_cell_formula_units_Z   1
loop_
 _symmetry_equiv_pos_site_id
 _symmetry_equiv_pos_as_xyz
  1  'x, y, z'
loop_
 _atom_site_type_symbol
 _atom_site_label
 _atom_site_symmetry_multiplicity
 _atom_site_fract_x
 _atom_site_fract_y
 _atom_site_fract_z
 _atom_site_occupancy
  Pr  Pr0  1  0.409805  0.409805  0.000000  1
  Pr  Pr1  1  0.590195  0.000000  0.000000  1
  Pr  Pr2  1  0.000000  0.590195  0.000000  1
  Mg  Mg3  1  0.000000  0.236299  0.500000  1
  Mg  Mg4  1  0.763701  0.763701  0.500000  1
  Mg  Mg5  1  0.236299  0.000000  0.500000  1
  Ge  Ge6  1  0.666667  0.333333  0.500000  1
  Ge  Ge7  1  0.333333  0.666667  0.500000  1
  Pt  Pt8  1  0.000000  0.000000  0.000000  1
