# generated using pymatgen
data_Tm3Zr(Ta3Ge4)2
_symmetry_space_group_name_H-M   'P 1'
_cell_length_a   6.94188200
_cell_length_b   7.08329251
_cell_length_c   13.41800843
_cell_angle_alpha   89.85709194
_cell_angle_beta   90.00000000
_cell_angle_gamma   90.00000000
_symmetry_Int_Tables_number   1
_chemical_formula_structural   Tm3Zr(Ta3Ge4)2
_chemical_formula_sum   'Tm6 Zr2 Ta12 Ge16'
_cell_volume   659.77994953
_cell_formula_units_Z   2
loop_
 _symmetry_equiv_pos_site_id
 _symmetry_equiv_pos_as_xyz
  1  'x, y, z'
loop_
 _atom_site_type_symbol
 _atom_site_label
 _atom_site_symmetry_multiplicity
 _atom_site_fract_x
 _atom_site_fract_y
 _atom_site_fract_z
 _atom_site_occupancy
  Tm  Tm0  1  0.506681  0.325713  0.093276  1
  Tm  Tm1  1  0.006681  0.174287  0.406724  1
  Tm  Tm2  1  0.506755  0.326903  0.406949  1
  Tm  Tm3  1  0.006755  0.173097  0.093051  1
  Tm  Tm4  1  0.491941  0.675559  0.906843  1
  Tm  Tm5  1  0.991941  0.824441  0.593157  1
  Zr  Zr6  1  0.490353  0.676363  0.595636  1
  Zr  Zr7  1  0.990353  0.823637  0.904364  1
  Ta  Ta8  1  0.659169  0.166942  0.625846  1
  Ta  Ta9  1  0.159169  0.333058  0.874154  1
  Ta  Ta10  1  0.341179  0.831873  0.126111  1
  Ta  Ta11  1  0.841179  0.668127  0.373889  1
  Ta  Ta12  1  0.342783  0.830252  0.375352  1
  Ta  Ta13  1  0.842783  0.669748  0.124648  1
  Ta  Ta14  1  0.660929  0.165671  0.873366  1
  Ta  Ta15  1  0.160929  0.334329  0.626634  1
  Ta  Ta16  1  0.836045  0.489431  0.750591  1
  Ta  Ta17  1  0.336045  0.010569  0.749409  1
  Ta  Ta18  1  0.165000  0.512872  0.249965  1
  Ta  Ta19  1  0.665000  0.987128  0.250035  1
  Ge  Ge20  1  0.677589  0.959773  0.459259  1
  Ge  Ge21  1  0.177589  0.540227  0.040741  1
  Ge  Ge22  1  0.316581  0.036789  0.957841  1
  Ge  Ge23  1  0.816581  0.463211  0.542159  1
  Ge  Ge24  1  0.323262  0.037660  0.542317  1
  Ge  Ge25  1  0.823262  0.462340  0.957683  1
  Ge  Ge26  1  0.680071  0.961565  0.040653  1
  Ge  Ge27  1  0.180071  0.538435  0.459347  1
  Ge  Ge28  1  0.460813  0.383441  0.749809  1
  Ge  Ge29  1  0.960813  0.116559  0.750191  1
  Ge  Ge30  1  0.540727  0.618165  0.249617  1
  Ge  Ge31  1  0.040727  0.881835  0.250383  1
  Ge  Ge32  1  0.693914  0.853815  0.749354  1
  Ge  Ge33  1  0.193914  0.646185  0.750646  1
  Ge  Ge34  1  0.306208  0.144712  0.250253  1
  Ge  Ge35  1  0.806208  0.355288  0.249747  1
