# generated using pymatgen
data_TbDyU(SnRh)3
_symmetry_space_group_name_H-M   'P 1'
_cell_length_a   7.47882273
_cell_length_b   7.48220509
_cell_length_c   3.91161600
_cell_angle_alpha   90.00000000
_cell_angle_beta   90.00000000
_cell_angle_gamma   118.78445765
_symmetry_Int_Tables_number   1
_chemical_formula_structural   TbDyU(SnRh)3
_chemical_formula_sum   'Tb1 Dy1 U1 Sn3 Rh3'
_cell_volume   191.84033701
_cell_formula_units_Z   1
loop_
 _symmetry_equiv_pos_site_id
 _symmetry_equiv_pos_as_xyz
  1  'x, y, z'
loop_
 _atom_site_type_symbol
 _atom_site_label
 _atom_site_symmetry_multiplicity
 _atom_site_fract_x
 _atom_site_fract_y
 _atom_site_fract_z
 _atom_site_occupancy
  Tb  Tb0  1  0.592824  0.999640  0.500000  1
  Dy  Dy1  1  0.999741  0.593128  0.500000  1
  U  U2  1  0.415156  0.415149  0.500000  1
  Sn  Sn3  1  0.755904  0.755539  0.000000  1
  Sn  Sn4  1  0.257428  0.987195  0.000000  1
  Sn  Sn5  1  0.987506  0.257952  0.000000  1
  Rh  Rh6  1  0.637451  0.337243  0.000000  1
  Rh  Rh7  1  0.336475  0.637003  0.000000  1
  Rh  Rh8  1  0.017517  0.017152  0.500000  1
