# generated using pymatgen
data_Y3Er7(GaBi2)2
_symmetry_space_group_name_H-M   'P 1'
_cell_length_a   8.06982397
_cell_length_b   9.24115800
_cell_length_c   12.07757096
_cell_angle_alpha   90.00000000
_cell_angle_beta   90.08016863
_cell_angle_gamma   90.00000000
_symmetry_Int_Tables_number   1
_chemical_formula_structural   Y3Er7(GaBi2)2
_chemical_formula_sum   'Y6 Er14 Ga4 Bi8'
_cell_volume   900.67815560
_cell_formula_units_Z   2
loop_
 _symmetry_equiv_pos_site_id
 _symmetry_equiv_pos_as_xyz
  1  'x, y, z'
loop_
 _atom_site_type_symbol
 _atom_site_label
 _atom_site_symmetry_multiplicity
 _atom_site_fract_x
 _atom_site_fract_y
 _atom_site_fract_z
 _atom_site_occupancy
  Y  Y0  1  0.668593  0.750000  0.715517  1
  Y  Y1  1  0.331407  0.250000  0.284483  1
  Y  Y2  1  0.169083  0.250000  0.784125  1
  Y  Y3  1  0.830917  0.750000  0.215875  1
  Y  Y4  1  0.143954  0.750000  0.794388  1
  Y  Y5  1  0.856046  0.250000  0.205612  1
  Er  Er6  1  0.643966  0.250000  0.705360  1
  Er  Er7  1  0.356034  0.750000  0.294640  1
  Er  Er8  1  0.539087  0.750000  0.002628  1
  Er  Er9  1  0.460913  0.250000  0.997372  1
  Er  Er10  1  0.039187  0.250000  0.497581  1
  Er  Er11  1  0.960813  0.750000  0.502419  1
  Er  Er12  1  0.819225  0.446502  0.936182  1
  Er  Er13  1  0.180775  0.553498  0.063818  1
  Er  Er14  1  0.319472  0.553569  0.562998  1
  Er  Er15  1  0.180775  0.946502  0.063818  1
  Er  Er16  1  0.680528  0.446431  0.437002  1
  Er  Er17  1  0.819225  0.053498  0.936182  1
  Er  Er18  1  0.680528  0.053569  0.437002  1
  Er  Er19  1  0.319472  0.946431  0.562998  1
  Ga  Ga20  1  0.908019  0.750000  0.975249  1
  Ga  Ga21  1  0.091981  0.250000  0.024751  1
  Ga  Ga22  1  0.408819  0.250000  0.525867  1
  Ga  Ga23  1  0.591181  0.750000  0.474133  1
  Bi  Bi24  1  0.934836  0.009286  0.673335  1
  Bi  Bi25  1  0.065164  0.990714  0.326665  1
  Bi  Bi26  1  0.436350  0.991740  0.826146  1
  Bi  Bi27  1  0.065164  0.509286  0.326665  1
  Bi  Bi28  1  0.563650  0.008260  0.173854  1
  Bi  Bi29  1  0.934836  0.490714  0.673335  1
  Bi  Bi30  1  0.563650  0.491740  0.173854  1
  Bi  Bi31  1  0.436350  0.508260  0.826146  1
