# generated using pymatgen
data_Ac3Er7Sn8
_symmetry_space_group_name_H-M   'P 1'
_cell_length_a   8.22359000
_cell_length_b   8.36489457
_cell_length_c   15.76319065
_cell_angle_alpha   90.00881693
_cell_angle_beta   90.00000000
_cell_angle_gamma   90.00000000
_symmetry_Int_Tables_number   1
_chemical_formula_structural   Ac3Er7Sn8
_chemical_formula_sum   'Ac6 Er14 Sn16'
_cell_volume   1084.34141196
_cell_formula_units_Z   2
loop_
 _symmetry_equiv_pos_site_id
 _symmetry_equiv_pos_as_xyz
  1  'x, y, z'
loop_
 _atom_site_type_symbol
 _atom_site_label
 _atom_site_symmetry_multiplicity
 _atom_site_fract_x
 _atom_site_fract_y
 _atom_site_fract_z
 _atom_site_occupancy
  Ac  Ac0  1  0.490976  0.677280  0.408238  1
  Ac  Ac1  1  0.990976  0.822720  0.091762  1
  Ac  Ac2  1  0.485736  0.672875  0.092887  1
  Ac  Ac3  1  0.985736  0.827125  0.407113  1
  Ac  Ac4  1  0.509969  0.323515  0.595111  1
  Ac  Ac5  1  0.009969  0.176485  0.904889  1
  Er  Er6  1  0.352050  0.835794  0.872982  1
  Er  Er7  1  0.852050  0.664206  0.627018  1
  Er  Er8  1  0.643940  0.160083  0.377784  1
  Er  Er9  1  0.143940  0.339917  0.122216  1
  Er  Er10  1  0.643894  0.166109  0.123753  1
  Er  Er11  1  0.143894  0.333891  0.376247  1
  Er  Er12  1  0.354761  0.841466  0.626407  1
  Er  Er13  1  0.854761  0.658534  0.873593  1
  Er  Er14  1  0.520487  0.322206  0.896684  1
  Er  Er15  1  0.020487  0.177794  0.603316  1
  Er  Er16  1  0.189278  0.501450  0.750098  1
  Er  Er17  1  0.689278  0.998550  0.749902  1
  Er  Er18  1  0.808878  0.495119  0.249392  1
  Er  Er19  1  0.308878  0.004881  0.250608  1
  Sn  Sn20  1  0.320632  0.050890  0.039834  1
  Sn  Sn21  1  0.820632  0.449110  0.460166  1
  Sn  Sn22  1  0.700829  0.965173  0.548413  1
  Sn  Sn23  1  0.200829  0.534827  0.951587  1
  Sn  Sn24  1  0.677504  0.960940  0.954353  1
  Sn  Sn25  1  0.177504  0.539060  0.545647  1
  Sn  Sn26  1  0.302547  0.049000  0.461934  1
  Sn  Sn27  1  0.802547  0.451000  0.038066  1
  Sn  Sn28  1  0.552126  0.627500  0.751382  1
  Sn  Sn29  1  0.052126  0.872500  0.748618  1
  Sn  Sn30  1  0.445295  0.366601  0.251831  1
  Sn  Sn31  1  0.945295  0.133399  0.248169  1
  Sn  Sn32  1  0.323213  0.144181  0.753276  1
  Sn  Sn33  1  0.823213  0.355819  0.746724  1
  Sn  Sn34  1  0.677884  0.862924  0.249634  1
  Sn  Sn35  1  0.177884  0.637076  0.250366  1
