# generated using pymatgen
data_Yb7In2SnN2
_symmetry_space_group_name_H-M   'P 1'
_cell_length_a   12.22883767
_cell_length_b   12.22883780
_cell_length_c   4.84686400
_cell_angle_alpha   90.00000000
_cell_angle_beta   90.00000000
_cell_angle_gamma   156.68215239
_symmetry_Int_Tables_number   1
_chemical_formula_structural   Yb7In2SnN2
_chemical_formula_sum   'Yb7 In2 Sn1 N2'
_cell_volume   286.90732582
_cell_formula_units_Z   1
loop_
 _symmetry_equiv_pos_site_id
 _symmetry_equiv_pos_as_xyz
  1  'x, y, z'
loop_
 _atom_site_type_symbol
 _atom_site_label
 _atom_site_symmetry_multiplicity
 _atom_site_fract_x
 _atom_site_fract_y
 _atom_site_fract_z
 _atom_site_occupancy
  Yb  Yb0  1  0.000000  0.000000  0.000000  1
  Yb  Yb1  1  0.802829  0.197169  0.000000  1
  Yb  Yb2  1  0.596055  0.403943  0.000000  1
  Yb  Yb3  1  0.403943  0.596055  0.000000  1
  Yb  Yb4  1  0.197169  0.802829  0.000000  1
  Yb  Yb5  1  0.902775  0.097224  0.499999  1
  Yb  Yb6  1  0.097224  0.902775  0.499999  1
  In  In7  1  0.705971  0.294028  0.499999  1
  In  In8  1  0.294028  0.705971  0.499999  1
  Sn  Sn9  1  0.499999  0.499999  0.499999  1
  N  N10  1  0.896594  0.103405  0.000000  1
  N  N11  1  0.103405  0.896594  0.000000  1
