# generated using pymatgen
data_Pr6PtAu7
_symmetry_space_group_name_H-M   'P 1'
_cell_length_a   8.30333534
_cell_length_b   8.30333458
_cell_length_c   8.30333482
_cell_angle_alpha   113.79705986
_cell_angle_beta   113.79706117
_cell_angle_gamma   113.79705922
_symmetry_Int_Tables_number   1
_chemical_formula_structural   Pr6PtAu7
_chemical_formula_sum   'Pr6 Pt1 Au7'
_cell_volume   352.98149940
_cell_formula_units_Z   1
loop_
 _symmetry_equiv_pos_site_id
 _symmetry_equiv_pos_as_xyz
  1  'x, y, z'
loop_
 _atom_site_type_symbol
 _atom_site_label
 _atom_site_symmetry_multiplicity
 _atom_site_fract_x
 _atom_site_fract_y
 _atom_site_fract_z
 _atom_site_occupancy
  Pr  Pr0  1  0.268336  0.388927  0.017716  1
  Pr  Pr1  1  0.388927  0.017716  0.268336  1
  Pr  Pr2  1  0.017716  0.268336  0.388927  1
  Pr  Pr3  1  0.731664  0.611073  0.982284  1
  Pr  Pr4  1  0.611073  0.982284  0.731664  1
  Pr  Pr5  1  0.982284  0.731664  0.611073  1
  Pt  Pt6  1  0.000000  0.000000  0.000000  1
  Au  Au7  1  0.500000  0.500000  0.500000  1
  Au  Au8  1  0.570371  0.235198  0.073140  1
  Au  Au9  1  0.235198  0.073140  0.570371  1
  Au  Au10  1  0.073140  0.570371  0.235198  1
  Au  Au11  1  0.429629  0.764802  0.926860  1
  Au  Au12  1  0.764802  0.926860  0.429629  1
  Au  Au13  1  0.926860  0.429629  0.764802  1
