# generated using pymatgen
data_Sc10SiSn6Hg
_symmetry_space_group_name_H-M   'P 1'
_cell_length_a   8.69079800
_cell_length_b   8.69079950
_cell_length_c   6.21872600
_cell_angle_alpha   90.00000000
_cell_angle_beta   90.00000000
_cell_angle_gamma   120.00000191
_symmetry_Int_Tables_number   1
_chemical_formula_structural   Sc10SiSn6Hg
_chemical_formula_sum   'Sc10 Si1 Sn6 Hg1'
_cell_volume   406.77235680
_cell_formula_units_Z   1
loop_
 _symmetry_equiv_pos_site_id
 _symmetry_equiv_pos_as_xyz
  1  'x, y, z'
loop_
 _atom_site_type_symbol
 _atom_site_label
 _atom_site_symmetry_multiplicity
 _atom_site_fract_x
 _atom_site_fract_y
 _atom_site_fract_z
 _atom_site_occupancy
  Sc  Sc0  1  0.666667  0.333333  0.000000  1
  Sc  Sc1  1  0.333333  0.666667  0.000000  1
  Sc  Sc2  1  0.333333  0.666667  0.500000  1
  Sc  Sc3  1  0.666667  0.333333  0.500000  1
  Sc  Sc4  1  0.734642  0.734642  0.722041  1
  Sc  Sc5  1  0.265358  0.000000  0.722041  1
  Sc  Sc6  1  0.000000  0.265358  0.722041  1
  Sc  Sc7  1  0.265358  0.265358  0.277959  1
  Sc  Sc8  1  0.734642  0.000000  0.277959  1
  Sc  Sc9  1  0.000000  0.734642  0.277959  1
  Si  Si10  1  0.000000  0.000000  0.500000  1
  Sn  Sn11  1  0.387569  0.387569  0.756121  1
  Sn  Sn12  1  0.612431  0.000000  0.756121  1
  Sn  Sn13  1  0.000000  0.612431  0.756121  1
  Sn  Sn14  1  0.612431  0.612431  0.243879  1
  Sn  Sn15  1  0.387569  0.000000  0.243879  1
  Sn  Sn16  1  0.000000  0.387569  0.243879  1
  Hg  Hg17  1  0.000000  0.000000  0.000000  1
