# generated using pymatgen
data_Hf4Fe2Si3AsPd2
_symmetry_space_group_name_H-M   'P 1'
_cell_length_a   3.90681800
_cell_length_b   6.48043595
_cell_length_c   7.41201485
_cell_angle_alpha   92.29769059
_cell_angle_beta   90.00000000
_cell_angle_gamma   90.00000000
_symmetry_Int_Tables_number   1
_chemical_formula_structural   Hf4Fe2Si3AsPd2
_chemical_formula_sum   'Hf4 Fe2 Si3 As1 Pd2'
_cell_volume   187.50565725
_cell_formula_units_Z   1
loop_
 _symmetry_equiv_pos_site_id
 _symmetry_equiv_pos_as_xyz
  1  'x, y, z'
loop_
 _atom_site_type_symbol
 _atom_site_label
 _atom_site_symmetry_multiplicity
 _atom_site_fract_x
 _atom_site_fract_y
 _atom_site_fract_z
 _atom_site_occupancy
  Hf  Hf0  1  0.250000  0.517962  0.674119  1
  Hf  Hf1  1  0.750000  0.485943  0.325473  1
  Hf  Hf2  1  0.250000  0.019824  0.802141  1
  Hf  Hf3  1  0.750000  0.974050  0.198589  1
  Fe  Fe4  1  0.750000  0.848353  0.559696  1
  Fe  Fe5  1  0.250000  0.144654  0.447390  1
  Si  Si6  1  0.750000  0.743052  0.865720  1
  Si  Si7  1  0.250000  0.783782  0.400790  1
  Si  Si8  1  0.750000  0.214417  0.598445  1
  As  As9  1  0.250000  0.253784  0.138780  1
  Pd  Pd10  1  0.750000  0.355422  0.923872  1
  Pd  Pd11  1  0.250000  0.658757  0.064984  1
