# generated using pymatgen
data_Ho20OsRh11
_symmetry_space_group_name_H-M   'P 1'
_cell_length_a   10.83503700
_cell_length_b   10.83503700
_cell_length_c   6.36515600
_cell_angle_alpha   90.00000000
_cell_angle_beta   90.00000000
_cell_angle_gamma   90.00000000
_symmetry_Int_Tables_number   1
_chemical_formula_structural   Ho20OsRh11
_chemical_formula_sum   'Ho20 Os1 Rh11'
_cell_volume   747.25675462
_cell_formula_units_Z   1
loop_
 _symmetry_equiv_pos_site_id
 _symmetry_equiv_pos_as_xyz
  1  'x, y, z'
loop_
 _atom_site_type_symbol
 _atom_site_label
 _atom_site_symmetry_multiplicity
 _atom_site_fract_x
 _atom_site_fract_y
 _atom_site_fract_z
 _atom_site_occupancy
  Ho  Ho0  1  0.292549  0.087328  0.375015  1
  Ho  Ho1  1  0.293002  0.912789  0.880122  1
  Ho  Ho2  1  0.706998  0.087211  0.880122  1
  Ho  Ho3  1  0.707451  0.912672  0.375015  1
  Ho  Ho4  1  0.587211  0.793002  0.880122  1
  Ho  Ho5  1  0.587328  0.207451  0.375015  1
  Ho  Ho6  1  0.412672  0.792549  0.375015  1
  Ho  Ho7  1  0.412789  0.206998  0.880122  1
  Ho  Ho8  1  0.209356  0.411600  0.622006  1
  Ho  Ho9  1  0.209262  0.588109  0.121669  1
  Ho  Ho10  1  0.790738  0.411891  0.121669  1
  Ho  Ho11  1  0.790644  0.588400  0.622006  1
  Ho  Ho12  1  0.911891  0.709262  0.121669  1
  Ho  Ho13  1  0.911600  0.290644  0.622006  1
  Ho  Ho14  1  0.088400  0.709356  0.622006  1
  Ho  Ho15  1  0.088109  0.290738  0.121669  1
  Ho  Ho16  1  0.000000  0.000000  0.499563  1
  Ho  Ho17  1  0.000000  0.000000  0.999470  1
  Ho  Ho18  1  0.500000  0.500000  0.999470  1
  Ho  Ho19  1  0.500000  0.500000  0.499563  1
  Os  Os20  1  0.500000  0.000000  0.124426  1
  Rh  Rh21  1  0.847439  0.154344  0.250607  1
  Rh  Rh22  1  0.847503  0.845977  0.750074  1
  Rh  Rh23  1  0.152497  0.154023  0.750074  1
  Rh  Rh24  1  0.152561  0.845656  0.250607  1
  Rh  Rh25  1  0.654023  0.347503  0.750074  1
  Rh  Rh26  1  0.654344  0.652561  0.250607  1
  Rh  Rh27  1  0.345656  0.347439  0.250607  1
  Rh  Rh28  1  0.345977  0.652497  0.750074  1
  Rh  Rh29  1  0.500000  0.000000  0.622427  1
  Rh  Rh30  1  0.000000  0.500000  0.878455  1
  Rh  Rh31  1  0.000000  0.500000  0.378644  1
