# generated using pymatgen
data_K4Hf6CoI18
_symmetry_space_group_name_H-M   'P 1'
_cell_length_a   11.22108028
_cell_length_b   11.36375782
_cell_length_c   11.47993401
_cell_angle_alpha   118.55522917
_cell_angle_beta   100.07864627
_cell_angle_gamma   103.75037655
_symmetry_Int_Tables_number   1
_chemical_formula_structural   K4Hf6CoI18
_chemical_formula_sum   'K4 Hf6 Co1 I18'
_cell_volume   1175.29933912
_cell_formula_units_Z   1
loop_
 _symmetry_equiv_pos_site_id
 _symmetry_equiv_pos_as_xyz
  1  'x, y, z'
loop_
 _atom_site_type_symbol
 _atom_site_label
 _atom_site_symmetry_multiplicity
 _atom_site_fract_x
 _atom_site_fract_y
 _atom_site_fract_z
 _atom_site_occupancy
  K  K0  1  0.649109  0.537234  0.225846  1
  K  K1  1  0.350891  0.462766  0.774154  1
  K  K2  1  0.683254  0.224202  0.563403  1
  K  K3  1  0.316746  0.775798  0.436597  1
  Hf  Hf4  1  0.144459  0.053646  0.221605  1
  Hf  Hf5  1  0.855541  0.946354  0.778395  1
  Hf  Hf6  1  0.866972  0.122931  0.128946  1
  Hf  Hf7  1  0.133028  0.877069  0.871054  1
  Hf  Hf8  1  0.139634  0.230106  0.043750  1
  Hf  Hf9  1  0.860366  0.769894  0.956250  1
  Co  Co10  1  0.000000  0.000000  0.000000  1
  I  I11  1  0.008391  0.413097  0.198511  1
  I  I12  1  0.991609  0.586903  0.801489  1
  I  I13  1  0.331023  0.335174  0.313355  1
  I  I14  1  0.668977  0.664826  0.686645  1
  I  I15  1  0.319935  0.519088  0.099171  1
  I  I16  1  0.680065  0.480912  0.900829  1
  I  I17  1  0.004247  0.794297  0.210465  1
  I  I18  1  0.995753  0.205703  0.789535  1
  I  I19  1  0.705442  0.275447  0.287713  1
  I  I20  1  0.294558  0.724553  0.712287  1
  I  I21  1  0.318310  0.127268  0.901806  1
  I  I22  1  0.681690  0.872732  0.098194  1
  I  I23  1  0.015292  0.205771  0.410900  1
  I  I24  1  0.984708  0.794229  0.589100  1
  I  I25  1  0.322709  0.921300  0.109724  1
  I  I26  1  0.677291  0.078700  0.890276  1
  I  I27  1  0.331362  0.120252  0.499804  1
  I  I28  1  0.668638  0.879748  0.500196  1
