# generated using pymatgen
data_Nd3(In2Rh)2
_symmetry_space_group_name_H-M   'P 1'
_cell_length_a   7.92385300
_cell_length_b   7.92385289
_cell_length_c   4.02095800
_cell_angle_alpha   90.00000000
_cell_angle_beta   90.00000000
_cell_angle_gamma   120.00001299
_symmetry_Int_Tables_number   1
_chemical_formula_structural   Nd3(In2Rh)2
_chemical_formula_sum   'Nd3 In4 Rh2'
_cell_volume   218.64166492
_cell_formula_units_Z   1
loop_
 _symmetry_equiv_pos_site_id
 _symmetry_equiv_pos_as_xyz
  1  'x, y, z'
loop_
 _atom_site_type_symbol
 _atom_site_label
 _atom_site_symmetry_multiplicity
 _atom_site_fract_x
 _atom_site_fract_y
 _atom_site_fract_z
 _atom_site_occupancy
  Nd  Nd0  1  0.610813  0.028275  0.500000  1
  Nd  Nd1  1  0.417461  0.389187  0.500000  1
  Nd  Nd2  1  0.971725  0.582539  0.500000  1
  In  In3  1  0.250168  0.001794  0.000000  1
  In  In4  1  0.751626  0.749832  0.000000  1
  In  In5  1  0.998206  0.248374  0.000000  1
  In  In6  1  0.333333  0.666667  0.000000  1
  Rh  Rh7  1  0.000000  0.000000  0.500000  1
  Rh  Rh8  1  0.666667  0.333333  0.000000  1
