# generated using pymatgen
data_PrNd5Ga7Si4Ge
_symmetry_space_group_name_H-M   'P 1'
_cell_length_a   4.21558347
_cell_length_b   4.26119019
_cell_length_c   21.93824933
_cell_angle_alpha   84.43219103
_cell_angle_beta   84.45924187
_cell_angle_gamma   90.01225030
_symmetry_Int_Tables_number   1
_chemical_formula_structural   PrNd5Ga7Si4Ge
_chemical_formula_sum   'Pr1 Nd5 Ga7 Si4 Ge1'
_cell_volume   390.37550707
_cell_formula_units_Z   1
loop_
 _symmetry_equiv_pos_site_id
 _symmetry_equiv_pos_as_xyz
  1  'x, y, z'
loop_
 _atom_site_type_symbol
 _atom_site_label
 _atom_site_symmetry_multiplicity
 _atom_site_fract_x
 _atom_site_fract_y
 _atom_site_fract_z
 _atom_site_occupancy
  Pr  Pr0  1  0.958561  0.707839  0.083559  1
  Nd  Nd1  1  0.291736  0.041225  0.417486  1
  Nd  Nd2  1  0.623844  0.373506  0.752400  1
  Nd  Nd3  1  0.375490  0.626212  0.248146  1
  Nd  Nd4  1  0.708991  0.959508  0.581075  1
  Nd  Nd5  1  0.040334  0.291073  0.917709  1
  Ga  Ga6  1  0.153350  0.903599  0.693865  1
  Ga  Ga7  1  0.430806  0.180506  0.138031  1
  Ga  Ga8  1  0.763225  0.513294  0.472922  1
  Ga  Ga9  1  0.096571  0.846790  0.806082  1
  Ga  Ga10  1  0.847691  0.097784  0.303763  1
  Ga  Ga11  1  0.180380  0.430109  0.638928  1
  Ga  Ga12  1  0.513178  0.763378  0.972917  1
  Si  Si13  1  0.903502  0.153635  0.193872  1
  Si  Si14  1  0.236291  0.485656  0.528515  1
  Si  Si15  1  0.569196  0.819132  0.862730  1
  Si  Si16  1  0.486940  0.236796  0.027278  1
  Ge  Ge17  1  0.819912  0.569956  0.360718  1
