# generated using pymatgen
data_Ce3HoMg2(SnRu2)2
_symmetry_space_group_name_H-M   'P 1'
_cell_length_a   6.25249705
_cell_length_b   6.25249680
_cell_length_c   9.92658273
_cell_angle_alpha   76.68016170
_cell_angle_beta   76.68016215
_cell_angle_gamma   45.34948332
_symmetry_Int_Tables_number   1
_chemical_formula_structural   Ce3HoMg2(SnRu2)2
_chemical_formula_sum   'Ce3 Ho1 Mg2 Sn2 Ru4'
_cell_volume   267.32941158
_cell_formula_units_Z   1
loop_
 _symmetry_equiv_pos_site_id
 _symmetry_equiv_pos_as_xyz
  1  'x, y, z'
loop_
 _atom_site_type_symbol
 _atom_site_label
 _atom_site_symmetry_multiplicity
 _atom_site_fract_x
 _atom_site_fract_y
 _atom_site_fract_z
 _atom_site_occupancy
  Ce  Ce0  1  0.864495  0.864495  0.419092  1
  Ce  Ce1  1  0.869057  0.869057  0.916864  1
  Ce  Ce2  1  0.143892  0.143892  0.087464  1
  Ho  Ho3  1  0.122956  0.122956  0.594025  1
  Mg  Mg4  1  0.427437  0.427437  0.152937  1
  Mg  Mg5  1  0.410181  0.410181  0.653930  1
  Sn  Sn6  1  0.577143  0.577143  0.844901  1
  Sn  Sn7  1  0.581062  0.581062  0.365515  1
  Ru  Ru8  1  0.810011  0.810011  0.158017  1
  Ru  Ru9  1  0.198632  0.198632  0.303269  1
  Ru  Ru10  1  0.193127  0.193127  0.843815  1
  Ru  Ru11  1  0.802006  0.802006  0.660169  1
