# generated using pymatgen
data_TbHfB6Os
_symmetry_space_group_name_H-M   'P 1'
_cell_length_a   3.56337100
_cell_length_b   9.02194600
_cell_length_c   11.40266600
_cell_angle_alpha   90.00000000
_cell_angle_beta   90.00000000
_cell_angle_gamma   90.00000000
_symmetry_Int_Tables_number   1
_chemical_formula_structural   TbHfB6Os
_chemical_formula_sum   'Tb4 Hf4 B24 Os4'
_cell_volume   366.57907245
_cell_formula_units_Z   4
loop_
 _symmetry_equiv_pos_site_id
 _symmetry_equiv_pos_as_xyz
  1  'x, y, z'
loop_
 _atom_site_type_symbol
 _atom_site_label
 _atom_site_symmetry_multiplicity
 _atom_site_fract_x
 _atom_site_fract_y
 _atom_site_fract_z
 _atom_site_occupancy
  Tb  Tb0  1  0.000000  0.321522  0.413694  1
  Tb  Tb1  1  0.000000  0.678478  0.586306  1
  Tb  Tb2  1  0.000000  0.821522  0.086306  1
  Tb  Tb3  1  0.000000  0.178478  0.913694  1
  Hf  Hf4  1  0.000000  0.945127  0.374560  1
  Hf  Hf5  1  0.000000  0.054873  0.625440  1
  Hf  Hf6  1  0.000000  0.445127  0.125440  1
  Hf  Hf7  1  0.000000  0.554873  0.874560  1
  B  B8  1  0.500000  0.554952  0.433403  1
  B  B9  1  0.500000  0.445048  0.566597  1
  B  B10  1  0.500000  0.054952  0.066597  1
  B  B11  1  0.500000  0.945048  0.933403  1
  B  B12  1  0.500000  0.752629  0.418532  1
  B  B13  1  0.500000  0.247371  0.581468  1
  B  B14  1  0.500000  0.252629  0.081468  1
  B  B15  1  0.500000  0.747371  0.918532  1
  B  B16  1  0.500000  0.795148  0.264136  1
  B  B17  1  0.500000  0.204852  0.735864  1
  B  B18  1  0.500000  0.295148  0.235864  1
  B  B19  1  0.500000  0.704852  0.764136  1
  B  B20  1  0.500000  0.629832  0.182639  1
  B  B21  1  0.500000  0.370168  0.817361  1
  B  B22  1  0.500000  0.129832  0.317361  1
  B  B23  1  0.500000  0.870168  0.682639  1
  B  B24  1  0.500000  0.982219  0.213983  1
  B  B25  1  0.500000  0.017781  0.786017  1
  B  B26  1  0.500000  0.482219  0.286017  1
  B  B27  1  0.500000  0.517781  0.713983  1
  B  B28  1  0.500000  0.600730  0.027166  1
  B  B29  1  0.500000  0.399270  0.972834  1
  B  B30  1  0.500000  0.100730  0.472834  1
  B  B31  1  0.500000  0.899270  0.527166  1
  Os  Os32  1  0.000000  0.641781  0.318814  1
  Os  Os33  1  0.000000  0.358219  0.681186  1
  Os  Os34  1  0.000000  0.141781  0.181186  1
  Os  Os35  1  0.000000  0.858219  0.818814  1
