# generated using pymatgen
data_Be6Tc3Ni2W
_symmetry_space_group_name_H-M   'P 1'
_cell_length_a   4.48919900
_cell_length_b   4.48919892
_cell_length_c   7.11910900
_cell_angle_alpha   90.00000000
_cell_angle_beta   90.00000000
_cell_angle_gamma   120.00000793
_symmetry_Int_Tables_number   1
_chemical_formula_structural   Be6Tc3Ni2W
_chemical_formula_sum   'Be6 Tc3 Ni2 W1'
_cell_volume   124.24929897
_cell_formula_units_Z   1
loop_
 _symmetry_equiv_pos_site_id
 _symmetry_equiv_pos_as_xyz
  1  'x, y, z'
loop_
 _atom_site_type_symbol
 _atom_site_label
 _atom_site_symmetry_multiplicity
 _atom_site_fract_x
 _atom_site_fract_y
 _atom_site_fract_z
 _atom_site_occupancy
  Be  Be0  1  0.829486  0.170514  0.252755  1
  Be  Be1  1  0.829486  0.658972  0.252755  1
  Be  Be2  1  0.341028  0.170514  0.252755  1
  Be  Be3  1  0.169412  0.830588  0.748303  1
  Be  Be4  1  0.169412  0.338822  0.748303  1
  Be  Be5  1  0.661178  0.830588  0.748303  1
  Tc  Tc6  1  0.333333  0.666667  0.429571  1
  Tc  Tc7  1  0.666667  0.333333  0.569700  1
  Tc  Tc8  1  0.666667  0.333333  0.927053  1
  Ni  Ni9  1  0.000000  0.000000  0.501752  1
  Ni  Ni10  1  0.000000  0.000000  0.002538  1
  W  W11  1  0.333333  0.666667  0.066215  1
