# generated using pymatgen
data_La4DySi9Mo3P3Ir16
_symmetry_space_group_name_H-M   'P 1'
_cell_length_a   12.80705700
_cell_length_b   12.80705750
_cell_length_c   4.03193000
_cell_angle_alpha   90.00000000
_cell_angle_beta   90.00000000
_cell_angle_gamma   120.00000129
_symmetry_Int_Tables_number   1
_chemical_formula_structural   La4DySi9Mo3P3Ir16
_chemical_formula_sum   'La4 Dy1 Si9 Mo3 P3 Ir16'
_cell_volume   572.71994995
_cell_formula_units_Z   1
loop_
 _symmetry_equiv_pos_site_id
 _symmetry_equiv_pos_as_xyz
  1  'x, y, z'
loop_
 _atom_site_type_symbol
 _atom_site_label
 _atom_site_symmetry_multiplicity
 _atom_site_fract_x
 _atom_site_fract_y
 _atom_site_fract_z
 _atom_site_occupancy
  La  La0  1  0.333333  0.666667  0.500000  1
  La  La1  1  0.000599  0.815705  0.000000  1
  La  La2  1  0.184295  0.184894  0.000000  1
  La  La3  1  0.815106  0.999401  0.000000  1
  Dy  Dy4  1  0.666667  0.333333  0.500000  1
  Si  Si5  1  0.000366  0.628747  0.500000  1
  Si  Si6  1  0.371253  0.371619  0.500000  1
  Si  Si7  1  0.628381  0.999634  0.500000  1
  Si  Si8  1  0.520948  0.683921  0.000000  1
  Si  Si9  1  0.316079  0.837027  0.000000  1
  Si  Si10  1  0.162973  0.479052  0.000000  1
  Si  Si11  1  0.482375  0.167499  0.000000  1
  Si  Si12  1  0.685123  0.517625  0.000000  1
  Si  Si13  1  0.832501  0.314877  0.000000  1
  Mo  Mo14  1  0.998423  0.438739  0.500000  1
  Mo  Mo15  1  0.561261  0.559684  0.500000  1
  Mo  Mo16  1  0.440316  0.001577  0.500000  1
  P  P17  1  0.998272  0.183006  0.500000  1
  P  P18  1  0.816994  0.815266  0.500000  1
  P  P19  1  0.184734  0.001728  0.500000  1
  Ir  Ir20  1  0.516326  0.873424  0.000000  1
  Ir  Ir21  1  0.126576  0.642904  0.000000  1
  Ir  Ir22  1  0.357096  0.483674  0.000000  1
  Ir  Ir23  1  0.487098  0.357749  0.000000  1
  Ir  Ir24  1  0.870652  0.512902  0.000000  1
  Ir  Ir25  1  0.642251  0.129348  0.000000  1
  Ir  Ir26  1  0.998151  0.279724  0.000000  1
  Ir  Ir27  1  0.720276  0.718427  0.000000  1
  Ir  Ir28  1  0.281573  0.001849  0.000000  1
  Ir  Ir29  1  0.627279  0.805535  0.500000  1
  Ir  Ir30  1  0.194465  0.821744  0.500000  1
  Ir  Ir31  1  0.178256  0.372721  0.500000  1
  Ir  Ir32  1  0.375274  0.181214  0.500000  1
  Ir  Ir33  1  0.805941  0.624726  0.500000  1
  Ir  Ir34  1  0.818786  0.194059  0.500000  1
  Ir  Ir35  1  0.000000  0.000000  0.500000  1
