# generated using pymatgen
data_CeSm2U5(ReB6)4
_symmetry_space_group_name_H-M   'P 1'
_cell_length_a   3.67059900
_cell_length_b   9.34064251
_cell_length_c   11.44813100
_cell_angle_alpha   90.02039087
_cell_angle_beta   90.00000000
_cell_angle_gamma   90.00000000
_symmetry_Int_Tables_number   1
_chemical_formula_structural   CeSm2U5(ReB6)4
_chemical_formula_sum   'Ce1 Sm2 U5 Re4 B24'
_cell_volume   392.50776757
_cell_formula_units_Z   1
loop_
 _symmetry_equiv_pos_site_id
 _symmetry_equiv_pos_as_xyz
  1  'x, y, z'
loop_
 _atom_site_type_symbol
 _atom_site_label
 _atom_site_symmetry_multiplicity
 _atom_site_fract_x
 _atom_site_fract_y
 _atom_site_fract_z
 _atom_site_occupancy
  Ce  Ce0  1  0.000000  0.835367  0.092388  1
  Sm  Sm1  1  0.000000  0.336343  0.408019  1
  Sm  Sm2  1  0.000000  0.663579  0.592219  1
  U  U3  1  0.000000  0.164165  0.907248  1
  U  U4  1  0.000000  0.956719  0.396720  1
  U  U5  1  0.000000  0.042873  0.603966  1
  U  U6  1  0.000000  0.456902  0.103278  1
  U  U7  1  0.000000  0.542156  0.896663  1
  Re  Re8  1  0.000000  0.647005  0.317263  1
  Re  Re9  1  0.000000  0.350840  0.685267  1
  Re  Re10  1  0.000000  0.146217  0.177441  1
  Re  Re11  1  0.000000  0.857962  0.820331  1
  B  B12  1  0.500000  0.553283  0.429987  1
  B  B13  1  0.500000  0.445912  0.570975  1
  B  B14  1  0.500000  0.053099  0.067352  1
  B  B15  1  0.500000  0.950602  0.930596  1
  B  B16  1  0.500000  0.744153  0.422433  1
  B  B17  1  0.500000  0.255669  0.578166  1
  B  B18  1  0.500000  0.243390  0.075880  1
  B  B19  1  0.500000  0.756190  0.922160  1
  B  B20  1  0.500000  0.802513  0.274505  1
  B  B21  1  0.500000  0.196039  0.727150  1
  B  B22  1  0.500000  0.302029  0.224409  1
  B  B23  1  0.500000  0.698513  0.775157  1
  B  B24  1  0.500000  0.643699  0.188152  1
  B  B25  1  0.500000  0.354329  0.812738  1
  B  B26  1  0.500000  0.143823  0.311058  1
  B  B27  1  0.500000  0.856733  0.688689  1
  B  B28  1  0.500000  0.989867  0.219316  1
  B  B29  1  0.500000  0.013436  0.781285  1
  B  B30  1  0.500000  0.489629  0.280093  1
  B  B31  1  0.500000  0.509887  0.720358  1
  B  B32  1  0.500000  0.639511  0.038005  1
  B  B33  1  0.500000  0.357303  0.960691  1
  B  B34  1  0.500000  0.137720  0.461753  1
  B  B35  1  0.500000  0.862544  0.538291  1
