# generated using pymatgen
data_Sr7Dy(In4Au3)4
_symmetry_space_group_name_H-M   'P 1'
_cell_length_a   15.55062500
_cell_length_b   15.28591770
_cell_length_c   4.53440300
_cell_angle_alpha   90.00000000
_cell_angle_beta   90.00000000
_cell_angle_gamma   120.57451885
_symmetry_Int_Tables_number   1
_chemical_formula_structural   Sr7Dy(In4Au3)4
_chemical_formula_sum   'Sr7 Dy1 In16 Au12'
_cell_volume   927.99718092
_cell_formula_units_Z   1
loop_
 _symmetry_equiv_pos_site_id
 _symmetry_equiv_pos_as_xyz
  1  'x, y, z'
loop_
 _atom_site_type_symbol
 _atom_site_label
 _atom_site_symmetry_multiplicity
 _atom_site_fract_x
 _atom_site_fract_y
 _atom_site_fract_z
 _atom_site_occupancy
  Sr  Sr0  1  0.001164  0.453467  0.000000  1
  Sr  Sr1  1  0.547697  0.546533  0.000000  1
  Sr  Sr2  1  0.334175  0.669606  0.000000  1
  Sr  Sr3  1  0.664570  0.330394  0.000000  1
  Sr  Sr4  1  0.817389  0.000000  0.500000  1
  Sr  Sr5  1  0.001286  0.820056  0.500000  1
  Sr  Sr6  1  0.181230  0.179944  0.500000  1
  Dy  Dy7  1  0.450641  0.000000  0.000000  1
  In  In8  1  0.183373  0.379621  0.000000  1
  In  In9  1  0.623595  0.806285  0.000000  1
  In  In10  1  0.377671  0.178693  0.000000  1
  In  In11  1  0.198976  0.821307  0.000000  1
  In  In12  1  0.803753  0.620379  0.000000  1
  In  In13  1  0.817311  0.193715  0.000000  1
  In  In14  1  0.280927  0.000000  0.500000  1
  In  In15  1  0.998668  0.280891  0.500000  1
  In  In16  1  0.717777  0.719109  0.500000  1
  In  In17  1  0.350787  0.473669  0.500000  1
  In  In18  1  0.523663  0.878440  0.500000  1
  In  In19  1  0.475753  0.346033  0.500000  1
  In  In20  1  0.129721  0.653967  0.500000  1
  In  In21  1  0.877118  0.526331  0.500000  1
  In  In22  1  0.645222  0.121560  0.500000  1
  In  In23  1  0.001204  0.000000  0.000000  1
  Au  Au24  1  0.176815  0.495907  0.500000  1
  Au  Au25  1  0.507744  0.683080  0.500000  1
  Au  Au26  1  0.486681  0.160111  0.500000  1
  Au  Au27  1  0.326570  0.839889  0.500000  1
  Au  Au28  1  0.680908  0.504093  0.500000  1
  Au  Au29  1  0.824665  0.316920  0.500000  1
  Au  Au30  1  0.175797  0.000000  0.000000  1
  Au  Au31  1  0.001328  0.176425  0.000000  1
  Au  Au32  1  0.824903  0.823575  0.000000  1
  Au  Au33  1  0.648273  0.000000  0.000000  1
  Au  Au34  1  0.002102  0.661560  0.000000  1
  Au  Au35  1  0.340542  0.338440  0.000000  1
