# generated using pymatgen
data_CeZr4NiSb3
_symmetry_space_group_name_H-M   'P 1'
_cell_length_a   8.80120638
_cell_length_b   8.78289567
_cell_length_c   5.91494690
_cell_angle_alpha   90.00440287
_cell_angle_beta   90.24107381
_cell_angle_gamma   120.44361551
_symmetry_Int_Tables_number   1
_chemical_formula_structural   CeZr4NiSb3
_chemical_formula_sum   'Ce2 Zr8 Ni2 Sb6'
_cell_volume   394.18252286
_cell_formula_units_Z   2
loop_
 _symmetry_equiv_pos_site_id
 _symmetry_equiv_pos_as_xyz
  1  'x, y, z'
loop_
 _atom_site_type_symbol
 _atom_site_label
 _atom_site_symmetry_multiplicity
 _atom_site_fract_x
 _atom_site_fract_y
 _atom_site_fract_z
 _atom_site_occupancy
  Ce  Ce0  1  0.759369  0.756793  0.757058  1
  Ce  Ce1  1  0.665219  0.336349  0.000877  1
  Zr  Zr2  1  0.252480  0.998712  0.751068  1
  Zr  Zr3  1  0.995841  0.250291  0.748259  1
  Zr  Zr4  1  0.257576  0.258018  0.246654  1
  Zr  Zr5  1  0.737755  0.003974  0.251629  1
  Zr  Zr6  1  0.002071  0.736334  0.248805  1
  Zr  Zr7  1  0.334520  0.666299  0.001072  1
  Zr  Zr8  1  0.334404  0.665238  0.499613  1
  Zr  Zr9  1  0.665809  0.333218  0.498992  1
  Ni  Ni10  1  0.000720  0.001094  0.016754  1
  Ni  Ni11  1  0.002664  0.999928  0.479757  1
  Sb  Sb12  1  0.377555  0.384822  0.742009  1
  Sb  Sb13  1  0.603120  0.998237  0.743941  1
  Sb  Sb14  1  0.012605  0.610767  0.742181  1
  Sb  Sb15  1  0.611697  0.619426  0.259976  1
  Sb  Sb16  1  0.381062  0.992808  0.257305  1
  Sb  Sb17  1  0.005532  0.387691  0.254051  1
