# generated using pymatgen
data_Sm12Fe2I17
_symmetry_space_group_name_H-M   'P 1'
_cell_length_a   9.86808607
_cell_length_b   11.86602037
_cell_length_c   11.89629268
_cell_angle_alpha   93.36185625
_cell_angle_beta   104.75749604
_cell_angle_gamma   114.34738474
_symmetry_Int_Tables_number   1
_chemical_formula_structural   Sm12Fe2I17
_chemical_formula_sum   'Sm12 Fe2 I17'
_cell_volume   1205.88103999
_cell_formula_units_Z   1
loop_
 _symmetry_equiv_pos_site_id
 _symmetry_equiv_pos_as_xyz
  1  'x, y, z'
loop_
 _atom_site_type_symbol
 _atom_site_label
 _atom_site_symmetry_multiplicity
 _atom_site_fract_x
 _atom_site_fract_y
 _atom_site_fract_z
 _atom_site_occupancy
  Sm  Sm0  1  0.055041  0.505725  0.320920  1
  Sm  Sm1  1  0.991757  0.810489  0.585960  1
  Sm  Sm2  1  0.652989  0.241081  0.281149  1
  Sm  Sm3  1  0.008243  0.189511  0.414040  1
  Sm  Sm4  1  0.221490  0.670655  0.985949  1
  Sm  Sm5  1  0.257456  0.981959  0.890414  1
  Sm  Sm6  1  0.347011  0.758919  0.718851  1
  Sm  Sm7  1  0.944959  0.494275  0.679080  1
  Sm  Sm8  1  0.742544  0.018041  0.109586  1
  Sm  Sm9  1  0.143970  0.287125  0.153555  1
  Sm  Sm10  1  0.778510  0.329345  0.014051  1
  Sm  Sm11  1  0.856030  0.712875  0.846445  1
  Fe  Fe12  1  0.104055  0.738558  0.786556  1
  Fe  Fe13  1  0.895945  0.261442  0.213444  1
  I  I14  1  0.784432  0.528538  0.417520  1
  I  I15  1  0.642185  0.418894  0.759804  1
  I  I16  1  0.843218  0.894678  0.325089  1
  I  I17  1  0.325694  0.212664  0.369217  1
  I  I18  1  0.156782  0.105322  0.674911  1
  I  I19  1  0.587478  0.052684  0.842632  1
  I  I20  1  0.755213  0.184507  0.537206  1
  I  I21  1  0.549167  0.708375  0.952981  1
  I  I22  1  0.357815  0.581106  0.240196  1
  I  I23  1  0.215568  0.471462  0.582480  1
  I  I24  1  0.055944  0.367320  0.897033  1
  I  I25  1  0.450833  0.291625  0.047019  1
  I  I26  1  0.000000  0.000000  0.000000  1
  I  I27  1  0.244787  0.815493  0.462794  1
  I  I28  1  0.412522  0.947316  0.157368  1
  I  I29  1  0.674306  0.787336  0.630783  1
  I  I30  1  0.944056  0.632680  0.102967  1
