# generated using pymatgen
data_Zr10In3Hg5Rh4
_symmetry_space_group_name_H-M   'P 1'
_cell_length_a   3.49519800
_cell_length_b   7.54749997
_cell_length_c   17.22681900
_cell_angle_alpha   89.86494960
_cell_angle_beta   90.00000000
_cell_angle_gamma   90.00000000
_symmetry_Int_Tables_number   1
_chemical_formula_structural   Zr10In3Hg5Rh4
_chemical_formula_sum   'Zr10 In3 Hg5 Rh4'
_cell_volume   454.44233974
_cell_formula_units_Z   1
loop_
 _symmetry_equiv_pos_site_id
 _symmetry_equiv_pos_as_xyz
  1  'x, y, z'
loop_
 _atom_site_type_symbol
 _atom_site_label
 _atom_site_symmetry_multiplicity
 _atom_site_fract_x
 _atom_site_fract_y
 _atom_site_fract_z
 _atom_site_occupancy
  Zr  Zr0  1  0.000000  0.498715  0.500765  1
  Zr  Zr1  1  0.000000  0.000855  0.000348  1
  Zr  Zr2  1  0.000000  0.759162  0.281039  1
  Zr  Zr3  1  0.000000  0.244199  0.717453  1
  Zr  Zr4  1  0.000000  0.737569  0.779876  1
  Zr  Zr5  1  0.000000  0.259715  0.218936  1
  Zr  Zr6  1  0.000000  0.628392  0.082128  1
  Zr  Zr7  1  0.000000  0.373371  0.917613  1
  Zr  Zr8  1  0.000000  0.870178  0.583503  1
  Zr  Zr9  1  0.000000  0.125802  0.417791  1
  In  In10  1  0.500000  0.433232  0.352178  1
  In  In11  1  0.500000  0.934228  0.148210  1
  In  In12  1  0.500000  0.066106  0.851606  1
  Hg  Hg13  1  0.500000  0.704095  0.933771  1
  Hg  Hg14  1  0.500000  0.297986  0.066253  1
  Hg  Hg15  1  0.500000  0.795875  0.434456  1
  Hg  Hg16  1  0.500000  0.201650  0.565361  1
  Hg  Hg17  1  0.500000  0.564713  0.647537  1
  Rh  Rh18  1  0.500000  0.549421  0.194590  1
  Rh  Rh19  1  0.500000  0.452263  0.806300  1
  Rh  Rh20  1  0.500000  0.954156  0.694590  1
  Rh  Rh21  1  0.500000  0.048318  0.305694  1
