# generated using pymatgen
data_Y7HoGaPd24
_symmetry_space_group_name_H-M   'P 1'
_cell_length_a   8.37135002
_cell_length_b   8.37135002
_cell_length_c   8.37135002
_cell_angle_alpha   89.99415484
_cell_angle_beta   89.99415484
_cell_angle_gamma   89.99415484
_symmetry_Int_Tables_number   1
_chemical_formula_structural   Y7HoGaPd24
_chemical_formula_sum   'Y7 Ho1 Ga1 Pd24'
_cell_volume   586.66002463
_cell_formula_units_Z   1
loop_
 _symmetry_equiv_pos_site_id
 _symmetry_equiv_pos_as_xyz
  1  'x, y, z'
loop_
 _atom_site_type_symbol
 _atom_site_label
 _atom_site_symmetry_multiplicity
 _atom_site_fract_x
 _atom_site_fract_y
 _atom_site_fract_z
 _atom_site_occupancy
  Y  Y0  1  0.251286  0.251286  0.748726  1
  Y  Y1  1  0.251286  0.748726  0.251286  1
  Y  Y2  1  0.748726  0.251286  0.251286  1
  Y  Y3  1  0.748721  0.748721  0.748721  1
  Y  Y4  1  0.748700  0.748700  0.251285  1
  Y  Y5  1  0.748700  0.251285  0.748700  1
  Y  Y6  1  0.251285  0.748700  0.748700  1
  Ho  Ho7  1  0.251353  0.251353  0.251353  1
  Ga  Ga8  1  0.000029  0.000029  0.000029  1
  Pd  Pd9  1  0.499994  0.499994  0.746830  1
  Pd  Pd10  1  0.499642  0.253176  0.499642  1
  Pd  Pd11  1  0.253176  0.499642  0.499642  1
  Pd  Pd12  1  0.499642  0.499642  0.253176  1
  Pd  Pd13  1  0.499994  0.746830  0.499994  1
  Pd  Pd14  1  0.746830  0.499994  0.499994  1
  Pd  Pd15  1  0.999995  0.999995  0.707939  1
  Pd  Pd16  1  0.000307  0.292025  0.000307  1
  Pd  Pd17  1  0.292025  0.000307  0.000307  1
  Pd  Pd18  1  0.000307  0.000307  0.292025  1
  Pd  Pd19  1  0.999995  0.707939  0.999995  1
  Pd  Pd20  1  0.707939  0.999995  0.999995  1
  Pd  Pd21  1  0.999995  0.500008  0.739662  1
  Pd  Pd22  1  0.499651  0.260361  0.000357  1
  Pd  Pd23  1  0.260361  0.000357  0.499651  1
  Pd  Pd24  1  0.000357  0.260361  0.499651  1
  Pd  Pd25  1  0.500008  0.999995  0.739662  1
  Pd  Pd26  1  0.260361  0.499651  0.000357  1
  Pd  Pd27  1  0.000357  0.499651  0.260361  1
  Pd  Pd28  1  0.500008  0.739662  0.999995  1
  Pd  Pd29  1  0.999995  0.739662  0.500008  1
  Pd  Pd30  1  0.499651  0.000357  0.260361  1
  Pd  Pd31  1  0.739662  0.999995  0.500008  1
  Pd  Pd32  1  0.739662  0.500008  0.999995  1
