# generated using pymatgen
data_La2Ga12Rh
_symmetry_space_group_name_H-M   'P 1'
_cell_length_a   6.16081900
_cell_length_b   6.16081900
_cell_length_c   15.79358400
_cell_angle_alpha   90.00000000
_cell_angle_beta   90.00000000
_cell_angle_gamma   90.00000000
_symmetry_Int_Tables_number   1
_chemical_formula_structural   La2Ga12Rh
_chemical_formula_sum   'La4 Ga24 Rh2'
_cell_volume   599.45639015
_cell_formula_units_Z   2
loop_
 _symmetry_equiv_pos_site_id
 _symmetry_equiv_pos_as_xyz
  1  'x, y, z'
loop_
 _atom_site_type_symbol
 _atom_site_label
 _atom_site_symmetry_multiplicity
 _atom_site_fract_x
 _atom_site_fract_y
 _atom_site_fract_z
 _atom_site_occupancy
  La  La0  1  0.500000  0.000000  0.243522  1
  La  La1  1  0.000000  0.500000  0.243522  1
  La  La2  1  0.000000  0.500000  0.756478  1
  La  La3  1  0.500000  0.000000  0.756478  1
  Ga  Ga4  1  0.500000  0.500000  0.814149  1
  Ga  Ga5  1  0.000000  0.000000  0.814149  1
  Ga  Ga6  1  0.750072  0.749928  0.914034  1
  Ga  Ga7  1  0.250072  0.750072  0.914034  1
  Ga  Ga8  1  0.000000  0.000000  0.344480  1
  Ga  Ga9  1  0.249928  0.749928  0.085966  1
  Ga  Ga10  1  0.827246  0.327246  0.568714  1
  Ga  Ga11  1  0.500000  0.500000  0.344480  1
  Ga  Ga12  1  0.249928  0.250072  0.914034  1
  Ga  Ga13  1  0.749928  0.750072  0.085966  1
  Ga  Ga14  1  0.327246  0.172754  0.568714  1
  Ga  Ga15  1  0.672754  0.172754  0.431286  1
  Ga  Ga16  1  0.000000  0.000000  0.655520  1
  Ga  Ga17  1  0.172754  0.327246  0.431286  1
  Ga  Ga18  1  0.250072  0.249928  0.085966  1
  Ga  Ga19  1  0.827246  0.672754  0.431286  1
  Ga  Ga20  1  0.672754  0.827246  0.568714  1
  Ga  Ga21  1  0.000000  0.000000  0.185851  1
  Ga  Ga22  1  0.172754  0.672754  0.568714  1
  Ga  Ga23  1  0.500000  0.500000  0.655520  1
  Ga  Ga24  1  0.749928  0.249928  0.914034  1
  Ga  Ga25  1  0.500000  0.500000  0.185851  1
  Ga  Ga26  1  0.327246  0.827246  0.431286  1
  Ga  Ga27  1  0.750072  0.250072  0.085966  1
  Rh  Rh28  1  0.500000  0.000000  0.000000  1
  Rh  Rh29  1  0.000000  0.500000  0.000000  1
