# generated using pymatgen
data_SrEu11(AlP3)4
_symmetry_space_group_name_H-M   'P 1'
_cell_length_a   4.18321300
_cell_length_b   12.54308573
_cell_length_c   13.09613245
_cell_angle_alpha   89.74324078
_cell_angle_beta   90.00000000
_cell_angle_gamma   90.00000000
_symmetry_Int_Tables_number   1
_chemical_formula_structural   SrEu11(AlP3)4
_chemical_formula_sum   'Sr1 Eu11 Al4 P12'
_cell_volume   687.15239928
_cell_formula_units_Z   1
loop_
 _symmetry_equiv_pos_site_id
 _symmetry_equiv_pos_as_xyz
  1  'x, y, z'
loop_
 _atom_site_type_symbol
 _atom_site_label
 _atom_site_symmetry_multiplicity
 _atom_site_fract_x
 _atom_site_fract_y
 _atom_site_fract_z
 _atom_site_occupancy
  Sr  Sr0  1  0.750000  0.639855  0.998580  1
  Eu  Eu1  1  0.250000  0.865629  0.501317  1
  Eu  Eu2  1  0.250000  0.364962  0.998540  1
  Eu  Eu3  1  0.750000  0.135216  0.498350  1
  Eu  Eu4  1  0.750000  0.222099  0.203774  1
  Eu  Eu5  1  0.750000  0.420543  0.392936  1
  Eu  Eu6  1  0.250000  0.578173  0.606378  1
  Eu  Eu7  1  0.750000  0.921335  0.107949  1
  Eu  Eu8  1  0.250000  0.078866  0.893679  1
  Eu  Eu9  1  0.250000  0.276067  0.702803  1
  Eu  Eu10  1  0.750000  0.722971  0.299840  1
  Eu  Eu11  1  0.250000  0.778769  0.793052  1
  Al  Al12  1  0.750000  0.947706  0.699316  1
  Al  Al13  1  0.250000  0.052885  0.300513  1
  Al  Al14  1  0.250000  0.553254  0.201969  1
  Al  Al15  1  0.750000  0.445192  0.797616  1
  P  P16  1  0.750000  0.457605  0.153531  1
  P  P17  1  0.250000  0.540205  0.844446  1
  P  P18  1  0.750000  0.958474  0.348893  1
  P  P19  1  0.250000  0.041780  0.651303  1
  P  P20  1  0.750000  0.411004  0.616980  1
  P  P21  1  0.250000  0.586260  0.383348  1
  P  P22  1  0.750000  0.911607  0.881333  1
  P  P23  1  0.250000  0.087713  0.118474  1
  P  P24  1  0.750000  0.265353  0.871962  1
  P  P25  1  0.250000  0.736455  0.134105  1
  P  P26  1  0.750000  0.765968  0.627893  1
  P  P27  1  0.250000  0.234055  0.371117  1
