# generated using pymatgen
data_Ta6Be11Co7CuSi4
_symmetry_space_group_name_H-M   'P 1'
_cell_length_a   7.66803956
_cell_length_b   7.67838413
_cell_length_c   7.65971914
_cell_angle_alpha   60.02542890
_cell_angle_beta   60.19438768
_cell_angle_gamma   60.15800348
_symmetry_Int_Tables_number   1
_chemical_formula_structural   Ta6Be11Co7CuSi4
_chemical_formula_sum   'Ta6 Be11 Co7 Cu1 Si4'
_cell_volume   319.80648505
_cell_formula_units_Z   1
loop_
 _symmetry_equiv_pos_site_id
 _symmetry_equiv_pos_as_xyz
  1  'x, y, z'
loop_
 _atom_site_type_symbol
 _atom_site_label
 _atom_site_symmetry_multiplicity
 _atom_site_fract_x
 _atom_site_fract_y
 _atom_site_fract_z
 _atom_site_occupancy
  Ta  Ta0  1  0.206462  0.206369  0.793389  1
  Ta  Ta1  1  0.201468  0.790607  0.802487  1
  Ta  Ta2  1  0.792698  0.207360  0.211330  1
  Ta  Ta3  1  0.197646  0.797065  0.199590  1
  Ta  Ta4  1  0.798915  0.201218  0.794458  1
  Ta  Ta5  1  0.803455  0.792275  0.201568  1
  Be  Be6  1  0.995501  0.001821  0.501281  1
  Be  Be7  1  0.999775  0.500146  0.999727  1
  Be  Be8  1  0.501496  0.001815  0.500872  1
  Be  Be9  1  0.832167  0.520749  0.831788  1
  Be  Be10  1  0.173375  0.167768  0.484737  1
  Be  Be11  1  0.484559  0.170460  0.179802  1
  Be  Be12  1  0.160238  0.181516  0.173215  1
  Be  Be13  1  0.519451  0.831675  0.815066  1
  Be  Be14  1  0.837830  0.821904  0.821184  1
  Be  Be15  1  0.822826  0.836409  0.518508  1
  Be  Be16  1  0.168675  0.477032  0.169531  1
  Co  Co17  1  0.624923  0.128307  0.623105  1
  Co  Co18  1  0.375222  0.375987  0.871951  1
  Co  Co19  1  0.870582  0.375712  0.376287  1
  Co  Co20  1  0.376009  0.375087  0.376796  1
  Co  Co21  1  0.131723  0.624763  0.622725  1
  Co  Co22  1  0.622979  0.624606  0.621800  1
  Co  Co23  1  0.622987  0.625568  0.130256  1
  Cu  Cu24  1  0.373365  0.869962  0.381691  1
  Si  Si25  1  0.502812  0.491388  0.502517  1
  Si  Si26  1  0.500782  0.500597  0.999282  1
  Si  Si27  1  0.999396  0.501279  0.500346  1
  Si  Si28  1  0.502687  0.000550  0.994715  1
