# generated using pymatgen
data_CePaF9
_symmetry_space_group_name_H-M   'P 1'
_cell_length_a   7.35189322
_cell_length_b   7.49895852
_cell_length_c   7.35189225
_cell_angle_alpha   109.45020023
_cell_angle_beta   108.70543952
_cell_angle_gamma   109.45020694
_symmetry_Int_Tables_number   1
_chemical_formula_structural   CePaF9
_chemical_formula_sum   'Ce2 Pa2 F18'
_cell_volume   315.07530832
_cell_formula_units_Z   2
loop_
 _symmetry_equiv_pos_site_id
 _symmetry_equiv_pos_as_xyz
  1  'x, y, z'
loop_
 _atom_site_type_symbol
 _atom_site_label
 _atom_site_symmetry_multiplicity
 _atom_site_fract_x
 _atom_site_fract_y
 _atom_site_fract_z
 _atom_site_occupancy
  Ce  Ce0  1  0.375714  0.000000  0.998841  1
  Ce  Ce1  1  0.998841  0.000000  0.375714  1
  Pa  Pa2  1  0.627972  0.630729  0.627972  1
  Pa  Pa3  1  0.997242  0.369271  0.997242  1
  F  F4  1  0.991993  0.765521  0.767708  1
  F  F5  1  0.002188  0.234479  0.226472  1
  F  F6  1  0.227512  0.000000  0.227512  1
  F  F7  1  0.771471  0.000000  0.771471  1
  F  F8  1  0.762022  0.764169  0.413644  1
  F  F9  1  0.649475  0.235831  0.997853  1
  F  F10  1  0.228820  0.632375  0.998824  1
  F  F11  1  0.358375  0.591480  0.358375  1
  F  F12  1  0.642096  0.000000  0.231988  1
  F  F13  1  0.998824  0.632375  0.228820  1
  F  F14  1  0.596445  0.367625  0.366450  1
  F  F15  1  0.413644  0.764169  0.762022  1
  F  F16  1  0.766895  0.408520  0.766895  1
  F  F17  1  0.231988  0.000000  0.642096  1
  F  F18  1  0.997853  0.235831  0.649475  1
  F  F19  1  0.366450  0.367625  0.596445  1
  F  F20  1  0.767708  0.765521  0.991993  1
  F  F21  1  0.226472  0.234479  0.002188  1
