# generated using pymatgen
data_Ce3ErMgIr3
_symmetry_space_group_name_H-M   'P 1'
_cell_length_a   6.12666000
_cell_length_b   8.18961159
_cell_length_c   8.18966100
_cell_angle_alpha   119.99979969
_cell_angle_beta   90.00069204
_cell_angle_gamma   89.99862555
_symmetry_Int_Tables_number   1
_chemical_formula_structural   Ce3ErMgIr3
_chemical_formula_sum   'Ce6 Er2 Mg2 Ir6'
_cell_volume   355.86437860
_cell_formula_units_Z   2
loop_
 _symmetry_equiv_pos_site_id
 _symmetry_equiv_pos_as_xyz
  1  'x, y, z'
loop_
 _atom_site_type_symbol
 _atom_site_label
 _atom_site_symmetry_multiplicity
 _atom_site_fract_x
 _atom_site_fract_y
 _atom_site_fract_z
 _atom_site_occupancy
  Ce  Ce0  1  0.743135  0.259394  0.000008  1
  Ce  Ce1  1  0.743010  0.740497  0.740545  1
  Ce  Ce2  1  0.743166  0.999943  0.259344  1
  Ce  Ce3  1  0.256941  0.740548  0.000027  1
  Ce  Ce4  1  0.256960  0.259481  0.259517  1
  Ce  Ce5  1  0.256894  0.999976  0.740556  1
  Er  Er6  1  0.999994  0.666752  0.333468  1
  Er  Er7  1  0.999991  0.333230  0.666525  1
  Mg  Mg8  1  0.500040  0.333386  0.666663  1
  Mg  Mg9  1  0.500039  0.666680  0.333364  1
  Ir  Ir10  1  0.749831  0.614458  0.999996  1
  Ir  Ir11  1  0.749765  0.385654  0.385630  1
  Ir  Ir12  1  0.749803  0.000002  0.614371  1
  Ir  Ir13  1  0.250082  0.385658  0.999921  1
  Ir  Ir14  1  0.250187  0.614461  0.614494  1
  Ir  Ir15  1  0.250163  0.999880  0.385571  1
