# generated using pymatgen
data_TbDy6Co6CuSn22
_symmetry_space_group_name_H-M   'P 1'
_cell_length_a   9.65725000
_cell_length_b   9.65724978
_cell_length_c   9.89565000
_cell_angle_alpha   90.00000000
_cell_angle_beta   90.00000000
_cell_angle_gamma   120.00000760
_symmetry_Int_Tables_number   1
_chemical_formula_structural   TbDy6Co6CuSn22
_chemical_formula_sum   'Tb1 Dy6 Co6 Cu1 Sn22'
_cell_volume   799.24856164
_cell_formula_units_Z   1
loop_
 _symmetry_equiv_pos_site_id
 _symmetry_equiv_pos_as_xyz
  1  'x, y, z'
loop_
 _atom_site_type_symbol
 _atom_site_label
 _atom_site_symmetry_multiplicity
 _atom_site_fract_x
 _atom_site_fract_y
 _atom_site_fract_z
 _atom_site_occupancy
  Tb  Tb0  1  0.000000  0.000000  0.000000  1
  Dy  Dy1  1  0.479089  0.520911  0.306182  1
  Dy  Dy2  1  0.520911  0.479089  0.693818  1
  Dy  Dy3  1  0.479089  0.958177  0.306182  1
  Dy  Dy4  1  0.520911  0.041823  0.693818  1
  Dy  Dy5  1  0.041823  0.520911  0.306182  1
  Dy  Dy6  1  0.958177  0.479089  0.693818  1
  Co  Co7  1  0.832017  0.167983  0.196956  1
  Co  Co8  1  0.167983  0.832017  0.803044  1
  Co  Co9  1  0.832017  0.664032  0.196956  1
  Co  Co10  1  0.167983  0.335968  0.803044  1
  Co  Co11  1  0.335968  0.167983  0.196956  1
  Co  Co12  1  0.664032  0.832017  0.803044  1
  Cu  Cu13  1  0.000000  0.000000  0.500000  1
  Sn  Sn14  1  0.346169  0.000000  0.000000  1
  Sn  Sn15  1  0.653831  0.000000  0.000000  1
  Sn  Sn16  1  0.000000  0.346169  0.000000  1
  Sn  Sn17  1  0.000000  0.653831  0.000000  1
  Sn  Sn18  1  0.653831  0.653831  0.000000  1
  Sn  Sn19  1  0.346169  0.346169  0.000000  1
  Sn  Sn20  1  0.333333  0.666667  0.816262  1
  Sn  Sn21  1  0.666667  0.333333  0.183738  1
  Sn  Sn22  1  0.784227  0.215773  0.453516  1
  Sn  Sn23  1  0.215773  0.784227  0.546484  1
  Sn  Sn24  1  0.784227  0.568454  0.453516  1
  Sn  Sn25  1  0.215773  0.431546  0.546484  1
  Sn  Sn26  1  0.431546  0.215773  0.453516  1
  Sn  Sn27  1  0.568454  0.784227  0.546484  1
  Sn  Sn28  1  0.333333  0.666667  0.118161  1
  Sn  Sn29  1  0.666667  0.333333  0.881839  1
  Sn  Sn30  1  0.111062  0.888938  0.283319  1
  Sn  Sn31  1  0.888938  0.111062  0.716681  1
  Sn  Sn32  1  0.111062  0.222126  0.283319  1
  Sn  Sn33  1  0.888938  0.777874  0.716681  1
  Sn  Sn34  1  0.777874  0.888938  0.283319  1
  Sn  Sn35  1  0.222126  0.111062  0.716681  1
