# generated using pymatgen
data_Y12AlCo4Rh
_symmetry_space_group_name_H-M   'P 1'
_cell_length_a   8.29614695
_cell_length_b   8.29613237
_cell_length_c   8.29614570
_cell_angle_alpha   110.89576806
_cell_angle_beta   110.53946009
_cell_angle_gamma   107.00647106
_symmetry_Int_Tables_number   1
_chemical_formula_structural   Y12AlCo4Rh
_chemical_formula_sum   'Y12 Al1 Co4 Rh1'
_cell_volume   438.93670407
_cell_formula_units_Z   1
loop_
 _symmetry_equiv_pos_site_id
 _symmetry_equiv_pos_as_xyz
  1  'x, y, z'
loop_
 _atom_site_type_symbol
 _atom_site_label
 _atom_site_symmetry_multiplicity
 _atom_site_fract_x
 _atom_site_fract_y
 _atom_site_fract_z
 _atom_site_occupancy
  Y  Y0  1  0.591372  0.285818  0.305558  1
  Y  Y1  1  0.187907  0.207384  0.395291  1
  Y  Y2  1  0.187907  0.792616  0.980524  1
  Y  Y3  1  0.685352  0.487535  0.802183  1
  Y  Y4  1  0.685342  0.883166  0.197824  1
  Y  Y5  1  0.980259  0.285818  0.694447  1
  Y  Y6  1  0.019741  0.714182  0.305553  1
  Y  Y7  1  0.314658  0.116834  0.802176  1
  Y  Y8  1  0.314648  0.512465  0.197817  1
  Y  Y9  1  0.812093  0.207384  0.019476  1
  Y  Y10  1  0.812093  0.792616  0.604709  1
  Y  Y11  1  0.408628  0.714182  0.694442  1
  Al  Al12  1  0.500000  0.000000  0.500000  1
  Co  Co13  1  0.888716  0.888719  0.000003  1
  Co  Co14  1  0.380963  0.500000  0.880963  1
  Co  Co15  1  0.619037  0.500000  0.119037  1
  Co  Co16  1  0.111284  0.111281  0.999997  1
  Rh  Rh17  1  0.000000  0.500000  0.500000  1
