# generated using pymatgen
data_Ta8MnV(SiB2)2
_symmetry_space_group_name_H-M   'P 1'
_cell_length_a   7.19928990
_cell_length_b   7.19929095
_cell_length_c   7.19929075
_cell_angle_alpha   130.00057050
_cell_angle_beta   130.00057800
_cell_angle_gamma   73.40584038
_symmetry_Int_Tables_number   1
_chemical_formula_structural   Ta8MnV(SiB2)2
_chemical_formula_sum   'Ta8 Mn1 V1 Si2 B4'
_cell_volume   213.72367633
_cell_formula_units_Z   1
loop_
 _symmetry_equiv_pos_site_id
 _symmetry_equiv_pos_as_xyz
  1  'x, y, z'
loop_
 _atom_site_type_symbol
 _atom_site_label
 _atom_site_symmetry_multiplicity
 _atom_site_fract_x
 _atom_site_fract_y
 _atom_site_fract_z
 _atom_site_occupancy
  Ta  Ta0  1  0.534710  0.695973  0.504980  1
  Ta  Ta1  1  0.029730  0.534710  0.838737  1
  Ta  Ta2  1  0.695973  0.190993  0.161263  1
  Ta  Ta3  1  0.970270  0.465290  0.161263  1
  Ta  Ta4  1  0.190993  0.029730  0.495020  1
  Ta  Ta5  1  0.465290  0.304027  0.495020  1
  Ta  Ta6  1  0.809007  0.970270  0.504980  1
  Ta  Ta7  1  0.304027  0.809007  0.838737  1
  Mn  Mn8  1  0.000000  0.000000  0.000000  1
  V  V9  1  0.500000  0.500000  0.000000  1
  Si  Si10  1  0.255001  0.255001  0.000000  1
  Si  Si11  1  0.744999  0.744999  0.000000  1
  B  B12  1  0.621185  0.121979  0.743162  1
  B  B13  1  0.121979  0.378815  0.500794  1
  B  B14  1  0.878021  0.621185  0.499206  1
  B  B15  1  0.378815  0.878021  0.256838  1
