# generated using pymatgen
data_Tb3Tm5Cd2IrPt
_symmetry_space_group_name_H-M   'P 1'
_cell_length_a   9.59464868
_cell_length_b   9.59464909
_cell_length_c   9.58545000
_cell_angle_alpha   60.03171089
_cell_angle_beta   60.03170946
_cell_angle_gamma   60.14454106
_symmetry_Int_Tables_number   1
_chemical_formula_structural   Tb3Tm5Cd2IrPt
_chemical_formula_sum   'Tb6 Tm10 Cd4 Ir2 Pt2'
_cell_volume   624.93707783
_cell_formula_units_Z   2
loop_
 _symmetry_equiv_pos_site_id
 _symmetry_equiv_pos_as_xyz
  1  'x, y, z'
loop_
 _atom_site_type_symbol
 _atom_site_label
 _atom_site_symmetry_multiplicity
 _atom_site_fract_x
 _atom_site_fract_y
 _atom_site_fract_z
 _atom_site_occupancy
  Tb  Tb0  1  0.188535  0.813124  0.810616  1
  Tb  Tb1  1  0.813124  0.188535  0.187725  1
  Tb  Tb2  1  0.813124  0.188535  0.810616  1
  Tb  Tb3  1  0.188535  0.813124  0.187725  1
  Tb  Tb4  1  0.811950  0.811950  0.188050  1
  Tb  Tb5  1  0.187890  0.187890  0.812110  1
  Tm  Tm6  1  0.600281  0.600281  0.596236  1
  Tm  Tm7  1  0.600281  0.600281  0.203203  1
  Tm  Tm8  1  0.604279  0.197655  0.599033  1
  Tm  Tm9  1  0.197655  0.604279  0.599033  1
  Tm  Tm10  1  0.057932  0.438310  0.439795  1
  Tm  Tm11  1  0.438310  0.057932  0.063962  1
  Tm  Tm12  1  0.438310  0.057932  0.439795  1
  Tm  Tm13  1  0.057932  0.438310  0.063962  1
  Tm  Tm14  1  0.440008  0.440008  0.059992  1
  Tm  Tm15  1  0.062219  0.062219  0.437781  1
  Cd  Cd16  1  0.830859  0.830859  0.830589  1
  Cd  Cd17  1  0.830859  0.830859  0.507693  1
  Cd  Cd18  1  0.830725  0.507451  0.830912  1
  Cd  Cd19  1  0.507451  0.830725  0.830912  1
  Ir  Ir20  1  0.391755  0.823732  0.392256  1
  Ir  Ir21  1  0.823732  0.391755  0.392256  1
  Pt  Pt22  1  0.392126  0.392126  0.393076  1
  Pt  Pt23  1  0.392126  0.392126  0.822671  1
