# generated using pymatgen
data_Dy3YGa16Ir3
_symmetry_space_group_name_H-M   'P 1'
_cell_length_a   6.16108300
_cell_length_b   6.16148000
_cell_length_c   11.19897500
_cell_angle_alpha   90.00000000
_cell_angle_beta   90.00000000
_cell_angle_gamma   90.00000000
_symmetry_Int_Tables_number   1
_chemical_formula_structural   Dy3YGa16Ir3
_chemical_formula_sum   'Dy3 Y1 Ga16 Ir3'
_cell_volume   425.12865402
_cell_formula_units_Z   1
loop_
 _symmetry_equiv_pos_site_id
 _symmetry_equiv_pos_as_xyz
  1  'x, y, z'
loop_
 _atom_site_type_symbol
 _atom_site_label
 _atom_site_symmetry_multiplicity
 _atom_site_fract_x
 _atom_site_fract_y
 _atom_site_fract_z
 _atom_site_occupancy
  Dy  Dy0  1  0.000000  0.500000  0.806006  1
  Dy  Dy1  1  0.500000  0.000000  0.194018  1
  Dy  Dy2  1  0.000000  0.500000  0.194019  1
  Y  Y3  1  0.500000  0.000000  0.806067  1
  Ga  Ga4  1  0.248789  0.248864  0.620512  1
  Ga  Ga5  1  0.751211  0.751136  0.620512  1
  Ga  Ga6  1  0.751211  0.248864  0.620512  1
  Ga  Ga7  1  0.248789  0.751136  0.620512  1
  Ga  Ga8  1  0.751166  0.751182  0.379417  1
  Ga  Ga9  1  0.248834  0.248818  0.379417  1
  Ga  Ga10  1  0.248834  0.751182  0.379417  1
  Ga  Ga11  1  0.751166  0.248818  0.379417  1
  Ga  Ga12  1  0.288364  0.288326  0.000043  1
  Ga  Ga13  1  0.711636  0.711674  0.000043  1
  Ga  Ga14  1  0.711636  0.288326  0.000043  1
  Ga  Ga15  1  0.288364  0.711674  0.000043  1
  Ga  Ga16  1  0.500000  0.500000  0.803464  1
  Ga  Ga17  1  0.500000  0.500000  0.196557  1
  Ga  Ga18  1  0.000000  0.000000  0.775490  1
  Ga  Ga19  1  0.000000  0.000000  0.224525  1
  Ir  Ir20  1  0.500000  0.000000  0.499976  1
  Ir  Ir21  1  0.000000  0.500000  0.500014  1
  Ir  Ir22  1  0.000000  0.000000  0.999975  1
