# generated using pymatgen
data_Cs(SiP)3
_symmetry_space_group_name_H-M   'P 1'
_cell_length_a   3.58364600
_cell_length_b   9.92706100
_cell_length_c   20.80724500
_cell_angle_alpha   90.00000000
_cell_angle_beta   90.00000000
_cell_angle_gamma   90.00000000
_symmetry_Int_Tables_number   1
_chemical_formula_structural   Cs(SiP)3
_chemical_formula_sum   'Cs4 Si12 P12'
_cell_volume   740.21924824
_cell_formula_units_Z   4
loop_
 _symmetry_equiv_pos_site_id
 _symmetry_equiv_pos_as_xyz
  1  'x, y, z'
loop_
 _atom_site_type_symbol
 _atom_site_label
 _atom_site_symmetry_multiplicity
 _atom_site_fract_x
 _atom_site_fract_y
 _atom_site_fract_z
 _atom_site_occupancy
  Cs  Cs0  1  0.000000  0.294552  0.310363  1
  Cs  Cs1  1  0.000000  0.705448  0.689637  1
  Cs  Cs2  1  0.000000  0.205448  0.810363  1
  Cs  Cs3  1  0.000000  0.794552  0.189637  1
  Si  Si4  1  0.500000  0.404727  0.033510  1
  Si  Si5  1  0.500000  0.595273  0.966490  1
  Si  Si6  1  0.500000  0.095273  0.533510  1
  Si  Si7  1  0.500000  0.904727  0.466490  1
  Si  Si8  1  0.000000  0.113613  0.016546  1
  Si  Si9  1  0.000000  0.886387  0.983454  1
  Si  Si10  1  0.000000  0.386387  0.516546  1
  Si  Si11  1  0.000000  0.613613  0.483454  1
  Si  Si12  1  0.000000  0.183125  0.125428  1
  Si  Si13  1  0.000000  0.816875  0.874572  1
  Si  Si14  1  0.000000  0.316875  0.625428  1
  Si  Si15  1  0.000000  0.683125  0.374572  1
  P  P16  1  0.500000  0.119070  0.182539  1
  P  P17  1  0.500000  0.880930  0.817461  1
  P  P18  1  0.500000  0.380930  0.682539  1
  P  P19  1  0.500000  0.619070  0.317461  1
  P  P20  1  0.500000  0.283049  0.468348  1
  P  P21  1  0.500000  0.716951  0.531652  1
  P  P22  1  0.500000  0.216951  0.968348  1
  P  P23  1  0.500000  0.783049  0.031652  1
  P  P24  1  0.000000  0.412293  0.101700  1
  P  P25  1  0.000000  0.587707  0.898300  1
  P  P26  1  0.000000  0.087707  0.601700  1
  P  P27  1  0.000000  0.912293  0.398300  1
