# generated using pymatgen
data_TbTm(BIr)8
_symmetry_space_group_name_H-M   'P 1'
_cell_length_a   7.63272500
_cell_length_b   7.63272500
_cell_length_c   3.99766200
_cell_angle_alpha   90.00000000
_cell_angle_beta   90.00000000
_cell_angle_gamma   90.00000000
_symmetry_Int_Tables_number   1
_chemical_formula_structural   TbTm(BIr)8
_chemical_formula_sum   'Tb1 Tm1 B8 Ir8'
_cell_volume   232.89775535
_cell_formula_units_Z   1
loop_
 _symmetry_equiv_pos_site_id
 _symmetry_equiv_pos_as_xyz
  1  'x, y, z'
loop_
 _atom_site_type_symbol
 _atom_site_label
 _atom_site_symmetry_multiplicity
 _atom_site_fract_x
 _atom_site_fract_y
 _atom_site_fract_z
 _atom_site_occupancy
  Tb  Tb0  1  0.000000  0.000000  0.500000  1
  Tm  Tm1  1  0.500000  0.500000  0.000000  1
  B  B2  1  0.842247  0.278317  0.888459  1
  B  B3  1  0.157753  0.721683  0.888459  1
  B  B4  1  0.278317  0.157753  0.111541  1
  B  B5  1  0.721683  0.842247  0.111541  1
  B  B6  1  0.777795  0.657761  0.387998  1
  B  B7  1  0.222205  0.342239  0.387998  1
  B  B8  1  0.342239  0.777795  0.612002  1
  B  B9  1  0.657761  0.222205  0.612002  1
  Ir  Ir10  1  0.890310  0.659600  0.886962  1
  Ir  Ir11  1  0.109690  0.340400  0.886962  1
  Ir  Ir12  1  0.340400  0.890310  0.113038  1
  Ir  Ir13  1  0.659600  0.109690  0.113038  1
  Ir  Ir14  1  0.839147  0.390953  0.386471  1
  Ir  Ir15  1  0.160853  0.609047  0.386471  1
  Ir  Ir16  1  0.390953  0.160853  0.613529  1
  Ir  Ir17  1  0.609047  0.839147  0.613529  1
