# generated using pymatgen
data_Tm20Co3IrPt8
_symmetry_space_group_name_H-M   'P 1'
_cell_length_a   10.84832000
_cell_length_b   10.84832000
_cell_length_c   6.29087500
_cell_angle_alpha   90.00000000
_cell_angle_beta   90.00000000
_cell_angle_gamma   90.00000000
_symmetry_Int_Tables_number   1
_chemical_formula_structural   Tm20Co3IrPt8
_chemical_formula_sum   'Tm20 Co3 Ir1 Pt8'
_cell_volume   740.34820980
_cell_formula_units_Z   1
loop_
 _symmetry_equiv_pos_site_id
 _symmetry_equiv_pos_as_xyz
  1  'x, y, z'
loop_
 _atom_site_type_symbol
 _atom_site_label
 _atom_site_symmetry_multiplicity
 _atom_site_fract_x
 _atom_site_fract_y
 _atom_site_fract_z
 _atom_site_occupancy
  Tm  Tm0  1  0.299514  0.085100  0.374324  1
  Tm  Tm1  1  0.299617  0.915201  0.874636  1
  Tm  Tm2  1  0.700383  0.084799  0.874636  1
  Tm  Tm3  1  0.700486  0.914900  0.374324  1
  Tm  Tm4  1  0.584799  0.799617  0.874636  1
  Tm  Tm5  1  0.585100  0.200486  0.374324  1
  Tm  Tm6  1  0.414900  0.799514  0.374324  1
  Tm  Tm7  1  0.415201  0.200383  0.874636  1
  Tm  Tm8  1  0.203276  0.413612  0.629308  1
  Tm  Tm9  1  0.202537  0.586562  0.123636  1
  Tm  Tm10  1  0.797463  0.413438  0.123636  1
  Tm  Tm11  1  0.796724  0.586388  0.629308  1
  Tm  Tm12  1  0.913438  0.702537  0.123636  1
  Tm  Tm13  1  0.913612  0.296724  0.629308  1
  Tm  Tm14  1  0.086388  0.703276  0.629308  1
  Tm  Tm15  1  0.086562  0.297463  0.123636  1
  Tm  Tm16  1  0.000000  0.000000  0.498915  1
  Tm  Tm17  1  0.000000  0.000000  0.999341  1
  Tm  Tm18  1  0.500000  0.500000  0.999341  1
  Tm  Tm19  1  0.500000  0.500000  0.498915  1
  Co  Co20  1  0.500000  0.000000  0.119598  1
  Co  Co21  1  0.500000  0.000000  0.619692  1
  Co  Co22  1  0.000000  0.500000  0.880212  1
  Ir  Ir23  1  0.000000  0.500000  0.380773  1
  Pt  Pt24  1  0.845153  0.153728  0.249604  1
  Pt  Pt25  1  0.845184  0.846270  0.749295  1
  Pt  Pt26  1  0.154816  0.153730  0.749295  1
  Pt  Pt27  1  0.154847  0.846272  0.249604  1
  Pt  Pt28  1  0.653730  0.345184  0.749295  1
  Pt  Pt29  1  0.653728  0.654847  0.249604  1
  Pt  Pt30  1  0.346272  0.345153  0.249604  1
  Pt  Pt31  1  0.346270  0.654816  0.749295  1
