# generated using pymatgen
data_LaBi3(SO6)2
_symmetry_space_group_name_H-M   'P 1'
_cell_length_a   4.27631218
_cell_length_b   7.51040252
_cell_length_c   8.30794901
_cell_angle_alpha   106.02413398
_cell_angle_beta   90.49919602
_cell_angle_gamma   106.28400069
_symmetry_Int_Tables_number   1
_chemical_formula_structural   LaBi3(SO6)2
_chemical_formula_sum   'La1 Bi3 S2 O12'
_cell_volume   245.09474989
_cell_formula_units_Z   1
loop_
 _symmetry_equiv_pos_site_id
 _symmetry_equiv_pos_as_xyz
  1  'x, y, z'
loop_
 _atom_site_type_symbol
 _atom_site_label
 _atom_site_symmetry_multiplicity
 _atom_site_fract_x
 _atom_site_fract_y
 _atom_site_fract_z
 _atom_site_occupancy
  La  La0  1  0.652863  0.322720  0.080291  1
  Bi  Bi1  1  0.669473  0.342063  0.585473  1
  Bi  Bi2  1  0.335051  0.661706  0.414595  1
  Bi  Bi3  1  0.324003  0.660753  0.916533  1
  S  S4  1  0.945066  0.999436  0.752061  1
  S  S5  1  0.056512  0.000723  0.248504  1
  O  O6  1  0.771772  0.505191  0.869647  1
  O  O7  1  0.233107  0.495559  0.123744  1
  O  O8  1  0.263822  0.495024  0.622200  1
  O  O9  1  0.733297  0.507020  0.384803  1
  O  O10  1  0.743164  0.993497  0.602665  1
  O  O11  1  0.261767  0.010072  0.397695  1
  O  O12  1  0.741039  0.007433  0.898282  1
  O  O13  1  0.261978  0.997084  0.102231  1
  O  O14  1  0.227893  0.180355  0.797345  1
  O  O15  1  0.778117  0.820116  0.205272  1
  O  O16  1  0.051854  0.821956  0.715188  1
  O  O17  1  0.949226  0.179295  0.283469  1
