# generated using pymatgen
data_Y2Al7Ga2Ir2Pt
_symmetry_space_group_name_H-M   'P 1'
_cell_length_a   7.55569700
_cell_length_b   7.55907298
_cell_length_c   9.55096200
_cell_angle_alpha   90.00000000
_cell_angle_beta   90.00000000
_cell_angle_gamma   119.63025982
_symmetry_Int_Tables_number   1
_chemical_formula_structural   Y2Al7Ga2Ir2Pt
_chemical_formula_sum   'Y4 Al14 Ga4 Ir4 Pt2'
_cell_volume   474.16212940
_cell_formula_units_Z   2
loop_
 _symmetry_equiv_pos_site_id
 _symmetry_equiv_pos_as_xyz
  1  'x, y, z'
loop_
 _atom_site_type_symbol
 _atom_site_label
 _atom_site_symmetry_multiplicity
 _atom_site_fract_x
 _atom_site_fract_y
 _atom_site_fract_z
 _atom_site_occupancy
  Y  Y0  1  0.997495  0.674229  0.250000  1
  Y  Y1  1  0.002505  0.325771  0.750000  1
  Y  Y2  1  0.670526  0.993369  0.250000  1
  Y  Y3  1  0.329474  0.006631  0.750000  1
  Al  Al4  1  0.000906  0.338133  0.073693  1
  Al  Al5  1  0.999094  0.661867  0.926307  1
  Al  Al6  1  0.999094  0.661867  0.573693  1
  Al  Al7  1  0.338735  0.001866  0.426558  1
  Al  Al8  1  0.000906  0.338133  0.426307  1
  Al  Al9  1  0.661265  0.998134  0.573442  1
  Al  Al10  1  0.661265  0.998134  0.926558  1
  Al  Al11  1  0.338735  0.001866  0.073442  1
  Al  Al12  1  0.337330  0.337804  0.558539  1
  Al  Al13  1  0.662670  0.662196  0.441461  1
  Al  Al14  1  0.662670  0.662196  0.058539  1
  Al  Al15  1  0.337330  0.337804  0.941461  1
  Al  Al16  1  0.550786  0.337598  0.250000  1
  Al  Al17  1  0.449214  0.662402  0.750000  1
  Ga  Ga18  1  0.136622  0.137773  0.250000  1
  Ga  Ga19  1  0.863378  0.862227  0.750000  1
  Ga  Ga20  1  0.337749  0.547104  0.250000  1
  Ga  Ga21  1  0.662251  0.452896  0.750000  1
  Ir  Ir22  1  0.670960  0.328555  0.002276  1
  Ir  Ir23  1  0.329040  0.671445  0.997724  1
  Ir  Ir24  1  0.329040  0.671445  0.502276  1
  Ir  Ir25  1  0.670960  0.328555  0.497724  1
  Pt  Pt26  1  0.000000  0.000000  0.000000  1
  Pt  Pt27  1  0.000000  0.000000  0.500000  1
