# generated using pymatgen
data_Tb3Pr3Al24Ni3Os5
_symmetry_space_group_name_H-M   'P 1'
_cell_length_a   8.80247634
_cell_length_b   8.81903987
_cell_length_c   9.53473609
_cell_angle_alpha   89.91626414
_cell_angle_beta   89.68846922
_cell_angle_gamma   119.68155084
_symmetry_Int_Tables_number   1
_chemical_formula_structural   Tb3Pr3Al24Ni3Os5
_chemical_formula_sum   'Tb3 Pr3 Al24 Ni3 Os5'
_cell_volume   643.04117401
_cell_formula_units_Z   1
loop_
 _symmetry_equiv_pos_site_id
 _symmetry_equiv_pos_as_xyz
  1  'x, y, z'
loop_
 _atom_site_type_symbol
 _atom_site_label
 _atom_site_symmetry_multiplicity
 _atom_site_fract_x
 _atom_site_fract_y
 _atom_site_fract_z
 _atom_site_occupancy
  Tb  Tb0  1  0.385176  0.186681  0.748649  1
  Tb  Tb1  1  0.192833  0.809374  0.249738  1
  Tb  Tb2  1  0.805675  0.190081  0.750130  1
  Pr  Pr3  1  0.186737  0.378504  0.249053  1
  Pr  Pr4  1  0.812844  0.622258  0.751025  1
  Pr  Pr5  1  0.618613  0.813089  0.251030  1
  Al  Al6  1  0.332341  0.666409  0.021375  1
  Al  Al7  1  0.665512  0.333304  0.974808  1
  Al  Al8  1  0.666471  0.334168  0.523890  1
  Al  Al9  1  0.332025  0.665979  0.479565  1
  Al  Al10  1  0.161681  0.326431  0.575684  1
  Al  Al11  1  0.839583  0.672638  0.426159  1
  Al  Al12  1  0.672607  0.838974  0.576195  1
  Al  Al13  1  0.836672  0.672203  0.076261  1
  Al  Al14  1  0.327363  0.161444  0.426995  1
  Al  Al15  1  0.164844  0.326390  0.921883  1
  Al  Al16  1  0.165040  0.836235  0.573891  1
  Al  Al17  1  0.328137  0.161853  0.072334  1
  Al  Al18  1  0.835030  0.165224  0.427840  1
  Al  Al19  1  0.672033  0.838596  0.924527  1
  Al  Al20  1  0.833632  0.163887  0.073483  1
  Al  Al21  1  0.166989  0.838577  0.924627  1
  Al  Al22  1  0.560056  0.125944  0.249094  1
  Al  Al23  1  0.438771  0.875152  0.750882  1
  Al  Al24  1  0.874943  0.439399  0.249109  1
  Al  Al25  1  0.124405  0.560172  0.751393  1
  Al  Al26  1  0.561921  0.436800  0.249199  1
  Al  Al27  1  0.437195  0.559399  0.750719  1
  Al  Al28  1  0.000759  0.000050  0.250230  1
  Al  Al29  1  0.004627  0.003395  0.749764  1
  Ni  Ni30  1  0.999282  0.499462  0.999653  1
  Ni  Ni31  1  0.498869  0.498496  0.999003  1
  Ni  Ni32  1  0.498932  0.498355  0.501128  1
  Os  Os33  1  0.499532  0.000751  0.998699  1
  Os  Os34  1  0.499514  0.000961  0.501580  1
  Os  Os35  1  0.999613  0.499533  0.500576  1
  Os  Os36  1  0.999912  0.999983  0.999519  1
  Os  Os37  1  0.999833  0.999847  0.500316  1
