# generated using pymatgen
data_Dy4PdPt3
_symmetry_space_group_name_H-M   'P 1'
_cell_length_a   4.51399200
_cell_length_b   5.60977221
_cell_length_c   7.04868183
_cell_angle_alpha   89.82935447
_cell_angle_beta   90.00000000
_cell_angle_gamma   90.00000000
_symmetry_Int_Tables_number   1
_chemical_formula_structural   Dy4PdPt3
_chemical_formula_sum   'Dy4 Pd1 Pt3'
_cell_volume   178.48922049
_cell_formula_units_Z   1
loop_
 _symmetry_equiv_pos_site_id
 _symmetry_equiv_pos_as_xyz
  1  'x, y, z'
loop_
 _atom_site_type_symbol
 _atom_site_label
 _atom_site_symmetry_multiplicity
 _atom_site_fract_x
 _atom_site_fract_y
 _atom_site_fract_z
 _atom_site_occupancy
  Dy  Dy0  1  0.250000  0.358123  0.682748  1
  Dy  Dy1  1  0.250000  0.141898  0.181335  1
  Dy  Dy2  1  0.750000  0.638840  0.314844  1
  Dy  Dy3  1  0.750000  0.861058  0.821603  1
  Pd  Pd4  1  0.250000  0.847216  0.543890  1
  Pt  Pt5  1  0.250000  0.656404  0.044649  1
  Pt  Pt6  1  0.750000  0.151085  0.456666  1
  Pt  Pt7  1  0.750000  0.345376  0.954265  1
