# generated using pymatgen
data_Nd8Ta11Si16Mo
_symmetry_space_group_name_H-M   'P 1'
_cell_length_a   6.96978217
_cell_length_b   7.18931640
_cell_length_c   13.52836931
_cell_angle_alpha   90.02024240
_cell_angle_beta   89.97544174
_cell_angle_gamma   89.99299000
_symmetry_Int_Tables_number   1
_chemical_formula_structural   Nd8Ta11Si16Mo
_chemical_formula_sum   'Nd8 Ta11 Si16 Mo1'
_cell_volume   677.87900375
_cell_formula_units_Z   1
loop_
 _symmetry_equiv_pos_site_id
 _symmetry_equiv_pos_as_xyz
  1  'x, y, z'
loop_
 _atom_site_type_symbol
 _atom_site_label
 _atom_site_symmetry_multiplicity
 _atom_site_fract_x
 _atom_site_fract_y
 _atom_site_fract_z
 _atom_site_occupancy
  Nd  Nd0  1  0.504710  0.331285  0.095975  1
  Nd  Nd1  1  0.003605  0.169340  0.404134  1
  Nd  Nd2  1  0.495419  0.669387  0.595615  1
  Nd  Nd3  1  0.996048  0.831727  0.903864  1
  Nd  Nd4  1  0.495452  0.668411  0.903301  1
  Nd  Nd5  1  0.996463  0.831463  0.595791  1
  Nd  Nd6  1  0.504215  0.331000  0.405504  1
  Nd  Nd7  1  0.004667  0.169015  0.096075  1
  Ta  Ta8  1  0.838236  0.325221  0.625722  1
  Ta  Ta9  1  0.337951  0.175348  0.872590  1
  Ta  Ta10  1  0.162642  0.674809  0.126624  1
  Ta  Ta11  1  0.661226  0.826024  0.374114  1
  Ta  Ta12  1  0.164400  0.675100  0.374690  1
  Ta  Ta13  1  0.662762  0.825265  0.126458  1
  Ta  Ta14  1  0.837094  0.324713  0.872488  1
  Ta  Ta15  1  0.661930  0.013010  0.749205  1
  Ta  Ta16  1  0.159801  0.486644  0.749423  1
  Ta  Ta17  1  0.339113  0.988582  0.250240  1
  Ta  Ta18  1  0.839401  0.512476  0.250467  1
  Si  Si19  1  0.655738  0.040772  0.544684  1
  Si  Si20  1  0.158544  0.460091  0.956583  1
  Si  Si21  1  0.340892  0.960008  0.043330  1
  Si  Si22  1  0.841458  0.540602  0.456896  1
  Si  Si23  1  0.339687  0.961054  0.458136  1
  Si  Si24  1  0.840734  0.539872  0.042919  1
  Si  Si25  1  0.658689  0.039560  0.956980  1
  Si  Si26  1  0.160335  0.456213  0.544701  1
  Si  Si27  1  0.538349  0.369687  0.747466  1
  Si  Si28  1  0.043207  0.128693  0.748866  1
  Si  Si29  1  0.459630  0.627979  0.250240  1
  Si  Si30  1  0.959439  0.871581  0.250500  1
  Si  Si31  1  0.796714  0.617451  0.749698  1
  Si  Si32  1  0.299201  0.884308  0.749412  1
  Si  Si33  1  0.203110  0.381802  0.250507  1
  Si  Si34  1  0.702162  0.118884  0.250090  1
  Mo  Mo35  1  0.336975  0.172622  0.626709  1
