# generated using pymatgen
data_Ba3Na3(OsN4)2
_symmetry_space_group_name_H-M   'P 1'
_cell_length_a   6.20616500
_cell_length_b   6.65762152
_cell_length_c   7.28041079
_cell_angle_alpha   72.40921850
_cell_angle_beta   90.00000000
_cell_angle_gamma   90.00000000
_symmetry_Int_Tables_number   1
_chemical_formula_structural   Ba3Na3(OsN4)2
_chemical_formula_sum   'Ba3 Na3 Os2 N8'
_cell_volume   286.74790009
_cell_formula_units_Z   1
loop_
 _symmetry_equiv_pos_site_id
 _symmetry_equiv_pos_as_xyz
  1  'x, y, z'
loop_
 _atom_site_type_symbol
 _atom_site_label
 _atom_site_symmetry_multiplicity
 _atom_site_fract_x
 _atom_site_fract_y
 _atom_site_fract_z
 _atom_site_occupancy
  Ba  Ba0  1  0.750000  0.737781  0.940186  1
  Ba  Ba1  1  0.750000  0.775540  0.432313  1
  Ba  Ba2  1  0.250000  0.236480  0.559902  1
  Na  Na3  1  0.250000  0.228524  0.037922  1
  Na  Na4  1  0.750000  0.299103  0.292167  1
  Na  Na5  1  0.250000  0.693283  0.706824  1
  Os  Os6  1  0.250000  0.738214  0.196913  1
  Os  Os7  1  0.750000  0.268714  0.808088  1
  N  N8  1  0.515244  0.439416  0.764821  1
  N  N9  1  0.013282  0.567932  0.252809  1
  N  N10  1  0.486718  0.567932  0.252809  1
  N  N11  1  0.984756  0.439416  0.764821  1
  N  N12  1  0.750000  0.109754  0.640217  1
  N  N13  1  0.250000  0.910392  0.351769  1
  N  N14  1  0.750000  0.102393  0.055692  1
  N  N15  1  0.250000  0.885127  0.942744  1
