# generated using pymatgen
data_Cs3Ag2F11
_symmetry_space_group_name_H-M   'P 1'
_cell_length_a   6.37601562
_cell_length_b   6.37601620
_cell_length_c   9.52522800
_cell_angle_alpha   109.55373712
_cell_angle_beta   109.55373894
_cell_angle_gamma   90.00001552
_symmetry_Int_Tables_number   1
_chemical_formula_structural   Cs3Ag2F11
_chemical_formula_sum   'Cs3 Ag2 F11'
_cell_volume   341.11040284
_cell_formula_units_Z   1
loop_
 _symmetry_equiv_pos_site_id
 _symmetry_equiv_pos_as_xyz
  1  'x, y, z'
loop_
 _atom_site_type_symbol
 _atom_site_label
 _atom_site_symmetry_multiplicity
 _atom_site_fract_x
 _atom_site_fract_y
 _atom_site_fract_z
 _atom_site_occupancy
  Cs  Cs0  1  0.000000  0.000000  0.000000  1
  Cs  Cs1  1  0.749999  0.249926  0.499999  1
  Cs  Cs2  1  0.250001  0.750074  0.500001  1
  Ag  Ag3  1  0.621728  0.621923  0.243454  1
  Ag  Ag4  1  0.378273  0.378078  0.756547  1
  F  F5  1  0.500000  0.500000  0.000000  1
  F  F6  1  0.402227  0.402139  0.240371  1
  F  F7  1  0.838144  0.402139  0.240371  1
  F  F8  1  0.402190  0.838244  0.240390  1
  F  F9  1  0.838201  0.838244  0.240390  1
  F  F10  1  0.252653  0.252622  0.505304  1
  F  F11  1  0.747348  0.747379  0.494695  1
  F  F12  1  0.161799  0.161756  0.759611  1
  F  F13  1  0.597811  0.161756  0.759611  1
  F  F14  1  0.161856  0.597862  0.759630  1
  F  F15  1  0.597774  0.597862  0.759630  1
