# generated using pymatgen
data_Eu9GdPb6F2
_symmetry_space_group_name_H-M   'P 1'
_cell_length_a   9.84270768
_cell_length_b   9.84270887
_cell_length_c   9.84270700
_cell_angle_alpha   128.46425130
_cell_angle_beta   128.46424937
_cell_angle_gamma   75.87415491
_symmetry_Int_Tables_number   1
_chemical_formula_structural   Eu9GdPb6F2
_chemical_formula_sum   'Eu9 Gd1 Pb6 F2'
_cell_volume   568.51224091
_cell_formula_units_Z   1
loop_
 _symmetry_equiv_pos_site_id
 _symmetry_equiv_pos_as_xyz
  1  'x, y, z'
loop_
 _atom_site_type_symbol
 _atom_site_label
 _atom_site_symmetry_multiplicity
 _atom_site_fract_x
 _atom_site_fract_y
 _atom_site_fract_z
 _atom_site_occupancy
  Eu  Eu0  1  0.000000  0.000000  0.000000  1
  Eu  Eu1  1  0.510342  0.011935  0.822703  1
  Eu  Eu2  1  0.189232  0.687638  0.177297  1
  Eu  Eu3  1  0.011935  0.189232  0.501593  1
  Eu  Eu4  1  0.687638  0.510342  0.498407  1
  Eu  Eu5  1  0.489658  0.988065  0.177297  1
  Eu  Eu6  1  0.810768  0.312362  0.822703  1
  Eu  Eu7  1  0.988065  0.810768  0.498407  1
  Eu  Eu8  1  0.312362  0.489658  0.501593  1
  Gd  Gd9  1  0.500000  0.500000  0.000000  1
  Pb  Pb10  1  0.251445  0.251445  0.000000  1
  Pb  Pb11  1  0.748555  0.748555  0.000000  1
  Pb  Pb12  1  0.863280  0.370890  0.234171  1
  Pb  Pb13  1  0.136720  0.629110  0.765830  1
  Pb  Pb14  1  0.370890  0.136720  0.507609  1
  Pb  Pb15  1  0.629110  0.863280  0.492391  1
  F  F16  1  0.250000  0.750000  0.500000  1
  F  F17  1  0.750000  0.250000  0.500000  1
