# generated using pymatgen
data_Ba2Sb4Pt3Rh
_symmetry_space_group_name_H-M   'P 1'
_cell_length_a   4.84800200
_cell_length_b   4.84800200
_cell_length_c   10.50359900
_cell_angle_alpha   90.00000000
_cell_angle_beta   90.00000000
_cell_angle_gamma   90.00000000
_symmetry_Int_Tables_number   1
_chemical_formula_structural   Ba2Sb4Pt3Rh
_chemical_formula_sum   'Ba2 Sb4 Pt3 Rh1'
_cell_volume   246.86738336
_cell_formula_units_Z   1
loop_
 _symmetry_equiv_pos_site_id
 _symmetry_equiv_pos_as_xyz
  1  'x, y, z'
loop_
 _atom_site_type_symbol
 _atom_site_label
 _atom_site_symmetry_multiplicity
 _atom_site_fract_x
 _atom_site_fract_y
 _atom_site_fract_z
 _atom_site_occupancy
  Ba  Ba0  1  0.000000  0.499999  0.248794  1
  Ba  Ba1  1  0.499999  0.000000  0.755512  1
  Sb  Sb2  1  0.499999  0.000000  0.121926  1
  Sb  Sb3  1  0.000000  0.000000  0.503642  1
  Sb  Sb4  1  0.499999  0.499999  0.503642  1
  Sb  Sb5  1  0.000000  0.499999  0.870580  1
  Pt  Pt6  1  0.000000  0.000000  0.999686  1
  Pt  Pt7  1  0.499999  0.499999  0.999686  1
  Pt  Pt8  1  0.499999  0.000000  0.381663  1
  Rh  Rh9  1  0.000000  0.499999  0.614869  1
