# generated using pymatgen
data_Tb3Dy2Zr3(Co4As3)4
_symmetry_space_group_name_H-M   'P 1'
_cell_length_a   12.75634332
_cell_length_b   12.75139128
_cell_length_c   3.84200400
_cell_angle_alpha   90.00000000
_cell_angle_beta   90.00000000
_cell_angle_gamma   119.98717019
_symmetry_Int_Tables_number   1
_chemical_formula_structural   Tb3Dy2Zr3(Co4As3)4
_chemical_formula_sum   'Tb3 Dy2 Zr3 Co16 As12'
_cell_volume   541.28793602
_cell_formula_units_Z   1
loop_
 _symmetry_equiv_pos_site_id
 _symmetry_equiv_pos_as_xyz
  1  'x, y, z'
loop_
 _atom_site_type_symbol
 _atom_site_label
 _atom_site_symmetry_multiplicity
 _atom_site_fract_x
 _atom_site_fract_y
 _atom_site_fract_z
 _atom_site_occupancy
  Tb  Tb0  1  0.000000  0.816924  0.500000  1
  Tb  Tb1  1  0.333437  0.666714  0.000000  1
  Tb  Tb2  1  0.666563  0.333276  0.000000  1
  Dy  Dy3  1  0.183256  0.183148  0.500000  1
  Dy  Dy4  1  0.816744  0.999892  0.500000  1
  Zr  Zr5  1  0.561606  0.561657  0.000000  1
  Zr  Zr6  1  0.438394  0.000051  0.000000  1
  Zr  Zr7  1  0.000000  0.438179  0.000000  1
  Co  Co8  1  0.720018  0.720219  0.500000  1
  Co  Co9  1  0.279982  0.000201  0.500000  1
  Co  Co10  1  0.000000  0.279722  0.500000  1
  Co  Co11  1  0.177937  0.373603  0.000000  1
  Co  Co12  1  0.626342  0.804339  0.000000  1
  Co  Co13  1  0.195906  0.822107  0.000000  1
  Co  Co14  1  0.804094  0.626201  0.000000  1
  Co  Co15  1  0.822063  0.195666  0.000000  1
  Co  Co16  1  0.373658  0.177997  0.000000  1
  Co  Co17  1  0.357465  0.479658  0.500000  1
  Co  Co18  1  0.520325  0.877748  0.500000  1
  Co  Co19  1  0.122277  0.642503  0.500000  1
  Co  Co20  1  0.877723  0.520225  0.500000  1
  Co  Co21  1  0.642535  0.122192  0.500000  1
  Co  Co22  1  0.479675  0.357422  0.500000  1
  Co  Co23  1  0.000000  0.000190  0.000000  1
  As  As24  1  0.822419  0.822760  0.000000  1
  As  As25  1  0.177581  0.000340  0.000000  1
  As  As26  1  0.000000  0.177358  0.000000  1
  As  As27  1  0.173323  0.481119  0.500000  1
  As  As28  1  0.518848  0.692187  0.500000  1
  As  As29  1  0.307801  0.826709  0.500000  1
  As  As30  1  0.692199  0.518908  0.500000  1
  As  As31  1  0.826677  0.307795  0.500000  1
  As  As32  1  0.481152  0.173338  0.500000  1
  As  As33  1  0.352421  0.352430  0.000000  1
  As  As34  1  0.647579  0.000009  0.000000  1
  As  As35  1  0.000000  0.647212  0.000000  1
