# generated using pymatgen
data_Sr5PrCd2(RhO6)2
_symmetry_space_group_name_H-M   'P 1'
_cell_length_a   6.80642069
_cell_length_b   6.80642231
_cell_length_c   6.84013630
_cell_angle_alpha   90.12706884
_cell_angle_beta   90.12707164
_cell_angle_gamma   90.54050213
_symmetry_Int_Tables_number   1
_chemical_formula_structural   Sr5PrCd2(RhO6)2
_chemical_formula_sum   'Sr5 Pr1 Cd2 Rh2 O12'
_cell_volume   316.86987672
_cell_formula_units_Z   1
loop_
 _symmetry_equiv_pos_site_id
 _symmetry_equiv_pos_as_xyz
  1  'x, y, z'
loop_
 _atom_site_type_symbol
 _atom_site_label
 _atom_site_symmetry_multiplicity
 _atom_site_fract_x
 _atom_site_fract_y
 _atom_site_fract_z
 _atom_site_occupancy
  Sr  Sr0  1  0.115777  0.384223  0.750000  1
  Sr  Sr1  1  0.249902  0.885778  0.615955  1
  Sr  Sr2  1  0.614222  0.250098  0.884045  1
  Sr  Sr3  1  0.384802  0.750255  0.112256  1
  Sr  Sr4  1  0.749745  0.115198  0.387744  1
  Pr  Pr5  1  0.886013  0.613987  0.250000  1
  Cd  Cd6  1  0.749327  0.750673  0.750000  1
  Cd  Cd7  1  0.252980  0.247020  0.250000  1
  Rh  Rh8  1  0.998527  0.000328  0.003952  1
  Rh  Rh9  1  0.499672  0.501473  0.496048  1
  O  O10  1  0.447313  0.583533  0.782071  1
  O  O11  1  0.591890  0.783952  0.441619  1
  O  O12  1  0.947909  0.295099  0.089406  1
  O  O13  1  0.561853  0.425422  0.210007  1
  O  O14  1  0.204901  0.552091  0.410594  1
  O  O15  1  0.046540  0.709613  0.928814  1
  O  O16  1  0.790387  0.453460  0.571186  1
  O  O17  1  0.716048  0.908110  0.058381  1
  O  O18  1  0.074578  0.938147  0.289993  1
  O  O19  1  0.916467  0.052687  0.717929  1
  O  O20  1  0.414241  0.213094  0.547915  1
  O  O21  1  0.286906  0.085759  0.952085  1
