# generated using pymatgen
data_Y9ScIn3Tc
_symmetry_space_group_name_H-M   'P 1'
_cell_length_a   9.69234700
_cell_length_b   9.69234662
_cell_length_c   9.70585000
_cell_angle_alpha   90.00000000
_cell_angle_beta   90.00000000
_cell_angle_gamma   120.00000470
_symmetry_Int_Tables_number   1
_chemical_formula_structural   Y9ScIn3Tc
_chemical_formula_sum   'Y18 Sc2 In6 Tc2'
_cell_volume   789.62715951
_cell_formula_units_Z   2
loop_
 _symmetry_equiv_pos_site_id
 _symmetry_equiv_pos_as_xyz
  1  'x, y, z'
loop_
 _atom_site_type_symbol
 _atom_site_label
 _atom_site_symmetry_multiplicity
 _atom_site_fract_x
 _atom_site_fract_y
 _atom_site_fract_z
 _atom_site_occupancy
  Y  Y0  1  0.207659  0.792341  0.439688  1
  Y  Y1  1  0.207659  0.415318  0.439688  1
  Y  Y2  1  0.584682  0.792341  0.439688  1
  Y  Y3  1  0.792341  0.207659  0.560312  1
  Y  Y4  1  0.792341  0.584682  0.560312  1
  Y  Y5  1  0.415318  0.207659  0.560312  1
  Y  Y6  1  0.792341  0.207659  0.939688  1
  Y  Y7  1  0.792341  0.584682  0.939688  1
  Y  Y8  1  0.415318  0.207659  0.939688  1
  Y  Y9  1  0.207659  0.792341  0.060312  1
  Y  Y10  1  0.207659  0.415318  0.060312  1
  Y  Y11  1  0.584682  0.792341  0.060312  1
  Y  Y12  1  0.537425  0.462575  0.250000  1
  Y  Y13  1  0.537425  0.074849  0.250000  1
  Y  Y14  1  0.925151  0.462575  0.250000  1
  Y  Y15  1  0.462575  0.537425  0.750000  1
  Y  Y16  1  0.462575  0.925151  0.750000  1
  Y  Y17  1  0.074849  0.537425  0.750000  1
  Sc  Sc18  1  0.000000  0.000000  0.500000  1
  Sc  Sc19  1  0.000000  0.000000  0.000000  1
  In  In20  1  0.888423  0.111577  0.250000  1
  In  In21  1  0.888423  0.776848  0.250000  1
  In  In22  1  0.223152  0.111577  0.250000  1
  In  In23  1  0.111577  0.888423  0.750000  1
  In  In24  1  0.111577  0.223152  0.750000  1
  In  In25  1  0.776848  0.888423  0.750000  1
  Tc  Tc26  1  0.333333  0.666667  0.250000  1
  Tc  Tc27  1  0.666667  0.333333  0.750000  1
