# generated using pymatgen
data_Er6SnHg9
_symmetry_space_group_name_H-M   'P 1'
_cell_length_a   6.30124983
_cell_length_b   6.30124986
_cell_length_c   10.31387923
_cell_angle_alpha   90.96461250
_cell_angle_beta   90.96461054
_cell_angle_gamma   104.66195778
_symmetry_Int_Tables_number   1
_chemical_formula_structural   Er6SnHg9
_chemical_formula_sum   'Er6 Sn1 Hg9'
_cell_volume   396.03433283
_cell_formula_units_Z   1
loop_
 _symmetry_equiv_pos_site_id
 _symmetry_equiv_pos_as_xyz
  1  'x, y, z'
loop_
 _atom_site_type_symbol
 _atom_site_label
 _atom_site_symmetry_multiplicity
 _atom_site_fract_x
 _atom_site_fract_y
 _atom_site_fract_z
 _atom_site_occupancy
  Er  Er0  1  0.592595  0.592595  0.246611  1
  Er  Er1  1  0.406623  0.406623  0.754454  1
  Er  Er2  1  0.210359  0.797147  0.497524  1
  Er  Er3  1  0.212938  0.785424  0.999864  1
  Er  Er4  1  0.797147  0.210359  0.497524  1
  Er  Er5  1  0.785424  0.212938  0.999864  1
  Sn  Sn6  1  0.693312  0.693312  0.538209  1
  Hg  Hg7  1  0.987765  0.987765  0.239857  1
  Hg  Hg8  1  0.015357  0.015357  0.753339  1
  Hg  Hg9  1  0.296551  0.296551  0.032391  1
  Hg  Hg10  1  0.700855  0.700855  0.969963  1
  Hg  Hg11  1  0.302927  0.302927  0.464402  1
  Hg  Hg12  1  0.490659  0.050251  0.249373  1
  Hg  Hg13  1  0.947900  0.509338  0.753628  1
  Hg  Hg14  1  0.509338  0.947900  0.753628  1
  Hg  Hg15  1  0.050251  0.490659  0.249373  1
