# generated using pymatgen
data_Nd5BiPb2Cl
_symmetry_space_group_name_H-M   'P 1'
_cell_length_a   9.53366100
_cell_length_b   9.59256210
_cell_length_c   6.74805200
_cell_angle_alpha   90.00000000
_cell_angle_beta   90.00000000
_cell_angle_gamma   119.79709135
_symmetry_Int_Tables_number   1
_chemical_formula_structural   Nd5BiPb2Cl
_chemical_formula_sum   'Nd10 Bi2 Pb4 Cl2'
_cell_volume   535.53483695
_cell_formula_units_Z   2
loop_
 _symmetry_equiv_pos_site_id
 _symmetry_equiv_pos_as_xyz
  1  'x, y, z'
loop_
 _atom_site_type_symbol
 _atom_site_label
 _atom_site_symmetry_multiplicity
 _atom_site_fract_x
 _atom_site_fract_y
 _atom_site_fract_z
 _atom_site_occupancy
  Nd  Nd0  1  0.258387  0.000000  0.250000  1
  Nd  Nd1  1  0.741613  0.000000  0.750000  1
  Nd  Nd2  1  0.002114  0.261466  0.250000  1
  Nd  Nd3  1  0.997886  0.738534  0.750000  1
  Nd  Nd4  1  0.740648  0.738534  0.250000  1
  Nd  Nd5  1  0.259352  0.261466  0.750000  1
  Nd  Nd6  1  0.332131  0.664264  0.000000  1
  Nd  Nd7  1  0.667869  0.335736  0.000000  1
  Nd  Nd8  1  0.667869  0.335736  0.500000  1
  Nd  Nd9  1  0.332131  0.664264  0.500000  1
  Bi  Bi10  1  0.611864  0.000000  0.250000  1
  Bi  Bi11  1  0.388136  0.000000  0.750000  1
  Pb  Pb12  1  0.000037  0.611189  0.250000  1
  Pb  Pb13  1  0.999963  0.388811  0.750000  1
  Pb  Pb14  1  0.388849  0.388811  0.250000  1
  Pb  Pb15  1  0.611151  0.611189  0.750000  1
  Cl  Cl16  1  0.000000  0.000000  0.000000  1
  Cl  Cl17  1  0.000000  0.000000  0.500000  1
