# generated using pymatgen
data_KRb2TbBr6
_symmetry_space_group_name_H-M   'P 1'
_cell_length_a   8.23040574
_cell_length_b   8.23040578
_cell_length_c   8.42076085
_cell_angle_alpha   119.22543264
_cell_angle_beta   119.22543108
_cell_angle_gamma   60.41043326
_symmetry_Int_Tables_number   1
_chemical_formula_structural   KRb2TbBr6
_chemical_formula_sum   'K1 Rb2 Tb1 Br6'
_cell_volume   409.28444582
_cell_formula_units_Z   1
loop_
 _symmetry_equiv_pos_site_id
 _symmetry_equiv_pos_as_xyz
  1  'x, y, z'
loop_
 _atom_site_type_symbol
 _atom_site_label
 _atom_site_symmetry_multiplicity
 _atom_site_fract_x
 _atom_site_fract_y
 _atom_site_fract_z
 _atom_site_occupancy
  K  K0  1  0.500000  0.500000  0.500001  1
  Rb  Rb1  1  0.749051  0.749051  0.231843  1
  Rb  Rb2  1  0.250949  0.250949  0.768159  1
  Tb  Tb3  1  0.000000  0.000000  0.000000  1
  Br  Br4  1  0.701147  0.181866  0.168099  1
  Br  Br5  1  0.181866  0.701147  0.168099  1
  Br  Br6  1  0.227448  0.227448  0.329537  1
  Br  Br7  1  0.772552  0.772552  0.670463  1
  Br  Br8  1  0.818134  0.298854  0.831900  1
  Br  Br9  1  0.298854  0.818134  0.831900  1
