# generated using pymatgen
data_LuCu2(PdO2)4
_symmetry_space_group_name_H-M   'P 1'
_cell_length_a   6.76195437
_cell_length_b   6.76195444
_cell_length_c   6.66251000
_cell_angle_alpha   60.48530507
_cell_angle_beta   60.48530475
_cell_angle_gamma   59.02939455
_symmetry_Int_Tables_number   1
_chemical_formula_structural   LuCu2(PdO2)4
_chemical_formula_sum   'Lu1 Cu2 Pd4 O8'
_cell_volume   215.31891487
_cell_formula_units_Z   1
loop_
 _symmetry_equiv_pos_site_id
 _symmetry_equiv_pos_as_xyz
  1  'x, y, z'
loop_
 _atom_site_type_symbol
 _atom_site_label
 _atom_site_symmetry_multiplicity
 _atom_site_fract_x
 _atom_site_fract_y
 _atom_site_fract_z
 _atom_site_occupancy
  Lu  Lu0  1  0.000000  0.000000  0.000000  1
  Cu  Cu1  1  0.500000  0.500000  0.000000  1
  Cu  Cu2  1  0.000000  0.000000  0.500000  1
  Pd  Pd3  1  0.500000  0.000000  0.000000  1
  Pd  Pd4  1  0.500000  0.000000  0.500000  1
  Pd  Pd5  1  0.000000  0.500000  0.000000  1
  Pd  Pd6  1  0.000000  0.500000  0.500000  1
  O  O7  1  0.580753  0.151724  0.133760  1
  O  O8  1  0.133760  0.133760  0.151724  1
  O  O9  1  0.151724  0.580753  0.133760  1
  O  O10  1  0.133760  0.133760  0.580753  1
  O  O11  1  0.848276  0.419247  0.866240  1
  O  O12  1  0.866240  0.866240  0.419247  1
  O  O13  1  0.866240  0.866240  0.848276  1
  O  O14  1  0.419247  0.848276  0.866240  1
