# generated using pymatgen
data_Sr5Si2Sn
_symmetry_space_group_name_H-M   'P 1'
_cell_length_a   8.23049785
_cell_length_b   8.23049761
_cell_length_c   9.98451441
_cell_angle_alpha   114.34079540
_cell_angle_beta   114.34079683
_cell_angle_gamma   89.99999380
_symmetry_Int_Tables_number   1
_chemical_formula_structural   Sr5Si2Sn
_chemical_formula_sum   'Sr10 Si4 Sn2'
_cell_volume   549.58017848
_cell_formula_units_Z   2
loop_
 _symmetry_equiv_pos_site_id
 _symmetry_equiv_pos_as_xyz
  1  'x, y, z'
loop_
 _atom_site_type_symbol
 _atom_site_label
 _atom_site_symmetry_multiplicity
 _atom_site_fract_x
 _atom_site_fract_y
 _atom_site_fract_z
 _atom_site_occupancy
  Sr  Sr0  1  0.000000  0.000000  0.000000  1
  Sr  Sr1  1  0.500000  0.500000  0.000000  1
  Sr  Sr2  1  0.459820  0.313842  0.273662  1
  Sr  Sr3  1  0.959820  0.459820  0.273662  1
  Sr  Sr4  1  0.313842  0.813842  0.273662  1
  Sr  Sr5  1  0.813842  0.959820  0.273662  1
  Sr  Sr6  1  0.186158  0.040180  0.726338  1
  Sr  Sr7  1  0.686158  0.186158  0.726338  1
  Sr  Sr8  1  0.040180  0.540180  0.726338  1
  Sr  Sr9  1  0.540180  0.686158  0.726338  1
  Si  Si10  1  0.607835  0.107835  0.000000  1
  Si  Si11  1  0.107835  0.392167  0.000000  1
  Si  Si12  1  0.892167  0.607835  0.000000  1
  Si  Si13  1  0.392167  0.892167  0.000000  1
  Sn  Sn14  1  0.250000  0.250000  0.500000  1
  Sn  Sn15  1  0.750000  0.750000  0.500000  1
