# generated using pymatgen
data_Th10Bi5Pb2
_symmetry_space_group_name_H-M   'P 1'
_cell_length_a   6.69682135
_cell_length_b   9.65609531
_cell_length_c   9.64126427
_cell_angle_alpha   119.95200769
_cell_angle_beta   89.99490076
_cell_angle_gamma   90.00287383
_symmetry_Int_Tables_number   1
_chemical_formula_structural   Th10Bi5Pb2
_chemical_formula_sum   'Th10 Bi5 Pb2'
_cell_volume   540.18770793
_cell_formula_units_Z   1
loop_
 _symmetry_equiv_pos_site_id
 _symmetry_equiv_pos_as_xyz
  1  'x, y, z'
loop_
 _atom_site_type_symbol
 _atom_site_label
 _atom_site_symmetry_multiplicity
 _atom_site_fract_x
 _atom_site_fract_y
 _atom_site_fract_z
 _atom_site_occupancy
  Th  Th0  1  0.501299  0.333967  0.666717  1
  Th  Th1  1  0.501296  0.666032  0.332745  1
  Th  Th2  1  0.998467  0.666356  0.333104  1
  Th  Th3  1  0.998453  0.333645  0.666746  1
  Th  Th4  1  0.777757  0.270930  0.001240  1
  Th  Th5  1  0.777759  0.729070  0.730310  1
  Th  Th6  1  0.778920  0.999999  0.269800  1
  Th  Th7  1  0.222422  0.730566  0.999803  1
  Th  Th8  1  0.222421  0.269434  0.269234  1
  Th  Th9  1  0.221440  0.999999  0.731036  1
  Bi  Bi10  1  0.740411  0.000018  0.617301  1
  Bi  Bi11  1  0.259668  0.384301  0.000208  1
  Bi  Bi12  1  0.259669  0.615679  0.615925  1
  Bi  Bi13  1  0.260741  0.000017  0.383370  1
  Bi  Bi14  1  0.500354  0.999999  0.999707  1
  Pb  Pb15  1  0.739462  0.618034  0.000386  1
  Pb  Pb16  1  0.739463  0.381956  0.382369  1
