# generated using pymatgen
data_MgCd2Ni(SnO4)2
_symmetry_space_group_name_H-M   'P 1'
_cell_length_a   6.38370080
_cell_length_b   6.36790759
_cell_length_c   6.36790770
_cell_angle_alpha   118.71110831
_cell_angle_beta   120.37621173
_cell_angle_gamma   90.72455167
_symmetry_Int_Tables_number   1
_chemical_formula_structural   MgCd2Ni(SnO4)2
_chemical_formula_sum   'Mg1 Cd2 Ni1 Sn2 O8'
_cell_volume   184.35722843
_cell_formula_units_Z   1
loop_
 _symmetry_equiv_pos_site_id
 _symmetry_equiv_pos_as_xyz
  1  'x, y, z'
loop_
 _atom_site_type_symbol
 _atom_site_label
 _atom_site_symmetry_multiplicity
 _atom_site_fract_x
 _atom_site_fract_y
 _atom_site_fract_z
 _atom_site_occupancy
  Mg  Mg0  1  0.000000  0.500000  0.500000  1
  Cd  Cd1  1  0.141365  0.890109  0.251257  1
  Cd  Cd2  1  0.858635  0.109891  0.748743  1
  Ni  Ni3  1  0.500000  0.500000  0.000000  1
  Sn  Sn4  1  0.500000  0.000000  0.000000  1
  Sn  Sn5  1  0.500000  0.500000  0.500000  1
  O  O6  1  0.728902  0.263280  0.034255  1
  O  O7  1  0.728564  0.259153  0.469412  1
  O  O8  1  0.728902  0.694646  0.465623  1
  O  O9  1  0.288836  0.258981  0.029856  1
  O  O10  1  0.711164  0.741019  0.970144  1
  O  O11  1  0.271436  0.740847  0.530588  1
  O  O12  1  0.271098  0.305354  0.534377  1
  O  O13  1  0.271098  0.736720  0.965745  1
