# generated using pymatgen
data_Y4Th2OsRu
_symmetry_space_group_name_H-M   'P 1'
_cell_length_a   6.39102620
_cell_length_b   7.27380934
_cell_length_c   9.59395400
_cell_angle_alpha   90.00000000
_cell_angle_beta   90.00000000
_cell_angle_gamma   89.96992171
_symmetry_Int_Tables_number   1
_chemical_formula_structural   Y4Th2OsRu
_chemical_formula_sum   'Y8 Th4 Os2 Ru2'
_cell_volume   445.99509561
_cell_formula_units_Z   2
loop_
 _symmetry_equiv_pos_site_id
 _symmetry_equiv_pos_as_xyz
  1  'x, y, z'
loop_
 _atom_site_type_symbol
 _atom_site_label
 _atom_site_symmetry_multiplicity
 _atom_site_fract_x
 _atom_site_fract_y
 _atom_site_fract_z
 _atom_site_occupancy
  Y  Y0  1  0.169942  0.175823  0.067305  1
  Y  Y1  1  0.830058  0.824177  0.932695  1
  Y  Y2  1  0.666079  0.326055  0.935595  1
  Y  Y3  1  0.830058  0.824177  0.567305  1
  Y  Y4  1  0.333921  0.673945  0.064405  1
  Y  Y5  1  0.169942  0.175823  0.432695  1
  Y  Y6  1  0.333921  0.673945  0.435595  1
  Y  Y7  1  0.666079  0.326055  0.564405  1
  Th  Th8  1  0.652389  0.044760  0.250000  1
  Th  Th9  1  0.347611  0.955240  0.750000  1
  Th  Th10  1  0.150058  0.450137  0.750000  1
  Th  Th11  1  0.849942  0.549863  0.250000  1
  Os  Os12  1  0.467661  0.372867  0.250000  1
  Os  Os13  1  0.532339  0.627133  0.750000  1
  Ru  Ru14  1  0.974243  0.131504  0.750000  1
  Ru  Ru15  1  0.025757  0.868496  0.250000  1
