# generated using pymatgen
data_Ho5Ru2C7
_symmetry_space_group_name_H-M   'P 1'
_cell_length_a   8.14319642
_cell_length_b   8.14319650
_cell_length_c   3.49922000
_cell_angle_alpha   90.00000000
_cell_angle_beta   90.00000000
_cell_angle_gamma   121.87272610
_symmetry_Int_Tables_number   1
_chemical_formula_structural   Ho5Ru2C7
_chemical_formula_sum   'Ho5 Ru2 C7'
_cell_volume   197.05292775
_cell_formula_units_Z   1
loop_
 _symmetry_equiv_pos_site_id
 _symmetry_equiv_pos_as_xyz
  1  'x, y, z'
loop_
 _atom_site_type_symbol
 _atom_site_label
 _atom_site_symmetry_multiplicity
 _atom_site_fract_x
 _atom_site_fract_y
 _atom_site_fract_z
 _atom_site_occupancy
  Ho  Ho0  1  0.500000  0.500000  0.000000  1
  Ho  Ho1  1  0.077116  0.338507  0.500000  1
  Ho  Ho2  1  0.922884  0.661493  0.500000  1
  Ho  Ho3  1  0.661493  0.922884  0.500000  1
  Ho  Ho4  1  0.338507  0.077116  0.500000  1
  Ru  Ru5  1  0.712999  0.287001  0.000000  1
  Ru  Ru6  1  0.287001  0.712999  0.000000  1
  C  C7  1  0.629004  0.370996  0.500000  1
  C  C8  1  0.370996  0.629004  0.500000  1
  C  C9  1  0.000000  0.000000  0.000000  1
  C  C10  1  0.171894  0.171894  0.000000  1
  C  C11  1  0.828106  0.828106  0.000000  1
  C  C12  1  0.000000  0.500000  0.000000  1
  C  C13  1  0.500000  0.000000  0.000000  1
