# generated using pymatgen
data_HoTh7H24
_symmetry_space_group_name_H-M   'P 1'
_cell_length_a   6.85079600
_cell_length_b   6.85079600
_cell_length_c   6.85079600
_cell_angle_alpha   90.00000000
_cell_angle_beta   90.00000000
_cell_angle_gamma   90.00000000
_symmetry_Int_Tables_number   1
_chemical_formula_structural   HoTh7H24
_chemical_formula_sum   'Ho1 Th7 H24'
_cell_volume   321.53118895
_cell_formula_units_Z   1
loop_
 _symmetry_equiv_pos_site_id
 _symmetry_equiv_pos_as_xyz
  1  'x, y, z'
loop_
 _atom_site_type_symbol
 _atom_site_label
 _atom_site_symmetry_multiplicity
 _atom_site_fract_x
 _atom_site_fract_y
 _atom_site_fract_z
 _atom_site_occupancy
  Ho  Ho0  1  0.000000  0.000000  0.000000  1
  Th  Th1  1  0.500000  0.500000  0.500000  1
  Th  Th2  1  0.246714  0.000000  0.500000  1
  Th  Th3  1  0.753286  0.000000  0.500000  1
  Th  Th4  1  0.000000  0.500000  0.246714  1
  Th  Th5  1  0.000000  0.500000  0.753286  1
  Th  Th6  1  0.500000  0.753286  0.000000  1
  Th  Th7  1  0.500000  0.246714  0.000000  1
  H  H8  1  0.000000  0.152622  0.300646  1
  H  H9  1  0.500000  0.194834  0.655483  1
  H  H10  1  0.500000  0.805166  0.344517  1
  H  H11  1  0.805166  0.655483  0.500000  1
  H  H12  1  0.194834  0.655483  0.500000  1
  H  H13  1  0.344517  0.500000  0.805166  1
  H  H14  1  0.655483  0.500000  0.805166  1
  H  H15  1  0.300646  0.000000  0.152622  1
  H  H16  1  0.152622  0.300646  0.000000  1
  H  H17  1  0.847378  0.699354  0.000000  1
  H  H18  1  0.300646  0.000000  0.847378  1
  H  H19  1  0.847378  0.300646  0.000000  1
  H  H20  1  0.699354  0.000000  0.152622  1
  H  H21  1  0.699354  0.000000  0.847378  1
  H  H22  1  0.152622  0.699354  0.000000  1
  H  H23  1  0.000000  0.847378  0.699354  1
  H  H24  1  0.000000  0.152622  0.699354  1
  H  H25  1  0.000000  0.847378  0.300646  1
  H  H26  1  0.655483  0.500000  0.194834  1
  H  H27  1  0.344517  0.500000  0.194834  1
  H  H28  1  0.805166  0.344517  0.500000  1
  H  H29  1  0.194834  0.344517  0.500000  1
  H  H30  1  0.500000  0.805166  0.655483  1
  H  H31  1  0.500000  0.194834  0.344517  1
