# generated using pymatgen
data_TmUCu2As3P
_symmetry_space_group_name_H-M   'P 1'
_cell_length_a   3.86768100
_cell_length_b   3.86768100
_cell_length_c   9.57241200
_cell_angle_alpha   90.00000000
_cell_angle_beta   90.00000000
_cell_angle_gamma   90.00000000
_symmetry_Int_Tables_number   1
_chemical_formula_structural   TmUCu2As3P
_chemical_formula_sum   'Tm1 U1 Cu2 As3 P1'
_cell_volume   143.19329296
_cell_formula_units_Z   1
loop_
 _symmetry_equiv_pos_site_id
 _symmetry_equiv_pos_as_xyz
  1  'x, y, z'
loop_
 _atom_site_type_symbol
 _atom_site_label
 _atom_site_symmetry_multiplicity
 _atom_site_fract_x
 _atom_site_fract_y
 _atom_site_fract_z
 _atom_site_occupancy
  Tm  Tm0  1  0.500000  0.000000  0.231603  1
  U  U1  1  0.000000  0.500000  0.759192  1
  Cu  Cu2  1  0.500000  0.500000  0.505485  1
  Cu  Cu3  1  0.000000  0.000000  0.505485  1
  As  As4  1  0.000000  0.500000  0.340466  1
  As  As5  1  0.000000  0.000000  0.995406  1
  As  As6  1  0.500000  0.500000  0.995406  1
  P  P7  1  0.500000  0.000000  0.666953  1
