# generated using pymatgen
data_Y5Pa3(ReB6)4
_symmetry_space_group_name_H-M   'P 1'
_cell_length_a   3.71169600
_cell_length_b   9.21167940
_cell_length_c   11.55264794
_cell_angle_alpha   89.83578422
_cell_angle_beta   90.00000000
_cell_angle_gamma   90.00000000
_symmetry_Int_Tables_number   1
_chemical_formula_structural   Y5Pa3(ReB6)4
_chemical_formula_sum   'Y5 Pa3 Re4 B24'
_cell_volume   394.99442699
_cell_formula_units_Z   1
loop_
 _symmetry_equiv_pos_site_id
 _symmetry_equiv_pos_as_xyz
  1  'x, y, z'
loop_
 _atom_site_type_symbol
 _atom_site_label
 _atom_site_symmetry_multiplicity
 _atom_site_fract_x
 _atom_site_fract_y
 _atom_site_fract_z
 _atom_site_occupancy
  Y  Y0  1  0.000000  0.677904  0.587351  1
  Y  Y1  1  0.000000  0.445838  0.124560  1
  Y  Y2  1  0.000000  0.555095  0.873380  1
  Y  Y3  1  0.000000  0.943889  0.375584  1
  Y  Y4  1  0.000000  0.053293  0.625390  1
  Pa  Pa5  1  0.000000  0.822730  0.087173  1
  Pa  Pa6  1  0.000000  0.176743  0.912313  1
  Pa  Pa7  1  0.000000  0.324486  0.413485  1
  Re  Re8  1  0.000000  0.138470  0.177576  1
  Re  Re9  1  0.000000  0.864254  0.825611  1
  Re  Re10  1  0.000000  0.637927  0.319301  1
  Re  Re11  1  0.000000  0.359180  0.678318  1
  B  B12  1  0.500000  0.053218  0.067690  1
  B  B13  1  0.500000  0.947649  0.933629  1
  B  B14  1  0.500000  0.552467  0.431609  1
  B  B15  1  0.500000  0.445679  0.566948  1
  B  B16  1  0.500000  0.247296  0.079265  1
  B  B17  1  0.500000  0.753349  0.920339  1
  B  B18  1  0.500000  0.746759  0.420589  1
  B  B19  1  0.500000  0.252995  0.579201  1
  B  B20  1  0.500000  0.292780  0.233597  1
  B  B21  1  0.500000  0.708163  0.767069  1
  B  B22  1  0.500000  0.792666  0.267150  1
  B  B23  1  0.500000  0.206836  0.733376  1
  B  B24  1  0.500000  0.133946  0.314491  1
  B  B25  1  0.500000  0.866698  0.686496  1
  B  B26  1  0.500000  0.634220  0.185547  1
  B  B27  1  0.500000  0.365934  0.813214  1
  B  B28  1  0.500000  0.483194  0.286620  1
  B  B29  1  0.500000  0.516699  0.713266  1
  B  B30  1  0.500000  0.983479  0.214068  1
  B  B31  1  0.500000  0.016349  0.786418  1
  B  B32  1  0.500000  0.114127  0.468181  1
  B  B33  1  0.500000  0.885655  0.532023  1
  B  B34  1  0.500000  0.616472  0.031785  1
  B  B35  1  0.500000  0.383560  0.967385  1
