# generated using pymatgen
data_Nb12Ga9Fe3CN3
_symmetry_space_group_name_H-M   'P 1'
_cell_length_a   8.23818302
_cell_length_b   8.23283512
_cell_length_c   8.23283500
_cell_angle_alpha   59.99999647
_cell_angle_beta   60.02146820
_cell_angle_gamma   60.02147210
_symmetry_Int_Tables_number   1
_chemical_formula_structural   Nb12Ga9Fe3CN3
_chemical_formula_sum   'Nb12 Ga9 Fe3 C1 N3'
_cell_volume   394.96273142
_cell_formula_units_Z   1
loop_
 _symmetry_equiv_pos_site_id
 _symmetry_equiv_pos_as_xyz
  1  'x, y, z'
loop_
 _atom_site_type_symbol
 _atom_site_label
 _atom_site_symmetry_multiplicity
 _atom_site_fract_x
 _atom_site_fract_y
 _atom_site_fract_z
 _atom_site_occupancy
  Nb  Nb0  1  0.810780  0.807046  0.191088  1
  Nb  Nb1  1  0.191251  0.196889  0.805930  1
  Nb  Nb2  1  0.810780  0.191088  0.807046  1
  Nb  Nb3  1  0.191251  0.805930  0.196889  1
  Nb  Nb4  1  0.191251  0.805930  0.805930  1
  Nb  Nb5  1  0.810780  0.191088  0.191088  1
  Nb  Nb6  1  0.439220  0.442954  0.058912  1
  Nb  Nb7  1  0.058749  0.053111  0.444070  1
  Nb  Nb8  1  0.439220  0.058912  0.442954  1
  Nb  Nb9  1  0.058749  0.444070  0.053111  1
  Nb  Nb10  1  0.058749  0.444070  0.444070  1
  Nb  Nb11  1  0.439220  0.058912  0.058912  1
  Ga  Ga12  1  0.125000  0.625000  0.625000  1
  Ga  Ga13  1  0.756137  0.414621  0.414621  1
  Ga  Ga14  1  0.429970  0.755403  0.407314  1
  Ga  Ga15  1  0.429970  0.407314  0.755403  1
  Ga  Ga16  1  0.429970  0.407314  0.407314  1
  Ga  Ga17  1  0.493863  0.835379  0.835379  1
  Ga  Ga18  1  0.820030  0.494597  0.842686  1
  Ga  Ga19  1  0.820030  0.842686  0.494597  1
  Ga  Ga20  1  0.820030  0.842686  0.842686  1
  Fe  Fe21  1  0.625000  0.125000  0.625000  1
  Fe  Fe22  1  0.625000  0.625000  0.125000  1
  Fe  Fe23  1  0.625000  0.625000  0.625000  1
  C  C24  1  0.625000  0.125000  0.125000  1
  N  N25  1  0.125000  0.625000  0.125000  1
  N  N26  1  0.125000  0.125000  0.625000  1
  N  N27  1  0.125000  0.125000  0.125000  1
