# generated using pymatgen
data_RbDy3CI6
_symmetry_space_group_name_H-M   'P 1'
_cell_length_a   9.38532687
_cell_length_b   9.45842396
_cell_length_c   9.92443900
_cell_angle_alpha   71.59951745
_cell_angle_beta   84.48837600
_cell_angle_gamma   89.33589477
_symmetry_Int_Tables_number   1
_chemical_formula_structural   RbDy3CI6
_chemical_formula_sum   'Rb2 Dy6 C2 I12'
_cell_volume   831.92560447
_cell_formula_units_Z   2
loop_
 _symmetry_equiv_pos_site_id
 _symmetry_equiv_pos_as_xyz
  1  'x, y, z'
loop_
 _atom_site_type_symbol
 _atom_site_label
 _atom_site_symmetry_multiplicity
 _atom_site_fract_x
 _atom_site_fract_y
 _atom_site_fract_z
 _atom_site_occupancy
  Rb  Rb0  1  0.463958  0.365822  0.327451  1
  Rb  Rb1  1  0.536043  0.634178  0.672549  1
  Dy  Dy2  1  0.919843  0.758793  0.003049  1
  Dy  Dy3  1  0.080157  0.241207  0.996950  1
  Dy  Dy4  1  0.755697  0.081733  0.001083  1
  Dy  Dy5  1  0.244302  0.918267  0.998918  1
  Dy  Dy6  1  0.972236  0.896585  0.310768  1
  Dy  Dy7  1  0.027763  0.103415  0.689233  1
  C  C8  1  0.006861  0.024752  0.924235  1
  C  C9  1  0.993138  0.975248  0.075765  1
  I  I10  1  0.075507  0.201232  0.328839  1
  I  I11  1  0.924493  0.798768  0.671161  1
  I  I12  1  0.203262  0.595077  0.999376  1
  I  I13  1  0.796739  0.404923  0.000624  1
  I  I14  1  0.403097  0.199673  0.002506  1
  I  I15  1  0.596902  0.800328  0.997493  1
  I  I16  1  0.661949  0.003051  0.327964  1
  I  I17  1  0.338051  0.996949  0.672036  1
  I  I18  1  0.279062  0.778835  0.324327  1
  I  I19  1  0.720938  0.221165  0.675673  1
  I  I20  1  0.852676  0.591620  0.327398  1
  I  I21  1  0.147323  0.408380  0.672602  1
