# generated using pymatgen
data_Pr3GaSiRh2
_symmetry_space_group_name_H-M   'P 1'
_cell_length_a   5.79547300
_cell_length_b   8.24041900
_cell_length_c   13.31412000
_cell_angle_alpha   90.00000000
_cell_angle_beta   90.00000000
_cell_angle_gamma   90.00000000
_symmetry_Int_Tables_number   1
_chemical_formula_structural   Pr3GaSiRh2
_chemical_formula_sum   'Pr12 Ga4 Si4 Rh8'
_cell_volume   635.84410407
_cell_formula_units_Z   4
loop_
 _symmetry_equiv_pos_site_id
 _symmetry_equiv_pos_as_xyz
  1  'x, y, z'
loop_
 _atom_site_type_symbol
 _atom_site_label
 _atom_site_symmetry_multiplicity
 _atom_site_fract_x
 _atom_site_fract_y
 _atom_site_fract_z
 _atom_site_occupancy
  Pr  Pr0  1  0.646353  0.248187  0.250000  1
  Pr  Pr1  1  0.353647  0.751813  0.750000  1
  Pr  Pr2  1  0.353647  0.748187  0.250000  1
  Pr  Pr3  1  0.646353  0.251813  0.750000  1
  Pr  Pr4  1  0.149185  0.394536  0.101120  1
  Pr  Pr5  1  0.850815  0.605464  0.898880  1
  Pr  Pr6  1  0.850815  0.605464  0.601120  1
  Pr  Pr7  1  0.850815  0.894536  0.398880  1
  Pr  Pr8  1  0.149185  0.394536  0.398880  1
  Pr  Pr9  1  0.149185  0.105464  0.601120  1
  Pr  Pr10  1  0.149185  0.105464  0.898880  1
  Pr  Pr11  1  0.850815  0.894536  0.101120  1
  Ga  Ga12  1  0.634103  0.250000  0.000000  1
  Ga  Ga13  1  0.365897  0.750000  0.000000  1
  Ga  Ga14  1  0.365897  0.750000  0.500000  1
  Ga  Ga15  1  0.634103  0.250000  0.500000  1
  Si  Si16  1  0.149903  0.104557  0.250000  1
  Si  Si17  1  0.850097  0.895443  0.750000  1
  Si  Si18  1  0.850097  0.604557  0.250000  1
  Si  Si19  1  0.149903  0.395443  0.750000  1
  Rh  Rh20  1  0.368169  0.031854  0.096153  1
  Rh  Rh21  1  0.631831  0.968146  0.903847  1
  Rh  Rh22  1  0.631831  0.968146  0.596153  1
  Rh  Rh23  1  0.631831  0.531854  0.403847  1
  Rh  Rh24  1  0.368169  0.031854  0.403847  1
  Rh  Rh25  1  0.368169  0.468146  0.596153  1
  Rh  Rh26  1  0.368169  0.468146  0.903847  1
  Rh  Rh27  1  0.631831  0.531854  0.096153  1
