# generated using pymatgen
data_TbHo15MgIn3Rh4
_symmetry_space_group_name_H-M   'P 1'
_cell_length_a   9.62216798
_cell_length_b   9.62216775
_cell_length_c   9.62151157
_cell_angle_alpha   60.03520371
_cell_angle_beta   60.03520531
_cell_angle_gamma   60.01758515
_symmetry_Int_Tables_number   1
_chemical_formula_structural   TbHo15MgIn3Rh4
_chemical_formula_sum   'Tb1 Ho15 Mg1 In3 Rh4'
_cell_volume   630.32248990
_cell_formula_units_Z   1
loop_
 _symmetry_equiv_pos_site_id
 _symmetry_equiv_pos_as_xyz
  1  'x, y, z'
loop_
 _atom_site_type_symbol
 _atom_site_label
 _atom_site_symmetry_multiplicity
 _atom_site_fract_x
 _atom_site_fract_y
 _atom_site_fract_z
 _atom_site_occupancy
  Tb  Tb0  1  0.187970  0.187970  0.811975  1
  Ho  Ho1  1  0.599879  0.599879  0.202029  1
  Ho  Ho2  1  0.439940  0.059861  0.439565  1
  Ho  Ho3  1  0.439792  0.439792  0.059848  1
  Ho  Ho4  1  0.813677  0.186256  0.814068  1
  Ho  Ho5  1  0.188041  0.811506  0.188430  1
  Ho  Ho6  1  0.437028  0.062608  0.062817  1
  Ho  Ho7  1  0.186256  0.813677  0.814068  1
  Ho  Ho8  1  0.062608  0.437028  0.062817  1
  Ho  Ho9  1  0.814039  0.814039  0.186294  1
  Ho  Ho10  1  0.201966  0.600104  0.599631  1
  Ho  Ho11  1  0.059861  0.439940  0.439565  1
  Ho  Ho12  1  0.062654  0.062654  0.436909  1
  Ho  Ho13  1  0.811506  0.188041  0.188430  1
  Ho  Ho14  1  0.600104  0.201966  0.599631  1
  Ho  Ho15  1  0.598990  0.598990  0.598873  1
  Mg  Mg16  1  0.827828  0.827828  0.827822  1
  In  In17  1  0.832633  0.832633  0.501832  1
  In  In18  1  0.502355  0.832170  0.832572  1
  In  In19  1  0.832170  0.502355  0.832572  1
  Rh  Rh20  1  0.392128  0.823239  0.392084  1
  Rh  Rh21  1  0.393124  0.393124  0.392717  1
  Rh  Rh22  1  0.823239  0.392128  0.392084  1
  Rh  Rh23  1  0.392213  0.392213  0.823369  1
