# generated using pymatgen
data_KHg3Sb2Br3
_symmetry_space_group_name_H-M   'P 1'
_cell_length_a   6.68926900
_cell_length_b   13.30890800
_cell_length_c   13.29285500
_cell_angle_alpha   90.00000000
_cell_angle_beta   90.00000000
_cell_angle_gamma   90.00000000
_symmetry_Int_Tables_number   1
_chemical_formula_structural   KHg3Sb2Br3
_chemical_formula_sum   'K4 Hg12 Sb8 Br12'
_cell_volume   1183.42121696
_cell_formula_units_Z   4
loop_
 _symmetry_equiv_pos_site_id
 _symmetry_equiv_pos_as_xyz
  1  'x, y, z'
loop_
 _atom_site_type_symbol
 _atom_site_label
 _atom_site_symmetry_multiplicity
 _atom_site_fract_x
 _atom_site_fract_y
 _atom_site_fract_z
 _atom_site_occupancy
  K  K0  1  0.002602  0.259398  0.250000  1
  K  K1  1  0.997398  0.759398  0.250000  1
  K  K2  1  0.002602  0.240602  0.750000  1
  K  K3  1  0.997398  0.740602  0.750000  1
  Hg  Hg4  1  0.000000  0.000000  0.000000  1
  Hg  Hg5  1  0.472647  0.250000  0.000000  1
  Hg  Hg6  1  0.000000  0.500000  0.000000  1
  Hg  Hg7  1  0.527353  0.750000  0.000000  1
  Hg  Hg8  1  0.475573  0.007394  0.250000  1
  Hg  Hg9  1  0.524427  0.507395  0.250000  1
  Hg  Hg10  1  0.000000  0.000000  0.500000  1
  Hg  Hg11  1  0.472647  0.250000  0.500000  1
  Hg  Hg12  1  0.000000  0.500000  0.500000  1
  Hg  Hg13  1  0.527353  0.750000  0.500000  1
  Hg  Hg14  1  0.475573  0.492605  0.750000  1
  Hg  Hg15  1  0.524427  0.992605  0.750000  1
  Sb  Sb16  1  0.371495  0.060428  0.058837  1
  Sb  Sb17  1  0.628505  0.560428  0.058837  1
  Sb  Sb18  1  0.371495  0.060428  0.441163  1
  Sb  Sb19  1  0.628505  0.560428  0.441163  1
  Sb  Sb20  1  0.371495  0.439573  0.558837  1
  Sb  Sb21  1  0.628505  0.939572  0.558837  1
  Sb  Sb22  1  0.371495  0.439573  0.941162  1
  Sb  Sb23  1  0.628505  0.939572  0.941162  1
  Br  Br24  1  0.902987  0.250000  0.000000  1
  Br  Br25  1  0.097013  0.750000  0.000000  1
  Br  Br26  1  0.904515  0.011110  0.250000  1
  Br  Br27  1  0.512356  0.294009  0.250000  1
  Br  Br28  1  0.095484  0.511110  0.250000  1
  Br  Br29  1  0.487644  0.794010  0.250000  1
  Br  Br30  1  0.902987  0.250000  0.500000  1
  Br  Br31  1  0.097013  0.750000  0.500000  1
  Br  Br32  1  0.512356  0.205990  0.750000  1
  Br  Br33  1  0.904515  0.488891  0.750000  1
  Br  Br34  1  0.487644  0.705990  0.750000  1
  Br  Br35  1  0.095484  0.988890  0.750000  1
