# generated using pymatgen
data_Er4Tm4B24MoRu3
_symmetry_space_group_name_H-M   'P 1'
_cell_length_a   3.62687700
_cell_length_b   9.10834908
_cell_length_c   11.49178265
_cell_angle_alpha   89.86772245
_cell_angle_beta   90.00000000
_cell_angle_gamma   90.00000000
_symmetry_Int_Tables_number   1
_chemical_formula_structural   Er4Tm4B24MoRu3
_chemical_formula_sum   'Er4 Tm4 B24 Mo1 Ru3'
_cell_volume   379.62843954
_cell_formula_units_Z   1
loop_
 _symmetry_equiv_pos_site_id
 _symmetry_equiv_pos_as_xyz
  1  'x, y, z'
loop_
 _atom_site_type_symbol
 _atom_site_label
 _atom_site_symmetry_multiplicity
 _atom_site_fract_x
 _atom_site_fract_y
 _atom_site_fract_z
 _atom_site_occupancy
  Er  Er0  1  0.000000  0.322080  0.413492  1
  Er  Er1  1  0.000000  0.677410  0.584608  1
  Er  Er2  1  0.000000  0.820567  0.087254  1
  Er  Er3  1  0.000000  0.177447  0.914784  1
  Tm  Tm4  1  0.000000  0.945350  0.372466  1
  Tm  Tm5  1  0.000000  0.057833  0.628998  1
  Tm  Tm6  1  0.000000  0.442910  0.126907  1
  Tm  Tm7  1  0.000000  0.556940  0.870622  1
  B  B8  1  0.500000  0.551114  0.435801  1
  B  B9  1  0.500000  0.446047  0.567931  1
  B  B10  1  0.500000  0.053597  0.066864  1
  B  B11  1  0.500000  0.946189  0.933278  1
  B  B12  1  0.500000  0.751398  0.421709  1
  B  B13  1  0.500000  0.251566  0.581048  1
  B  B14  1  0.500000  0.248656  0.080281  1
  B  B15  1  0.500000  0.750986  0.919024  1
  B  B16  1  0.500000  0.794967  0.264295  1
  B  B17  1  0.500000  0.208363  0.734808  1
  B  B18  1  0.500000  0.290959  0.233384  1
  B  B19  1  0.500000  0.708954  0.765357  1
  B  B20  1  0.500000  0.631341  0.182646  1
  B  B21  1  0.500000  0.368342  0.815363  1
  B  B22  1  0.500000  0.131220  0.314434  1
  B  B23  1  0.500000  0.869586  0.685203  1
  B  B24  1  0.500000  0.983067  0.212657  1
  B  B25  1  0.500000  0.017562  0.788033  1
  B  B26  1  0.500000  0.477910  0.286603  1
  B  B27  1  0.500000  0.516818  0.712917  1
  B  B28  1  0.500000  0.604598  0.027329  1
  B  B29  1  0.500000  0.394663  0.970121  1
  B  B30  1  0.500000  0.105893  0.471511  1
  B  B31  1  0.500000  0.897122  0.530053  1
  Mo  Mo32  1  0.000000  0.637739  0.320958  1
  Ru  Ru33  1  0.000000  0.360832  0.680602  1
  Ru  Ru34  1  0.000000  0.137913  0.178100  1
  Ru  Ru35  1  0.000000  0.862063  0.820560  1
