# generated using pymatgen
data_Y2LuAl9Si3Os4
_symmetry_space_group_name_H-M   'P 1'
_cell_length_a   8.69497700
_cell_length_b   8.67389068
_cell_length_c   9.53236600
_cell_angle_alpha   90.00000000
_cell_angle_beta   90.00000000
_cell_angle_gamma   120.08044600
_symmetry_Int_Tables_number   1
_chemical_formula_structural   Y2LuAl9Si3Os4
_chemical_formula_sum   'Y4 Lu2 Al18 Si6 Os8'
_cell_volume   622.10128804
_cell_formula_units_Z   2
loop_
 _symmetry_equiv_pos_site_id
 _symmetry_equiv_pos_as_xyz
  1  'x, y, z'
loop_
 _atom_site_type_symbol
 _atom_site_label
 _atom_site_symmetry_multiplicity
 _atom_site_fract_x
 _atom_site_fract_y
 _atom_site_fract_z
 _atom_site_occupancy
  Y  Y0  1  0.610618  0.807636  0.250000  1
  Y  Y1  1  0.389382  0.192364  0.750000  1
  Y  Y2  1  0.197018  0.807636  0.250000  1
  Y  Y3  1  0.802982  0.192364  0.750000  1
  Lu  Lu4  1  0.195007  0.390015  0.250000  1
  Lu  Lu5  1  0.804993  0.609985  0.750000  1
  Al  Al6  1  0.165095  0.330188  0.577811  1
  Al  Al7  1  0.834905  0.669812  0.422189  1
  Al  Al8  1  0.670643  0.834271  0.577150  1
  Al  Al9  1  0.834905  0.669812  0.077811  1
  Al  Al10  1  0.329357  0.165729  0.422850  1
  Al  Al11  1  0.165095  0.330188  0.922189  1
  Al  Al12  1  0.163628  0.834271  0.577150  1
  Al  Al13  1  0.329357  0.165729  0.077150  1
  Al  Al14  1  0.836372  0.165729  0.422850  1
  Al  Al15  1  0.670643  0.834271  0.922850  1
  Al  Al16  1  0.836372  0.165729  0.077150  1
  Al  Al17  1  0.163628  0.834271  0.922850  1
  Al  Al18  1  0.873136  0.432901  0.250000  1
  Al  Al19  1  0.126864  0.567099  0.750000  1
  Al  Al20  1  0.559766  0.432901  0.250000  1
  Al  Al21  1  0.440234  0.567099  0.750000  1
  Al  Al22  1  0.000922  0.001844  0.250000  1
  Al  Al23  1  0.999078  0.998156  0.750000  1
  Si  Si24  1  0.331607  0.663216  0.039403  1
  Si  Si25  1  0.668393  0.336784  0.960597  1
  Si  Si26  1  0.668393  0.336784  0.539403  1
  Si  Si27  1  0.331607  0.663216  0.460597  1
  Si  Si28  1  0.563772  0.127544  0.250000  1
  Si  Si29  1  0.436228  0.872456  0.750000  1
  Os  Os30  1  0.500000  0.000000  0.000000  1
  Os  Os31  1  0.000000  0.500000  0.000000  1
  Os  Os32  1  0.500000  0.000000  0.500000  1
  Os  Os33  1  0.500000  0.500000  0.000000  1
  Os  Os34  1  0.000000  0.500000  0.500000  1
  Os  Os35  1  0.500000  0.500000  0.500000  1
  Os  Os36  1  0.000000  0.000000  0.000000  1
  Os  Os37  1  0.000000  0.000000  0.500000  1
