# generated using pymatgen
data_Tb2AlNiRu
_symmetry_space_group_name_H-M   'P 1'
_cell_length_a   5.48600699
_cell_length_b   5.48600728
_cell_length_c   5.48600722
_cell_angle_alpha   135.77288316
_cell_angle_beta   118.37278213
_cell_angle_gamma   78.94292275
_symmetry_Int_Tables_number   1
_chemical_formula_structural   Tb2AlNiRu
_chemical_formula_sum   'Tb2 Al1 Ni1 Ru1'
_cell_volume   98.30882602
_cell_formula_units_Z   1
loop_
 _symmetry_equiv_pos_site_id
 _symmetry_equiv_pos_as_xyz
  1  'x, y, z'
loop_
 _atom_site_type_symbol
 _atom_site_label
 _atom_site_symmetry_multiplicity
 _atom_site_fract_x
 _atom_site_fract_y
 _atom_site_fract_z
 _atom_site_occupancy
  Tb  Tb0  1  0.695620  0.202643  0.492976  1
  Tb  Tb1  1  0.290333  0.797357  0.492976  1
  Al  Al2  1  0.998621  0.000000  0.998621  1
  Ni  Ni3  1  0.740799  0.500000  0.240799  1
  Ru  Ru4  1  0.274628  0.500000  0.774628  1
