# generated using pymatgen
data_PrErAlZn2Ga
_symmetry_space_group_name_H-M   'P 1'
_cell_length_a   4.48611700
_cell_length_b   4.48611564
_cell_length_c   7.32792200
_cell_angle_alpha   90.00000000
_cell_angle_beta   90.00000000
_cell_angle_gamma   120.00000268
_symmetry_Int_Tables_number   1
_chemical_formula_structural   PrErAlZn2Ga
_chemical_formula_sum   'Pr1 Er1 Al1 Zn2 Ga1'
_cell_volume   127.71812021
_cell_formula_units_Z   1
loop_
 _symmetry_equiv_pos_site_id
 _symmetry_equiv_pos_as_xyz
  1  'x, y, z'
loop_
 _atom_site_type_symbol
 _atom_site_label
 _atom_site_symmetry_multiplicity
 _atom_site_fract_x
 _atom_site_fract_y
 _atom_site_fract_z
 _atom_site_occupancy
  Pr  Pr0  1  0.000000  0.000000  0.498714  1
  Er  Er1  1  0.000000  0.000000  0.004080  1
  Al  Al2  1  0.666667  0.333333  0.788125  1
  Zn  Zn3  1  0.666667  0.333333  0.195627  1
  Zn  Zn4  1  0.333333  0.666667  0.735341  1
  Ga  Ga5  1  0.333333  0.666667  0.265714  1
