# generated using pymatgen
data_Sc20(BiSb3)3
_symmetry_space_group_name_H-M   'P 1'
_cell_length_a   7.65306052
_cell_length_b   8.84616657
_cell_length_c   11.23082681
_cell_angle_alpha   90.03124579
_cell_angle_beta   90.08910162
_cell_angle_gamma   89.97315528
_symmetry_Int_Tables_number   1
_chemical_formula_structural   Sc20(BiSb3)3
_chemical_formula_sum   'Sc20 Bi3 Sb9'
_cell_volume   760.32864669
_cell_formula_units_Z   1
loop_
 _symmetry_equiv_pos_site_id
 _symmetry_equiv_pos_as_xyz
  1  'x, y, z'
loop_
 _atom_site_type_symbol
 _atom_site_label
 _atom_site_symmetry_multiplicity
 _atom_site_fract_x
 _atom_site_fract_y
 _atom_site_fract_z
 _atom_site_occupancy
  Sc  Sc0  1  0.026769  0.254740  0.511177  1
  Sc  Sc1  1  0.972894  0.745128  0.488643  1
  Sc  Sc2  1  0.473667  0.747430  0.012651  1
  Sc  Sc3  1  0.527755  0.252534  0.990653  1
  Sc  Sc4  1  0.356119  0.252454  0.283234  1
  Sc  Sc5  1  0.646910  0.744346  0.715757  1
  Sc  Sc6  1  0.146949  0.744404  0.784447  1
  Sc  Sc7  1  0.850124  0.253011  0.215176  1
  Sc  Sc8  1  0.185479  0.256291  0.779890  1
  Sc  Sc9  1  0.811361  0.747464  0.219571  1
  Sc  Sc10  1  0.316516  0.746391  0.278898  1
  Sc  Sc11  1  0.685455  0.256120  0.720331  1
  Sc  Sc12  1  0.196143  0.063719  0.060424  1
  Sc  Sc13  1  0.804775  0.936197  0.942383  1
  Sc  Sc14  1  0.306330  0.935675  0.559488  1
  Sc  Sc15  1  0.804190  0.562227  0.939243  1
  Sc  Sc16  1  0.692250  0.063998  0.438012  1
  Sc  Sc17  1  0.195905  0.437782  0.061072  1
  Sc  Sc18  1  0.695499  0.437667  0.439016  1
  Sc  Sc19  1  0.304747  0.562150  0.560838  1
  Bi  Bi20  1  0.067078  0.003748  0.325760  1
  Bi  Bi21  1  0.932858  0.996237  0.674473  1
  Bi  Bi22  1  0.433045  0.996244  0.825362  1
  Sb  Sb23  1  0.411671  0.249984  0.539011  1
  Sb  Sb24  1  0.588291  0.749932  0.460857  1
  Sb  Sb25  1  0.087987  0.750015  0.039447  1
  Sb  Sb26  1  0.912504  0.249967  0.960864  1
  Sb  Sb27  1  0.933347  0.504210  0.673419  1
  Sb  Sb28  1  0.566309  0.004138  0.172978  1
  Sb  Sb29  1  0.066733  0.495800  0.326166  1
  Sb  Sb30  1  0.566659  0.495885  0.173444  1
  Sb  Sb31  1  0.433683  0.504112  0.827314  1
