# generated using pymatgen
data_Na4TlFe3Br16
_symmetry_space_group_name_H-M   'P 1'
_cell_length_a   7.39481447
_cell_length_b   7.99090708
_cell_length_c   14.57673900
_cell_angle_alpha   86.84515845
_cell_angle_beta   90.35441596
_cell_angle_gamma   89.83284854
_symmetry_Int_Tables_number   1
_chemical_formula_structural   Na4TlFe3Br16
_chemical_formula_sum   'Na4 Tl1 Fe3 Br16'
_cell_volume   860.03163551
_cell_formula_units_Z   1
loop_
 _symmetry_equiv_pos_site_id
 _symmetry_equiv_pos_as_xyz
  1  'x, y, z'
loop_
 _atom_site_type_symbol
 _atom_site_label
 _atom_site_symmetry_multiplicity
 _atom_site_fract_x
 _atom_site_fract_y
 _atom_site_fract_z
 _atom_site_occupancy
  Na  Na0  1  0.991778  0.847220  0.372663  1
  Na  Na1  1  0.499791  0.150879  0.128002  1
  Na  Na2  1  0.006311  0.152499  0.629150  1
  Na  Na3  1  0.509665  0.848825  0.869559  1
  Tl  Tl4  1  0.305186  0.697500  0.102380  1
  Fe  Fe5  1  0.188492  0.708885  0.601592  1
  Fe  Fe6  1  0.688064  0.290975  0.897942  1
  Fe  Fe7  1  0.811289  0.291190  0.398897  1
  Br  Br8  1  0.320519  0.684967  0.457208  1
  Br  Br9  1  0.821542  0.317227  0.042728  1
  Br  Br10  1  0.678290  0.314850  0.543071  1
  Br  Br11  1  0.170901  0.688674  0.937395  1
  Br  Br12  1  0.114870  0.199444  0.425777  1
  Br  Br13  1  0.637839  0.814266  0.072002  1
  Br  Br14  1  0.884232  0.800096  0.576059  1
  Br  Br15  1  0.384715  0.200946  0.923654  1
  Br  Br16  1  0.334395  0.927550  0.679221  1
  Br  Br17  1  0.834196  0.073693  0.819533  1
  Br  Br18  1  0.666149  0.072813  0.320959  1
  Br  Br19  1  0.158257  0.949843  0.187385  1
  Br  Br20  1  0.203151  0.456092  0.690022  1
  Br  Br21  1  0.701266  0.542847  0.808804  1
  Br  Br22  1  0.797095  0.544086  0.310172  1
  Br  Br23  1  0.292004  0.424630  0.205826  1
