# generated using pymatgen
data_V3Pd2Pt7
_symmetry_space_group_name_H-M   'P 1'
_cell_length_a   5.51503000
_cell_length_b   13.52505200
_cell_length_c   4.81178200
_cell_angle_alpha   90.00000000
_cell_angle_beta   90.00000000
_cell_angle_gamma   90.00000000
_symmetry_Int_Tables_number   1
_chemical_formula_structural   V3Pd2Pt7
_chemical_formula_sum   'V6 Pd4 Pt14'
_cell_volume   358.91595611
_cell_formula_units_Z   2
loop_
 _symmetry_equiv_pos_site_id
 _symmetry_equiv_pos_as_xyz
  1  'x, y, z'
loop_
 _atom_site_type_symbol
 _atom_site_label
 _atom_site_symmetry_multiplicity
 _atom_site_fract_x
 _atom_site_fract_y
 _atom_site_fract_z
 _atom_site_occupancy
  V  V0  1  0.000000  0.336366  0.170993  1
  V  V1  1  0.000000  0.663634  0.170993  1
  V  V2  1  0.500001  0.500000  0.499355  1
  V  V3  1  0.000000  0.000000  0.500645  1
  V  V4  1  0.500001  0.163634  0.829007  1
  V  V5  1  0.500001  0.836366  0.829007  1
  Pd  Pd6  1  0.500001  0.335660  0.167217  1
  Pd  Pd7  1  0.500001  0.664340  0.167217  1
  Pd  Pd8  1  0.000000  0.164340  0.832783  1
  Pd  Pd9  1  0.000000  0.835660  0.832783  1
  Pt  Pt10  1  0.247529  0.000000  0.009338  1
  Pt  Pt11  1  0.752473  0.000000  0.009338  1
  Pt  Pt12  1  0.248999  0.168188  0.332841  1
  Pt  Pt13  1  0.751003  0.168188  0.332841  1
  Pt  Pt14  1  0.248999  0.831811  0.332841  1
  Pt  Pt15  1  0.751003  0.831811  0.332841  1
  Pt  Pt16  1  0.000000  0.500000  0.475390  1
  Pt  Pt17  1  0.500001  0.000000  0.524610  1
  Pt  Pt18  1  0.251002  0.331812  0.667159  1
  Pt  Pt19  1  0.748998  0.331812  0.667159  1
  Pt  Pt20  1  0.251002  0.668188  0.667159  1
  Pt  Pt21  1  0.748998  0.668188  0.667159  1
  Pt  Pt22  1  0.252472  0.500000  0.990663  1
  Pt  Pt23  1  0.747528  0.500000  0.990663  1
