# generated using pymatgen
data_Yb4GdMgSe8
_symmetry_space_group_name_H-M   'P 1'
_cell_length_a   8.43088092
_cell_length_b   8.42639908
_cell_length_c   8.42932300
_cell_angle_alpha   59.98852474
_cell_angle_beta   60.00611645
_cell_angle_gamma   59.99308017
_symmetry_Int_Tables_number   1
_chemical_formula_structural   Yb4GdMgSe8
_chemical_formula_sum   'Yb4 Gd1 Mg1 Se8'
_cell_volume   423.40145977
_cell_formula_units_Z   1
loop_
 _symmetry_equiv_pos_site_id
 _symmetry_equiv_pos_as_xyz
  1  'x, y, z'
loop_
 _atom_site_type_symbol
 _atom_site_label
 _atom_site_symmetry_multiplicity
 _atom_site_fract_x
 _atom_site_fract_y
 _atom_site_fract_z
 _atom_site_occupancy
  Yb  Yb0  1  0.622894  0.622892  0.622881  1
  Yb  Yb1  1  0.622894  0.622892  0.131333  1
  Yb  Yb2  1  0.622922  0.131242  0.622918  1
  Yb  Yb3  1  0.131335  0.622887  0.622889  1
  Gd  Gd4  1  0.000075  0.999842  0.000041  1
  Mg  Mg5  1  0.249794  0.250458  0.249874  1
  Se  Se6  1  0.868909  0.376996  0.377047  1
  Se  Se7  1  0.866998  0.866935  0.866989  1
  Se  Se8  1  0.399053  0.866950  0.866999  1
  Se  Se9  1  0.377057  0.377007  0.868879  1
  Se  Se10  1  0.377057  0.377007  0.377057  1
  Se  Se11  1  0.866988  0.399043  0.866985  1
  Se  Se12  1  0.866998  0.866935  0.399079  1
  Se  Se13  1  0.377025  0.868915  0.377029  1
