# generated using pymatgen
data_Pr5CrWO12
_symmetry_space_group_name_H-M   'P 1'
_cell_length_a   7.15438702
_cell_length_b   7.15438795
_cell_length_c   7.68034953
_cell_angle_alpha   74.43731043
_cell_angle_beta   74.43730928
_cell_angle_gamma   50.29062361
_symmetry_Int_Tables_number   1
_chemical_formula_structural   Pr5CrWO12
_chemical_formula_sum   'Pr5 Cr1 W1 O12'
_cell_volume   288.83786659
_cell_formula_units_Z   1
loop_
 _symmetry_equiv_pos_site_id
 _symmetry_equiv_pos_as_xyz
  1  'x, y, z'
loop_
 _atom_site_type_symbol
 _atom_site_label
 _atom_site_symmetry_multiplicity
 _atom_site_fract_x
 _atom_site_fract_y
 _atom_site_fract_z
 _atom_site_occupancy
  Pr  Pr0  1  0.316244  0.291906  0.357915  1
  Pr  Pr1  1  0.708094  0.683756  0.642085  1
  Pr  Pr2  1  0.696291  0.693315  0.164299  1
  Pr  Pr3  1  0.306685  0.303709  0.835701  1
  Pr  Pr4  1  0.004999  0.995001  0.500000  1
  Cr  Cr5  1  0.743874  0.256126  0.000000  1
  W  W6  1  0.231852  0.768148  0.000000  1
  O  O7  1  0.101458  0.594815  0.574092  1
  O  O8  1  0.007587  0.991469  0.175973  1
  O  O9  1  0.405185  0.898542  0.425908  1
  O  O10  1  0.484758  0.516892  0.171885  1
  O  O11  1  0.101940  0.585930  0.079013  1
  O  O12  1  0.911020  0.400044  0.420753  1
  O  O13  1  0.008531  0.992413  0.824027  1
  O  O14  1  0.599956  0.088979  0.579247  1
  O  O15  1  0.483108  0.515242  0.828115  1
  O  O16  1  0.575265  0.100917  0.079559  1
  O  O17  1  0.414070  0.898060  0.920987  1
  O  O18  1  0.899083  0.424735  0.920441  1
