# generated using pymatgen
data_Ho4Tc3OsRu4
_symmetry_space_group_name_H-M   'P 1'
_cell_length_a   5.28016087
_cell_length_b   5.10299953
_cell_length_c   9.09892100
_cell_angle_alpha   90.00000000
_cell_angle_beta   90.00000000
_cell_angle_gamma   117.46559219
_symmetry_Int_Tables_number   1
_chemical_formula_structural   Ho4Tc3OsRu4
_chemical_formula_sum   'Ho4 Tc3 Os1 Ru4'
_cell_volume   217.53401148
_cell_formula_units_Z   1
loop_
 _symmetry_equiv_pos_site_id
 _symmetry_equiv_pos_as_xyz
  1  'x, y, z'
loop_
 _atom_site_type_symbol
 _atom_site_label
 _atom_site_symmetry_multiplicity
 _atom_site_fract_x
 _atom_site_fract_y
 _atom_site_fract_z
 _atom_site_occupancy
  Ho  Ho0  1  0.671676  0.333777  0.566633  1
  Ho  Ho1  1  0.328275  0.665857  0.435719  1
  Ho  Ho2  1  0.328275  0.665857  0.064281  1
  Ho  Ho3  1  0.671676  0.333777  0.933367  1
  Tc  Tc4  1  0.166343  0.830624  0.750000  1
  Tc  Tc5  1  0.834169  0.660651  0.250000  1
  Tc  Tc6  1  0.836223  0.176165  0.250000  1
  Os  Os7  1  0.167725  0.339868  0.750000  1
  Ru  Ru8  1  0.998185  0.996863  0.500577  1
  Ru  Ru9  1  0.998185  0.996863  0.999423  1
  Ru  Ru10  1  0.653574  0.825777  0.750000  1
  Ru  Ru11  1  0.345694  0.173921  0.250000  1
