# generated using pymatgen
data_Dy6Ho10Cd4NiRu3
_symmetry_space_group_name_H-M   'P 1'
_cell_length_a   9.50868675
_cell_length_b   9.61592067
_cell_length_c   9.61592100
_cell_angle_alpha   60.00000232
_cell_angle_beta   59.62624017
_cell_angle_gamma   59.62623865
_symmetry_Int_Tables_number   1
_chemical_formula_structural   Dy6Ho10Cd4NiRu3
_chemical_formula_sum   'Dy6 Ho10 Cd4 Ni1 Ru3'
_cell_volume   618.17376297
_cell_formula_units_Z   1
loop_
 _symmetry_equiv_pos_site_id
 _symmetry_equiv_pos_as_xyz
  1  'x, y, z'
loop_
 _atom_site_type_symbol
 _atom_site_label
 _atom_site_symmetry_multiplicity
 _atom_site_fract_x
 _atom_site_fract_y
 _atom_site_fract_z
 _atom_site_occupancy
  Dy  Dy0  1  0.187566  0.811627  0.811627  1
  Dy  Dy1  1  0.809858  0.186820  0.186820  1
  Dy  Dy2  1  0.809858  0.186820  0.816502  1
  Dy  Dy3  1  0.187566  0.811627  0.189181  1
  Dy  Dy4  1  0.809858  0.816502  0.186820  1
  Dy  Dy5  1  0.187566  0.189181  0.811627  1
  Ho  Ho6  1  0.600426  0.595768  0.595768  1
  Ho  Ho7  1  0.600426  0.595768  0.208039  1
  Ho  Ho8  1  0.600426  0.208039  0.595768  1
  Ho  Ho9  1  0.210362  0.596546  0.596546  1
  Ho  Ho10  1  0.060850  0.438305  0.438305  1
  Ho  Ho11  1  0.437575  0.061745  0.061745  1
  Ho  Ho12  1  0.437575  0.061745  0.438934  1
  Ho  Ho13  1  0.060850  0.438305  0.062539  1
  Ho  Ho14  1  0.437575  0.438934  0.061745  1
  Ho  Ho15  1  0.060850  0.062539  0.438305  1
  Cd  Cd16  1  0.829002  0.830440  0.830440  1
  Cd  Cd17  1  0.829002  0.830440  0.510117  1
  Cd  Cd18  1  0.829002  0.510117  0.830440  1
  Cd  Cd19  1  0.508166  0.830611  0.830611  1
  Ni  Ni20  1  0.825839  0.391387  0.391387  1
  Ru  Ru21  1  0.393267  0.389563  0.389563  1
  Ru  Ru22  1  0.393267  0.389563  0.827605  1
  Ru  Ru23  1  0.393267  0.827605  0.389563  1
