# generated using pymatgen
data_Th2U2TcB12Mo
_symmetry_space_group_name_H-M   'P 1'
_cell_length_a   3.76871800
_cell_length_b   9.40687027
_cell_length_c   11.52906007
_cell_angle_alpha   90.00732026
_cell_angle_beta   90.00000000
_cell_angle_gamma   90.00000000
_symmetry_Int_Tables_number   1
_chemical_formula_structural   Th2U2TcB12Mo
_chemical_formula_sum   'Th4 U4 Tc2 B24 Mo2'
_cell_volume   408.72640497
_cell_formula_units_Z   2
loop_
 _symmetry_equiv_pos_site_id
 _symmetry_equiv_pos_as_xyz
  1  'x, y, z'
loop_
 _atom_site_type_symbol
 _atom_site_label
 _atom_site_symmetry_multiplicity
 _atom_site_fract_x
 _atom_site_fract_y
 _atom_site_fract_z
 _atom_site_occupancy
  Th  Th0  1  0.000000  0.335207  0.407786  1
  Th  Th1  1  0.000000  0.664793  0.592214  1
  Th  Th2  1  0.000000  0.835696  0.092127  1
  Th  Th3  1  0.000000  0.164304  0.907873  1
  U  U4  1  0.000000  0.959250  0.396389  1
  U  U5  1  0.000000  0.040750  0.603611  1
  U  U6  1  0.000000  0.456784  0.102635  1
  U  U7  1  0.000000  0.543216  0.897365  1
  Tc  Tc8  1  0.000000  0.647472  0.318131  1
  Tc  Tc9  1  0.000000  0.352528  0.681869  1
  B  B10  1  0.500000  0.556271  0.427161  1
  B  B11  1  0.500000  0.443729  0.572839  1
  B  B12  1  0.500000  0.055782  0.071733  1
  B  B13  1  0.500000  0.944218  0.928267  1
  B  B14  1  0.500000  0.745977  0.420831  1
  B  B15  1  0.500000  0.254023  0.579169  1
  B  B16  1  0.500000  0.246647  0.078464  1
  B  B17  1  0.500000  0.753353  0.921536  1
  B  B18  1  0.500000  0.802348  0.274918  1
  B  B19  1  0.500000  0.197652  0.725082  1
  B  B20  1  0.500000  0.303761  0.225328  1
  B  B21  1  0.500000  0.696239  0.774672  1
  B  B22  1  0.500000  0.643960  0.188410  1
  B  B23  1  0.500000  0.356040  0.811590  1
  B  B24  1  0.500000  0.144070  0.312957  1
  B  B25  1  0.500000  0.855930  0.687043  1
  B  B26  1  0.500000  0.991265  0.221629  1
  B  B27  1  0.500000  0.008735  0.778371  1
  B  B28  1  0.500000  0.492219  0.279389  1
  B  B29  1  0.500000  0.507781  0.720611  1
  B  B30  1  0.500000  0.635541  0.037772  1
  B  B31  1  0.500000  0.364459  0.962228  1
  B  B32  1  0.500000  0.136261  0.463578  1
  B  B33  1  0.500000  0.863739  0.536422  1
  Mo  Mo34  1  0.000000  0.148055  0.182886  1
  Mo  Mo35  1  0.000000  0.851945  0.817114  1
