# generated using pymatgen
data_NaSr4(SiIr)10
_symmetry_space_group_name_H-M   'P 1'
_cell_length_a   9.27999700
_cell_length_b   8.35461985
_cell_length_c   9.27999700
_cell_angle_alpha   56.26302341
_cell_angle_beta   90.00000000
_cell_angle_gamma   56.26301516
_symmetry_Int_Tables_number   1
_chemical_formula_structural   NaSr4(SiIr)10
_chemical_formula_sum   'Na1 Sr4 Si10 Ir10'
_cell_volume   445.32829268
_cell_formula_units_Z   1
loop_
 _symmetry_equiv_pos_site_id
 _symmetry_equiv_pos_as_xyz
  1  'x, y, z'
loop_
 _atom_site_type_symbol
 _atom_site_label
 _atom_site_symmetry_multiplicity
 _atom_site_fract_x
 _atom_site_fract_y
 _atom_site_fract_z
 _atom_site_occupancy
  Na  Na0  1  0.000000  0.000000  0.000000  1
  Sr  Sr1  1  0.198409  0.000000  0.600902  1
  Sr  Sr2  1  0.399098  0.000000  0.198409  1
  Sr  Sr3  1  0.600902  0.000000  0.801591  1
  Sr  Sr4  1  0.801591  0.000000  0.399098  1
  Si  Si5  1  0.168001  0.261564  0.768921  1
  Si  Si6  1  0.370593  0.258814  0.370593  1
  Si  Si7  1  0.570435  0.261564  0.969514  1
  Si  Si8  1  0.768921  0.261564  0.570435  1
  Si  Si9  1  0.969514  0.261564  0.168001  1
  Si  Si10  1  0.629407  0.741186  0.629407  1
  Si  Si11  1  0.831999  0.738436  0.231079  1
  Si  Si12  1  0.030485  0.738436  0.831999  1
  Si  Si13  1  0.231079  0.738436  0.429565  1
  Si  Si14  1  0.429565  0.738436  0.030485  1
  Ir  Ir15  1  0.949380  0.499952  0.849152  1
  Ir  Ir16  1  0.150848  0.500048  0.449331  1
  Ir  Ir17  1  0.349104  0.500048  0.050620  1
  Ir  Ir18  1  0.550669  0.499952  0.650896  1
  Ir  Ir19  1  0.750000  0.500000  0.250000  1
  Ir  Ir20  1  0.849152  0.499952  0.550669  1
  Ir  Ir21  1  0.050620  0.500048  0.150848  1
  Ir  Ir22  1  0.250000  0.500000  0.750000  1
  Ir  Ir23  1  0.449331  0.500048  0.349104  1
  Ir  Ir24  1  0.650896  0.499952  0.949380  1
