# generated using pymatgen
data_Ca4GaSnPd4
_symmetry_space_group_name_H-M   'P 1'
_cell_length_a   5.79000297
_cell_length_b   5.79000349
_cell_length_c   8.07741102
_cell_angle_alpha   78.34092974
_cell_angle_beta   78.34092914
_cell_angle_gamma   59.83338320
_symmetry_Int_Tables_number   1
_chemical_formula_structural   Ca4GaSnPd4
_chemical_formula_sum   'Ca4 Ga1 Sn1 Pd4'
_cell_volume   227.66245428
_cell_formula_units_Z   1
loop_
 _symmetry_equiv_pos_site_id
 _symmetry_equiv_pos_as_xyz
  1  'x, y, z'
loop_
 _atom_site_type_symbol
 _atom_site_label
 _atom_site_symmetry_multiplicity
 _atom_site_fract_x
 _atom_site_fract_y
 _atom_site_fract_z
 _atom_site_occupancy
  Ca  Ca0  1  0.788156  0.511941  0.349310  1
  Ca  Ca1  1  0.488059  0.211844  0.150690  1
  Ca  Ca2  1  0.211134  0.488125  0.650431  1
  Ca  Ca3  1  0.511875  0.788866  0.849569  1
  Ga  Ga4  1  0.867592  0.132408  0.750000  1
  Sn  Sn5  1  0.149473  0.850527  0.250000  1
  Pd  Pd6  1  0.998059  0.738103  0.990448  1
  Pd  Pd7  1  0.261897  0.001941  0.509552  1
  Pd  Pd8  1  0.989452  0.265696  0.988848  1
  Pd  Pd9  1  0.734304  0.010548  0.511152  1
