# generated using pymatgen
data_Nd2YHf(Al3Ir)6
_symmetry_space_group_name_H-M   'P 1'
_cell_length_a   7.57234900
_cell_length_b   7.56318363
_cell_length_c   9.47302500
_cell_angle_alpha   90.00000000
_cell_angle_beta   90.00000000
_cell_angle_gamma   119.53912249
_symmetry_Int_Tables_number   1
_chemical_formula_structural   Nd2YHf(Al3Ir)6
_chemical_formula_sum   'Nd2 Y1 Hf1 Al18 Ir6'
_cell_volume   472.01175697
_cell_formula_units_Z   1
loop_
 _symmetry_equiv_pos_site_id
 _symmetry_equiv_pos_as_xyz
  1  'x, y, z'
loop_
 _atom_site_type_symbol
 _atom_site_label
 _atom_site_symmetry_multiplicity
 _atom_site_fract_x
 _atom_site_fract_y
 _atom_site_fract_z
 _atom_site_occupancy
  Nd  Nd0  1  0.004954  0.327155  0.750000  1
  Nd  Nd1  1  0.329451  0.006399  0.750000  1
  Y  Y2  1  0.671481  0.995674  0.250000  1
  Hf  Hf3  1  0.997857  0.674650  0.250000  1
  Al  Al4  1  0.125586  0.123269  0.250000  1
  Al  Al5  1  0.868396  0.866950  0.750000  1
  Al  Al6  1  0.000039  0.338849  0.081413  1
  Al  Al7  1  0.998020  0.664883  0.933728  1
  Al  Al8  1  0.998020  0.664883  0.566272  1
  Al  Al9  1  0.332593  0.997901  0.418607  1
  Al  Al10  1  0.000039  0.338849  0.418587  1
  Al  Al11  1  0.664495  0.996493  0.570597  1
  Al  Al12  1  0.664495  0.996493  0.929403  1
  Al  Al13  1  0.332593  0.997901  0.081393  1
  Al  Al14  1  0.334284  0.334468  0.543490  1
  Al  Al15  1  0.669316  0.666875  0.441700  1
  Al  Al16  1  0.669316  0.666875  0.058300  1
  Al  Al17  1  0.334284  0.334468  0.956510  1
  Al  Al18  1  0.336406  0.550322  0.250000  1
  Al  Al19  1  0.660803  0.454227  0.750000  1
  Al  Al20  1  0.556633  0.345481  0.250000  1
  Al  Al21  1  0.452664  0.659258  0.750000  1
  Ir  Ir22  1  0.672787  0.329183  0.002942  1
  Ir  Ir23  1  0.328063  0.672252  0.003809  1
  Ir  Ir24  1  0.328063  0.672252  0.496191  1
  Ir  Ir25  1  0.672787  0.329183  0.497058  1
  Ir  Ir26  1  0.998286  0.997405  0.003599  1
  Ir  Ir27  1  0.998286  0.997405  0.496401  1
