# generated using pymatgen
data_NaRuCl18
_symmetry_space_group_name_H-M   'P 1'
_cell_length_a   8.96405623
_cell_length_b   8.95587919
_cell_length_c   8.92858556
_cell_angle_alpha   85.60840967
_cell_angle_beta   85.50235676
_cell_angle_gamma   86.53155237
_symmetry_Int_Tables_number   1
_chemical_formula_structural   NaRuCl18
_chemical_formula_sum   'Na1 Ru1 Cl18'
_cell_volume   711.41891779
_cell_formula_units_Z   1
loop_
 _symmetry_equiv_pos_site_id
 _symmetry_equiv_pos_as_xyz
  1  'x, y, z'
loop_
 _atom_site_type_symbol
 _atom_site_label
 _atom_site_symmetry_multiplicity
 _atom_site_fract_x
 _atom_site_fract_y
 _atom_site_fract_z
 _atom_site_occupancy
  Na  Na0  1  0.000000  0.000000  0.000000  1
  Ru  Ru1  1  0.500000  0.500000  0.500000  1
  Cl  Cl2  1  0.759046  0.481374  0.503384  1
  Cl  Cl3  1  0.503266  0.759884  0.465616  1
  Cl  Cl4  1  0.477107  0.513766  0.760150  1
  Cl  Cl5  1  0.240954  0.518626  0.496616  1
  Cl  Cl6  1  0.496734  0.240116  0.534384  1
  Cl  Cl7  1  0.522893  0.486234  0.239850  1
  Cl  Cl8  1  0.901427  0.384071  0.763193  1
  Cl  Cl9  1  0.764188  0.902700  0.382310  1
  Cl  Cl10  1  0.383117  0.770826  0.899072  1
  Cl  Cl11  1  0.098573  0.615929  0.236807  1
  Cl  Cl12  1  0.235812  0.097300  0.617690  1
  Cl  Cl13  1  0.616883  0.229174  0.100928  1
  Cl  Cl14  1  0.055621  0.971091  0.683680  1
  Cl  Cl15  1  0.685237  0.051541  0.975120  1
  Cl  Cl16  1  0.973250  0.683175  0.059391  1
  Cl  Cl17  1  0.944379  0.028909  0.316320  1
  Cl  Cl18  1  0.314763  0.948459  0.024880  1
  Cl  Cl19  1  0.026750  0.316825  0.940609  1
