# generated using pymatgen
data_Ba4TaCdO8
_symmetry_space_group_name_H-M   'P 1'
_cell_length_a   7.36327087
_cell_length_b   7.36326988
_cell_length_c   6.03509400
_cell_angle_alpha   90.00000000
_cell_angle_beta   90.00000000
_cell_angle_gamma   131.77372429
_symmetry_Int_Tables_number   1
_chemical_formula_structural   Ba4TaCdO8
_chemical_formula_sum   'Ba4 Ta1 Cd1 O8'
_cell_volume   244.02661376
_cell_formula_units_Z   1
loop_
 _symmetry_equiv_pos_site_id
 _symmetry_equiv_pos_as_xyz
  1  'x, y, z'
loop_
 _atom_site_type_symbol
 _atom_site_label
 _atom_site_symmetry_multiplicity
 _atom_site_fract_x
 _atom_site_fract_y
 _atom_site_fract_z
 _atom_site_occupancy
  Ba  Ba0  1  0.356781  0.643219  0.000000  1
  Ba  Ba1  1  0.855741  0.144259  0.500000  1
  Ba  Ba2  1  0.144259  0.855741  0.500000  1
  Ba  Ba3  1  0.643219  0.356781  0.000000  1
  Ta  Ta4  1  0.500000  0.500000  0.500000  1
  Cd  Cd5  1  0.000000  0.000000  0.000000  1
  O  O6  1  0.265319  0.265319  0.732618  1
  O  O7  1  0.734681  0.734681  0.267382  1
  O  O8  1  0.734681  0.734681  0.732618  1
  O  O9  1  0.265319  0.265319  0.267382  1
  O  O10  1  0.166737  0.833263  0.000000  1
  O  O11  1  0.652207  0.347793  0.500000  1
  O  O12  1  0.347793  0.652207  0.500000  1
  O  O13  1  0.833263  0.166737  0.000000  1
