# generated using pymatgen
data_Nd5Er3(P3Rh4)4
_symmetry_space_group_name_H-M   'P 1'
_cell_length_a   13.09513300
_cell_length_b   13.09513339
_cell_length_c   3.94346500
_cell_angle_alpha   90.00000000
_cell_angle_beta   90.00000000
_cell_angle_gamma   120.00000155
_symmetry_Int_Tables_number   1
_chemical_formula_structural   Nd5Er3(P3Rh4)4
_chemical_formula_sum   'Nd5 Er3 P12 Rh16'
_cell_volume   585.63693042
_cell_formula_units_Z   1
loop_
 _symmetry_equiv_pos_site_id
 _symmetry_equiv_pos_as_xyz
  1  'x, y, z'
loop_
 _atom_site_type_symbol
 _atom_site_label
 _atom_site_symmetry_multiplicity
 _atom_site_fract_x
 _atom_site_fract_y
 _atom_site_fract_z
 _atom_site_occupancy
  Nd  Nd0  1  0.186952  0.186952  0.500000  1
  Nd  Nd1  1  0.813048  0.000000  0.500000  1
  Nd  Nd2  1  0.000000  0.813048  0.500000  1
  Nd  Nd3  1  0.333333  0.666667  0.000000  1
  Nd  Nd4  1  0.666667  0.333333  0.000000  1
  Er  Er5  1  0.556696  0.556696  0.000000  1
  Er  Er6  1  0.443304  0.000000  0.000000  1
  Er  Er7  1  0.000000  0.443304  0.000000  1
  P  P8  1  0.821603  0.821603  0.000000  1
  P  P9  1  0.178397  0.000000  0.000000  1
  P  P10  1  0.000000  0.178397  0.000000  1
  P  P11  1  0.171529  0.480812  0.500000  1
  P  P12  1  0.519188  0.690717  0.500000  1
  P  P13  1  0.309283  0.828471  0.500000  1
  P  P14  1  0.690717  0.519188  0.500000  1
  P  P15  1  0.828471  0.309283  0.500000  1
  P  P16  1  0.480812  0.171529  0.500000  1
  P  P17  1  0.352591  0.352591  0.000000  1
  P  P18  1  0.647409  0.000000  0.000000  1
  P  P19  1  0.000000  0.647409  0.000000  1
  Rh  Rh20  1  0.723053  0.723053  0.500000  1
  Rh  Rh21  1  0.276947  0.000000  0.500000  1
  Rh  Rh22  1  0.000000  0.276947  0.500000  1
  Rh  Rh23  1  0.178215  0.373726  0.000000  1
  Rh  Rh24  1  0.626274  0.804488  0.000000  1
  Rh  Rh25  1  0.195512  0.821785  0.000000  1
  Rh  Rh26  1  0.804488  0.626274  0.000000  1
  Rh  Rh27  1  0.821785  0.195512  0.000000  1
  Rh  Rh28  1  0.373726  0.178215  0.000000  1
  Rh  Rh29  1  0.355174  0.483386  0.500000  1
  Rh  Rh30  1  0.516614  0.871788  0.500000  1
  Rh  Rh31  1  0.128212  0.644826  0.500000  1
  Rh  Rh32  1  0.871788  0.516614  0.500000  1
  Rh  Rh33  1  0.644826  0.128212  0.500000  1
  Rh  Rh34  1  0.483386  0.355174  0.500000  1
  Rh  Rh35  1  0.000000  0.000000  0.000000  1
