# generated using pymatgen
data_Rb2EuErTe8
_symmetry_space_group_name_H-M   'P 1'
_cell_length_a   6.81012000
_cell_length_b   6.81012000
_cell_length_c   9.44283500
_cell_angle_alpha   90.00000000
_cell_angle_beta   90.00000000
_cell_angle_gamma   90.00000000
_symmetry_Int_Tables_number   1
_chemical_formula_structural   Rb2EuErTe8
_chemical_formula_sum   'Rb2 Eu1 Er1 Te8'
_cell_volume   437.93729375
_cell_formula_units_Z   1
loop_
 _symmetry_equiv_pos_site_id
 _symmetry_equiv_pos_as_xyz
  1  'x, y, z'
loop_
 _atom_site_type_symbol
 _atom_site_label
 _atom_site_symmetry_multiplicity
 _atom_site_fract_x
 _atom_site_fract_y
 _atom_site_fract_z
 _atom_site_occupancy
  Rb  Rb0  1  0.000000  0.000000  0.000000  1
  Rb  Rb1  1  0.500000  0.500000  0.000000  1
  Eu  Eu2  1  0.500000  0.500000  0.500000  1
  Er  Er3  1  0.000000  0.000000  0.500000  1
  Te  Te4  1  0.340618  0.864970  0.294212  1
  Te  Te5  1  0.135030  0.340618  0.294212  1
  Te  Te6  1  0.864970  0.659382  0.294212  1
  Te  Te7  1  0.340618  0.135030  0.705788  1
  Te  Te8  1  0.659382  0.864970  0.705788  1
  Te  Te9  1  0.659382  0.135030  0.294212  1
  Te  Te10  1  0.864970  0.340618  0.705788  1
  Te  Te11  1  0.135030  0.659382  0.705788  1
