# generated using pymatgen
data_Tb5Pr3Cd2RuPt
_symmetry_space_group_name_H-M   'P 1'
_cell_length_a   9.80990851
_cell_length_b   9.80990978
_cell_length_c   9.83147600
_cell_angle_alpha   59.92723694
_cell_angle_beta   59.92723266
_cell_angle_gamma   60.03315062
_symmetry_Int_Tables_number   1
_chemical_formula_structural   Tb5Pr3Cd2RuPt
_chemical_formula_sum   'Tb10 Pr6 Cd4 Ru2 Pt2'
_cell_volume   668.44181586
_cell_formula_units_Z   2
loop_
 _symmetry_equiv_pos_site_id
 _symmetry_equiv_pos_as_xyz
  1  'x, y, z'
loop_
 _atom_site_type_symbol
 _atom_site_label
 _atom_site_symmetry_multiplicity
 _atom_site_fract_x
 _atom_site_fract_y
 _atom_site_fract_z
 _atom_site_occupancy
  Tb  Tb0  1  0.347586  0.347586  0.352590  1
  Tb  Tb1  1  0.347586  0.347586  0.952238  1
  Tb  Tb2  1  0.344124  0.959373  0.348252  1
  Tb  Tb3  1  0.959373  0.344124  0.348252  1
  Tb  Tb4  1  0.817113  0.186582  0.188258  1
  Tb  Tb5  1  0.186582  0.817113  0.808046  1
  Tb  Tb6  1  0.186582  0.817113  0.188258  1
  Tb  Tb7  1  0.817113  0.186582  0.808046  1
  Tb  Tb8  1  0.186671  0.186671  0.813329  1
  Tb  Tb9  1  0.810296  0.810296  0.189704  1
  Pr  Pr10  1  0.939636  0.556048  0.562881  1
  Pr  Pr11  1  0.556048  0.939636  0.941435  1
  Pr  Pr12  1  0.556048  0.939636  0.562881  1
  Pr  Pr13  1  0.939636  0.556048  0.941435  1
  Pr  Pr14  1  0.560191  0.560191  0.939809  1
  Pr  Pr15  1  0.939892  0.939892  0.560108  1
  Cd  Cd16  1  0.579137  0.579137  0.579035  1
  Cd  Cd17  1  0.579137  0.579137  0.262689  1
  Cd  Cd18  1  0.580228  0.260839  0.579466  1
  Cd  Cd19  1  0.260839  0.580228  0.579466  1
  Ru  Ru20  1  0.143374  0.143374  0.137176  1
  Ru  Ru21  1  0.143374  0.143374  0.576077  1
  Pt  Pt22  1  0.144773  0.574657  0.140285  1
  Pt  Pt23  1  0.574657  0.144773  0.140285  1
