# generated using pymatgen
data_HoEr15In4Ru3Rh
_symmetry_space_group_name_H-M   'P 1'
_cell_length_a   9.57704357
_cell_length_b   9.57704318
_cell_length_c   9.54924224
_cell_angle_alpha   59.86635061
_cell_angle_beta   59.86635292
_cell_angle_gamma   59.97143916
_symmetry_Int_Tables_number   1
_chemical_formula_structural   HoEr15In4Ru3Rh
_chemical_formula_sum   'Ho1 Er15 In4 Ru3 Rh1'
_cell_volume   617.93543092
_cell_formula_units_Z   1
loop_
 _symmetry_equiv_pos_site_id
 _symmetry_equiv_pos_as_xyz
  1  'x, y, z'
loop_
 _atom_site_type_symbol
 _atom_site_label
 _atom_site_symmetry_multiplicity
 _atom_site_fract_x
 _atom_site_fract_y
 _atom_site_fract_z
 _atom_site_occupancy
  Ho  Ho0  1  0.599349  0.599349  0.598188  1
  Er  Er1  1  0.189582  0.189582  0.808501  1
  Er  Er2  1  0.598541  0.598541  0.204507  1
  Er  Er3  1  0.441467  0.059134  0.440295  1
  Er  Er4  1  0.441022  0.441022  0.060375  1
  Er  Er5  1  0.812750  0.189100  0.808660  1
  Er  Er6  1  0.191701  0.808877  0.190620  1
  Er  Er7  1  0.440950  0.057054  0.060377  1
  Er  Er8  1  0.189100  0.812750  0.808660  1
  Er  Er9  1  0.057054  0.440950  0.060377  1
  Er  Er10  1  0.809207  0.809207  0.190075  1
  Er  Er11  1  0.203558  0.599269  0.598305  1
  Er  Er12  1  0.059134  0.441467  0.440295  1
  Er  Er13  1  0.058951  0.058951  0.440025  1
  Er  Er14  1  0.808877  0.191701  0.190620  1
  Er  Er15  1  0.599269  0.203558  0.598305  1
  In  In16  1  0.832541  0.832541  0.832693  1
  In  In17  1  0.832771  0.832771  0.501598  1
  In  In18  1  0.502285  0.832537  0.832582  1
  In  In19  1  0.832537  0.502285  0.832582  1
  Ru  Ru20  1  0.390187  0.828265  0.391683  1
  Ru  Ru21  1  0.390033  0.390033  0.391722  1
  Ru  Ru22  1  0.828265  0.390187  0.391683  1
  Rh  Rh23  1  0.390870  0.390870  0.827269  1
