# generated using pymatgen
data_TbYb(CuO2)4
_symmetry_space_group_name_H-M   'P 1'
_cell_length_a   6.24634696
_cell_length_b   6.24634734
_cell_length_c   6.24634704
_cell_angle_alpha   125.84688508
_cell_angle_beta   125.84687567
_cell_angle_gamma   80.13994529
_symmetry_Int_Tables_number   1
_chemical_formula_structural   TbYb(CuO2)4
_chemical_formula_sum   'Tb1 Yb1 Cu4 O8'
_cell_volume   154.56613122
_cell_formula_units_Z   1
loop_
 _symmetry_equiv_pos_site_id
 _symmetry_equiv_pos_as_xyz
  1  'x, y, z'
loop_
 _atom_site_type_symbol
 _atom_site_label
 _atom_site_symmetry_multiplicity
 _atom_site_fract_x
 _atom_site_fract_y
 _atom_site_fract_z
 _atom_site_occupancy
  Tb  Tb0  1  0.750000  0.250000  0.500000  1
  Yb  Yb1  1  0.000000  0.000000  0.000000  1
  Cu  Cu2  1  0.875428  0.621989  0.248388  1
  Cu  Cu3  1  0.373601  0.627040  0.751612  1
  Cu  Cu4  1  0.372960  0.124572  0.746561  1
  Cu  Cu5  1  0.378011  0.626399  0.253439  1
  O  O6  1  0.409353  0.838723  0.144445  1
  O  O7  1  0.694278  0.264909  0.855555  1
  O  O8  1  0.348959  0.415278  0.364848  1
  O  O9  1  0.050429  0.984110  0.635152  1
  O  O10  1  0.015890  0.651041  0.066319  1
  O  O11  1  0.584722  0.949571  0.933681  1
  O  O12  1  0.161277  0.305722  0.570631  1
  O  O13  1  0.735091  0.590647  0.429369  1
