# generated using pymatgen
data_Ca12HoV7(GeO4)12
_symmetry_space_group_name_H-M   'P 1'
_cell_length_a   10.87499834
_cell_length_b   10.87499851
_cell_length_c   10.88381900
_cell_angle_alpha   109.48764787
_cell_angle_beta   109.48764819
_cell_angle_gamma   109.45478969
_symmetry_Int_Tables_number   1
_chemical_formula_structural   Ca12HoV7(GeO4)12
_chemical_formula_sum   'Ca12 Ho1 V7 Ge12 O48'
_cell_volume   990.67163969
_cell_formula_units_Z   1
loop_
 _symmetry_equiv_pos_site_id
 _symmetry_equiv_pos_as_xyz
  1  'x, y, z'
loop_
 _atom_site_type_symbol
 _atom_site_label
 _atom_site_symmetry_multiplicity
 _atom_site_fract_x
 _atom_site_fract_y
 _atom_site_fract_z
 _atom_site_occupancy
  Ca  Ca0  1  0.246627  0.871260  0.627211  1
  Ca  Ca1  1  0.747149  0.623397  0.874474  1
  Ca  Ca2  1  0.628740  0.875368  0.755951  1
  Ca  Ca3  1  0.876603  0.623752  0.251077  1
  Ca  Ca4  1  0.624632  0.253373  0.880584  1
  Ca  Ca5  1  0.876248  0.752851  0.627326  1
  Ca  Ca6  1  0.753373  0.128740  0.372789  1
  Ca  Ca7  1  0.252851  0.376603  0.125526  1
  Ca  Ca8  1  0.371260  0.124632  0.244049  1
  Ca  Ca9  1  0.123397  0.376248  0.748923  1
  Ca  Ca10  1  0.375368  0.746627  0.119416  1
  Ca  Ca11  1  0.123752  0.247149  0.372674  1
  Ho  Ho12  1  0.500000  0.000000  0.500000  1
  V  V13  1  0.500000  0.500000  0.500000  1
  V  V14  1  0.000000  0.500000  0.500000  1
  V  V15  1  0.500000  0.500000  0.000000  1
  V  V16  1  0.000000  0.000000  0.500000  1
  V  V17  1  0.000000  0.500000  0.000000  1
  V  V18  1  0.500000  0.000000  0.000000  1
  V  V19  1  0.000000  0.000000  0.000000  1
  Ge  Ge20  1  0.125802  0.750516  0.875572  1
  Ge  Ge21  1  0.874198  0.249484  0.124428  1
  Ge  Ge22  1  0.624713  0.374198  0.249770  1
  Ge  Ge23  1  0.749484  0.875287  0.125057  1
  Ge  Ge24  1  0.881959  0.127271  0.756769  1
  Ge  Ge25  1  0.245312  0.618041  0.374810  1
  Ge  Ge26  1  0.754688  0.381959  0.625190  1
  Ge  Ge27  1  0.250516  0.124713  0.874943  1
  Ge  Ge28  1  0.118041  0.872729  0.243231  1
  Ge  Ge29  1  0.375287  0.625802  0.750230  1
  Ge  Ge30  1  0.627271  0.745312  0.370503  1
  Ge  Ge31  1  0.372729  0.254688  0.629497  1
  O  O32  1  0.415985  0.814119  0.798700  1
  O  O33  1  0.879749  0.396890  0.084218  1
  O  O34  1  0.103110  0.982859  0.687328  1
  O  O35  1  0.517141  0.620251  0.704469  1
  O  O36  1  0.698286  0.092105  0.719959  1
  O  O37  1  0.619159  0.701764  0.513948  1
  O  O38  1  0.620473  0.417305  0.103500  1
  O  O39  1  0.705507  0.523115  0.621602  1
  O  O40  1  0.813832  0.514896  0.398419  1
  O  O41  1  0.985104  0.798935  0.883522  1
  O  O42  1  0.796833  0.879527  0.983027  1
  O  O43  1  0.701065  0.686168  0.084587  1
  O  O44  1  0.407895  0.106181  0.627854  1
  O  O45  1  0.393819  0.801714  0.521673  1
  O  O46  1  0.082695  0.703167  0.686194  1
  O  O47  1  0.097360  0.616919  0.412326  1
  O  O48  1  0.519559  0.402640  0.814966  1
  O  O49  1  0.082605  0.880841  0.394788  1
  O  O50  1  0.976885  0.682392  0.098487  1
  O  O51  1  0.186168  0.485104  0.601581  1
  O  O52  1  0.685881  0.101866  0.984581  1
  O  O53  1  0.798236  0.417395  0.812184  1
  O  O54  1  0.398134  0.084015  0.882715  1
  O  O55  1  0.883081  0.980441  0.795407  1
  O  O56  1  0.584015  0.185881  0.201300  1
  O  O57  1  0.120251  0.603110  0.915782  1
  O  O58  1  0.896890  0.017141  0.312672  1
  O  O59  1  0.482859  0.379749  0.295531  1
  O  O60  1  0.301714  0.907895  0.280041  1
  O  O61  1  0.380841  0.298236  0.486052  1
  O  O62  1  0.379527  0.582695  0.896500  1
  O  O63  1  0.294493  0.476885  0.378398  1
  O  O64  1  0.116919  0.019559  0.204593  1
  O  O65  1  0.601866  0.915985  0.117285  1
  O  O66  1  0.201764  0.582605  0.187816  1
  O  O67  1  0.182392  0.205507  0.583905  1
  O  O68  1  0.314119  0.898134  0.015419  1
  O  O69  1  0.023115  0.317608  0.901513  1
  O  O70  1  0.917395  0.119159  0.605212  1
  O  O71  1  0.480441  0.597360  0.185034  1
  O  O72  1  0.902640  0.383081  0.587674  1
  O  O73  1  0.917305  0.296833  0.313806  1
  O  O74  1  0.606181  0.198286  0.478327  1
  O  O75  1  0.592105  0.893819  0.372146  1
  O  O76  1  0.298935  0.313832  0.915413  1
  O  O77  1  0.203167  0.120473  0.016973  1
  O  O78  1  0.014896  0.201065  0.116478  1
  O  O79  1  0.817608  0.794493  0.416095  1
