# generated using pymatgen
data_SrLa3Nd3FeBr12
_symmetry_space_group_name_H-M   'P 1'
_cell_length_a   9.74073519
_cell_length_b   9.74086548
_cell_length_c   9.37291514
_cell_angle_alpha   105.37651734
_cell_angle_beta   106.27062361
_cell_angle_gamma   106.89267844
_symmetry_Int_Tables_number   1
_chemical_formula_structural   SrLa3Nd3FeBr12
_chemical_formula_sum   'Sr1 La3 Nd3 Fe1 Br12'
_cell_volume   756.49707598
_cell_formula_units_Z   1
loop_
 _symmetry_equiv_pos_site_id
 _symmetry_equiv_pos_as_xyz
  1  'x, y, z'
loop_
 _atom_site_type_symbol
 _atom_site_label
 _atom_site_symmetry_multiplicity
 _atom_site_fract_x
 _atom_site_fract_y
 _atom_site_fract_z
 _atom_site_occupancy
  Sr  Sr0  1  0.498330  0.498210  0.498557  1
  La  La1  1  0.979994  0.908782  0.721310  1
  La  La2  1  0.681280  0.980245  0.889163  1
  La  La3  1  0.893066  0.682751  0.987103  1
  Nd  Nd4  1  0.109804  0.311054  0.013505  1
  Nd  Nd5  1  0.310898  0.019258  0.108524  1
  Nd  Nd6  1  0.019491  0.096707  0.285359  1
  Fe  Fe7  1  0.999569  0.995115  0.983662  1
  Br  Br8  1  0.218945  0.684822  0.078118  1
  Br  Br9  1  0.448457  0.358849  0.144853  1
  Br  Br10  1  0.688257  0.074487  0.222320  1
  Br  Br11  1  0.937375  0.796429  0.333770  1
  Br  Br12  1  0.150984  0.440631  0.359350  1
  Br  Br13  1  0.361777  0.153530  0.452052  1
  Br  Br14  1  0.625824  0.840539  0.540215  1
  Br  Br15  1  0.842582  0.551342  0.634824  1
  Br  Br16  1  0.071962  0.221669  0.676544  1
  Br  Br17  1  0.320025  0.929751  0.787427  1
  Br  Br18  1  0.549414  0.635630  0.853418  1
  Br  Br19  1  0.791967  0.320201  0.929926  1
