# generated using pymatgen
data_Ho7Th7Ir5Os
_symmetry_space_group_name_H-M   'P 1'
_cell_length_a   9.90379641
_cell_length_b   9.81369905
_cell_length_c   6.34527800
_cell_angle_alpha   89.77403204
_cell_angle_beta   90.33314458
_cell_angle_gamma   120.43837371
_symmetry_Int_Tables_number   1
_chemical_formula_structural   Ho7Th7Ir5Os
_chemical_formula_sum   'Ho7 Th7 Ir5 Os1'
_cell_volume   531.70735302
_cell_formula_units_Z   1
loop_
 _symmetry_equiv_pos_site_id
 _symmetry_equiv_pos_as_xyz
  1  'x, y, z'
loop_
 _atom_site_type_symbol
 _atom_site_label
 _atom_site_symmetry_multiplicity
 _atom_site_fract_x
 _atom_site_fract_y
 _atom_site_fract_z
 _atom_site_occupancy
  Ho  Ho0  1  0.872155  0.743975  0.735761  1
  Ho  Ho1  1  0.539291  0.465227  0.446399  1
  Ho  Ho2  1  0.921841  0.462408  0.446688  1
  Ho  Ho3  1  0.538926  0.076848  0.447717  1
  Ho  Ho4  1  0.466088  0.538569  0.941752  1
  Ho  Ho5  1  0.075774  0.537884  0.945517  1
  Ho  Ho6  1  0.463673  0.925769  0.947046  1
  Th  Th7  1  0.332125  0.666579  0.471182  1
  Th  Th8  1  0.668846  0.332840  0.971835  1
  Th  Th9  1  0.126949  0.869503  0.236806  1
  Th  Th10  1  0.745278  0.873596  0.233153  1
  Th  Th11  1  0.126063  0.255506  0.231011  1
  Th  Th12  1  0.868605  0.126802  0.733882  1
  Th  Th13  1  0.256024  0.125341  0.733715  1
  Ir  Ir14  1  0.371084  0.186237  0.199053  1
  Ir  Ir15  1  0.811431  0.627744  0.197968  1
  Ir  Ir16  1  0.190202  0.814777  0.696159  1
  Ir  Ir17  1  0.622508  0.813458  0.692315  1
  Ir  Ir18  1  0.187872  0.371993  0.699328  1
  Os  Os19  1  0.815264  0.184950  0.196252  1
