# generated using pymatgen
data_Tb6CuSi4Rh
_symmetry_space_group_name_H-M   'P 1'
_cell_length_a   4.17920600
_cell_length_b   11.28627800
_cell_length_c   11.41496900
_cell_angle_alpha   90.00000000
_cell_angle_beta   90.00000000
_cell_angle_gamma   90.00000000
_symmetry_Int_Tables_number   1
_chemical_formula_structural   Tb6CuSi4Rh
_chemical_formula_sum   'Tb12 Cu2 Si8 Rh2'
_cell_volume   538.41761339
_cell_formula_units_Z   2
loop_
 _symmetry_equiv_pos_site_id
 _symmetry_equiv_pos_as_xyz
  1  'x, y, z'
loop_
 _atom_site_type_symbol
 _atom_site_label
 _atom_site_symmetry_multiplicity
 _atom_site_fract_x
 _atom_site_fract_y
 _atom_site_fract_z
 _atom_site_occupancy
  Tb  Tb0  1  0.250000  0.058805  0.876605  1
  Tb  Tb1  1  0.250000  0.441195  0.376605  1
  Tb  Tb2  1  0.750000  0.938037  0.119453  1
  Tb  Tb3  1  0.750000  0.561963  0.619453  1
  Tb  Tb4  1  0.250000  0.120474  0.555967  1
  Tb  Tb5  1  0.250000  0.379526  0.055967  1
  Tb  Tb6  1  0.750000  0.875128  0.442094  1
  Tb  Tb7  1  0.750000  0.624872  0.942094  1
  Tb  Tb8  1  0.250000  0.803638  0.713296  1
  Tb  Tb9  1  0.250000  0.696362  0.213296  1
  Tb  Tb10  1  0.750000  0.196290  0.290020  1
  Tb  Tb11  1  0.750000  0.303710  0.790020  1
  Cu  Cu12  1  0.250000  0.363505  0.630594  1
  Cu  Cu13  1  0.250000  0.136495  0.130594  1
  Si  Si14  1  0.250000  0.813250  0.981757  1
  Si  Si15  1  0.250000  0.686750  0.481757  1
  Si  Si16  1  0.750000  0.187401  0.025127  1
  Si  Si17  1  0.750000  0.312599  0.525127  1
  Si  Si18  1  0.250000  0.496213  0.804898  1
  Si  Si19  1  0.250000  0.003787  0.304898  1
  Si  Si20  1  0.750000  0.501345  0.191635  1
  Si  Si21  1  0.750000  0.998655  0.691635  1
  Rh  Rh22  1  0.750000  0.633257  0.368553  1
  Rh  Rh23  1  0.750000  0.866743  0.868553  1
