# generated using pymatgen
data_Pr4Ho5ScPt8
_symmetry_space_group_name_H-M   'P 1'
_cell_length_a   7.76295400
_cell_length_b   7.67981500
_cell_length_c   14.44701100
_cell_angle_alpha   90.00000000
_cell_angle_beta   90.00000000
_cell_angle_gamma   90.00000000
_symmetry_Int_Tables_number   1
_chemical_formula_structural   Pr4Ho5ScPt8
_chemical_formula_sum   'Pr8 Ho10 Sc2 Pt16'
_cell_volume   861.30263243
_cell_formula_units_Z   2
loop_
 _symmetry_equiv_pos_site_id
 _symmetry_equiv_pos_as_xyz
  1  'x, y, z'
loop_
 _atom_site_type_symbol
 _atom_site_label
 _atom_site_symmetry_multiplicity
 _atom_site_fract_x
 _atom_site_fract_y
 _atom_site_fract_z
 _atom_site_occupancy
  Pr  Pr0  1  0.019241  0.172306  0.400203  1
  Pr  Pr1  1  0.513940  0.321994  0.400183  1
  Pr  Pr2  1  0.480759  0.672306  0.900203  1
  Pr  Pr3  1  0.480759  0.672306  0.599797  1
  Pr  Pr4  1  0.986060  0.821994  0.599817  1
  Pr  Pr5  1  0.986060  0.821994  0.900183  1
  Pr  Pr6  1  0.513940  0.321994  0.099817  1
  Pr  Pr7  1  0.019241  0.172306  0.099797  1
  Ho  Ho8  1  0.328998  0.167430  0.622205  1
  Ho  Ho9  1  0.666445  0.837365  0.377945  1
  Ho  Ho10  1  0.663933  0.997816  0.750000  1
  Ho  Ho11  1  0.171002  0.667430  0.377795  1
  Ho  Ho12  1  0.833555  0.337365  0.877945  1
  Ho  Ho13  1  0.833555  0.337365  0.622055  1
  Ho  Ho14  1  0.836067  0.497816  0.250000  1
  Ho  Ho15  1  0.328998  0.167430  0.877795  1
  Ho  Ho16  1  0.171002  0.667430  0.122205  1
  Ho  Ho17  1  0.666445  0.837365  0.122055  1
  Sc  Sc18  1  0.336023  0.000416  0.250000  1
  Sc  Sc19  1  0.163977  0.500416  0.750000  1
  Pt  Pt20  1  0.291673  0.861219  0.750000  1
  Pt  Pt21  1  0.464636  0.633134  0.250000  1
  Pt  Pt22  1  0.035364  0.133134  0.750000  1
  Pt  Pt23  1  0.531087  0.371849  0.750000  1
  Pt  Pt24  1  0.165073  0.463120  0.547569  1
  Pt  Pt25  1  0.968913  0.871849  0.250000  1
  Pt  Pt26  1  0.703103  0.133527  0.250000  1
  Pt  Pt27  1  0.834335  0.538805  0.046339  1
  Pt  Pt28  1  0.334927  0.963120  0.047569  1
  Pt  Pt29  1  0.165073  0.463120  0.952431  1
  Pt  Pt30  1  0.665665  0.038805  0.546339  1
  Pt  Pt31  1  0.334927  0.963120  0.452431  1
  Pt  Pt32  1  0.834335  0.538805  0.453661  1
  Pt  Pt33  1  0.796897  0.633527  0.750000  1
  Pt  Pt34  1  0.208327  0.361219  0.250000  1
  Pt  Pt35  1  0.665665  0.038805  0.953661  1
