# generated using pymatgen
data_Dy4Co5Si10Os
_symmetry_space_group_name_H-M   'P 1'
_cell_length_a   5.55727233
_cell_length_b   7.94670226
_cell_length_c   7.94670293
_cell_angle_alpha   73.62880342
_cell_angle_beta   69.53354033
_cell_angle_gamma   69.53353764
_symmetry_Int_Tables_number   1
_chemical_formula_structural   Dy4Co5Si10Os
_chemical_formula_sum   'Dy4 Co5 Si10 Os1'
_cell_volume   302.90064480
_cell_formula_units_Z   1
loop_
 _symmetry_equiv_pos_site_id
 _symmetry_equiv_pos_as_xyz
  1  'x, y, z'
loop_
 _atom_site_type_symbol
 _atom_site_label
 _atom_site_symmetry_multiplicity
 _atom_site_fract_x
 _atom_site_fract_y
 _atom_site_fract_z
 _atom_site_occupancy
  Dy  Dy0  1  0.877897  0.867607  0.401136  1
  Dy  Dy1  1  0.146638  0.132393  0.598864  1
  Dy  Dy2  1  0.353362  0.401136  0.867607  1
  Dy  Dy3  1  0.622103  0.598864  0.132393  1
  Co  Co4  1  0.750000  0.000000  0.000000  1
  Co  Co5  1  0.653233  0.256402  0.464889  1
  Co  Co6  1  0.374526  0.743598  0.535111  1
  Co  Co7  1  0.125474  0.464889  0.256402  1
  Co  Co8  1  0.846767  0.535111  0.743598  1
  Si  Si9  1  0.250000  0.500000  0.500000  1
  Si  Si10  1  0.750000  0.500000  0.500000  1
  Si  Si11  1  0.027716  0.222284  0.222284  1
  Si  Si12  1  0.472284  0.777716  0.777716  1
  Si  Si13  1  0.978777  0.771223  0.771223  1
  Si  Si14  1  0.521223  0.228777  0.228777  1
  Si  Si15  1  0.618612  0.062448  0.734876  1
  Si  Si16  1  0.415934  0.937552  0.265124  1
  Si  Si17  1  0.084066  0.734876  0.062448  1
  Si  Si18  1  0.881388  0.265124  0.937552  1
  Os  Os19  1  0.250000  0.000000  0.000000  1
