# generated using pymatgen
data_Ca3Mg3Ga2As
_symmetry_space_group_name_H-M   'P 1'
_cell_length_a   7.62427000
_cell_length_b   7.62427093
_cell_length_c   4.26335800
_cell_angle_alpha   90.00000000
_cell_angle_beta   90.00000000
_cell_angle_gamma   120.00000465
_symmetry_Int_Tables_number   1
_chemical_formula_structural   Ca3Mg3Ga2As
_chemical_formula_sum   'Ca3 Mg3 Ga2 As1'
_cell_volume   214.62435453
_cell_formula_units_Z   1
loop_
 _symmetry_equiv_pos_site_id
 _symmetry_equiv_pos_as_xyz
  1  'x, y, z'
loop_
 _atom_site_type_symbol
 _atom_site_label
 _atom_site_symmetry_multiplicity
 _atom_site_fract_x
 _atom_site_fract_y
 _atom_site_fract_z
 _atom_site_occupancy
  Ca  Ca0  1  0.417239  0.004680  0.500000  1
  Ca  Ca1  1  0.995320  0.412559  0.500000  1
  Ca  Ca2  1  0.587440  0.582760  0.500000  1
  Mg  Mg3  1  0.747860  0.994985  0.000000  1
  Mg  Mg4  1  0.247125  0.252140  0.000000  1
  Mg  Mg5  1  0.005015  0.752876  0.000000  1
  Ga  Ga6  1  0.333333  0.666666  0.000000  1
  Ga  Ga7  1  0.000000  0.000000  0.500000  1
  As  As8  1  0.666667  0.333334  0.000000  1
