# generated using pymatgen
data_Nd4Ga5Ir8Rh
_symmetry_space_group_name_H-M   'P 1'
_cell_length_a   12.33235320
_cell_length_b   12.33338023
_cell_length_c   12.33235359
_cell_angle_alpha   26.44543455
_cell_angle_beta   26.49611846
_cell_angle_gamma   26.44543692
_symmetry_Int_Tables_number   1
_chemical_formula_structural   Nd4Ga5Ir8Rh
_chemical_formula_sum   'Nd4 Ga5 Ir8 Rh1'
_cell_volume   328.29001045
_cell_formula_units_Z   1
loop_
 _symmetry_equiv_pos_site_id
 _symmetry_equiv_pos_as_xyz
  1  'x, y, z'
loop_
 _atom_site_type_symbol
 _atom_site_label
 _atom_site_symmetry_multiplicity
 _atom_site_fract_x
 _atom_site_fract_y
 _atom_site_fract_z
 _atom_site_occupancy
  Nd  Nd0  1  0.950769  0.950654  0.950769  1
  Nd  Nd1  1  0.049231  0.049346  0.049231  1
  Nd  Nd2  1  0.853335  0.853385  0.853335  1
  Nd  Nd3  1  0.146665  0.146615  0.146665  1
  Ga  Ga4  1  0.500000  0.500000  0.500000  1
  Ga  Ga5  1  0.721247  0.721276  0.721247  1
  Ga  Ga6  1  0.278753  0.278724  0.278753  1
  Ga  Ga7  1  0.611295  0.611181  0.611295  1
  Ga  Ga8  1  0.388705  0.388819  0.388705  1
  Ir  Ir9  1  0.500000  0.500000  0.000000  1
  Ir  Ir10  1  0.000000  0.500000  0.500000  1
  Ir  Ir11  1  0.387211  0.896138  0.387211  1
  Ir  Ir12  1  0.387312  0.386983  0.895847  1
  Ir  Ir13  1  0.895847  0.386983  0.387312  1
  Ir  Ir14  1  0.612789  0.103862  0.612789  1
  Ir  Ir15  1  0.612688  0.613017  0.104153  1
  Ir  Ir16  1  0.104153  0.613017  0.612688  1
  Rh  Rh17  1  0.500000  0.000000  0.500000  1
