# generated using pymatgen
data_V12Ga3Re
_symmetry_space_group_name_H-M   'P 1'
_cell_length_a   4.78906300
_cell_length_b   4.80530400
_cell_length_c   9.59195400
_cell_angle_alpha   90.00000000
_cell_angle_beta   90.00000000
_cell_angle_gamma   90.00000000
_symmetry_Int_Tables_number   1
_chemical_formula_structural   V12Ga3Re
_chemical_formula_sum   'V12 Ga3 Re1'
_cell_volume   220.73871264
_cell_formula_units_Z   1
loop_
 _symmetry_equiv_pos_site_id
 _symmetry_equiv_pos_as_xyz
  1  'x, y, z'
loop_
 _atom_site_type_symbol
 _atom_site_label
 _atom_site_symmetry_multiplicity
 _atom_site_fract_x
 _atom_site_fract_y
 _atom_site_fract_z
 _atom_site_occupancy
  V  V0  1  0.500000  0.000000  0.378089  1
  V  V1  1  0.500000  0.000000  0.872915  1
  V  V2  1  0.750947  0.500000  0.000000  1
  V  V3  1  0.753779  0.500000  0.500000  1
  V  V4  1  0.000000  0.755452  0.252987  1
  V  V5  1  0.000000  0.755452  0.747013  1
  V  V6  1  0.500000  0.000000  0.127085  1
  V  V7  1  0.500000  0.000000  0.621911  1
  V  V8  1  0.249053  0.500000  0.000000  1
  V  V9  1  0.246221  0.500000  0.500000  1
  V  V10  1  0.000000  0.244548  0.252987  1
  V  V11  1  0.000000  0.244548  0.747013  1
  Ga  Ga12  1  0.500000  0.500000  0.249556  1
  Ga  Ga13  1  0.500000  0.500000  0.750444  1
  Ga  Ga14  1  0.000000  0.000000  0.000000  1
  Re  Re15  1  0.000000  0.000000  0.500000  1
