# generated using pymatgen
data_Ho9LuIn8(NiAu)2
_symmetry_space_group_name_H-M   'P 1'
_cell_length_a   8.12042500
_cell_length_b   18.18985497
_cell_length_c   3.57960200
_cell_angle_alpha   90.00000000
_cell_angle_beta   90.00000000
_cell_angle_gamma   90.04545472
_symmetry_Int_Tables_number   1
_chemical_formula_structural   Ho9LuIn8(NiAu)2
_chemical_formula_sum   'Ho9 Lu1 In8 Ni2 Au2'
_cell_volume   528.74052938
_cell_formula_units_Z   1
loop_
 _symmetry_equiv_pos_site_id
 _symmetry_equiv_pos_as_xyz
  1  'x, y, z'
loop_
 _atom_site_type_symbol
 _atom_site_label
 _atom_site_symmetry_multiplicity
 _atom_site_fract_x
 _atom_site_fract_y
 _atom_site_fract_z
 _atom_site_occupancy
  Ho  Ho0  1  0.499046  0.499891  0.000000  1
  Ho  Ho1  1  0.000956  0.000723  0.000000  1
  Ho  Ho2  1  0.235133  0.715854  0.000000  1
  Ho  Ho3  1  0.771745  0.775334  0.000000  1
  Ho  Ho4  1  0.228574  0.224712  0.000000  1
  Ho  Ho5  1  0.622857  0.080658  0.000000  1
  Ho  Ho6  1  0.378633  0.920283  0.000000  1
  Ho  Ho7  1  0.883327  0.585445  0.000000  1
  Ho  Ho8  1  0.113955  0.413352  0.000000  1
  Lu  Lu9  1  0.766232  0.283363  0.000000  1
  In  In10  1  0.710891  0.930833  0.500000  1
  In  In11  1  0.292003  0.070041  0.500000  1
  In  In12  1  0.792470  0.431980  0.500000  1
  In  In13  1  0.204779  0.566143  0.500000  1
  In  In14  1  0.576927  0.646862  0.500000  1
  In  In15  1  0.423289  0.352987  0.500000  1
  In  In16  1  0.926709  0.151649  0.500000  1
  In  In17  1  0.073435  0.849377  0.500000  1
  Ni  Ni18  1  0.969606  0.694353  0.500000  1
  Ni  Ni19  1  0.025530  0.304687  0.500000  1
  Au  Au20  1  0.535750  0.200954  0.500000  1
  Au  Au21  1  0.468152  0.800519  0.500000  1
