# generated using pymatgen
data_Er3Mn8CoP6
_symmetry_space_group_name_H-M   'P 1'
_cell_length_a   3.62091900
_cell_length_b   10.86096400
_cell_length_c   12.61061200
_cell_angle_alpha   90.00000000
_cell_angle_beta   90.00000000
_cell_angle_gamma   90.00000000
_symmetry_Int_Tables_number   1
_chemical_formula_structural   Er3Mn8CoP6
_chemical_formula_sum   'Er6 Mn16 Co2 P12'
_cell_volume   495.93338805
_cell_formula_units_Z   2
loop_
 _symmetry_equiv_pos_site_id
 _symmetry_equiv_pos_as_xyz
  1  'x, y, z'
loop_
 _atom_site_type_symbol
 _atom_site_label
 _atom_site_symmetry_multiplicity
 _atom_site_fract_x
 _atom_site_fract_y
 _atom_site_fract_z
 _atom_site_occupancy
  Er  Er0  1  0.000000  0.500000  0.531701  1
  Er  Er1  1  0.500000  0.000000  0.468299  1
  Er  Er2  1  0.500000  0.823127  0.206847  1
  Er  Er3  1  0.500000  0.176873  0.206847  1
  Er  Er4  1  0.000000  0.676873  0.793153  1
  Er  Er5  1  0.000000  0.323127  0.793153  1
  Mn  Mn6  1  0.500000  0.500000  0.165571  1
  Mn  Mn7  1  0.000000  0.000000  0.834429  1
  Mn  Mn8  1  0.000000  0.500000  0.992548  1
  Mn  Mn9  1  0.500000  0.000000  0.007452  1
  Mn  Mn10  1  0.500000  0.332816  0.996777  1
  Mn  Mn11  1  0.500000  0.667184  0.996777  1
  Mn  Mn12  1  0.000000  0.167184  0.003223  1
  Mn  Mn13  1  0.000000  0.832816  0.003223  1
  Mn  Mn14  1  0.500000  0.298133  0.432503  1
  Mn  Mn15  1  0.500000  0.701867  0.432503  1
  Mn  Mn16  1  0.000000  0.201867  0.567497  1
  Mn  Mn17  1  0.000000  0.798133  0.567497  1
  Mn  Mn18  1  0.500000  0.880724  0.702598  1
  Mn  Mn19  1  0.500000  0.119276  0.702598  1
  Mn  Mn20  1  0.000000  0.619276  0.297402  1
  Mn  Mn21  1  0.000000  0.380724  0.297402  1
  Co  Co22  1  0.500000  0.500000  0.705149  1
  Co  Co23  1  0.000000  0.000000  0.294851  1
  P  P24  1  0.500000  0.500000  0.880029  1
  P  P25  1  0.000000  0.000000  0.119971  1
  P  P26  1  0.500000  0.500000  0.359362  1
  P  P27  1  0.000000  0.000000  0.640638  1
  P  P28  1  0.500000  0.318884  0.618941  1
  P  P29  1  0.500000  0.681116  0.618941  1
  P  P30  1  0.000000  0.181116  0.381059  1
  P  P31  1  0.000000  0.818884  0.381059  1
  P  P32  1  0.500000  0.844699  0.884705  1
  P  P33  1  0.500000  0.155301  0.884705  1
  P  P34  1  0.000000  0.655301  0.115295  1
  P  P35  1  0.000000  0.344699  0.115295  1
