# generated using pymatgen
data_TbErNb3P7Rh9
_symmetry_space_group_name_H-M   'P 1'
_cell_length_a   3.92472303
_cell_length_b   9.64800283
_cell_length_c   9.64399059
_cell_angle_alpha   119.99505874
_cell_angle_beta   90.01166761
_cell_angle_gamma   90.00041125
_symmetry_Int_Tables_number   1
_chemical_formula_structural   TbErNb3P7Rh9
_chemical_formula_sum   'Tb1 Er1 Nb3 P7 Rh9'
_cell_volume   316.26814785
_cell_formula_units_Z   1
loop_
 _symmetry_equiv_pos_site_id
 _symmetry_equiv_pos_as_xyz
  1  'x, y, z'
loop_
 _atom_site_type_symbol
 _atom_site_label
 _atom_site_symmetry_multiplicity
 _atom_site_fract_x
 _atom_site_fract_y
 _atom_site_fract_z
 _atom_site_occupancy
  Tb  Tb0  1  0.261831  0.666729  0.333462  1
  Er  Er1  1  0.762121  0.333104  0.666317  1
  Nb  Nb2  1  0.761909  0.095426  0.873985  1
  Nb  Nb3  1  0.761904  0.125783  0.221283  1
  Nb  Nb4  1  0.761716  0.778404  0.904280  1
  P  P5  1  0.261947  0.000187  0.000112  1
  P  P6  1  0.761807  0.877040  0.590325  1
  P  P7  1  0.761819  0.409834  0.286708  1
  P  P8  1  0.761828  0.713175  0.123325  1
  P  P9  1  0.261877  0.117127  0.416832  1
  P  P10  1  0.261810  0.583097  0.700150  1
  P  P11  1  0.261851  0.299874  0.882745  1
  Rh  Rh12  1  0.261814  0.883303  0.162784  1
  Rh  Rh13  1  0.261886  0.837213  0.720540  1
  Rh  Rh14  1  0.261979  0.279625  0.116959  1
  Rh  Rh15  1  0.761949  0.609599  0.556582  1
  Rh  Rh16  1  0.761778  0.443259  0.052794  1
  Rh  Rh17  1  0.762135  0.946895  0.390313  1
  Rh  Rh18  1  0.262184  0.367428  0.440001  1
  Rh  Rh19  1  0.261686  0.560195  0.927366  1
  Rh  Rh20  1  0.262171  0.072705  0.633135  1
