# generated using pymatgen
data_Eu8Ga3
_symmetry_space_group_name_H-M   'P 1'
_cell_length_a   9.43081763
_cell_length_b   9.48111578
_cell_length_c   9.57119000
_cell_angle_alpha   99.12743201
_cell_angle_beta   101.19418611
_cell_angle_gamma   119.47931368
_symmetry_Int_Tables_number   1
_chemical_formula_structural   Eu8Ga3
_chemical_formula_sum   'Eu16 Ga6'
_cell_volume   697.71277006
_cell_formula_units_Z   2
loop_
 _symmetry_equiv_pos_site_id
 _symmetry_equiv_pos_as_xyz
  1  'x, y, z'
loop_
 _atom_site_type_symbol
 _atom_site_label
 _atom_site_symmetry_multiplicity
 _atom_site_fract_x
 _atom_site_fract_y
 _atom_site_fract_z
 _atom_site_occupancy
  Eu  Eu0  1  0.960419  0.060177  0.667225  1
  Eu  Eu1  1  0.039581  0.939823  0.332775  1
  Eu  Eu2  1  0.919661  0.767493  0.895080  1
  Eu  Eu3  1  0.080339  0.232507  0.104920  1
  Eu  Eu4  1  0.534148  0.699301  0.647104  1
  Eu  Eu5  1  0.465852  0.300699  0.352896  1
  Eu  Eu6  1  0.701734  0.494912  0.112045  1
  Eu  Eu7  1  0.298266  0.505088  0.887955  1
  Eu  Eu8  1  0.881024  0.401141  0.646965  1
  Eu  Eu9  1  0.118976  0.598859  0.353035  1
  Eu  Eu10  1  0.673410  0.121154  0.887371  1
  Eu  Eu11  1  0.326590  0.878846  0.112629  1
  Eu  Eu12  1  0.540556  0.710962  0.294726  1
  Eu  Eu13  1  0.459444  0.289038  0.705274  1
  Eu  Eu14  1  0.769295  0.151815  0.295772  1
  Eu  Eu15  1  0.230705  0.848185  0.704228  1
  Ga  Ga16  1  0.828896  0.665297  0.499995  1
  Ga  Ga17  1  0.171104  0.334703  0.500005  1
  Ga  Ga18  1  0.675098  0.839078  0.027570  1
  Ga  Ga19  1  0.324902  0.160922  0.972430  1
  Ga  Ga20  1  0.000000  0.500000  0.000000  1
  Ga  Ga21  1  0.500000  0.000000  0.500000  1
