# generated using pymatgen
data_TaTi3(ReB2)2
_symmetry_space_group_name_H-M   'P 1'
_cell_length_a   5.96459001
_cell_length_b   5.96459001
_cell_length_c   3.22262900
_cell_angle_alpha   90.00000000
_cell_angle_beta   90.00000000
_cell_angle_gamma   89.72630593
_symmetry_Int_Tables_number   1
_chemical_formula_structural   TaTi3(ReB2)2
_chemical_formula_sum   'Ta1 Ti3 Re2 B4'
_cell_volume   114.64801767
_cell_formula_units_Z   1
loop_
 _symmetry_equiv_pos_site_id
 _symmetry_equiv_pos_as_xyz
  1  'x, y, z'
loop_
 _atom_site_type_symbol
 _atom_site_label
 _atom_site_symmetry_multiplicity
 _atom_site_fract_x
 _atom_site_fract_y
 _atom_site_fract_z
 _atom_site_occupancy
  Ta  Ta0  1  0.821112  0.678888  0.500000  1
  Ti  Ti1  1  0.321457  0.822364  0.500000  1
  Ti  Ti2  1  0.179643  0.320357  0.500000  1
  Ti  Ti3  1  0.677636  0.178543  0.500000  1
  Re  Re4  1  0.496606  0.497891  0.000000  1
  Re  Re5  1  0.002109  0.003394  0.000000  1
  B  B6  1  0.112289  0.608063  0.000000  1
  B  B7  1  0.606305  0.893695  0.000000  1
  B  B8  1  0.390905  0.109095  0.000000  1
  B  B9  1  0.891937  0.387711  0.000000  1
