# generated using pymatgen
data_Dy3Tm2GePb3
_symmetry_space_group_name_H-M   'P 1'
_cell_length_a   9.30894400
_cell_length_b   9.30894401
_cell_length_c   6.53821900
_cell_angle_alpha   90.00000000
_cell_angle_beta   90.00000000
_cell_angle_gamma   119.99999996
_symmetry_Int_Tables_number   1
_chemical_formula_structural   Dy3Tm2GePb3
_chemical_formula_sum   'Dy6 Tm4 Ge2 Pb6'
_cell_volume   490.67161061
_cell_formula_units_Z   2
loop_
 _symmetry_equiv_pos_site_id
 _symmetry_equiv_pos_as_xyz
  1  'x, y, z'
loop_
 _atom_site_type_symbol
 _atom_site_label
 _atom_site_symmetry_multiplicity
 _atom_site_fract_x
 _atom_site_fract_y
 _atom_site_fract_z
 _atom_site_occupancy
  Dy  Dy0  1  0.252120  0.000000  0.250000  1
  Dy  Dy1  1  0.747880  0.000000  0.750000  1
  Dy  Dy2  1  0.000000  0.252120  0.250000  1
  Dy  Dy3  1  0.000000  0.747880  0.750000  1
  Dy  Dy4  1  0.747880  0.747880  0.250000  1
  Dy  Dy5  1  0.252120  0.252120  0.750000  1
  Tm  Tm6  1  0.333333  0.666667  0.000000  1
  Tm  Tm7  1  0.666667  0.333333  0.000000  1
  Tm  Tm8  1  0.666667  0.333333  0.500000  1
  Tm  Tm9  1  0.333333  0.666667  0.500000  1
  Ge  Ge10  1  0.000000  0.000000  0.000000  1
  Ge  Ge11  1  0.000000  0.000000  0.500000  1
  Pb  Pb12  1  0.606961  0.000000  0.250000  1
  Pb  Pb13  1  0.393039  0.000000  0.750000  1
  Pb  Pb14  1  0.000000  0.606961  0.250000  1
  Pb  Pb15  1  0.000000  0.393039  0.750000  1
  Pb  Pb16  1  0.393039  0.393039  0.250000  1
  Pb  Pb17  1  0.606961  0.606961  0.750000  1
