# generated using pymatgen
data_Y4GaGe5Ir7
_symmetry_space_group_name_H-M   'P 1'
_cell_length_a   7.29502398
_cell_length_b   7.29502503
_cell_length_c   7.29502401
_cell_angle_alpha   109.62147035
_cell_angle_beta   109.62146525
_cell_angle_gamma   109.17114411
_symmetry_Int_Tables_number   1
_chemical_formula_structural   Y4GaGe5Ir7
_chemical_formula_sum   'Y4 Ga1 Ge5 Ir7'
_cell_volume   298.84734883
_cell_formula_units_Z   1
loop_
 _symmetry_equiv_pos_site_id
 _symmetry_equiv_pos_as_xyz
  1  'x, y, z'
loop_
 _atom_site_type_symbol
 _atom_site_label
 _atom_site_symmetry_multiplicity
 _atom_site_fract_x
 _atom_site_fract_y
 _atom_site_fract_z
 _atom_site_occupancy
  Y  Y0  1  0.998456  0.998456  0.502083  1
  Y  Y1  1  0.998456  0.496373  0.000000  1
  Y  Y2  1  0.496373  0.998456  0.000000  1
  Y  Y3  1  0.496373  0.496373  0.497917  1
  Ga  Ga4  1  0.685395  0.685395  0.000000  1
  Ge  Ge5  1  0.315978  0.998361  0.317617  1
  Ge  Ge6  1  0.998361  0.315978  0.317617  1
  Ge  Ge7  1  0.325200  0.325200  0.000000  1
  Ge  Ge8  1  0.680744  0.998361  0.682383  1
  Ge  Ge9  1  0.998361  0.680744  0.682383  1
  Ir  Ir10  1  0.749014  0.249014  0.500000  1
  Ir  Ir11  1  0.751393  0.500150  0.251243  1
  Ir  Ir12  1  0.500150  0.248907  0.748757  1
  Ir  Ir13  1  0.248907  0.500150  0.748757  1
  Ir  Ir14  1  0.249014  0.749014  0.500000  1
  Ir  Ir15  1  0.500150  0.751393  0.251243  1
  Ir  Ir16  1  0.007673  0.007673  0.000000  1
