# generated using pymatgen
data_LuH2Cl
_symmetry_space_group_name_H-M   'P 1'
_cell_length_a   10.18200890
_cell_length_b   10.18200870
_cell_length_c   10.18200927
_cell_angle_alpha   20.39251823
_cell_angle_beta   20.39252010
_cell_angle_gamma   20.39251624
_symmetry_Int_Tables_number   1
_chemical_formula_structural   LuH2Cl
_chemical_formula_sum   'Lu2 H4 Cl2'
_cell_volume   112.16834625
_cell_formula_units_Z   2
loop_
 _symmetry_equiv_pos_site_id
 _symmetry_equiv_pos_as_xyz
  1  'x, y, z'
loop_
 _atom_site_type_symbol
 _atom_site_label
 _atom_site_symmetry_multiplicity
 _atom_site_fract_x
 _atom_site_fract_y
 _atom_site_fract_z
 _atom_site_occupancy
  Lu  Lu0  1  0.114146  0.114146  0.114146  1
  Lu  Lu1  1  0.885853  0.885853  0.885854  1
  H  H2  1  0.186106  0.186106  0.186106  1
  H  H3  1  0.454180  0.454180  0.454181  1
  H  H4  1  0.545820  0.545820  0.545820  1
  H  H5  1  0.813893  0.813893  0.813894  1
  Cl  Cl6  1  0.277647  0.277647  0.277647  1
  Cl  Cl7  1  0.722353  0.722353  0.722353  1
