# generated using pymatgen
data_Ba2InPtI
_symmetry_space_group_name_H-M   'P 1'
_cell_length_a   4.75972300
_cell_length_b   4.75972409
_cell_length_c   19.31700300
_cell_angle_alpha   90.00000000
_cell_angle_beta   90.00000000
_cell_angle_gamma   119.99999939
_symmetry_Int_Tables_number   1
_chemical_formula_structural   Ba2InPtI
_chemical_formula_sum   'Ba4 In2 Pt2 I2'
_cell_volume   378.99531269
_cell_formula_units_Z   2
loop_
 _symmetry_equiv_pos_site_id
 _symmetry_equiv_pos_as_xyz
  1  'x, y, z'
loop_
 _atom_site_type_symbol
 _atom_site_label
 _atom_site_symmetry_multiplicity
 _atom_site_fract_x
 _atom_site_fract_y
 _atom_site_fract_z
 _atom_site_occupancy
  Ba  Ba0  1  0.000000  0.000000  0.114240  1
  Ba  Ba1  1  0.000000  0.000000  0.385760  1
  Ba  Ba2  1  0.000000  0.000000  0.615519  1
  Ba  Ba3  1  0.000000  0.000000  0.884481  1
  In  In4  1  0.666666  0.333334  0.501633  1
  In  In5  1  0.666666  0.333334  0.998367  1
  Pt  Pt6  1  0.333334  0.666667  0.001478  1
  Pt  Pt7  1  0.333334  0.666667  0.498522  1
  I  I8  1  0.666666  0.333334  0.250000  1
  I  I9  1  0.333334  0.666667  0.750000  1
