# generated using pymatgen
data_Y2Si7(PtRh)6
_symmetry_space_group_name_H-M   'P 1'
_cell_length_a   9.84562700
_cell_length_b   9.84562616
_cell_length_c   3.91247700
_cell_angle_alpha   90.00000000
_cell_angle_beta   90.00000000
_cell_angle_gamma   119.99999273
_symmetry_Int_Tables_number   1
_chemical_formula_structural   Y2Si7(PtRh)6
_chemical_formula_sum   'Y2 Si7 Pt6 Rh6'
_cell_volume   328.44993582
_cell_formula_units_Z   1
loop_
 _symmetry_equiv_pos_site_id
 _symmetry_equiv_pos_as_xyz
  1  'x, y, z'
loop_
 _atom_site_type_symbol
 _atom_site_label
 _atom_site_symmetry_multiplicity
 _atom_site_fract_x
 _atom_site_fract_y
 _atom_site_fract_z
 _atom_site_occupancy
  Y  Y0  1  0.333333  0.666667  0.749047  1
  Y  Y1  1  0.666667  0.333333  0.250953  1
  Si  Si2  1  0.000000  0.000000  0.500000  1
  Si  Si3  1  0.395256  0.283380  0.750355  1
  Si  Si4  1  0.716620  0.111877  0.750355  1
  Si  Si5  1  0.888123  0.604744  0.750355  1
  Si  Si6  1  0.604744  0.716620  0.249645  1
  Si  Si7  1  0.283380  0.888123  0.249645  1
  Si  Si8  1  0.111877  0.395256  0.249645  1
  Pt  Pt9  1  0.452164  0.071143  0.751552  1
  Pt  Pt10  1  0.928857  0.381021  0.751552  1
  Pt  Pt11  1  0.618979  0.547836  0.751552  1
  Pt  Pt12  1  0.547836  0.928857  0.248448  1
  Pt  Pt13  1  0.071143  0.618979  0.248448  1
  Pt  Pt14  1  0.381021  0.452164  0.248448  1
  Rh  Rh15  1  0.143435  0.262532  0.747251  1
  Rh  Rh16  1  0.737468  0.880903  0.747251  1
  Rh  Rh17  1  0.119097  0.856565  0.747251  1
  Rh  Rh18  1  0.856565  0.737468  0.252749  1
  Rh  Rh19  1  0.262532  0.119097  0.252749  1
  Rh  Rh20  1  0.880903  0.143435  0.252749  1
