# generated using pymatgen
data_Lu2Si2IrRu
_symmetry_space_group_name_H-M   'P 1'
_cell_length_a   4.21911600
_cell_length_b   6.78519000
_cell_length_c   7.25620600
_cell_angle_alpha   90.00000000
_cell_angle_beta   90.00000000
_cell_angle_gamma   90.00000000
_symmetry_Int_Tables_number   1
_chemical_formula_structural   Lu2Si2IrRu
_chemical_formula_sum   'Lu4 Si4 Ir2 Ru2'
_cell_volume   207.72706406
_cell_formula_units_Z   2
loop_
 _symmetry_equiv_pos_site_id
 _symmetry_equiv_pos_as_xyz
  1  'x, y, z'
loop_
 _atom_site_type_symbol
 _atom_site_label
 _atom_site_symmetry_multiplicity
 _atom_site_fract_x
 _atom_site_fract_y
 _atom_site_fract_z
 _atom_site_occupancy
  Lu  Lu0  1  0.750000  0.497706  0.812360  1
  Lu  Lu1  1  0.250000  0.002460  0.313570  1
  Lu  Lu2  1  0.750000  0.997706  0.687640  1
  Lu  Lu3  1  0.250000  0.502460  0.186430  1
  Si  Si4  1  0.250000  0.701362  0.613692  1
  Si  Si5  1  0.250000  0.201362  0.886308  1
  Si  Si6  1  0.750000  0.296894  0.391873  1
  Si  Si7  1  0.750000  0.796894  0.108127  1
  Ir  Ir8  1  0.750000  0.658879  0.435382  1
  Ir  Ir9  1  0.750000  0.158879  0.064618  1
  Ru  Ru10  1  0.250000  0.842700  0.937679  1
  Ru  Ru11  1  0.250000  0.342700  0.562321  1
