# generated using pymatgen
data_CaYNb3Co9As7
_symmetry_space_group_name_H-M   'P 1'
_cell_length_a   3.81456300
_cell_length_b   9.58052386
_cell_length_c   9.58052400
_cell_angle_alpha   120.00000050
_cell_angle_beta   90.00000000
_cell_angle_gamma   90.00000000
_symmetry_Int_Tables_number   1
_chemical_formula_structural   CaYNb3Co9As7
_chemical_formula_sum   'Ca1 Y1 Nb3 Co9 As7'
_cell_volume   303.21727560
_cell_formula_units_Z   1
loop_
 _symmetry_equiv_pos_site_id
 _symmetry_equiv_pos_as_xyz
  1  'x, y, z'
loop_
 _atom_site_type_symbol
 _atom_site_label
 _atom_site_symmetry_multiplicity
 _atom_site_fract_x
 _atom_site_fract_y
 _atom_site_fract_z
 _atom_site_occupancy
  Ca  Ca0  1  0.000000  0.666667  0.333333  1
  Y  Y1  1  0.500000  0.333333  0.666667  1
  Nb  Nb2  1  0.500000  0.775676  0.897276  1
  Nb  Nb3  1  0.500000  0.121601  0.224324  1
  Nb  Nb4  1  0.500000  0.102724  0.878399  1
  Co  Co5  1  0.000000  0.571917  0.936837  1
  Co  Co6  1  0.000000  0.364920  0.428083  1
  Co  Co7  1  0.000000  0.063163  0.635080  1
  Co  Co8  1  0.000000  0.877892  0.158526  1
  Co  Co9  1  0.000000  0.280634  0.122108  1
  Co  Co10  1  0.000000  0.841474  0.719366  1
  Co  Co11  1  0.500000  0.951507  0.386863  1
  Co  Co12  1  0.500000  0.435355  0.048493  1
  Co  Co13  1  0.500000  0.613137  0.564645  1
  As  As14  1  0.000000  0.000000  0.000000  1
  As  As15  1  0.500000  0.709042  0.126910  1
  As  As16  1  0.500000  0.417869  0.290958  1
  As  As17  1  0.500000  0.873090  0.582131  1
  As  As18  1  0.000000  0.580351  0.690941  1
  As  As19  1  0.000000  0.110591  0.419649  1
  As  As20  1  0.000000  0.309059  0.889409  1
