# generated using pymatgen
data_K6Rb12AlGaSb8
_symmetry_space_group_name_H-M   'P 1'
_cell_length_a   10.93276100
_cell_length_b   10.93276096
_cell_length_c   11.37549200
_cell_angle_alpha   90.00000000
_cell_angle_beta   90.00000000
_cell_angle_gamma   119.99999710
_symmetry_Int_Tables_number   1
_chemical_formula_structural   K6Rb12AlGaSb8
_chemical_formula_sum   'K6 Rb12 Al1 Ga1 Sb8'
_cell_volume   1177.49898207
_cell_formula_units_Z   1
loop_
 _symmetry_equiv_pos_site_id
 _symmetry_equiv_pos_as_xyz
  1  'x, y, z'
loop_
 _atom_site_type_symbol
 _atom_site_label
 _atom_site_symmetry_multiplicity
 _atom_site_fract_x
 _atom_site_fract_y
 _atom_site_fract_z
 _atom_site_occupancy
  K  K0  1  0.237857  0.118929  0.750000  1
  K  K1  1  0.881071  0.118929  0.750000  1
  K  K2  1  0.762120  0.881060  0.250000  1
  K  K3  1  0.118940  0.237880  0.250000  1
  K  K4  1  0.118940  0.881060  0.250000  1
  K  K5  1  0.881071  0.762143  0.750000  1
  Rb  Rb6  1  0.208355  0.791645  0.956802  1
  Rb  Rb7  1  0.208355  0.416708  0.956802  1
  Rb  Rb8  1  0.583292  0.791645  0.956802  1
  Rb  Rb9  1  0.416583  0.208292  0.456785  1
  Rb  Rb10  1  0.791708  0.583417  0.043215  1
  Rb  Rb11  1  0.791708  0.208292  0.456785  1
  Rb  Rb12  1  0.791708  0.583417  0.456785  1
  Rb  Rb13  1  0.208355  0.791645  0.543198  1
  Rb  Rb14  1  0.583292  0.791645  0.543198  1
  Rb  Rb15  1  0.416583  0.208292  0.043215  1
  Rb  Rb16  1  0.791708  0.208292  0.043215  1
  Rb  Rb17  1  0.208355  0.416708  0.543198  1
  Al  Al18  1  0.666667  0.333333  0.750000  1
  Ga  Ga19  1  0.333333  0.666667  0.250000  1
  Sb  Sb20  1  0.000000  0.000000  0.999972  1
  Sb  Sb21  1  0.048372  0.524186  0.250000  1
  Sb  Sb22  1  0.475814  0.951628  0.250000  1
  Sb  Sb23  1  0.524411  0.048821  0.750000  1
  Sb  Sb24  1  0.524411  0.475589  0.750000  1
  Sb  Sb25  1  0.000000  0.000000  0.500028  1
  Sb  Sb26  1  0.475814  0.524186  0.250000  1
  Sb  Sb27  1  0.951179  0.475589  0.750000  1
