# generated using pymatgen
data_Tb2Pa2Cu3Sb8
_symmetry_space_group_name_H-M   'P 1'
_cell_length_a   10.57486614
_cell_length_b   10.57486635
_cell_length_c   10.56360357
_cell_angle_alpha   146.45339181
_cell_angle_beta   146.45339327
_cell_angle_gamma   48.31018102
_symmetry_Int_Tables_number   1
_chemical_formula_structural   Tb2Pa2Cu3Sb8
_chemical_formula_sum   'Tb2 Pa2 Cu3 Sb8'
_cell_volume   359.06159768
_cell_formula_units_Z   1
loop_
 _symmetry_equiv_pos_site_id
 _symmetry_equiv_pos_as_xyz
  1  'x, y, z'
loop_
 _atom_site_type_symbol
 _atom_site_label
 _atom_site_symmetry_multiplicity
 _atom_site_fract_x
 _atom_site_fract_y
 _atom_site_fract_z
 _atom_site_occupancy
  Tb  Tb0  1  0.628913  0.628913  0.511306  1
  Tb  Tb1  1  0.117607  0.117607  0.488694  1
  Pa  Pa2  1  0.369022  0.877210  0.000000  1
  Pa  Pa3  1  0.877210  0.369022  0.000000  1
  Cu  Cu4  1  0.999988  0.999988  0.000000  1
  Cu  Cu5  1  0.002005  0.502005  0.500000  1
  Cu  Cu6  1  0.502005  0.002005  0.500000  1
  Sb  Sb7  1  0.338783  0.338783  0.515648  1
  Sb  Sb8  1  0.823134  0.823134  0.484352  1
  Sb  Sb9  1  0.666828  0.183718  0.000000  1
  Sb  Sb10  1  0.183718  0.666828  0.000000  1
  Sb  Sb11  1  0.247849  0.247849  0.000000  1
  Sb  Sb12  1  0.746809  0.746809  0.000000  1
  Sb  Sb13  1  0.748064  0.248064  0.500000  1
  Sb  Sb14  1  0.248064  0.748064  0.500000  1
