# generated using pymatgen
data_Zr4V4MoOs3
_symmetry_space_group_name_H-M   'P 1'
_cell_length_a   5.20935601
_cell_length_b   5.20935523
_cell_length_c   8.68681000
_cell_angle_alpha   90.00000000
_cell_angle_beta   90.00000000
_cell_angle_gamma   120.30273252
_symmetry_Int_Tables_number   1
_chemical_formula_structural   Zr4V4MoOs3
_chemical_formula_sum   'Zr4 V4 Mo1 Os3'
_cell_volume   203.52887688
_cell_formula_units_Z   1
loop_
 _symmetry_equiv_pos_site_id
 _symmetry_equiv_pos_as_xyz
  1  'x, y, z'
loop_
 _atom_site_type_symbol
 _atom_site_label
 _atom_site_symmetry_multiplicity
 _atom_site_fract_x
 _atom_site_fract_y
 _atom_site_fract_z
 _atom_site_occupancy
  Zr  Zr0  1  0.334077  0.665923  0.438160  1
  Zr  Zr1  1  0.666749  0.333251  0.556491  1
  Zr  Zr2  1  0.666749  0.333251  0.943509  1
  Zr  Zr3  1  0.334077  0.665923  0.061840  1
  V  V4  1  0.831400  0.665768  0.250000  1
  V  V5  1  0.334232  0.168600  0.250000  1
  V  V6  1  0.169965  0.335847  0.750000  1
  V  V7  1  0.664153  0.830035  0.750000  1
  Mo  Mo8  1  0.173550  0.826450  0.750000  1
  Os  Os9  1  0.000650  0.999350  0.499909  1
  Os  Os10  1  0.000650  0.999350  0.000091  1
  Os  Os11  1  0.823749  0.176251  0.250000  1
