# generated using pymatgen
data_Dy2Mn6Co6P7
_symmetry_space_group_name_H-M   'P 1'
_cell_length_a   9.06048700
_cell_length_b   9.06048646
_cell_length_c   3.62967400
_cell_angle_alpha   90.00000000
_cell_angle_beta   90.00000000
_cell_angle_gamma   120.00000562
_symmetry_Int_Tables_number   1
_chemical_formula_structural   Dy2Mn6Co6P7
_chemical_formula_sum   'Dy2 Mn6 Co6 P7'
_cell_volume   258.04846788
_cell_formula_units_Z   1
loop_
 _symmetry_equiv_pos_site_id
 _symmetry_equiv_pos_as_xyz
  1  'x, y, z'
loop_
 _atom_site_type_symbol
 _atom_site_label
 _atom_site_symmetry_multiplicity
 _atom_site_fract_x
 _atom_site_fract_y
 _atom_site_fract_z
 _atom_site_occupancy
  Dy  Dy0  1  0.666667  0.333333  0.000000  1
  Dy  Dy1  1  0.333333  0.666667  0.500000  1
  Mn  Mn2  1  0.879975  0.723429  0.000000  1
  Mn  Mn3  1  0.276571  0.156546  0.000000  1
  Mn  Mn4  1  0.843454  0.120025  0.000000  1
  Mn  Mn5  1  0.119233  0.895810  0.500000  1
  Mn  Mn6  1  0.104190  0.223423  0.500000  1
  Mn  Mn7  1  0.776577  0.880767  0.500000  1
  Co  Co8  1  0.369108  0.940179  0.000000  1
  Co  Co9  1  0.059821  0.428929  0.000000  1
  Co  Co10  1  0.571071  0.630892  0.000000  1
  Co  Co11  1  0.949669  0.561359  0.500000  1
  Co  Co12  1  0.438641  0.388310  0.500000  1
  Co  Co13  1  0.611690  0.050331  0.500000  1
  P  P14  1  0.111092  0.698780  0.000000  1
  P  P15  1  0.301220  0.412313  0.000000  1
  P  P16  1  0.587687  0.888908  0.000000  1
  P  P17  1  0.712314  0.593893  0.500000  1
  P  P18  1  0.406107  0.118422  0.500000  1
  P  P19  1  0.881578  0.287686  0.500000  1
  P  P20  1  0.000000  0.000000  0.000000  1
