# generated using pymatgen
data_Ce3Tm3Al24IrRu7
_symmetry_space_group_name_H-M   'P 1'
_cell_length_a   8.83080080
_cell_length_b   8.83697707
_cell_length_c   9.53648765
_cell_angle_alpha   89.82616347
_cell_angle_beta   90.14616746
_cell_angle_gamma   120.06952796
_symmetry_Int_Tables_number   1
_chemical_formula_structural   Ce3Tm3Al24IrRu7
_chemical_formula_sum   'Ce3 Tm3 Al24 Ir1 Ru7'
_cell_volume   644.04452690
_cell_formula_units_Z   1
loop_
 _symmetry_equiv_pos_site_id
 _symmetry_equiv_pos_as_xyz
  1  'x, y, z'
loop_
 _atom_site_type_symbol
 _atom_site_label
 _atom_site_symmetry_multiplicity
 _atom_site_fract_x
 _atom_site_fract_y
 _atom_site_fract_z
 _atom_site_occupancy
  Ce  Ce0  1  0.803918  0.191113  0.750721  1
  Ce  Ce1  1  0.193159  0.806006  0.249534  1
  Ce  Ce2  1  0.389225  0.192175  0.749663  1
  Tm  Tm3  1  0.612264  0.808509  0.250009  1
  Tm  Tm4  1  0.804568  0.609123  0.749869  1
  Tm  Tm5  1  0.192638  0.391069  0.250065  1
  Al  Al6  1  0.669702  0.335328  0.988445  1
  Al  Al7  1  0.335220  0.666869  0.017034  1
  Al  Al8  1  0.335712  0.666116  0.484227  1
  Al  Al9  1  0.669120  0.336008  0.510527  1
  Al  Al10  1  0.838248  0.161659  0.420544  1
  Al  Al11  1  0.160816  0.835814  0.577762  1
  Al  Al12  1  0.323900  0.163586  0.418969  1
  Al  Al13  1  0.160773  0.836046  0.922063  1
  Al  Al14  1  0.675805  0.836504  0.577269  1
  Al  Al15  1  0.838371  0.161587  0.079676  1
  Al  Al16  1  0.836469  0.676551  0.420240  1
  Al  Al17  1  0.675621  0.837321  0.923642  1
  Al  Al18  1  0.161921  0.324889  0.578200  1
  Al  Al19  1  0.323960  0.162660  0.079983  1
  Al  Al20  1  0.161220  0.324699  0.922558  1
  Al  Al21  1  0.837394  0.676510  0.078847  1
  Al  Al22  1  0.438416  0.562994  0.749221  1
  Al  Al23  1  0.560321  0.441217  0.250745  1
  Al  Al24  1  0.121882  0.561023  0.750513  1
  Al  Al25  1  0.876353  0.437845  0.249420  1
  Al  Al26  1  0.436298  0.871579  0.750554  1
  Al  Al27  1  0.562377  0.123007  0.249465  1
  Al  Al28  1  0.998423  0.996389  0.750102  1
  Al  Al29  1  0.999090  0.002300  0.249973  1
  Ir  Ir30  1  0.500877  0.500050  0.999095  1
  Ru  Ru31  1  0.002193  0.501351  0.001487  1
  Ru  Ru32  1  0.500474  0.499725  0.500950  1
  Ru  Ru33  1  0.500846  0.000750  0.999171  1
  Ru  Ru34  1  0.001905  0.501393  0.498436  1
  Ru  Ru35  1  0.500859  0.000708  0.500911  1
  Ru  Ru36  1  0.999691  0.999659  0.000302  1
  Ru  Ru37  1  0.999970  0.999866  0.499811  1
