# generated using pymatgen
data_Sm8ZnCdPd23
_symmetry_space_group_name_H-M   'P 1'
_cell_length_a   8.39864900
_cell_length_b   8.50116600
_cell_length_c   8.51806300
_cell_angle_alpha   90.00000000
_cell_angle_beta   90.00000000
_cell_angle_gamma   90.00000000
_symmetry_Int_Tables_number   1
_chemical_formula_structural   Sm8ZnCdPd23
_chemical_formula_sum   'Sm8 Zn1 Cd1 Pd23'
_cell_volume   608.17529692
_cell_formula_units_Z   1
loop_
 _symmetry_equiv_pos_site_id
 _symmetry_equiv_pos_as_xyz
  1  'x, y, z'
loop_
 _atom_site_type_symbol
 _atom_site_label
 _atom_site_symmetry_multiplicity
 _atom_site_fract_x
 _atom_site_fract_y
 _atom_site_fract_z
 _atom_site_occupancy
  Sm  Sm0  1  0.249958  0.241548  0.261025  1
  Sm  Sm1  1  0.748840  0.748020  0.749738  1
  Sm  Sm2  1  0.748840  0.748020  0.250262  1
  Sm  Sm3  1  0.748840  0.251980  0.749738  1
  Sm  Sm4  1  0.249958  0.241548  0.738975  1
  Sm  Sm5  1  0.249958  0.758452  0.261025  1
  Sm  Sm6  1  0.249958  0.758452  0.738975  1
  Sm  Sm7  1  0.748840  0.251980  0.250262  1
  Zn  Zn8  1  0.000126  0.000000  0.000000  1
  Cd  Cd9  1  0.267006  0.500000  0.000000  1
  Pd  Pd10  1  0.739927  0.500000  0.000000  1
  Pd  Pd11  1  0.997159  0.260433  0.500000  1
  Pd  Pd12  1  0.497011  0.259267  0.000000  1
  Pd  Pd13  1  0.997159  0.739567  0.500000  1
  Pd  Pd14  1  0.497011  0.740733  0.000000  1
  Pd  Pd15  1  0.501809  0.000000  0.260718  1
  Pd  Pd16  1  0.260366  0.000000  0.500000  1
  Pd  Pd17  1  0.501809  0.000000  0.739282  1
  Pd  Pd18  1  0.738665  0.000000  0.500000  1
  Pd  Pd19  1  0.003474  0.500000  0.260931  1
  Pd  Pd20  1  0.003474  0.500000  0.739069  1
  Pd  Pd21  1  0.252699  0.500000  0.500000  1
  Pd  Pd22  1  0.747495  0.500000  0.500000  1
  Pd  Pd23  1  0.502168  0.253723  0.500000  1
  Pd  Pd24  1  0.502168  0.746277  0.500000  1
  Pd  Pd25  1  0.496770  0.500000  0.256047  1
  Pd  Pd26  1  0.496770  0.500000  0.743953  1
  Pd  Pd27  1  0.294569  0.000000  0.000000  1
  Pd  Pd28  1  0.704349  0.000000  0.000000  1
  Pd  Pd29  1  0.004799  0.292888  0.000000  1
  Pd  Pd30  1  0.004799  0.707112  0.000000  1
  Pd  Pd31  1  0.996611  0.000000  0.293100  1
  Pd  Pd32  1  0.996611  0.000000  0.706900  1
