# generated using pymatgen
data_TbYbHo5CoI12
_symmetry_space_group_name_H-M   'P 1'
_cell_length_a   9.68441401
_cell_length_b   9.75073904
_cell_length_c   9.75218839
_cell_angle_alpha   106.91264052
_cell_angle_beta   106.96403384
_cell_angle_gamma   106.72729020
_symmetry_Int_Tables_number   1
_chemical_formula_structural   TbYbHo5CoI12
_chemical_formula_sum   'Tb1 Yb1 Ho5 Co1 I12'
_cell_volume   769.67751723
_cell_formula_units_Z   1
loop_
 _symmetry_equiv_pos_site_id
 _symmetry_equiv_pos_as_xyz
  1  'x, y, z'
loop_
 _atom_site_type_symbol
 _atom_site_label
 _atom_site_symmetry_multiplicity
 _atom_site_fract_x
 _atom_site_fract_y
 _atom_site_fract_z
 _atom_site_occupancy
  Tb  Tb0  1  0.716845  0.977135  0.908277  1
  Yb  Yb1  1  0.500297  0.499769  0.500047  1
  Ho  Ho2  1  0.023533  0.096336  0.295063  1
  Ho  Ho3  1  0.095788  0.294739  0.024595  1
  Ho  Ho4  1  0.280294  0.022843  0.090977  1
  Ho  Ho5  1  0.976262  0.903762  0.705012  1
  Ho  Ho6  1  0.905130  0.705542  0.975719  1
  Co  Co7  1  0.999247  0.000156  0.999805  1
  I  I8  1  0.149652  0.457575  0.378868  1
  I  I9  1  0.456532  0.376513  0.150083  1
  I  I10  1  0.378460  0.149372  0.454547  1
  I  I11  1  0.851114  0.542690  0.621272  1
  I  I12  1  0.543455  0.620987  0.849607  1
  I  I13  1  0.621212  0.849060  0.542815  1
  I  I14  1  0.679465  0.071315  0.223761  1
  I  I15  1  0.071606  0.223344  0.678101  1
  I  I16  1  0.225515  0.680851  0.072426  1
  I  I17  1  0.320246  0.929195  0.778681  1
  I  I18  1  0.928888  0.776778  0.322047  1
  I  I19  1  0.776457  0.322037  0.928297  1
