# generated using pymatgen
data_Ce2MnFeGe2C
_symmetry_space_group_name_H-M   'P 1'
_cell_length_a   5.85845106
_cell_length_b   5.85845164
_cell_length_c   7.02130649
_cell_angle_alpha   126.86989345
_cell_angle_beta   126.86989942
_cell_angle_gamma   40.62794279
_symmetry_Int_Tables_number   1
_chemical_formula_structural   Ce2MnFeGe2C
_chemical_formula_sum   'Ce2 Mn1 Fe1 Ge2 C1'
_cell_volume   120.59570245
_cell_formula_units_Z   1
loop_
 _symmetry_equiv_pos_site_id
 _symmetry_equiv_pos_as_xyz
  1  'x, y, z'
loop_
 _atom_site_type_symbol
 _atom_site_label
 _atom_site_symmetry_multiplicity
 _atom_site_fract_x
 _atom_site_fract_y
 _atom_site_fract_z
 _atom_site_occupancy
  Ce  Ce0  1  0.552300  0.552300  0.284477  1
  Ce  Ce1  1  0.445988  0.445988  0.713477  1
  Mn  Mn2  1  0.192087  0.192087  0.083159  1
  Fe  Fe3  1  0.807063  0.807063  0.916947  1
  Ge  Ge4  1  0.831356  0.831356  0.282581  1
  Ge  Ge5  1  0.170463  0.170463  0.718125  1
  C  C6  1  0.000744  0.000744  0.001237  1
