# generated using pymatgen
data_Er5Tm3Ti12Si15Sb
_symmetry_space_group_name_H-M   'P 1'
_cell_length_a   7.05609006
_cell_length_b   7.00558640
_cell_length_c   12.91514900
_cell_angle_alpha   89.86869271
_cell_angle_beta   89.93140995
_cell_angle_gamma   90.00246813
_symmetry_Int_Tables_number   1
_chemical_formula_structural   Er5Tm3Ti12Si15Sb
_chemical_formula_sum   'Er5 Tm3 Ti12 Si15 Sb1'
_cell_volume   638.42013793
_cell_formula_units_Z   1
loop_
 _symmetry_equiv_pos_site_id
 _symmetry_equiv_pos_as_xyz
  1  'x, y, z'
loop_
 _atom_site_type_symbol
 _atom_site_label
 _atom_site_symmetry_multiplicity
 _atom_site_fract_x
 _atom_site_fract_y
 _atom_site_fract_z
 _atom_site_occupancy
  Er  Er0  1  0.840687  0.496841  0.282122  1
  Er  Er1  1  0.158166  0.508595  0.785377  1
  Er  Er2  1  0.661014  0.995130  0.968813  1
  Er  Er3  1  0.993074  0.348722  0.527675  1
  Er  Er4  1  0.998897  0.659984  0.034057  1
  Tm  Tm5  1  0.343762  0.999147  0.462022  1
  Tm  Tm6  1  0.505299  0.836552  0.718697  1
  Tm  Tm7  1  0.501311  0.159706  0.216921  1
  Ti  Ti8  1  0.326349  0.327238  0.000786  1
  Ti  Ti9  1  0.173593  0.826893  0.249780  1
  Ti  Ti10  1  0.818611  0.174166  0.751369  1
  Ti  Ti11  1  0.672806  0.672371  0.499514  1
  Ti  Ti12  1  0.152958  0.007511  0.881561  1
  Ti  Ti13  1  0.492318  0.650674  0.126209  1
  Ti  Ti14  1  0.513081  0.352343  0.625655  1
  Ti  Ti15  1  0.655077  0.496175  0.876131  1
  Ti  Ti16  1  0.347906  0.507252  0.373690  1
  Ti  Ti17  1  0.847391  0.992650  0.375317  1
  Ti  Ti18  1  0.008072  0.150962  0.124476  1
  Ti  Ti19  1  0.980568  0.835125  0.619135  1
  Si  Si20  1  0.369600  0.703796  0.934525  1
  Si  Si21  1  0.628703  0.296214  0.432243  1
  Si  Si22  1  0.703792  0.368940  0.067579  1
  Si  Si23  1  0.296985  0.632131  0.566508  1
  Si  Si24  1  0.795840  0.869718  0.183657  1
  Si  Si25  1  0.131328  0.203124  0.316223  1
  Si  Si26  1  0.869982  0.799861  0.816220  1
  Si  Si27  1  0.293070  0.953265  0.066508  1
  Si  Si28  1  0.547792  0.790342  0.313561  1
  Si  Si29  1  0.463822  0.211232  0.821562  1
  Si  Si30  1  0.792945  0.543846  0.686614  1
  Si  Si31  1  0.208463  0.452739  0.185472  1
  Si  Si32  1  0.705538  0.046816  0.564032  1
  Si  Si33  1  0.953001  0.292434  0.935755  1
  Si  Si34  1  0.048576  0.710428  0.432634  1
  Sb  Sb35  1  0.199623  0.127071  0.677599  1
