# generated using pymatgen
data_Hf3V2SiGe2N
_symmetry_space_group_name_H-M   'P 1'
_cell_length_a   7.68405515
_cell_length_b   7.68405589
_cell_length_c   5.24940300
_cell_angle_alpha   90.00000000
_cell_angle_beta   90.00000000
_cell_angle_gamma   120.24208508
_symmetry_Int_Tables_number   1
_chemical_formula_structural   Hf3V2SiGe2N
_chemical_formula_sum   'Hf6 V4 Si2 Ge4 N2'
_cell_volume   267.76692758
_cell_formula_units_Z   2
loop_
 _symmetry_equiv_pos_site_id
 _symmetry_equiv_pos_as_xyz
  1  'x, y, z'
loop_
 _atom_site_type_symbol
 _atom_site_label
 _atom_site_symmetry_multiplicity
 _atom_site_fract_x
 _atom_site_fract_y
 _atom_site_fract_z
 _atom_site_occupancy
  Hf  Hf0  1  0.238462  0.004055  0.250000  1
  Hf  Hf1  1  0.761538  0.995945  0.750000  1
  Hf  Hf2  1  0.004055  0.238462  0.250000  1
  Hf  Hf3  1  0.995945  0.761538  0.750000  1
  Hf  Hf4  1  0.759885  0.759885  0.250000  1
  Hf  Hf5  1  0.240115  0.240115  0.750000  1
  V  V6  1  0.336610  0.663390  0.000000  1
  V  V7  1  0.663390  0.336610  0.000000  1
  V  V8  1  0.663390  0.336610  0.500000  1
  V  V9  1  0.336610  0.663390  0.500000  1
  Si  Si10  1  0.411451  0.411451  0.250000  1
  Si  Si11  1  0.588549  0.588549  0.750000  1
  Ge  Ge12  1  0.590950  0.001633  0.250000  1
  Ge  Ge13  1  0.409050  0.998367  0.750000  1
  Ge  Ge14  1  0.001633  0.590950  0.250000  1
  Ge  Ge15  1  0.998367  0.409050  0.750000  1
  N  N16  1  0.000000  0.000000  0.000000  1
  N  N17  1  0.000000  0.000000  0.500000  1
