# generated using pymatgen
data_HoLu15In6IrPt
_symmetry_space_group_name_H-M   'P 1'
_cell_length_a   10.26323800
_cell_length_b   10.26324038
_cell_length_c   6.90028600
_cell_angle_alpha   90.00000000
_cell_angle_beta   90.00000000
_cell_angle_gamma   119.99999879
_symmetry_Int_Tables_number   1
_chemical_formula_structural   HoLu15In6IrPt
_chemical_formula_sum   'Ho1 Lu15 In6 Ir1 Pt1'
_cell_volume   629.45781427
_cell_formula_units_Z   1
loop_
 _symmetry_equiv_pos_site_id
 _symmetry_equiv_pos_as_xyz
  1  'x, y, z'
loop_
 _atom_site_type_symbol
 _atom_site_label
 _atom_site_symmetry_multiplicity
 _atom_site_fract_x
 _atom_site_fract_y
 _atom_site_fract_z
 _atom_site_occupancy
  Ho  Ho0  1  0.000000  0.000000  0.991258  1
  Lu  Lu1  1  0.530823  0.061646  0.508619  1
  Lu  Lu2  1  0.938354  0.469177  0.508619  1
  Lu  Lu3  1  0.530823  0.469177  0.508619  1
  Lu  Lu4  1  0.465879  0.931760  0.007950  1
  Lu  Lu5  1  0.068240  0.534121  0.007950  1
  Lu  Lu6  1  0.465879  0.534121  0.007950  1
  Lu  Lu7  1  0.177344  0.354688  0.712881  1
  Lu  Lu8  1  0.645312  0.822656  0.712881  1
  Lu  Lu9  1  0.177344  0.822656  0.712881  1
  Lu  Lu10  1  0.823927  0.647853  0.213372  1
  Lu  Lu11  1  0.352147  0.176073  0.213372  1
  Lu  Lu12  1  0.823927  0.176073  0.213372  1
  Lu  Lu13  1  0.666667  0.333333  0.884099  1
  Lu  Lu14  1  0.333333  0.666667  0.389125  1
  Lu  Lu15  1  0.000000  0.000000  0.490516  1
  In  In16  1  0.837524  0.675049  0.749836  1
  In  In17  1  0.324951  0.162476  0.749836  1
  In  In18  1  0.837524  0.162476  0.749836  1
  In  In19  1  0.162769  0.325538  0.253423  1
  In  In20  1  0.674462  0.837231  0.253423  1
  In  In21  1  0.162769  0.837231  0.253423  1
  Ir  Ir22  1  0.333333  0.666667  0.784148  1
  Pt  Pt23  1  0.666667  0.333333  0.280645  1
