# generated using pymatgen
data_Zn3Fe2Ni2(SbO6)2
_symmetry_space_group_name_H-M   'P 1'
_cell_length_a   6.14705983
_cell_length_b   6.14705880
_cell_length_c   13.64833489
_cell_angle_alpha   78.26627239
_cell_angle_beta   78.26627154
_cell_angle_gamma   90.02366042
_symmetry_Int_Tables_number   1
_chemical_formula_structural   Zn3Fe2Ni2(SbO6)2
_chemical_formula_sum   'Zn6 Fe4 Ni4 Sb4 O24'
_cell_volume   493.92252446
_cell_formula_units_Z   2
loop_
 _symmetry_equiv_pos_site_id
 _symmetry_equiv_pos_as_xyz
  1  'x, y, z'
loop_
 _atom_site_type_symbol
 _atom_site_label
 _atom_site_symmetry_multiplicity
 _atom_site_fract_x
 _atom_site_fract_y
 _atom_site_fract_z
 _atom_site_occupancy
  Zn  Zn0  1  0.638806  0.361194  0.750000  1
  Zn  Zn1  1  0.301581  0.014692  0.424246  1
  Zn  Zn2  1  0.985308  0.698419  0.075754  1
  Zn  Zn3  1  0.361194  0.638806  0.250000  1
  Zn  Zn4  1  0.014692  0.301581  0.924246  1
  Zn  Zn5  1  0.698419  0.985308  0.575754  1
  Fe  Fe6  1  0.500000  0.500000  0.000000  1
  Fe  Fe7  1  0.500000  0.000000  0.000000  1
  Fe  Fe8  1  0.500000  0.500000  0.500000  1
  Fe  Fe9  1  0.000000  0.500000  0.500000  1
  Ni  Ni10  1  0.176251  0.661346  0.664393  1
  Ni  Ni11  1  0.823749  0.338654  0.335607  1
  Ni  Ni12  1  0.661346  0.176251  0.164393  1
  Ni  Ni13  1  0.338654  0.823749  0.835607  1
  Sb  Sb14  1  0.177607  0.165682  0.665186  1
  Sb  Sb15  1  0.822393  0.834318  0.334814  1
  Sb  Sb16  1  0.165682  0.177607  0.165186  1
  Sb  Sb17  1  0.834318  0.822393  0.834814  1
  O  O18  1  0.248481  0.717722  0.508229  1
  O  O19  1  0.919434  0.392173  0.173610  1
  O  O20  1  0.599706  0.049145  0.833921  1
  O  O21  1  0.242226  0.238772  0.513176  1
  O  O22  1  0.917708  0.934132  0.175380  1
  O  O23  1  0.598983  0.603604  0.829657  1
  O  O24  1  0.950855  0.400294  0.666079  1
  O  O25  1  0.607827  0.080566  0.326390  1
  O  O26  1  0.282278  0.751519  0.991771  1
  O  O27  1  0.396396  0.401017  0.670343  1
  O  O28  1  0.065868  0.082291  0.324620  1
  O  O29  1  0.761228  0.757774  0.986824  1
  O  O30  1  0.751519  0.282278  0.491771  1
  O  O31  1  0.400294  0.950855  0.166079  1
  O  O32  1  0.080566  0.607827  0.826390  1
  O  O33  1  0.757774  0.761228  0.486824  1
  O  O34  1  0.401017  0.396396  0.170343  1
  O  O35  1  0.082291  0.065868  0.824620  1
  O  O36  1  0.049145  0.599706  0.333921  1
  O  O37  1  0.717722  0.248481  0.008229  1
  O  O38  1  0.392173  0.919434  0.673610  1
  O  O39  1  0.603604  0.598983  0.329657  1
  O  O40  1  0.238772  0.242226  0.013176  1
  O  O41  1  0.934132  0.917709  0.675380  1
