# generated using pymatgen
data_Ho5ErSc4(In2Pt)4
_symmetry_space_group_name_H-M   'P 1'
_cell_length_a   3.56562300
_cell_length_b   7.98728636
_cell_length_c   17.82186579
_cell_angle_alpha   89.96561278
_cell_angle_beta   90.00000000
_cell_angle_gamma   90.00000000
_symmetry_Int_Tables_number   1
_chemical_formula_structural   Ho5ErSc4(In2Pt)4
_chemical_formula_sum   'Ho5 Er1 Sc4 In8 Pt4'
_cell_volume   507.56044377
_cell_formula_units_Z   1
loop_
 _symmetry_equiv_pos_site_id
 _symmetry_equiv_pos_as_xyz
  1  'x, y, z'
loop_
 _atom_site_type_symbol
 _atom_site_label
 _atom_site_symmetry_multiplicity
 _atom_site_fract_x
 _atom_site_fract_y
 _atom_site_fract_z
 _atom_site_occupancy
  Ho  Ho0  1  0.000000  0.759116  0.784346  1
  Ho  Ho1  1  0.000000  0.259714  0.715403  1
  Ho  Ho2  1  0.000000  0.740758  0.284357  1
  Ho  Ho3  1  0.000000  0.999536  0.999884  1
  Ho  Ho4  1  0.000000  0.500425  0.499922  1
  Er  Er5  1  0.000000  0.241030  0.216053  1
  Sc  Sc6  1  0.000000  0.117696  0.413312  1
  Sc  Sc7  1  0.000000  0.882958  0.586434  1
  Sc  Sc8  1  0.000000  0.382160  0.913523  1
  Sc  Sc9  1  0.000000  0.616772  0.086770  1
  In  In10  1  0.500000  0.412929  0.350762  1
  In  In11  1  0.500000  0.587625  0.649201  1
  In  In12  1  0.500000  0.087412  0.850397  1
  In  In13  1  0.500000  0.913334  0.149508  1
  In  In14  1  0.500000  0.306019  0.059735  1
  In  In15  1  0.500000  0.692424  0.940899  1
  In  In16  1  0.500000  0.192912  0.558931  1
  In  In17  1  0.500000  0.807535  0.440690  1
  Pt  Pt18  1  0.500000  0.031097  0.306114  1
  Pt  Pt19  1  0.500000  0.969824  0.693433  1
  Pt  Pt20  1  0.500000  0.469563  0.806496  1
  Pt  Pt21  1  0.500000  0.529162  0.193830  1
