# generated using pymatgen
data_Dy16Co4AgHg3
_symmetry_space_group_name_H-M   'P 1'
_cell_length_a   9.41936442
_cell_length_b   9.45130488
_cell_length_c   9.41936500
_cell_angle_alpha   60.11173083
_cell_angle_beta   60.00000149
_cell_angle_gamma   60.11173236
_symmetry_Int_Tables_number   1
_chemical_formula_structural   Dy16Co4AgHg3
_chemical_formula_sum   'Dy16 Co4 Ag1 Hg3'
_cell_volume   593.95205782
_cell_formula_units_Z   1
loop_
 _symmetry_equiv_pos_site_id
 _symmetry_equiv_pos_as_xyz
  1  'x, y, z'
loop_
 _atom_site_type_symbol
 _atom_site_label
 _atom_site_symmetry_multiplicity
 _atom_site_fract_x
 _atom_site_fract_y
 _atom_site_fract_z
 _atom_site_occupancy
  Dy  Dy0  1  0.151844  0.544467  0.151844  1
  Dy  Dy1  1  0.687501  0.312794  0.687501  1
  Dy  Dy2  1  0.687501  0.312794  0.312203  1
  Dy  Dy3  1  0.937895  0.559737  0.564472  1
  Dy  Dy4  1  0.543774  0.151277  0.152474  1
  Dy  Dy5  1  0.152474  0.151277  0.543774  1
  Dy  Dy6  1  0.937818  0.935851  0.563165  1
  Dy  Dy7  1  0.311326  0.689002  0.311326  1
  Dy  Dy8  1  0.563165  0.935851  0.937818  1
  Dy  Dy9  1  0.563165  0.935851  0.563165  1
  Dy  Dy10  1  0.688346  0.689002  0.311326  1
  Dy  Dy11  1  0.564472  0.559737  0.937895  1
  Dy  Dy12  1  0.937895  0.559737  0.937895  1
  Dy  Dy13  1  0.311326  0.689002  0.688346  1
  Dy  Dy14  1  0.152474  0.151277  0.152474  1
  Dy  Dy15  1  0.312203  0.312794  0.687501  1
  Co  Co16  1  0.358311  0.359704  0.923675  1
  Co  Co17  1  0.359177  0.922470  0.359177  1
  Co  Co18  1  0.923675  0.359704  0.358311  1
  Co  Co19  1  0.358311  0.359704  0.358311  1
  Ag  Ag20  1  0.917387  0.247838  0.917387  1
  Hg  Hg21  1  0.915485  0.920043  0.915485  1
  Hg  Hg22  1  0.915485  0.920043  0.248988  1
  Hg  Hg23  1  0.248988  0.920043  0.915485  1
