# generated using pymatgen
data_RbTcF8
_symmetry_space_group_name_H-M   'P 1'
_cell_length_a   7.63512100
_cell_length_b   7.63512100
_cell_length_c   5.13666800
_cell_angle_alpha   90.00000000
_cell_angle_beta   90.00000000
_cell_angle_gamma   90.00000000
_symmetry_Int_Tables_number   1
_chemical_formula_structural   RbTcF8
_chemical_formula_sum   'Rb2 Tc2 F16'
_cell_volume   299.44243442
_cell_formula_units_Z   2
loop_
 _symmetry_equiv_pos_site_id
 _symmetry_equiv_pos_as_xyz
  1  'x, y, z'
loop_
 _atom_site_type_symbol
 _atom_site_label
 _atom_site_symmetry_multiplicity
 _atom_site_fract_x
 _atom_site_fract_y
 _atom_site_fract_z
 _atom_site_occupancy
  Rb  Rb0  1  0.000000  0.000000  0.500000  1
  Rb  Rb1  1  0.500000  0.500000  0.500000  1
  Tc  Tc2  1  0.000000  0.500000  0.107101  1
  Tc  Tc3  1  0.500000  0.000000  0.892899  1
  F  F4  1  0.712970  0.000000  0.091770  1
  F  F5  1  0.287030  0.000000  0.091770  1
  F  F6  1  0.500000  0.212970  0.091770  1
  F  F7  1  0.500000  0.787030  0.091770  1
  F  F8  1  0.849968  0.349968  0.314558  1
  F  F9  1  0.849968  0.650032  0.314558  1
  F  F10  1  0.150032  0.349968  0.314558  1
  F  F11  1  0.150032  0.650032  0.314558  1
  F  F12  1  0.650032  0.849968  0.685442  1
  F  F13  1  0.349968  0.150032  0.685442  1
  F  F14  1  0.349968  0.849968  0.685442  1
  F  F15  1  0.650032  0.150032  0.685442  1
  F  F16  1  0.000000  0.287030  0.908230  1
  F  F17  1  0.787030  0.500000  0.908230  1
  F  F18  1  0.212970  0.500000  0.908230  1
  F  F19  1  0.000000  0.712970  0.908230  1
