# generated using pymatgen
data_Dy4Ho16Ir5Rh7
_symmetry_space_group_name_H-M   'P 1'
_cell_length_a   10.85997114
_cell_length_b   10.86003985
_cell_length_c   6.36032200
_cell_angle_alpha   89.99173246
_cell_angle_beta   89.99358424
_cell_angle_gamma   90.06472828
_symmetry_Int_Tables_number   1
_chemical_formula_structural   Dy4Ho16Ir5Rh7
_chemical_formula_sum   'Dy4 Ho16 Ir5 Rh7'
_cell_volume   750.13410037
_cell_formula_units_Z   1
loop_
 _symmetry_equiv_pos_site_id
 _symmetry_equiv_pos_as_xyz
  1  'x, y, z'
loop_
 _atom_site_type_symbol
 _atom_site_label
 _atom_site_symmetry_multiplicity
 _atom_site_fract_x
 _atom_site_fract_y
 _atom_site_fract_z
 _atom_site_occupancy
  Dy  Dy0  1  0.290608  0.088341  0.377934  1
  Dy  Dy1  1  0.290614  0.909643  0.879219  1
  Dy  Dy2  1  0.708856  0.089975  0.878796  1
  Dy  Dy3  1  0.708607  0.909950  0.378100  1
  Ho  Ho4  1  0.587586  0.789649  0.879344  1
  Ho  Ho5  1  0.587405  0.210239  0.379121  1
  Ho  Ho6  1  0.410823  0.789992  0.379312  1
  Ho  Ho7  1  0.412289  0.210147  0.879006  1
  Ho  Ho8  1  0.210000  0.412524  0.620637  1
  Ho  Ho9  1  0.209663  0.589079  0.120656  1
  Ho  Ho10  1  0.790092  0.412708  0.120871  1
  Ho  Ho11  1  0.790185  0.587621  0.620974  1
  Ho  Ho12  1  0.911962  0.709120  0.121770  1
  Ho  Ho13  1  0.910298  0.291451  0.620871  1
  Ho  Ho14  1  0.090098  0.709151  0.620325  1
  Ho  Ho15  1  0.089744  0.291695  0.121597  1
  Ho  Ho16  1  0.999997  0.999817  0.500283  1
  Ho  Ho17  1  0.000171  0.999996  0.999928  1
  Ho  Ho18  1  0.499891  0.499720  0.000247  1
  Ho  Ho19  1  0.500284  0.500112  0.499944  1
  Ir  Ir20  1  0.152922  0.846368  0.250462  1
  Ir  Ir21  1  0.654541  0.345687  0.749826  1
  Ir  Ir22  1  0.654760  0.654136  0.249588  1
  Ir  Ir23  1  0.345639  0.345481  0.250071  1
  Ir  Ir24  1  0.346183  0.653590  0.749845  1
  Rh  Rh25  1  0.846927  0.153650  0.250323  1
  Rh  Rh26  1  0.846138  0.846338  0.750180  1
  Rh  Rh27  1  0.153102  0.154429  0.750450  1
  Rh  Rh28  1  0.500665  0.000286  0.122786  1
  Rh  Rh29  1  0.500466  0.000254  0.623446  1
  Rh  Rh30  1  0.999755  0.499509  0.876725  1
  Rh  Rh31  1  0.999729  0.499342  0.377367  1
