# generated using pymatgen
data_Y10In5BiSe2
_symmetry_space_group_name_H-M   'P 1'
_cell_length_a   9.21504700
_cell_length_b   9.25388483
_cell_length_c   6.82432400
_cell_angle_alpha   90.00000000
_cell_angle_beta   90.00000000
_cell_angle_gamma   120.13951515
_symmetry_Int_Tables_number   1
_chemical_formula_structural   Y10In5BiSe2
_chemical_formula_sum   'Y10 In5 Bi1 Se2'
_cell_volume   503.26837931
_cell_formula_units_Z   1
loop_
 _symmetry_equiv_pos_site_id
 _symmetry_equiv_pos_as_xyz
  1  'x, y, z'
loop_
 _atom_site_type_symbol
 _atom_site_label
 _atom_site_symmetry_multiplicity
 _atom_site_fract_x
 _atom_site_fract_y
 _atom_site_fract_z
 _atom_site_occupancy
  Y  Y0  1  0.664255  0.334683  0.495611  1
  Y  Y1  1  0.335745  0.670429  0.495611  1
  Y  Y2  1  0.335745  0.670429  0.004389  1
  Y  Y3  1  0.664255  0.334683  0.004389  1
  Y  Y4  1  0.750843  0.747617  0.250000  1
  Y  Y5  1  0.249157  0.996774  0.250000  1
  Y  Y6  1  0.000000  0.250488  0.250000  1
  Y  Y7  1  0.252194  0.246402  0.750000  1
  Y  Y8  1  0.747806  0.994208  0.750000  1
  Y  Y9  1  0.000000  0.750021  0.750000  1
  In  In10  1  0.400676  0.403267  0.250000  1
  In  In11  1  0.599324  0.002591  0.250000  1
  In  In12  1  0.000000  0.601316  0.250000  1
  In  In13  1  0.598204  0.598399  0.750000  1
  In  In14  1  0.401796  0.000194  0.750000  1
  Bi  Bi15  1  0.000000  0.396728  0.750000  1
  Se  Se16  1  0.000000  0.000885  0.500957  1
  Se  Se17  1  0.000000  0.000885  0.999043  1
