# generated using pymatgen
data_LuZr3(MnOs3)2
_symmetry_space_group_name_H-M   'P 1'
_cell_length_a   5.13633643
_cell_length_b   5.28524921
_cell_length_c   8.64571205
_cell_angle_alpha   90.00000260
_cell_angle_beta   89.82285428
_cell_angle_gamma   120.96378946
_symmetry_Int_Tables_number   1
_chemical_formula_structural   LuZr3(MnOs3)2
_chemical_formula_sum   'Lu1 Zr3 Mn2 Os6'
_cell_volume   201.25527466
_cell_formula_units_Z   1
loop_
 _symmetry_equiv_pos_site_id
 _symmetry_equiv_pos_as_xyz
  1  'x, y, z'
loop_
 _atom_site_type_symbol
 _atom_site_label
 _atom_site_symmetry_multiplicity
 _atom_site_fract_x
 _atom_site_fract_y
 _atom_site_fract_z
 _atom_site_occupancy
  Lu  Lu0  1  0.336697  0.668349  0.063863  1
  Zr  Zr1  1  0.661617  0.330808  0.565542  1
  Zr  Zr2  1  0.662648  0.331323  0.934434  1
  Zr  Zr3  1  0.338416  0.669209  0.434330  1
  Mn  Mn4  1  0.667400  0.833699  0.748352  1
  Mn  Mn5  1  0.331392  0.165697  0.251728  1
  Os  Os6  1  0.001389  0.000694  0.500606  1
  Os  Os7  1  0.999686  0.999843  0.000626  1
  Os  Os8  1  0.171938  0.346763  0.748581  1
  Os  Os9  1  0.828439  0.175509  0.251678  1
  Os  Os10  1  0.828439  0.652932  0.251678  1
  Os  Os11  1  0.171938  0.825175  0.748581  1
