# generated using pymatgen
data_Mg2TaFePt12
_symmetry_space_group_name_H-M   'P 1'
_cell_length_a   5.58528100
_cell_length_b   5.58528261
_cell_length_c   7.88667900
_cell_angle_alpha   90.00000000
_cell_angle_beta   90.00000000
_cell_angle_gamma   89.94459465
_symmetry_Int_Tables_number   1
_chemical_formula_structural   Mg2TaFePt12
_chemical_formula_sum   'Mg2 Ta1 Fe1 Pt12'
_cell_volume   246.02777692
_cell_formula_units_Z   1
loop_
 _symmetry_equiv_pos_site_id
 _symmetry_equiv_pos_as_xyz
  1  'x, y, z'
loop_
 _atom_site_type_symbol
 _atom_site_label
 _atom_site_symmetry_multiplicity
 _atom_site_fract_x
 _atom_site_fract_y
 _atom_site_fract_z
 _atom_site_occupancy
  Mg  Mg0  1  0.000000  0.500000  0.250081  1
  Mg  Mg1  1  0.500000  0.000000  0.749956  1
  Ta  Ta2  1  0.000000  0.500000  0.750005  1
  Fe  Fe3  1  0.500000  0.000000  0.250026  1
  Pt  Pt4  1  0.249002  0.250998  0.000524  1
  Pt  Pt5  1  0.751368  0.251368  0.499512  1
  Pt  Pt6  1  0.749068  0.249068  0.000707  1
  Pt  Pt7  1  0.750998  0.749002  0.000524  1
  Pt  Pt8  1  0.500000  0.500000  0.749997  1
  Pt  Pt9  1  0.251340  0.248660  0.499235  1
  Pt  Pt10  1  0.748660  0.751340  0.499235  1
  Pt  Pt11  1  0.248632  0.748632  0.499512  1
  Pt  Pt12  1  0.500000  0.500000  0.249993  1
  Pt  Pt13  1  0.000000  0.000000  0.749997  1
  Pt  Pt14  1  0.000000  0.000000  0.249993  1
  Pt  Pt15  1  0.250932  0.750932  0.000707  1
