# generated using pymatgen
data_RbNd6RuBr12
_symmetry_space_group_name_H-M   'P 1'
_cell_length_a   9.54651246
_cell_length_b   9.54631697
_cell_length_c   9.54836255
_cell_angle_alpha   104.51173134
_cell_angle_beta   104.53773335
_cell_angle_gamma   104.48402203
_symmetry_Int_Tables_number   1
_chemical_formula_structural   RbNd6RuBr12
_chemical_formula_sum   'Rb1 Nd6 Ru1 Br12'
_cell_volume   768.61258655
_cell_formula_units_Z   1
loop_
 _symmetry_equiv_pos_site_id
 _symmetry_equiv_pos_as_xyz
  1  'x, y, z'
loop_
 _atom_site_type_symbol
 _atom_site_label
 _atom_site_symmetry_multiplicity
 _atom_site_fract_x
 _atom_site_fract_y
 _atom_site_fract_z
 _atom_site_occupancy
  Rb  Rb0  1  0.500000  0.500000  0.500000  1
  Nd  Nd1  1  0.100744  0.305721  0.010235  1
  Nd  Nd2  1  0.306072  0.010293  0.101178  1
  Nd  Nd3  1  0.010151  0.101024  0.305849  1
  Nd  Nd4  1  0.989850  0.898976  0.694152  1
  Nd  Nd5  1  0.693928  0.989708  0.898822  1
  Nd  Nd6  1  0.899256  0.694279  0.989765  1
  Ru  Ru7  1  0.000000  0.000000  0.000000  1
  Br  Br8  1  0.216434  0.672823  0.075235  1
  Br  Br9  1  0.427238  0.335065  0.113541  1
  Br  Br10  1  0.672662  0.075152  0.216102  1
  Br  Br11  1  0.924799  0.783789  0.327133  1
  Br  Br12  1  0.113599  0.427407  0.334994  1
  Br  Br13  1  0.334868  0.113466  0.427295  1
  Br  Br14  1  0.665132  0.886534  0.572706  1
  Br  Br15  1  0.886402  0.572593  0.665006  1
  Br  Br16  1  0.075202  0.216211  0.672868  1
  Br  Br17  1  0.327339  0.924849  0.783898  1
  Br  Br18  1  0.572762  0.664935  0.886460  1
  Br  Br19  1  0.783566  0.327177  0.924765  1
