# generated using pymatgen
data_CaLa3(Mo2O7)2
_symmetry_space_group_name_H-M   'P 1'
_cell_length_a   7.43976510
_cell_length_b   7.65043030
_cell_length_c   7.62276665
_cell_angle_alpha   120.46118155
_cell_angle_beta   120.14744786
_cell_angle_gamma   90.20229623
_symmetry_Int_Tables_number   1
_chemical_formula_structural   CaLa3(Mo2O7)2
_chemical_formula_sum   'Ca1 La3 Mo4 O14'
_cell_volume   303.38358377
_cell_formula_units_Z   1
loop_
 _symmetry_equiv_pos_site_id
 _symmetry_equiv_pos_as_xyz
  1  'x, y, z'
loop_
 _atom_site_type_symbol
 _atom_site_label
 _atom_site_symmetry_multiplicity
 _atom_site_fract_x
 _atom_site_fract_y
 _atom_site_fract_z
 _atom_site_occupancy
  Ca  Ca0  1  0.875000  0.625000  0.250000  1
  La  La1  1  0.375000  0.625000  0.750000  1
  La  La2  1  0.375000  0.625000  0.250000  1
  La  La3  1  0.375000  0.125000  0.750000  1
  Mo  Mo4  1  0.875000  0.625000  0.750000  1
  Mo  Mo5  1  0.375000  0.125000  0.250000  1
  Mo  Mo6  1  0.875000  0.125000  0.250000  1
  Mo  Mo7  1  0.875000  0.125000  0.750000  1
  O  O8  1  0.794177  0.188855  0.988916  1
  O  O9  1  0.543543  0.458775  0.491696  1
  O  O10  1  0.200710  0.207684  0.000035  1
  O  O11  1  0.950455  0.449444  0.497585  1
  O  O12  1  0.805475  0.809754  0.601714  1
  O  O13  1  0.533813  0.043248  0.082076  1
  O  O14  1  0.246904  0.748699  0.499074  1
  O  O15  1  0.944525  0.440246  0.898286  1
  O  O16  1  0.955823  0.061145  0.511084  1
  O  O17  1  0.549290  0.042316  0.499965  1
  O  O18  1  0.216187  0.206752  0.417924  1
  O  O19  1  0.503096  0.501301  0.000926  1
  O  O20  1  0.799545  0.800556  0.002415  1
  O  O21  1  0.206457  0.791225  0.008304  1
