# generated using pymatgen
data_Th2Fe9Co3P7
_symmetry_space_group_name_H-M   'P 1'
_cell_length_a   9.07440472
_cell_length_b   9.07300368
_cell_length_c   3.67870800
_cell_angle_alpha   90.00000000
_cell_angle_beta   90.00000000
_cell_angle_gamma   120.04712619
_symmetry_Int_Tables_number   1
_chemical_formula_structural   Th2Fe9Co3P7
_chemical_formula_sum   'Th2 Fe9 Co3 P7'
_cell_volume   262.17347408
_cell_formula_units_Z   1
loop_
 _symmetry_equiv_pos_site_id
 _symmetry_equiv_pos_as_xyz
  1  'x, y, z'
loop_
 _atom_site_type_symbol
 _atom_site_label
 _atom_site_symmetry_multiplicity
 _atom_site_fract_x
 _atom_site_fract_y
 _atom_site_fract_z
 _atom_site_occupancy
  Th  Th0  1  0.333485  0.667162  0.000000  1
  Th  Th1  1  0.999868  0.998513  0.500000  1
  Fe  Fe2  1  0.034169  0.764218  0.000000  1
  Fe  Fe3  1  0.939389  0.455604  0.000000  1
  Fe  Fe4  1  0.517981  0.063642  0.000000  1
  Fe  Fe5  1  0.544088  0.482449  0.000000  1
  Fe  Fe6  1  0.284979  0.899542  0.500000  1
  Fe  Fe7  1  0.615123  0.717190  0.500000  1
  Fe  Fe8  1  0.771261  0.209610  0.500000  1
  Fe  Fe9  1  0.442632  0.231093  0.500000  1
  Fe  Fe10  1  0.787114  0.554498  0.500000  1
  Co  Co11  1  0.729257  0.965217  0.000000  1
  Co  Co12  1  0.233105  0.270278  0.000000  1
  Co  Co13  1  0.101865  0.385198  0.500000  1
  P  P14  1  0.963391  0.230169  0.000000  1
  P  P15  1  0.265027  0.032710  0.000000  1
  P  P16  1  0.768498  0.732527  0.000000  1
  P  P17  1  0.060134  0.626846  0.500000  1
  P  P18  1  0.560191  0.939206  0.500000  1
  P  P19  1  0.380676  0.439695  0.500000  1
  P  P20  1  0.667770  0.334629  0.000000  1
