# generated using pymatgen
data_Er6Zn20AsAu3
_symmetry_space_group_name_H-M   'P 1'
_cell_length_a   9.08522978
_cell_length_b   9.06450584
_cell_length_c   9.06450654
_cell_angle_alpha   60.15748650
_cell_angle_beta   59.87008634
_cell_angle_gamma   59.87009090
_symmetry_Int_Tables_number   1
_chemical_formula_structural   Er6Zn20AsAu3
_chemical_formula_sum   'Er6 Zn20 As1 Au3'
_cell_volume   527.43120768
_cell_formula_units_Z   1
loop_
 _symmetry_equiv_pos_site_id
 _symmetry_equiv_pos_as_xyz
  1  'x, y, z'
loop_
 _atom_site_type_symbol
 _atom_site_label
 _atom_site_symmetry_multiplicity
 _atom_site_fract_x
 _atom_site_fract_y
 _atom_site_fract_z
 _atom_site_occupancy
  Er  Er0  1  0.717757  0.283790  0.283790  1
  Er  Er1  1  0.717118  0.283106  0.715018  1
  Er  Er2  1  0.717118  0.715018  0.283106  1
  Er  Er3  1  0.282243  0.716210  0.716210  1
  Er  Er4  1  0.282882  0.716894  0.284982  1
  Er  Er5  1  0.282882  0.284982  0.716894  1
  Zn  Zn6  1  0.625357  0.123570  0.123570  1
  Zn  Zn7  1  0.122555  0.624700  0.126755  1
  Zn  Zn8  1  0.122555  0.126755  0.624700  1
  Zn  Zn9  1  0.125602  0.125254  0.125254  1
  Zn  Zn10  1  0.374643  0.876430  0.876430  1
  Zn  Zn11  1  0.877445  0.375300  0.873245  1
  Zn  Zn12  1  0.877445  0.873245  0.375300  1
  Zn  Zn13  1  0.874398  0.874746  0.874746  1
  Zn  Zn14  1  0.500000  0.000000  0.000000  1
  Zn  Zn15  1  0.000000  0.500000  0.500000  1
  Zn  Zn16  1  0.000000  0.500000  0.000000  1
  Zn  Zn17  1  0.000000  0.000000  0.500000  1
  Zn  Zn18  1  0.005547  0.331070  0.331070  1
  Zn  Zn19  1  0.327643  0.006121  0.328860  1
  Zn  Zn20  1  0.327643  0.328860  0.006121  1
  Zn  Zn21  1  0.324492  0.334388  0.334388  1
  Zn  Zn22  1  0.994453  0.668930  0.668930  1
  Zn  Zn23  1  0.672357  0.993879  0.671140  1
  Zn  Zn24  1  0.672357  0.671140  0.993879  1
  Zn  Zn25  1  0.675508  0.665612  0.665612  1
  As  As26  1  0.500000  0.500000  0.500000  1
  Au  Au27  1  0.500000  0.000000  0.500000  1
  Au  Au28  1  0.500000  0.500000  0.000000  1
  Au  Au29  1  0.000000  0.000000  0.000000  1
