# generated using pymatgen
data_Yb3YNi13C4
_symmetry_space_group_name_H-M   'P 1'
_cell_length_a   8.29760331
_cell_length_b   8.29760428
_cell_length_c   3.85185100
_cell_angle_alpha   90.00000000
_cell_angle_beta   90.00000000
_cell_angle_gamma   90.47723446
_symmetry_Int_Tables_number   1
_chemical_formula_structural   Yb3YNi13C4
_chemical_formula_sum   'Yb3 Y1 Ni13 C4'
_cell_volume   265.19162286
_cell_formula_units_Z   1
loop_
 _symmetry_equiv_pos_site_id
 _symmetry_equiv_pos_as_xyz
  1  'x, y, z'
loop_
 _atom_site_type_symbol
 _atom_site_label
 _atom_site_symmetry_multiplicity
 _atom_site_fract_x
 _atom_site_fract_y
 _atom_site_fract_z
 _atom_site_occupancy
  Yb  Yb0  1  0.809226  0.191409  0.500000  1
  Yb  Yb1  1  0.191409  0.809226  0.500000  1
  Yb  Yb2  1  0.654072  0.654072  0.500000  1
  Y  Y3  1  0.348931  0.348931  0.500000  1
  Ni  Ni4  1  0.501157  0.000710  0.500000  1
  Ni  Ni5  1  0.000710  0.501157  0.500000  1
  Ni  Ni6  1  0.000235  0.000235  0.000000  1
  Ni  Ni7  1  0.427240  0.783702  0.000000  1
  Ni  Ni8  1  0.571799  0.213726  0.000000  1
  Ni  Ni9  1  0.213726  0.571799  0.000000  1
  Ni  Ni10  1  0.783702  0.427240  0.000000  1
  Ni  Ni11  1  0.712082  0.926979  0.000000  1
  Ni  Ni12  1  0.289821  0.073680  0.000000  1
  Ni  Ni13  1  0.073680  0.289821  0.000000  1
  Ni  Ni14  1  0.926979  0.712082  0.000000  1
  Ni  Ni15  1  0.879699  0.879699  0.500000  1
  Ni  Ni16  1  0.118505  0.118505  0.500000  1
  C  C17  1  0.442167  0.556646  0.000000  1
  C  C18  1  0.556646  0.442167  0.000000  1
  C  C19  1  0.500584  0.997631  0.000000  1
  C  C20  1  0.997631  0.500584  0.000000  1
