# generated using pymatgen
data_BaYb2(H6Ir)2
_symmetry_space_group_name_H-M   'P 1'
_cell_length_a   5.04148600
_cell_length_b   5.04148604
_cell_length_c   8.57363400
_cell_angle_alpha   90.00000000
_cell_angle_beta   90.00000000
_cell_angle_gamma   119.99999971
_symmetry_Int_Tables_number   1
_chemical_formula_structural   BaYb2(H6Ir)2
_chemical_formula_sum   'Ba1 Yb2 H12 Ir2'
_cell_volume   188.71773165
_cell_formula_units_Z   1
loop_
 _symmetry_equiv_pos_site_id
 _symmetry_equiv_pos_as_xyz
  1  'x, y, z'
loop_
 _atom_site_type_symbol
 _atom_site_label
 _atom_site_symmetry_multiplicity
 _atom_site_fract_x
 _atom_site_fract_y
 _atom_site_fract_z
 _atom_site_occupancy
  Ba  Ba0  1  0.000000  0.000000  0.000000  1
  Yb  Yb1  1  0.666667  0.333333  0.372626  1
  Yb  Yb2  1  0.333333  0.666667  0.627374  1
  H  H3  1  0.173342  0.826658  0.377865  1
  H  H4  1  0.653317  0.826658  0.377865  1
  H  H5  1  0.173342  0.346683  0.377865  1
  H  H6  1  0.826658  0.173342  0.622135  1
  H  H7  1  0.346683  0.173342  0.622135  1
  H  H8  1  0.826658  0.653317  0.622135  1
  H  H9  1  0.509911  0.019823  0.845309  1
  H  H10  1  0.509911  0.490089  0.845309  1
  H  H11  1  0.980177  0.490089  0.845309  1
  H  H12  1  0.490089  0.980177  0.154691  1
  H  H13  1  0.490089  0.509911  0.154691  1
  H  H14  1  0.019823  0.509911  0.154691  1
  Ir  Ir15  1  0.666667  0.333333  0.730965  1
  Ir  Ir16  1  0.333333  0.666667  0.269035  1
