# generated using pymatgen
data_Pr4Ga24CoRh
_symmetry_space_group_name_H-M   'P 1'
_cell_length_a   6.09588800
_cell_length_b   6.09588800
_cell_length_c   15.67103200
_cell_angle_alpha   90.00000000
_cell_angle_beta   90.00000000
_cell_angle_gamma   90.00000000
_symmetry_Int_Tables_number   1
_chemical_formula_structural   Pr4Ga24CoRh
_chemical_formula_sum   'Pr4 Ga24 Co1 Rh1'
_cell_volume   582.33320643
_cell_formula_units_Z   1
loop_
 _symmetry_equiv_pos_site_id
 _symmetry_equiv_pos_as_xyz
  1  'x, y, z'
loop_
 _atom_site_type_symbol
 _atom_site_label
 _atom_site_symmetry_multiplicity
 _atom_site_fract_x
 _atom_site_fract_y
 _atom_site_fract_z
 _atom_site_occupancy
  Pr  Pr0  1  0.000000  0.500000  0.759161  1
  Pr  Pr1  1  0.000000  0.500000  0.240839  1
  Pr  Pr2  1  0.500000  0.000000  0.243414  1
  Pr  Pr3  1  0.500000  0.000000  0.756586  1
  Ga  Ga4  1  0.668551  0.168551  0.431226  1
  Ga  Ga5  1  0.168380  0.668380  0.568986  1
  Ga  Ga6  1  0.000000  0.000000  0.343929  1
  Ga  Ga7  1  0.742877  0.757123  0.083888  1
  Ga  Ga8  1  0.742877  0.242877  0.916112  1
  Ga  Ga9  1  0.743136  0.243136  0.083936  1
  Ga  Ga10  1  0.256864  0.243136  0.916064  1
  Ga  Ga11  1  0.500000  0.500000  0.813828  1
  Ga  Ga12  1  0.831620  0.331620  0.568986  1
  Ga  Ga13  1  0.257123  0.757123  0.916112  1
  Ga  Ga14  1  0.000000  0.000000  0.813828  1
  Ga  Ga15  1  0.831620  0.668380  0.431014  1
  Ga  Ga16  1  0.331449  0.831449  0.431226  1
  Ga  Ga17  1  0.500000  0.500000  0.343929  1
  Ga  Ga18  1  0.500000  0.500000  0.186172  1
  Ga  Ga19  1  0.256864  0.756864  0.083936  1
  Ga  Ga20  1  0.668551  0.831449  0.568774  1
  Ga  Ga21  1  0.743136  0.756864  0.916064  1
  Ga  Ga22  1  0.331449  0.168551  0.568774  1
  Ga  Ga23  1  0.257123  0.242877  0.083888  1
  Ga  Ga24  1  0.500000  0.500000  0.656071  1
  Ga  Ga25  1  0.168380  0.331620  0.431014  1
  Ga  Ga26  1  0.000000  0.000000  0.186172  1
  Ga  Ga27  1  0.000000  0.000000  0.656071  1
  Co  Co28  1  0.500000  0.000000  0.000000  1
  Rh  Rh29  1  0.000000  0.500000  0.000000  1
