# generated using pymatgen
data_Ho10Sn5PbO2
_symmetry_space_group_name_H-M   'P 1'
_cell_length_a   9.01034567
_cell_length_b   9.01034626
_cell_length_c   9.01034613
_cell_angle_alpha   125.99527422
_cell_angle_beta   125.99526771
_cell_angle_gamma   79.89591453
_symmetry_Int_Tables_number   1
_chemical_formula_structural   Ho10Sn5PbO2
_chemical_formula_sum   'Ho10 Sn5 Pb1 O2'
_cell_volume   462.41609595
_cell_formula_units_Z   1
loop_
 _symmetry_equiv_pos_site_id
 _symmetry_equiv_pos_as_xyz
  1  'x, y, z'
loop_
 _atom_site_type_symbol
 _atom_site_label
 _atom_site_symmetry_multiplicity
 _atom_site_fract_x
 _atom_site_fract_y
 _atom_site_fract_z
 _atom_site_occupancy
  Ho  Ho0  1  0.999516  0.198977  0.498559  1
  Ho  Ho1  1  0.799582  0.301023  0.800539  1
  Ho  Ho2  1  0.500957  0.999516  0.800539  1
  Ho  Ho3  1  0.500484  0.999043  0.199461  1
  Ho  Ho4  1  0.999043  0.799582  0.498559  1
  Ho  Ho5  1  0.500788  0.500788  0.000000  1
  Ho  Ho6  1  0.198977  0.700418  0.199461  1
  Ho  Ho7  1  0.700418  0.500957  0.501441  1
  Ho  Ho8  1  0.301023  0.500484  0.501441  1
  Ho  Ho9  1  0.999212  0.999212  0.000000  1
  Sn  Sn10  1  0.854294  0.354294  0.208588  1
  Sn  Sn11  1  0.145706  0.645706  0.791412  1
  Sn  Sn12  1  0.354294  0.145706  0.500000  1
  Sn  Sn13  1  0.750000  0.750000  0.000000  1
  Sn  Sn14  1  0.645706  0.854294  0.500000  1
  Pb  Pb15  1  0.250000  0.250000  0.000000  1
  O  O16  1  0.750000  0.250000  0.500000  1
  O  O17  1  0.250000  0.750000  0.500000  1
