# generated using pymatgen
data_Dy3(ErPb2)2
_symmetry_space_group_name_H-M   'P 1'
_cell_length_a   8.18662700
_cell_length_b   8.26550900
_cell_length_c   15.61480000
_cell_angle_alpha   90.00000000
_cell_angle_beta   90.00000000
_cell_angle_gamma   90.00000000
_symmetry_Int_Tables_number   1
_chemical_formula_structural   Dy3(ErPb2)2
_chemical_formula_sum   'Dy12 Er8 Pb16'
_cell_volume   1056.60103697
_cell_formula_units_Z   4
loop_
 _symmetry_equiv_pos_site_id
 _symmetry_equiv_pos_as_xyz
  1  'x, y, z'
loop_
 _atom_site_type_symbol
 _atom_site_label
 _atom_site_symmetry_multiplicity
 _atom_site_fract_x
 _atom_site_fract_y
 _atom_site_fract_z
 _atom_site_occupancy
  Dy  Dy0  1  0.623341  0.158878  0.120861  1
  Dy  Dy1  1  0.123341  0.341122  0.379139  1
  Dy  Dy2  1  0.376659  0.841122  0.620861  1
  Dy  Dy3  1  0.876659  0.658878  0.879139  1
  Dy  Dy4  1  0.536252  0.323209  0.899881  1
  Dy  Dy5  1  0.036252  0.176791  0.600119  1
  Dy  Dy6  1  0.463748  0.676791  0.399881  1
  Dy  Dy7  1  0.963748  0.823209  0.100119  1
  Dy  Dy8  1  0.463697  0.676628  0.100018  1
  Dy  Dy9  1  0.963697  0.823372  0.399982  1
  Dy  Dy10  1  0.536303  0.323372  0.600018  1
  Dy  Dy11  1  0.036303  0.176628  0.899982  1
  Er  Er12  1  0.376427  0.841335  0.879111  1
  Er  Er13  1  0.876427  0.658665  0.620889  1
  Er  Er14  1  0.623573  0.158665  0.379111  1
  Er  Er15  1  0.123573  0.341335  0.120889  1
  Er  Er16  1  0.208283  0.504344  0.750069  1
  Er  Er17  1  0.708283  0.995656  0.749931  1
  Er  Er18  1  0.791717  0.495656  0.250069  1
  Er  Er19  1  0.291717  0.004344  0.249931  1
  Pb  Pb20  1  0.280884  0.033090  0.042707  1
  Pb  Pb21  1  0.780884  0.466910  0.457293  1
  Pb  Pb22  1  0.719116  0.966910  0.542707  1
  Pb  Pb23  1  0.219116  0.533090  0.957293  1
  Pb  Pb24  1  0.718179  0.966988  0.956855  1
  Pb  Pb25  1  0.218179  0.533012  0.543145  1
  Pb  Pb26  1  0.281821  0.033012  0.456855  1
  Pb  Pb27  1  0.781821  0.466988  0.043145  1
  Pb  Pb28  1  0.571315  0.626642  0.750060  1
  Pb  Pb29  1  0.071315  0.873358  0.749940  1
  Pb  Pb30  1  0.428685  0.373358  0.250060  1
  Pb  Pb31  1  0.928685  0.126642  0.249940  1
  Pb  Pb32  1  0.347388  0.153690  0.750122  1
  Pb  Pb33  1  0.847388  0.346310  0.749878  1
  Pb  Pb34  1  0.652612  0.846310  0.250122  1
  Pb  Pb35  1  0.152612  0.653690  0.249878  1
