# generated using pymatgen
data_Tb4DyEr3(B6Os)4
_symmetry_space_group_name_H-M   'P 1'
_cell_length_a   3.65250800
_cell_length_b   9.14389110
_cell_length_c   11.53401313
_cell_angle_alpha   90.01730684
_cell_angle_beta   90.00000000
_cell_angle_gamma   90.00000000
_symmetry_Int_Tables_number   1
_chemical_formula_structural   Tb4DyEr3(B6Os)4
_chemical_formula_sum   'Tb4 Dy1 Er3 B24 Os4'
_cell_volume   385.21451481
_cell_formula_units_Z   1
loop_
 _symmetry_equiv_pos_site_id
 _symmetry_equiv_pos_as_xyz
  1  'x, y, z'
loop_
 _atom_site_type_symbol
 _atom_site_label
 _atom_site_symmetry_multiplicity
 _atom_site_fract_x
 _atom_site_fract_y
 _atom_site_fract_z
 _atom_site_occupancy
  Tb  Tb0  1  0.000000  0.322439  0.414019  1
  Tb  Tb1  1  0.000000  0.677584  0.586282  1
  Tb  Tb2  1  0.000000  0.822173  0.085923  1
  Tb  Tb3  1  0.000000  0.177883  0.913857  1
  Dy  Dy4  1  0.000000  0.944173  0.373007  1
  Er  Er5  1  0.000000  0.055997  0.627466  1
  Er  Er6  1  0.000000  0.444142  0.126905  1
  Er  Er7  1  0.000000  0.555914  0.872864  1
  B  B8  1  0.500000  0.553897  0.432711  1
  B  B9  1  0.500000  0.445608  0.567441  1
  B  B10  1  0.500000  0.054499  0.067060  1
  B  B11  1  0.500000  0.945682  0.932652  1
  B  B12  1  0.500000  0.747810  0.419537  1
  B  B13  1  0.500000  0.251489  0.580673  1
  B  B14  1  0.500000  0.248871  0.080361  1
  B  B15  1  0.500000  0.751293  0.919475  1
  B  B16  1  0.500000  0.790550  0.266336  1
  B  B17  1  0.500000  0.208803  0.733545  1
  B  B18  1  0.500000  0.291618  0.233242  1
  B  B19  1  0.500000  0.708684  0.766638  1
  B  B20  1  0.500000  0.631205  0.185017  1
  B  B21  1  0.500000  0.368595  0.814865  1
  B  B22  1  0.500000  0.132191  0.314496  1
  B  B23  1  0.500000  0.868422  0.685355  1
  B  B24  1  0.500000  0.983946  0.212885  1
  B  B25  1  0.500000  0.016465  0.786638  1
  B  B26  1  0.500000  0.483258  0.286434  1
  B  B27  1  0.500000  0.516531  0.713493  1
  B  B28  1  0.500000  0.605899  0.029190  1
  B  B29  1  0.500000  0.394112  0.970610  1
  B  B30  1  0.500000  0.107326  0.471005  1
  B  B31  1  0.500000  0.893199  0.530163  1
  Os  Os32  1  0.000000  0.637191  0.320895  1
  Os  Os33  1  0.000000  0.362173  0.679203  1
  Os  Os34  1  0.000000  0.138338  0.178735  1
  Os  Os35  1  0.000000  0.862040  0.821021  1
