# generated using pymatgen
data_Sm6CuSi5Rh12
_symmetry_space_group_name_H-M   'P 1'
_cell_length_a   5.60585700
_cell_length_b   5.60585625
_cell_length_c   15.29285400
_cell_angle_alpha   90.00000000
_cell_angle_beta   90.00000000
_cell_angle_gamma   119.99999850
_symmetry_Int_Tables_number   1
_chemical_formula_structural   Sm6CuSi5Rh12
_chemical_formula_sum   'Sm6 Cu1 Si5 Rh12'
_cell_volume   416.20103240
_cell_formula_units_Z   1
loop_
 _symmetry_equiv_pos_site_id
 _symmetry_equiv_pos_as_xyz
  1  'x, y, z'
loop_
 _atom_site_type_symbol
 _atom_site_label
 _atom_site_symmetry_multiplicity
 _atom_site_fract_x
 _atom_site_fract_y
 _atom_site_fract_z
 _atom_site_occupancy
  Sm  Sm0  1  0.333334  0.666667  0.036003  1
  Sm  Sm1  1  0.333334  0.666667  0.247977  1
  Sm  Sm2  1  0.333334  0.666667  0.460574  1
  Sm  Sm3  1  0.666666  0.333333  0.539426  1
  Sm  Sm4  1  0.666666  0.333333  0.752023  1
  Sm  Sm5  1  0.666666  0.333333  0.963997  1
  Cu  Cu6  1  0.000000  0.000000  0.000000  1
  Si  Si7  1  0.000000  0.000000  0.252191  1
  Si  Si8  1  0.666666  0.333333  0.251117  1
  Si  Si9  1  0.000000  0.000000  0.500000  1
  Si  Si10  1  0.000000  0.000000  0.747809  1
  Si  Si11  1  0.333334  0.666667  0.748883  1
  Rh  Rh12  1  0.332454  0.166227  0.136327  1
  Rh  Rh13  1  0.833774  0.166227  0.136327  1
  Rh  Rh14  1  0.833774  0.667547  0.136327  1
  Rh  Rh15  1  0.333772  0.166886  0.369430  1
  Rh  Rh16  1  0.833115  0.166886  0.369430  1
  Rh  Rh17  1  0.833115  0.666229  0.369430  1
  Rh  Rh18  1  0.166886  0.333773  0.630570  1
  Rh  Rh19  1  0.166885  0.833114  0.630570  1
  Rh  Rh20  1  0.666228  0.833114  0.630570  1
  Rh  Rh21  1  0.166227  0.332455  0.863673  1
  Rh  Rh22  1  0.166226  0.833773  0.863673  1
  Rh  Rh23  1  0.667546  0.833773  0.863673  1
