# generated using pymatgen
data_Yb4Ga18(CoPt)3
_symmetry_space_group_name_H-M   'P 1'
_cell_length_a   7.47824897
_cell_length_b   7.47825038
_cell_length_c   9.52602711
_cell_angle_alpha   90.13760353
_cell_angle_beta   90.13760060
_cell_angle_gamma   119.59731093
_symmetry_Int_Tables_number   1
_chemical_formula_structural   Yb4Ga18(CoPt)3
_chemical_formula_sum   'Yb4 Ga18 Co3 Pt3'
_cell_volume   463.21798956
_cell_formula_units_Z   1
loop_
 _symmetry_equiv_pos_site_id
 _symmetry_equiv_pos_as_xyz
  1  'x, y, z'
loop_
 _atom_site_type_symbol
 _atom_site_label
 _atom_site_symmetry_multiplicity
 _atom_site_fract_x
 _atom_site_fract_y
 _atom_site_fract_z
 _atom_site_occupancy
  Yb  Yb0  1  0.502711  0.830643  0.751442  1
  Yb  Yb1  1  0.498530  0.169986  0.250350  1
  Yb  Yb2  1  0.169357  0.497289  0.248558  1
  Yb  Yb3  1  0.830014  0.501470  0.749650  1
  Ga  Ga4  1  0.162515  0.951167  0.744249  1
  Ga  Ga5  1  0.838035  0.048908  0.241224  1
  Ga  Ga6  1  0.048833  0.837485  0.255751  1
  Ga  Ga7  1  0.951092  0.161965  0.758776  1
  Ga  Ga8  1  0.624470  0.623462  0.241453  1
  Ga  Ga9  1  0.376538  0.375530  0.758547  1
  Ga  Ga10  1  0.170770  0.177296  0.060713  1
  Ga  Ga11  1  0.841402  0.833916  0.565302  1
  Ga  Ga12  1  0.822704  0.829230  0.939287  1
  Ga  Ga13  1  0.166084  0.158598  0.434698  1
  Ga  Ga14  1  0.507884  0.833525  0.072796  1
  Ga  Ga15  1  0.487881  0.154553  0.577687  1
  Ga  Ga16  1  0.166475  0.492116  0.927204  1
  Ga  Ga17  1  0.845447  0.512119  0.422313  1
  Ga  Ga18  1  0.514062  0.175539  0.926286  1
  Ga  Ga19  1  0.486479  0.834647  0.420242  1
  Ga  Ga20  1  0.824461  0.485938  0.073714  1
  Ga  Ga21  1  0.165353  0.513521  0.579758  1
  Co  Co22  1  0.500895  0.499105  0.000000  1
  Co  Co23  1  0.830533  0.169467  0.000000  1
  Co  Co24  1  0.169070  0.830930  0.500000  1
  Pt  Pt25  1  0.170822  0.829178  0.000000  1
  Pt  Pt26  1  0.499090  0.500910  0.500000  1
  Pt  Pt27  1  0.828492  0.171508  0.500000  1
