# generated using pymatgen
data_Tm9Lu(SnSb2)2
_symmetry_space_group_name_H-M   'P 1'
_cell_length_a   8.84772302
_cell_length_b   8.84153113
_cell_length_c   6.30903401
_cell_angle_alpha   89.99602097
_cell_angle_beta   90.00795250
_cell_angle_gamma   120.02317281
_symmetry_Int_Tables_number   1
_chemical_formula_structural   Tm9Lu(SnSb2)2
_chemical_formula_sum   'Tm9 Lu1 Sn2 Sb4'
_cell_volume   427.31785363
_cell_formula_units_Z   1
loop_
 _symmetry_equiv_pos_site_id
 _symmetry_equiv_pos_as_xyz
  1  'x, y, z'
loop_
 _atom_site_type_symbol
 _atom_site_label
 _atom_site_symmetry_multiplicity
 _atom_site_fract_x
 _atom_site_fract_y
 _atom_site_fract_z
 _atom_site_occupancy
  Tm  Tm0  1  0.665722  0.331443  0.500000  1
  Tm  Tm1  1  0.665778  0.331556  0.000000  1
  Tm  Tm2  1  0.334279  0.668558  0.500000  1
  Tm  Tm3  1  0.242156  0.999983  0.249953  1
  Tm  Tm4  1  0.757827  0.999983  0.750047  1
  Tm  Tm5  1  0.997098  0.241106  0.249923  1
  Tm  Tm6  1  0.756039  0.758866  0.249999  1
  Tm  Tm7  1  0.244008  0.241106  0.750077  1
  Tm  Tm8  1  0.002827  0.758866  0.750001  1
  Lu  Lu9  1  0.334367  0.668736  0.000000  1
  Sn  Sn10  1  0.605840  0.999575  0.249629  1
  Sn  Sn11  1  0.393735  0.999575  0.750371  1
  Sb  Sb12  1  0.999440  0.609063  0.249736  1
  Sb  Sb13  1  0.389917  0.391260  0.249683  1
  Sb  Sb14  1  0.609623  0.609063  0.750264  1
  Sb  Sb15  1  0.001344  0.391260  0.750317  1
