# generated using pymatgen
data_La4Dy12Cd4IrPt3
_symmetry_space_group_name_H-M   'P 1'
_cell_length_a   9.78518670
_cell_length_b   9.76913741
_cell_length_c   9.76893080
_cell_angle_alpha   60.20397924
_cell_angle_beta   60.23650048
_cell_angle_gamma   60.24461248
_symmetry_Int_Tables_number   1
_chemical_formula_structural   La4Dy12Cd4IrPt3
_chemical_formula_sum   'La4 Dy12 Cd4 Ir1 Pt3'
_cell_volume   663.73818056
_cell_formula_units_Z   1
loop_
 _symmetry_equiv_pos_site_id
 _symmetry_equiv_pos_as_xyz
  1  'x, y, z'
loop_
 _atom_site_type_symbol
 _atom_site_label
 _atom_site_symmetry_multiplicity
 _atom_site_fract_x
 _atom_site_fract_y
 _atom_site_fract_z
 _atom_site_occupancy
  La  La0  1  0.814329  0.186893  0.813861  1
  La  La1  1  0.188486  0.812423  0.184047  1
  La  La2  1  0.814293  0.813830  0.186944  1
  La  La3  1  0.188495  0.184023  0.812447  1
  Dy  Dy4  1  0.603193  0.596488  0.596493  1
  Dy  Dy5  1  0.602764  0.600342  0.200203  1
  Dy  Dy6  1  0.602762  0.200274  0.600296  1
  Dy  Dy7  1  0.190961  0.603137  0.603108  1
  Dy  Dy8  1  0.060369  0.436180  0.436275  1
  Dy  Dy9  1  0.438933  0.062376  0.062364  1
  Dy  Dy10  1  0.439308  0.062552  0.438324  1
  Dy  Dy11  1  0.058940  0.435375  0.065311  1
  Dy  Dy12  1  0.439331  0.438280  0.062544  1
  Dy  Dy13  1  0.058953  0.065312  0.435327  1
  Dy  Dy14  1  0.198722  0.802251  0.802249  1
  Dy  Dy15  1  0.803866  0.197470  0.197468  1
  Cd  Cd16  1  0.835592  0.826956  0.826990  1
  Cd  Cd17  1  0.826745  0.836268  0.510010  1
  Cd  Cd18  1  0.826755  0.509994  0.836252  1
  Cd  Cd19  1  0.512454  0.826861  0.826848  1
  Ir  Ir20  1  0.822574  0.390355  0.390350  1
  Pt  Pt21  1  0.393350  0.393824  0.393794  1
  Pt  Pt22  1  0.389400  0.396394  0.822118  1
  Pt  Pt23  1  0.389424  0.822142  0.396378  1
