# generated using pymatgen
data_Ho2Er4GaNiOs
_symmetry_space_group_name_H-M   'P 1'
_cell_length_a   8.29164820
_cell_length_b   8.29164913
_cell_length_c   8.29164822
_cell_angle_alpha   113.12133804
_cell_angle_beta   110.26931444
_cell_angle_gamma   105.12270811
_symmetry_Int_Tables_number   1
_chemical_formula_structural   Ho2Er4GaNiOs
_chemical_formula_sum   'Ho4 Er8 Ga2 Ni2 Os2'
_cell_volume   436.66351425
_cell_formula_units_Z   2
loop_
 _symmetry_equiv_pos_site_id
 _symmetry_equiv_pos_as_xyz
  1  'x, y, z'
loop_
 _atom_site_type_symbol
 _atom_site_label
 _atom_site_symmetry_multiplicity
 _atom_site_fract_x
 _atom_site_fract_y
 _atom_site_fract_z
 _atom_site_occupancy
  Ho  Ho0  1  0.050058  0.742666  0.307392  1
  Ho  Ho1  1  0.949942  0.257334  0.692608  1
  Ho  Ho2  1  0.564727  0.257334  0.307392  1
  Ho  Ho3  1  0.435273  0.742666  0.692608  1
  Er  Er4  1  0.669473  0.857373  0.187899  1
  Er  Er5  1  0.330527  0.518426  0.187899  1
  Er  Er6  1  0.330527  0.142627  0.812101  1
  Er  Er7  1  0.669473  0.481574  0.812101  1
  Er  Er8  1  0.179873  0.221657  0.401531  1
  Er  Er9  1  0.820127  0.221657  0.041785  1
  Er  Er10  1  0.179873  0.778343  0.958215  1
  Er  Er11  1  0.820127  0.778343  0.598469  1
  Ga  Ga12  1  0.000000  0.500000  0.500000  1
  Ga  Ga13  1  0.500000  0.000000  0.500000  1
  Ni  Ni14  1  0.882770  0.882770  0.000000  1
  Ni  Ni15  1  0.117230  0.117230  0.000000  1
  Os  Os16  1  0.670370  0.500000  0.170370  1
  Os  Os17  1  0.329630  0.500000  0.829630  1
