# generated using pymatgen
data_YbCeAl4FeNi
_symmetry_space_group_name_H-M   'P 1'
_cell_length_a   5.14262405
_cell_length_b   5.14262365
_cell_length_c   7.18006200
_cell_angle_alpha   90.00000000
_cell_angle_beta   90.00000000
_cell_angle_gamma   131.60855684
_symmetry_Int_Tables_number   1
_chemical_formula_structural   YbCeAl4FeNi
_chemical_formula_sum   'Yb1 Ce1 Al4 Fe1 Ni1'
_cell_volume   141.97911725
_cell_formula_units_Z   1
loop_
 _symmetry_equiv_pos_site_id
 _symmetry_equiv_pos_as_xyz
  1  'x, y, z'
loop_
 _atom_site_type_symbol
 _atom_site_label
 _atom_site_symmetry_multiplicity
 _atom_site_fract_x
 _atom_site_fract_y
 _atom_site_fract_z
 _atom_site_occupancy
  Yb  Yb0  1  0.440608  0.559392  0.750000  1
  Ce  Ce1  1  0.541409  0.458591  0.250000  1
  Al  Al2  1  0.837646  0.162354  0.050229  1
  Al  Al3  1  0.157348  0.842652  0.945520  1
  Al  Al4  1  0.157348  0.842652  0.554480  1
  Al  Al5  1  0.837646  0.162354  0.449771  1
  Fe  Fe6  1  0.313689  0.686311  0.250000  1
  Ni  Ni7  1  0.714306  0.285694  0.750000  1
