# generated using pymatgen
data_Tb5CeTcRh
_symmetry_space_group_name_H-M   'P 1'
_cell_length_a   6.32925800
_cell_length_b   7.21017300
_cell_length_c   9.59250800
_cell_angle_alpha   90.00000000
_cell_angle_beta   90.00000000
_cell_angle_gamma   90.00000000
_symmetry_Int_Tables_number   1
_chemical_formula_structural   Tb5CeTcRh
_chemical_formula_sum   'Tb10 Ce2 Tc2 Rh2'
_cell_volume   437.75453560
_cell_formula_units_Z   2
loop_
 _symmetry_equiv_pos_site_id
 _symmetry_equiv_pos_as_xyz
  1  'x, y, z'
loop_
 _atom_site_type_symbol
 _atom_site_label
 _atom_site_symmetry_multiplicity
 _atom_site_fract_x
 _atom_site_fract_y
 _atom_site_fract_z
 _atom_site_occupancy
  Tb  Tb0  1  0.330501  0.679051  0.065530  1
  Tb  Tb1  1  0.169499  0.179051  0.434470  1
  Tb  Tb2  1  0.668710  0.323565  0.564192  1
  Tb  Tb3  1  0.831290  0.823565  0.935808  1
  Tb  Tb4  1  0.668710  0.323565  0.935808  1
  Tb  Tb5  1  0.831290  0.823565  0.564192  1
  Tb  Tb6  1  0.330501  0.679051  0.434470  1
  Tb  Tb7  1  0.169499  0.179051  0.065530  1
  Tb  Tb8  1  0.140035  0.460972  0.750000  1
  Tb  Tb9  1  0.359965  0.960972  0.750000  1
  Ce  Ce10  1  0.860977  0.554769  0.250000  1
  Ce  Ce11  1  0.639023  0.054769  0.250000  1
  Tc  Tc12  1  0.002408  0.862923  0.250000  1
  Tc  Tc13  1  0.497592  0.362923  0.250000  1
  Rh  Rh14  1  0.945847  0.116103  0.750000  1
  Rh  Rh15  1  0.554153  0.616103  0.750000  1
