# generated using pymatgen
data_NaAc11(In2Au)4
_symmetry_space_group_name_H-M   'P 1'
_cell_length_a   14.38970300
_cell_length_b   14.38970141
_cell_length_c   3.96494100
_cell_angle_alpha   90.00000000
_cell_angle_beta   90.00000000
_cell_angle_gamma   68.32928542
_symmetry_Int_Tables_number   1
_chemical_formula_structural   NaAc11(In2Au)4
_chemical_formula_sum   'Na1 Ac11 In8 Au4'
_cell_volume   762.96795428
_cell_formula_units_Z   1
loop_
 _symmetry_equiv_pos_site_id
 _symmetry_equiv_pos_as_xyz
  1  'x, y, z'
loop_
 _atom_site_type_symbol
 _atom_site_label
 _atom_site_symmetry_multiplicity
 _atom_site_fract_x
 _atom_site_fract_y
 _atom_site_fract_z
 _atom_site_occupancy
  Na  Na0  1  0.500000  0.500000  0.500002  1
  Ac  Ac1  1  0.288741  0.711260  0.000000  1
  Ac  Ac2  1  0.711260  0.288741  0.000000  1
  Ac  Ac3  1  0.000000  0.000000  0.000000  1
  Ac  Ac4  1  0.419197  0.926893  0.000000  1
  Ac  Ac5  1  0.580803  0.073107  0.000000  1
  Ac  Ac6  1  0.073107  0.580803  0.000000  1
  Ac  Ac7  1  0.926893  0.419197  0.000000  1
  Ac  Ac8  1  0.159891  0.159891  0.000000  1
  Ac  Ac9  1  0.840108  0.840108  0.000000  1
  Ac  Ac10  1  0.356410  0.356410  0.000000  1
  Ac  Ac11  1  0.643590  0.643590  0.000000  1
  In  In12  1  0.363447  0.150748  0.500002  1
  In  In13  1  0.636553  0.849252  0.500002  1
  In  In14  1  0.849252  0.636553  0.500002  1
  In  In15  1  0.150748  0.363447  0.500002  1
  In  In16  1  0.214645  0.930490  0.500002  1
  In  In17  1  0.785355  0.069510  0.500002  1
  In  In18  1  0.069510  0.785355  0.500002  1
  In  In19  1  0.930490  0.214645  0.500002  1
  Au  Au20  1  0.454448  0.738379  0.500002  1
  Au  Au21  1  0.545552  0.261621  0.500002  1
  Au  Au22  1  0.261621  0.545552  0.500002  1
  Au  Au23  1  0.738379  0.454448  0.500002  1
