# generated using pymatgen
data_AlZnCoO4
_symmetry_space_group_name_H-M   'P 1'
_cell_length_a   5.77439634
_cell_length_b   5.77439592
_cell_length_c   5.77439677
_cell_angle_alpha   119.60225568
_cell_angle_beta   120.26070812
_cell_angle_gamma   90.11966018
_symmetry_Int_Tables_number   1
_chemical_formula_structural   AlZnCoO4
_chemical_formula_sum   'Al2 Zn2 Co2 O8'
_cell_volume   136.28103316
_cell_formula_units_Z   2
loop_
 _symmetry_equiv_pos_site_id
 _symmetry_equiv_pos_as_xyz
  1  'x, y, z'
loop_
 _atom_site_type_symbol
 _atom_site_label
 _atom_site_symmetry_multiplicity
 _atom_site_fract_x
 _atom_site_fract_y
 _atom_site_fract_z
 _atom_site_occupancy
  Al  Al0  1  0.500000  0.500000  0.000000  1
  Al  Al1  1  0.000000  0.500000  0.500000  1
  Zn  Zn2  1  0.129769  0.879769  0.250000  1
  Zn  Zn3  1  0.870231  0.120231  0.750000  1
  Co  Co4  1  0.500000  0.500000  0.500000  1
  Co  Co5  1  0.500000  0.000000  0.000000  1
  O  O6  1  0.737995  0.269181  0.031186  1
  O  O7  1  0.737995  0.706809  0.468814  1
  O  O8  1  0.739669  0.265951  0.473718  1
  O  O9  1  0.292233  0.265951  0.026282  1
  O  O10  1  0.262005  0.730819  0.968814  1
  O  O11  1  0.262005  0.293191  0.531186  1
  O  O12  1  0.260331  0.734049  0.526282  1
  O  O13  1  0.707767  0.734049  0.973718  1
