# generated using pymatgen
data_NaYbNi9As7Ru3
_symmetry_space_group_name_H-M   'P 1'
_cell_length_a   9.48415200
_cell_length_b   9.48415151
_cell_length_c   3.78856700
_cell_angle_alpha   90.00000000
_cell_angle_beta   90.00000000
_cell_angle_gamma   120.00000171
_symmetry_Int_Tables_number   1
_chemical_formula_structural   NaYbNi9As7Ru3
_chemical_formula_sum   'Na1 Yb1 Ni9 As7 Ru3'
_cell_volume   295.12267944
_cell_formula_units_Z   1
loop_
 _symmetry_equiv_pos_site_id
 _symmetry_equiv_pos_as_xyz
  1  'x, y, z'
loop_
 _atom_site_type_symbol
 _atom_site_label
 _atom_site_symmetry_multiplicity
 _atom_site_fract_x
 _atom_site_fract_y
 _atom_site_fract_z
 _atom_site_occupancy
  Na  Na0  1  0.666667  0.333333  0.500000  1
  Yb  Yb1  1  0.333333  0.666667  0.000000  1
  Ni  Ni2  1  0.122255  0.284906  0.000000  1
  Ni  Ni3  1  0.715094  0.837348  0.000000  1
  Ni  Ni4  1  0.162652  0.877745  0.000000  1
  Ni  Ni5  1  0.431276  0.376060  0.000000  1
  Ni  Ni6  1  0.623940  0.055217  0.000000  1
  Ni  Ni7  1  0.944783  0.568724  0.000000  1
  Ni  Ni8  1  0.052486  0.435503  0.500000  1
  Ni  Ni9  1  0.564497  0.616984  0.500000  1
  Ni  Ni10  1  0.383016  0.947514  0.500000  1
  As  As11  1  0.291517  0.409294  0.500000  1
  As  As12  1  0.590706  0.882222  0.500000  1
  As  As13  1  0.117778  0.708483  0.500000  1
  As  As14  1  0.414267  0.121472  0.000000  1
  As  As15  1  0.878528  0.292796  0.000000  1
  As  As16  1  0.707204  0.585733  0.000000  1
  As  As17  1  0.000000  0.000000  0.000000  1
  Ru  Ru18  1  0.212264  0.117271  0.500000  1
  Ru  Ru19  1  0.882729  0.094993  0.500000  1
  Ru  Ru20  1  0.905007  0.787736  0.500000  1
