# generated using pymatgen
data_Ho3Mn4Co2(P2Ir)3
_symmetry_space_group_name_H-M   'P 1'
_cell_length_a   3.76792800
_cell_length_b   11.00714400
_cell_length_c   12.50294500
_cell_angle_alpha   90.00000000
_cell_angle_beta   90.00000000
_cell_angle_gamma   90.00000000
_symmetry_Int_Tables_number   1
_chemical_formula_structural   Ho3Mn4Co2(P2Ir)3
_chemical_formula_sum   'Ho6 Mn8 Co4 P12 Ir6'
_cell_volume   518.54871727
_cell_formula_units_Z   2
loop_
 _symmetry_equiv_pos_site_id
 _symmetry_equiv_pos_as_xyz
  1  'x, y, z'
loop_
 _atom_site_type_symbol
 _atom_site_label
 _atom_site_symmetry_multiplicity
 _atom_site_fract_x
 _atom_site_fract_y
 _atom_site_fract_z
 _atom_site_occupancy
  Ho  Ho0  1  0.000000  0.500000  0.523046  1
  Ho  Ho1  1  0.500000  0.000000  0.473256  1
  Ho  Ho2  1  0.500000  0.820401  0.198841  1
  Ho  Ho3  1  0.500000  0.179599  0.198841  1
  Ho  Ho4  1  0.000000  0.680358  0.802491  1
  Ho  Ho5  1  0.000000  0.319642  0.802491  1
  Mn  Mn6  1  0.500000  0.297042  0.432485  1
  Mn  Mn7  1  0.500000  0.702958  0.432485  1
  Mn  Mn8  1  0.500000  0.888847  0.714843  1
  Mn  Mn9  1  0.500000  0.111153  0.714843  1
  Mn  Mn10  1  0.500000  0.330368  0.997121  1
  Mn  Mn11  1  0.500000  0.669632  0.997121  1
  Mn  Mn12  1  0.500000  0.500000  0.151122  1
  Mn  Mn13  1  0.000000  0.000000  0.844266  1
  Co  Co14  1  0.000000  0.500000  0.991680  1
  Co  Co15  1  0.500000  0.000000  0.008008  1
  Co  Co16  1  0.000000  0.162742  0.002220  1
  Co  Co17  1  0.000000  0.837258  0.002220  1
  P  P18  1  0.500000  0.312709  0.618992  1
  P  P19  1  0.500000  0.687291  0.618992  1
  P  P20  1  0.000000  0.188183  0.381223  1
  P  P21  1  0.000000  0.811817  0.381223  1
  P  P22  1  0.500000  0.500000  0.896728  1
  P  P23  1  0.000000  0.000000  0.105014  1
  P  P24  1  0.500000  0.843056  0.896073  1
  P  P25  1  0.500000  0.156944  0.896073  1
  P  P26  1  0.000000  0.660224  0.096707  1
  P  P27  1  0.000000  0.339776  0.096707  1
  P  P28  1  0.500000  0.500000  0.352550  1
  P  P29  1  0.000000  0.000000  0.654315  1
  Ir  Ir30  1  0.000000  0.199005  0.574200  1
  Ir  Ir31  1  0.000000  0.800995  0.574200  1
  Ir  Ir32  1  0.000000  0.625626  0.285231  1
  Ir  Ir33  1  0.000000  0.374374  0.285231  1
  Ir  Ir34  1  0.500000  0.500000  0.706893  1
  Ir  Ir35  1  0.000000  0.000000  0.292266  1
