# generated using pymatgen
data_DyEr11In2(GaTc)2
_symmetry_space_group_name_H-M   'P 1'
_cell_length_a   8.52136057
_cell_length_b   8.52466437
_cell_length_c   8.52135944
_cell_angle_alpha   113.49360236
_cell_angle_beta   111.64495684
_cell_angle_gamma   103.42985908
_symmetry_Int_Tables_number   1
_chemical_formula_structural   DyEr11In2(GaTc)2
_chemical_formula_sum   'Dy1 Er11 In2 Ga2 Tc2'
_cell_volume   472.55071383
_cell_formula_units_Z   1
loop_
 _symmetry_equiv_pos_site_id
 _symmetry_equiv_pos_as_xyz
  1  'x, y, z'
loop_
 _atom_site_type_symbol
 _atom_site_label
 _atom_site_symmetry_multiplicity
 _atom_site_fract_x
 _atom_site_fract_y
 _atom_site_fract_z
 _atom_site_occupancy
  Dy  Dy0  1  0.662556  0.976011  0.313453  1
  Er  Er1  1  0.438910  0.240380  0.199191  1
  Er  Er2  1  0.560580  0.759664  0.800098  1
  Er  Er3  1  0.041190  0.240380  0.801468  1
  Er  Er4  1  0.959566  0.759664  0.199087  1
  Er  Er5  1  0.191016  0.276480  0.466929  1
  Er  Er6  1  0.809544  0.723692  0.533787  1
  Er  Er7  1  0.189904  0.723692  0.914147  1
  Er  Er8  1  0.809552  0.276480  0.085463  1
  Er  Er9  1  0.337279  0.651743  0.314464  1
  Er  Er10  1  0.662450  0.348118  0.685668  1
  Er  Er11  1  0.337816  0.023228  0.685413  1
  In  In12  1  0.499812  0.498756  0.998944  1
  In  In13  1  0.999580  0.000382  0.000801  1
  Ga  Ga14  1  0.118190  0.618415  0.500225  1
  Ga  Ga15  1  0.882455  0.382806  0.500352  1
  Tc  Tc16  1  0.323584  0.000053  0.324039  1
  Tc  Tc17  1  0.676015  0.000053  0.676470  1
