# generated using pymatgen
data_PrLu(Tc2P)4
_symmetry_space_group_name_H-M   'P 1'
_cell_length_a   7.44897822
_cell_length_b   7.44897822
_cell_length_c   3.96240000
_cell_angle_alpha   90.00000000
_cell_angle_beta   90.00000000
_cell_angle_gamma   89.23909439
_symmetry_Int_Tables_number   1
_chemical_formula_structural   PrLu(Tc2P)4
_chemical_formula_sum   'Pr1 Lu1 Tc8 P4'
_cell_volume   219.84339645
_cell_formula_units_Z   1
loop_
 _symmetry_equiv_pos_site_id
 _symmetry_equiv_pos_as_xyz
  1  'x, y, z'
loop_
 _atom_site_type_symbol
 _atom_site_label
 _atom_site_symmetry_multiplicity
 _atom_site_fract_x
 _atom_site_fract_y
 _atom_site_fract_z
 _atom_site_occupancy
  Pr  Pr0  1  0.500000  0.500000  0.000000  1
  Lu  Lu1  1  0.000000  0.000000  0.500000  1
  Tc  Tc2  1  0.156911  0.584842  0.500000  1
  Tc  Tc3  1  0.843089  0.415158  0.500000  1
  Tc  Tc4  1  0.336725  0.079945  0.000000  1
  Tc  Tc5  1  0.663275  0.920055  0.000000  1
  Tc  Tc6  1  0.584842  0.156911  0.500000  1
  Tc  Tc7  1  0.415158  0.843089  0.500000  1
  Tc  Tc8  1  0.079945  0.336725  0.000000  1
  Tc  Tc9  1  0.920055  0.663275  0.000000  1
  P  P10  1  0.716821  0.716821  0.500000  1
  P  P11  1  0.283179  0.283179  0.500000  1
  P  P12  1  0.792507  0.207493  0.000000  1
  P  P13  1  0.207493  0.792507  0.000000  1
