# generated using pymatgen
data_TbHo6Th(ReB6)4
_symmetry_space_group_name_H-M   'P 1'
_cell_length_a   3.70178900
_cell_length_b   9.18476373
_cell_length_c   11.58075604
_cell_angle_alpha   90.03024568
_cell_angle_beta   90.00000000
_cell_angle_gamma   90.00000000
_symmetry_Int_Tables_number   1
_chemical_formula_structural   TbHo6Th(ReB6)4
_chemical_formula_sum   'Tb1 Ho6 Th1 Re4 B24'
_cell_volume   393.74631487
_cell_formula_units_Z   1
loop_
 _symmetry_equiv_pos_site_id
 _symmetry_equiv_pos_as_xyz
  1  'x, y, z'
loop_
 _atom_site_type_symbol
 _atom_site_label
 _atom_site_symmetry_multiplicity
 _atom_site_fract_x
 _atom_site_fract_y
 _atom_site_fract_z
 _atom_site_occupancy
  Tb  Tb0  1  0.000000  0.677833  0.587244  1
  Ho  Ho1  1  0.000000  0.823408  0.085077  1
  Ho  Ho2  1  0.000000  0.175864  0.914078  1
  Ho  Ho3  1  0.000000  0.942032  0.369247  1
  Ho  Ho4  1  0.000000  0.056080  0.631528  1
  Ho  Ho5  1  0.000000  0.443438  0.128180  1
  Ho  Ho6  1  0.000000  0.557407  0.870744  1
  Th  Th7  1  0.000000  0.322365  0.414022  1
  Re  Re8  1  0.000000  0.639299  0.320006  1
  Re  Re9  1  0.000000  0.361419  0.680649  1
  Re  Re10  1  0.000000  0.138249  0.178118  1
  Re  Re11  1  0.000000  0.861656  0.821382  1
  B  B12  1  0.500000  0.555768  0.431891  1
  B  B13  1  0.500000  0.446678  0.569725  1
  B  B14  1  0.500000  0.052965  0.066308  1
  B  B15  1  0.500000  0.946690  0.933033  1
  B  B16  1  0.500000  0.750202  0.417739  1
  B  B17  1  0.500000  0.250680  0.585077  1
  B  B18  1  0.500000  0.248689  0.080157  1
  B  B19  1  0.500000  0.750945  0.918582  1
  B  B20  1  0.500000  0.792198  0.264808  1
  B  B21  1  0.500000  0.207981  0.736200  1
  B  B22  1  0.500000  0.290443  0.232026  1
  B  B23  1  0.500000  0.708309  0.766067  1
  B  B24  1  0.500000  0.631967  0.184258  1
  B  B25  1  0.500000  0.369478  0.815459  1
  B  B26  1  0.500000  0.129161  0.312183  1
  B  B27  1  0.500000  0.869265  0.686382  1
  B  B28  1  0.500000  0.982010  0.210822  1
  B  B29  1  0.500000  0.017194  0.788739  1
  B  B30  1  0.500000  0.485501  0.286069  1
  B  B31  1  0.500000  0.517688  0.713747  1
  B  B32  1  0.500000  0.601255  0.027705  1
  B  B33  1  0.500000  0.399385  0.971528  1
  B  B34  1  0.500000  0.096957  0.472960  1
  B  B35  1  0.500000  0.899533  0.528263  1
