# generated using pymatgen
data_Tb3In3PtRhPb
_symmetry_space_group_name_H-M   'P 1'
_cell_length_a   7.93000200
_cell_length_b   7.93000147
_cell_length_c   3.90748400
_cell_angle_alpha   90.00000000
_cell_angle_beta   90.00000000
_cell_angle_gamma   120.00001053
_symmetry_Int_Tables_number   1
_chemical_formula_structural   Tb3In3PtRhPb
_chemical_formula_sum   'Tb3 In3 Pt1 Rh1 Pb1'
_cell_volume   212.80134026
_cell_formula_units_Z   1
loop_
 _symmetry_equiv_pos_site_id
 _symmetry_equiv_pos_as_xyz
  1  'x, y, z'
loop_
 _atom_site_type_symbol
 _atom_site_label
 _atom_site_symmetry_multiplicity
 _atom_site_fract_x
 _atom_site_fract_y
 _atom_site_fract_z
 _atom_site_occupancy
  Tb  Tb0  1  0.970986  0.585042  0.500000  1
  Tb  Tb1  1  0.414958  0.385944  0.500000  1
  Tb  Tb2  1  0.614056  0.029014  0.500000  1
  In  In3  1  0.757068  0.747562  0.000000  1
  In  In4  1  0.990494  0.242932  0.000000  1
  In  In5  1  0.252438  0.009506  0.000000  1
  Pt  Pt6  1  0.666667  0.333333  0.000000  1
  Rh  Rh7  1  0.000000  0.000000  0.500000  1
  Pb  Pb8  1  0.333333  0.666667  0.000000  1
