# generated using pymatgen
data_LaErU2F15
_symmetry_space_group_name_H-M   'P 1'
_cell_length_a   7.88628181
_cell_length_b   7.78284069
_cell_length_c   7.88628200
_cell_angle_alpha   112.50705068
_cell_angle_beta   113.53914582
_cell_angle_gamma   112.50705727
_symmetry_Int_Tables_number   1
_chemical_formula_structural   LaErU2F15
_chemical_formula_sum   'La1 Er1 U2 F15'
_cell_volume   317.55047285
_cell_formula_units_Z   1
loop_
 _symmetry_equiv_pos_site_id
 _symmetry_equiv_pos_as_xyz
  1  'x, y, z'
loop_
 _atom_site_type_symbol
 _atom_site_label
 _atom_site_symmetry_multiplicity
 _atom_site_fract_x
 _atom_site_fract_y
 _atom_site_fract_z
 _atom_site_occupancy
  La  La0  1  0.495819  0.497286  0.495819  1
  Er  Er1  1  0.853113  0.278453  0.853113  1
  U  U2  1  0.291220  0.853966  0.863176  1
  U  U3  1  0.863176  0.853966  0.291220  1
  F  F4  1  0.606727  0.940178  0.154926  1
  F  F5  1  0.930163  0.135160  0.596246  1
  F  F6  1  0.144459  0.605068  0.928585  1
  F  F7  1  0.928585  0.605068  0.144459  1
  F  F8  1  0.595338  0.584333  0.244305  1
  F  F9  1  0.244305  0.584333  0.595338  1
  F  F10  1  0.608003  0.282536  0.608003  1
  F  F11  1  0.135612  0.133542  0.351339  1
  F  F12  1  0.351339  0.133542  0.135612  1
  F  F13  1  0.153511  0.373761  0.153511  1
  F  F14  1  0.660327  0.677017  0.907227  1
  F  F15  1  0.907227  0.677017  0.660327  1
  F  F16  1  0.667070  0.896605  0.667070  1
  F  F17  1  0.154926  0.940178  0.606727  1
  F  F18  1  0.596246  0.135160  0.930163  1
