# generated using pymatgen
data_LaCe3(B4W)4
_symmetry_space_group_name_H-M   'P 1'
_cell_length_a   3.70715600
_cell_length_b   6.09856403
_cell_length_c   11.79778760
_cell_angle_alpha   89.91794288
_cell_angle_beta   90.00000000
_cell_angle_gamma   90.00000000
_symmetry_Int_Tables_number   1
_chemical_formula_structural   LaCe3(B4W)4
_chemical_formula_sum   'La1 Ce3 B16 W4'
_cell_volume   266.72798078
_cell_formula_units_Z   1
loop_
 _symmetry_equiv_pos_site_id
 _symmetry_equiv_pos_as_xyz
  1  'x, y, z'
loop_
 _atom_site_type_symbol
 _atom_site_label
 _atom_site_symmetry_multiplicity
 _atom_site_fract_x
 _atom_site_fract_y
 _atom_site_fract_z
 _atom_site_occupancy
  La  La0  1  0.000000  0.375330  0.651085  1
  Ce  Ce1  1  0.000000  0.124239  0.150856  1
  Ce  Ce2  1  0.000000  0.875423  0.849852  1
  Ce  Ce3  1  0.000000  0.624377  0.348695  1
  B  B4  1  0.500000  0.021712  0.691115  1
  B  B5  1  0.500000  0.974221  0.307541  1
  B  B6  1  0.500000  0.528247  0.811565  1
  B  B7  1  0.500000  0.474358  0.191802  1
  B  B8  1  0.500000  0.111092  0.544276  1
  B  B9  1  0.500000  0.885704  0.451959  1
  B  B10  1  0.500000  0.614412  0.954558  1
  B  B11  1  0.500000  0.386417  0.047399  1
  B  B12  1  0.500000  0.285877  0.314031  1
  B  B13  1  0.500000  0.720005  0.685552  1
  B  B14  1  0.500000  0.785044  0.185323  1
  B  B15  1  0.500000  0.214012  0.817677  1
  B  B16  1  0.500000  0.362600  0.464867  1
  B  B17  1  0.500000  0.638523  0.530212  1
  B  B18  1  0.500000  0.863678  0.032849  1
  B  B19  1  0.500000  0.135839  0.969126  1
  W  W20  1  0.000000  0.128725  0.412871  1
  W  W21  1  0.000000  0.870237  0.583759  1
  W  W22  1  0.000000  0.630554  0.086191  1
  W  W23  1  0.000000  0.369374  0.916838  1
