# generated using pymatgen
data_Ba2Si4GeN8
_symmetry_space_group_name_H-M   'P 1'
_cell_length_a   5.89974088
_cell_length_b   7.06032579
_cell_length_c   9.57330600
_cell_angle_alpha   90.00000000
_cell_angle_beta   90.00000000
_cell_angle_gamma   89.71656485
_symmetry_Int_Tables_number   1
_chemical_formula_structural   Ba2Si4GeN8
_chemical_formula_sum   'Ba4 Si8 Ge2 N16'
_cell_volume   398.76249669
_cell_formula_units_Z   2
loop_
 _symmetry_equiv_pos_site_id
 _symmetry_equiv_pos_as_xyz
  1  'x, y, z'
loop_
 _atom_site_type_symbol
 _atom_site_label
 _atom_site_symmetry_multiplicity
 _atom_site_fract_x
 _atom_site_fract_y
 _atom_site_fract_z
 _atom_site_occupancy
  Ba  Ba0  1  0.499309  0.120124  0.130273  1
  Ba  Ba1  1  0.000691  0.879876  0.630273  1
  Ba  Ba2  1  0.497978  0.144478  0.501324  1
  Ba  Ba3  1  0.002022  0.855522  0.001324  1
  Si  Si4  1  0.496173  0.600607  0.603721  1
  Si  Si5  1  0.003827  0.399393  0.103721  1
  Si  Si6  1  0.495155  0.579853  0.039479  1
  Si  Si7  1  0.004845  0.420147  0.539479  1
  Si  Si8  1  0.496731  0.942523  0.822345  1
  Si  Si9  1  0.003269  0.057477  0.322345  1
  Si  Si10  1  0.251559  0.335310  0.820539  1
  Si  Si11  1  0.248441  0.664690  0.320539  1
  Ge  Ge12  1  0.753408  0.331904  0.820741  1
  Ge  Ge13  1  0.746592  0.668096  0.320741  1
  N  N14  1  0.487020  0.578334  0.226623  1
  N  N15  1  0.012980  0.421666  0.726623  1
  N  N16  1  0.493133  0.823388  0.664832  1
  N  N17  1  0.006867  0.176612  0.164832  1
  N  N18  1  0.490345  0.423974  0.732136  1
  N  N19  1  0.009655  0.576026  0.232136  1
  N  N20  1  0.746933  0.550252  0.501301  1
  N  N21  1  0.753067  0.449748  0.001301  1
  N  N22  1  0.253442  0.556220  0.491675  1
  N  N23  1  0.246558  0.443780  0.991675  1
  N  N24  1  0.743107  0.076267  0.830479  1
  N  N25  1  0.756893  0.923733  0.330479  1
  N  N26  1  0.266201  0.095363  0.831505  1
  N  N27  1  0.233799  0.904637  0.331505  1
  N  N28  1  0.007212  0.201281  0.470069  1
  N  N29  1  0.492788  0.798719  0.970069  1
