# generated using pymatgen
data_Tb4CdPt4Au
_symmetry_space_group_name_H-M   'P 1'
_cell_length_a   3.74201100
_cell_length_b   7.69032800
_cell_length_c   7.69032800
_cell_angle_alpha   90.00000000
_cell_angle_beta   90.00000000
_cell_angle_gamma   90.00000000
_symmetry_Int_Tables_number   1
_chemical_formula_structural   Tb4CdPt4Au
_chemical_formula_sum   'Tb4 Cd1 Pt4 Au1'
_cell_volume   221.30681420
_cell_formula_units_Z   1
loop_
 _symmetry_equiv_pos_site_id
 _symmetry_equiv_pos_as_xyz
  1  'x, y, z'
loop_
 _atom_site_type_symbol
 _atom_site_label
 _atom_site_symmetry_multiplicity
 _atom_site_fract_x
 _atom_site_fract_y
 _atom_site_fract_z
 _atom_site_occupancy
  Tb  Tb0  1  0.500000  0.151958  0.687612  1
  Tb  Tb1  1  0.500000  0.848042  0.312388  1
  Tb  Tb2  1  0.500000  0.312388  0.151958  1
  Tb  Tb3  1  0.500000  0.687612  0.848042  1
  Cd  Cd4  1  0.000000  0.500000  0.500000  1
  Pt  Pt5  1  0.000000  0.618942  0.143091  1
  Pt  Pt6  1  0.000000  0.381058  0.856909  1
  Pt  Pt7  1  0.000000  0.856909  0.618942  1
  Pt  Pt8  1  0.000000  0.143091  0.381058  1
  Au  Au9  1  0.000000  0.000000  0.000000  1
