# generated using pymatgen
data_La4Tb2Al24Os5Pt3
_symmetry_space_group_name_H-M   'P 1'
_cell_length_a   8.93505942
_cell_length_b   8.95465874
_cell_length_c   9.70089942
_cell_angle_alpha   90.06360206
_cell_angle_beta   89.86305718
_cell_angle_gamma   119.64158030
_symmetry_Int_Tables_number   1
_chemical_formula_structural   La4Tb2Al24Os5Pt3
_chemical_formula_sum   'La4 Tb2 Al24 Os5 Pt3'
_cell_volume   674.59808430
_cell_formula_units_Z   1
loop_
 _symmetry_equiv_pos_site_id
 _symmetry_equiv_pos_as_xyz
  1  'x, y, z'
loop_
 _atom_site_type_symbol
 _atom_site_label
 _atom_site_symmetry_multiplicity
 _atom_site_fract_x
 _atom_site_fract_y
 _atom_site_fract_z
 _atom_site_occupancy
  La  La0  1  0.187242  0.378015  0.250208  1
  La  La1  1  0.812758  0.621985  0.749792  1
  La  La2  1  0.619674  0.814069  0.251661  1
  La  La3  1  0.380326  0.185931  0.748339  1
  Tb  Tb4  1  0.195423  0.808746  0.250995  1
  Tb  Tb5  1  0.804577  0.191254  0.749005  1
  Al  Al6  1  0.334564  0.672065  0.024197  1
  Al  Al7  1  0.665436  0.327935  0.975803  1
  Al  Al8  1  0.670093  0.330390  0.522554  1
  Al  Al9  1  0.329907  0.669610  0.477446  1
  Al  Al10  1  0.155942  0.325201  0.574344  1
  Al  Al11  1  0.844058  0.674799  0.425656  1
  Al  Al12  1  0.673882  0.843140  0.575286  1
  Al  Al13  1  0.838837  0.676041  0.076966  1
  Al  Al14  1  0.326118  0.156860  0.424714  1
  Al  Al15  1  0.161163  0.323959  0.923034  1
  Al  Al16  1  0.164601  0.834801  0.573504  1
  Al  Al17  1  0.325554  0.156276  0.075792  1
  Al  Al18  1  0.835399  0.165199  0.426496  1
  Al  Al19  1  0.674446  0.843724  0.924208  1
  Al  Al20  1  0.831412  0.159585  0.075483  1
  Al  Al21  1  0.168588  0.840415  0.924517  1
  Al  Al22  1  0.561091  0.126003  0.249711  1
  Al  Al23  1  0.438909  0.873997  0.750289  1
  Al  Al24  1  0.872879  0.437293  0.252970  1
  Al  Al25  1  0.127121  0.562707  0.747030  1
  Al  Al26  1  0.564684  0.434732  0.249552  1
  Al  Al27  1  0.435316  0.565268  0.750448  1
  Al  Al28  1  0.001877  0.999636  0.250152  1
  Al  Al29  1  0.998123  0.000364  0.749848  1
  Os  Os30  1  0.500000  0.000000  0.000000  1
  Os  Os31  1  0.500000  0.000000  0.500000  1
  Os  Os32  1  0.000000  0.500000  0.500000  1
  Os  Os33  1  0.000000  0.000000  0.000000  1
  Os  Os34  1  0.000000  0.000000  0.500000  1
  Pt  Pt35  1  0.000000  0.500000  0.000000  1
  Pt  Pt36  1  0.500000  0.500000  0.000000  1
  Pt  Pt37  1  0.500000  0.500000  0.500000  1
