# generated using pymatgen
data_Y6Ho10MgHg3Pt4
_symmetry_space_group_name_H-M   'P 1'
_cell_length_a   9.66072778
_cell_length_b   9.65809713
_cell_length_c   9.65809800
_cell_angle_alpha   60.00000387
_cell_angle_beta   60.00901119
_cell_angle_gamma   60.00899994
_symmetry_Int_Tables_number   1
_chemical_formula_structural   Y6Ho10MgHg3Pt4
_chemical_formula_sum   'Y6 Ho10 Mg1 Hg3 Pt4'
_cell_volume   637.29005096
_cell_formula_units_Z   1
loop_
 _symmetry_equiv_pos_site_id
 _symmetry_equiv_pos_as_xyz
  1  'x, y, z'
loop_
 _atom_site_type_symbol
 _atom_site_label
 _atom_site_symmetry_multiplicity
 _atom_site_fract_x
 _atom_site_fract_y
 _atom_site_fract_z
 _atom_site_occupancy
  Y  Y0  1  0.183443  0.815298  0.815298  1
  Y  Y1  1  0.813252  0.186063  0.186063  1
  Y  Y2  1  0.813252  0.186063  0.814623  1
  Y  Y3  1  0.183443  0.815298  0.185960  1
  Y  Y4  1  0.813252  0.814623  0.186063  1
  Y  Y5  1  0.183443  0.185960  0.815298  1
  Ho  Ho6  1  0.603879  0.601318  0.601318  1
  Ho  Ho7  1  0.603879  0.601318  0.193486  1
  Ho  Ho8  1  0.603879  0.193486  0.601318  1
  Ho  Ho9  1  0.184187  0.605272  0.605272  1
  Ho  Ho10  1  0.059195  0.440280  0.440280  1
  Ho  Ho11  1  0.436237  0.062427  0.062427  1
  Ho  Ho12  1  0.436237  0.062427  0.438909  1
  Ho  Ho13  1  0.059195  0.440280  0.060245  1
  Ho  Ho14  1  0.436237  0.438909  0.062427  1
  Ho  Ho15  1  0.059195  0.060245  0.440280  1
  Mg  Mg16  1  0.531456  0.822848  0.822848  1
  Hg  Hg17  1  0.833450  0.838327  0.838327  1
  Hg  Hg18  1  0.833450  0.838327  0.489896  1
  Hg  Hg19  1  0.833450  0.489896  0.838327  1
  Pt  Pt20  1  0.391808  0.394470  0.394470  1
  Pt  Pt21  1  0.391808  0.394470  0.819255  1
  Pt  Pt22  1  0.391808  0.819255  0.394470  1
  Pt  Pt23  1  0.820568  0.393144  0.393144  1
