# generated using pymatgen
data_TbEr(ThH5)6
_symmetry_space_group_name_H-M   'P 1'
_cell_length_a   7.83182653
_cell_length_b   7.82964577
_cell_length_c   7.80146413
_cell_angle_alpha   109.46652150
_cell_angle_beta   109.48141535
_cell_angle_gamma   109.66003403
_symmetry_Int_Tables_number   1
_chemical_formula_structural   TbEr(ThH5)6
_chemical_formula_sum   'Tb1 Er1 Th6 H30'
_cell_volume   367.37737683
_cell_formula_units_Z   1
loop_
 _symmetry_equiv_pos_site_id
 _symmetry_equiv_pos_as_xyz
  1  'x, y, z'
loop_
 _atom_site_type_symbol
 _atom_site_label
 _atom_site_symmetry_multiplicity
 _atom_site_fract_x
 _atom_site_fract_y
 _atom_site_fract_z
 _atom_site_occupancy
  Tb  Tb0  1  0.498518  0.999425  0.083566  1
  Er  Er1  1  0.913924  0.914725  0.915480  1
  Th  Th2  1  0.994479  0.079870  0.495315  1
  Th  Th3  1  0.084815  0.504109  0.000724  1
  Th  Th4  1  0.998893  0.584817  0.505135  1
  Th  Th5  1  0.584449  0.504005  0.999070  1
  Th  Th6  1  0.504370  0.998643  0.587569  1
  Th  Th7  1  0.416141  0.411186  0.412354  1
  H  H8  1  0.651369  0.965394  0.370947  1
  H  H9  1  0.218242  0.315995  0.846334  1
  H  H10  1  0.186303  0.403916  0.534071  1
  H  H11  1  0.095002  0.279285  0.125598  1
  H  H12  1  0.280052  0.123195  0.092947  1
  H  H13  1  0.124737  0.093108  0.276383  1
  H  H14  1  0.469176  0.154323  0.873250  1
  H  H15  1  0.719332  0.349892  0.814164  1
  H  H16  1  0.627506  0.380114  0.251384  1
  H  H17  1  0.250005  0.624556  0.375559  1
  H  H18  1  0.751079  0.873068  0.126842  1
  H  H19  1  0.122793  0.745817  0.872947  1
  H  H20  1  0.374490  0.249053  0.624370  1
  H  H21  1  0.876451  0.128244  0.748918  1
  H  H22  1  0.780884  0.595747  0.630203  1
  H  H23  1  0.317061  0.848134  0.221283  1
  H  H24  1  0.373357  0.656819  0.967487  1
  H  H25  1  0.965185  0.369493  0.651360  1
  H  H26  1  0.535592  0.185631  0.406194  1
  H  H27  1  0.405148  0.535665  0.185784  1
  H  H28  1  0.842452  0.218188  0.313194  1
  H  H29  1  0.906092  0.690888  0.031658  1
  H  H30  1  0.813844  0.718192  0.348673  1
  H  H31  1  0.152348  0.869831  0.466013  1
  H  H32  1  0.689840  0.029719  0.906430  1
  H  H33  1  0.347828  0.815759  0.721783  1
  H  H34  1  0.871845  0.469687  0.153774  1
  H  H35  1  0.630703  0.780036  0.595203  1
  H  H36  1  0.597203  0.628234  0.779406  1
  H  H37  1  0.028494  0.905236  0.688629  1
