# generated using pymatgen
data_Dy3HoAl16(GeIr3)2
_symmetry_space_group_name_H-M   'P 1'
_cell_length_a   7.55359918
_cell_length_b   7.55355579
_cell_length_c   9.43655600
_cell_angle_alpha   90.00000000
_cell_angle_beta   90.00000000
_cell_angle_gamma   119.73275623
_symmetry_Int_Tables_number   1
_chemical_formula_structural   Dy3HoAl16(GeIr3)2
_chemical_formula_sum   'Dy3 Ho1 Al16 Ge2 Ir6'
_cell_volume   467.53353285
_cell_formula_units_Z   1
loop_
 _symmetry_equiv_pos_site_id
 _symmetry_equiv_pos_as_xyz
  1  'x, y, z'
loop_
 _atom_site_type_symbol
 _atom_site_label
 _atom_site_symmetry_multiplicity
 _atom_site_fract_x
 _atom_site_fract_y
 _atom_site_fract_z
 _atom_site_occupancy
  Dy  Dy0  1  0.004567  0.324563  0.250000  1
  Dy  Dy1  1  0.675457  0.995429  0.750000  1
  Dy  Dy2  1  0.324548  0.004553  0.250000  1
  Ho  Ho3  1  0.995459  0.675536  0.750000  1
  Al  Al4  1  0.000500  0.337406  0.574072  1
  Al  Al5  1  0.999493  0.662694  0.426075  1
  Al  Al6  1  0.999493  0.662694  0.073925  1
  Al  Al7  1  0.337201  0.000404  0.925921  1
  Al  Al8  1  0.000500  0.337406  0.925928  1
  Al  Al9  1  0.662692  0.999489  0.074017  1
  Al  Al10  1  0.662692  0.999489  0.425983  1
  Al  Al11  1  0.337201  0.000404  0.574079  1
  Al  Al12  1  0.335674  0.335669  0.058696  1
  Al  Al13  1  0.664429  0.664329  0.941218  1
  Al  Al14  1  0.664429  0.664329  0.558782  1
  Al  Al15  1  0.335674  0.335669  0.441304  1
  Al  Al16  1  0.335870  0.552677  0.750000  1
  Al  Al17  1  0.664081  0.447364  0.250000  1
  Al  Al18  1  0.552769  0.336033  0.750000  1
  Al  Al19  1  0.447361  0.664065  0.250000  1
  Ge  Ge20  1  0.134113  0.134054  0.750000  1
  Ge  Ge21  1  0.865847  0.865834  0.250000  1
  Ir  Ir22  1  0.671095  0.328993  0.500050  1
  Ir  Ir23  1  0.328892  0.671043  0.500046  1
  Ir  Ir24  1  0.328892  0.671043  0.999954  1
  Ir  Ir25  1  0.671095  0.328993  0.999950  1
  Ir  Ir26  1  0.999988  0.999920  0.500061  1
  Ir  Ir27  1  0.999988  0.999920  0.999939  1
