# generated using pymatgen
data_Eu2CuPd3O8
_symmetry_space_group_name_H-M   'P 1'
_cell_length_a   6.62218615
_cell_length_b   6.58179350
_cell_length_c   6.44281495
_cell_angle_alpha   127.49914472
_cell_angle_beta   124.69854312
_cell_angle_gamma   79.52017005
_symmetry_Int_Tables_number   1
_chemical_formula_structural   Eu2CuPd3O8
_chemical_formula_sum   'Eu2 Cu1 Pd3 O8'
_cell_volume   177.23610559
_cell_formula_units_Z   1
loop_
 _symmetry_equiv_pos_site_id
 _symmetry_equiv_pos_as_xyz
  1  'x, y, z'
loop_
 _atom_site_type_symbol
 _atom_site_label
 _atom_site_symmetry_multiplicity
 _atom_site_fract_x
 _atom_site_fract_y
 _atom_site_fract_z
 _atom_site_occupancy
  Eu  Eu0  1  0.002151  0.998761  0.999482  1
  Eu  Eu1  1  0.747849  0.251239  0.500518  1
  Cu  Cu2  1  0.375000  0.625000  0.750000  1
  Pd  Pd3  1  0.375000  0.625000  0.250000  1
  Pd  Pd4  1  0.375000  0.125000  0.750000  1
  Pd  Pd5  1  0.875000  0.625000  0.250000  1
  O  O6  1  0.744798  0.291758  0.136481  1
  O  O7  1  0.164402  0.607780  0.854253  1
  O  O8  1  0.005202  0.958242  0.363519  1
  O  O9  1  0.585598  0.642220  0.645747  1
  O  O10  1  0.052897  0.400643  0.049873  1
  O  O11  1  0.362445  0.980034  0.946525  1
  O  O12  1  0.387555  0.269966  0.553475  1
  O  O13  1  0.697103  0.849357  0.450127  1
