# generated using pymatgen
data_Dy2NbB2Ru5
_symmetry_space_group_name_H-M   'P 1'
_cell_length_a   9.68045400
_cell_length_b   9.68045400
_cell_length_c   3.13413800
_cell_angle_alpha   90.00000000
_cell_angle_beta   90.00000000
_cell_angle_gamma   90.00000000
_symmetry_Int_Tables_number   1
_chemical_formula_structural   Dy2NbB2Ru5
_chemical_formula_sum   'Dy4 Nb2 B4 Ru10'
_cell_volume   293.70380050
_cell_formula_units_Z   2
loop_
 _symmetry_equiv_pos_site_id
 _symmetry_equiv_pos_as_xyz
  1  'x, y, z'
loop_
 _atom_site_type_symbol
 _atom_site_label
 _atom_site_symmetry_multiplicity
 _atom_site_fract_x
 _atom_site_fract_y
 _atom_site_fract_z
 _atom_site_occupancy
  Dy  Dy0  1  0.825156  0.674844  0.000000  1
  Dy  Dy1  1  0.174844  0.325156  0.000000  1
  Dy  Dy2  1  0.325156  0.825156  0.000000  1
  Dy  Dy3  1  0.674844  0.174844  0.000000  1
  Nb  Nb4  1  0.500000  0.500000  0.000000  1
  Nb  Nb5  1  0.000000  0.000000  0.000000  1
  B  B6  1  0.620123  0.879877  0.000000  1
  B  B7  1  0.379877  0.120123  0.000000  1
  B  B8  1  0.120123  0.620123  0.000000  1
  B  B9  1  0.879877  0.379877  0.000000  1
  Ru  Ru10  1  0.571019  0.718535  0.500000  1
  Ru  Ru11  1  0.428981  0.281465  0.500000  1
  Ru  Ru12  1  0.071019  0.781465  0.500000  1
  Ru  Ru13  1  0.928981  0.218535  0.500000  1
  Ru  Ru14  1  0.281465  0.571019  0.500000  1
  Ru  Ru15  1  0.718535  0.428981  0.500000  1
  Ru  Ru16  1  0.218535  0.071019  0.500000  1
  Ru  Ru17  1  0.781465  0.928981  0.500000  1
  Ru  Ru18  1  0.500000  0.000000  0.500000  1
  Ru  Ru19  1  0.000000  0.500000  0.500000  1
