# generated using pymatgen
data_Mg2GePdPt4
_symmetry_space_group_name_H-M   'P 1'
_cell_length_a   4.06351900
_cell_length_b   5.59797700
_cell_length_c   10.88713100
_cell_angle_alpha   90.00000000
_cell_angle_beta   90.00000000
_cell_angle_gamma   90.00000000
_symmetry_Int_Tables_number   1
_chemical_formula_structural   Mg2GePdPt4
_chemical_formula_sum   'Mg4 Ge2 Pd2 Pt8'
_cell_volume   247.65485893
_cell_formula_units_Z   2
loop_
 _symmetry_equiv_pos_site_id
 _symmetry_equiv_pos_as_xyz
  1  'x, y, z'
loop_
 _atom_site_type_symbol
 _atom_site_label
 _atom_site_symmetry_multiplicity
 _atom_site_fract_x
 _atom_site_fract_y
 _atom_site_fract_z
 _atom_site_occupancy
  Mg  Mg0  1  0.500000  0.167881  0.140762  1
  Mg  Mg1  1  0.500000  0.832119  0.859238  1
  Mg  Mg2  1  0.500000  0.332119  0.640762  1
  Mg  Mg3  1  0.500000  0.667881  0.359238  1
  Ge  Ge4  1  0.000000  0.000000  0.500000  1
  Ge  Ge5  1  0.000000  0.500000  0.000000  1
  Pd  Pd6  1  0.000000  0.000000  0.000000  1
  Pd  Pd7  1  0.000000  0.500000  0.500000  1
  Pt  Pt8  1  0.500000  0.185388  0.392331  1
  Pt  Pt9  1  0.500000  0.814612  0.607669  1
  Pt  Pt10  1  0.500000  0.314612  0.892331  1
  Pt  Pt11  1  0.500000  0.685388  0.107669  1
  Pt  Pt12  1  0.000000  0.422965  0.240622  1
  Pt  Pt13  1  0.000000  0.577035  0.759378  1
  Pt  Pt14  1  0.000000  0.077035  0.740622  1
  Pt  Pt15  1  0.000000  0.922965  0.259378  1
