# generated using pymatgen
data_Tb19YIr7Pt5
_symmetry_space_group_name_H-M   'P 1'
_cell_length_a   11.07223093
_cell_length_b   11.07451502
_cell_length_c   6.35980428
_cell_angle_alpha   90.00812901
_cell_angle_beta   90.03806594
_cell_angle_gamma   89.83993795
_symmetry_Int_Tables_number   1
_chemical_formula_structural   Tb19YIr7Pt5
_chemical_formula_sum   'Tb19 Y1 Ir7 Pt5'
_cell_volume   779.83335581
_cell_formula_units_Z   1
loop_
 _symmetry_equiv_pos_site_id
 _symmetry_equiv_pos_as_xyz
  1  'x, y, z'
loop_
 _atom_site_type_symbol
 _atom_site_label
 _atom_site_symmetry_multiplicity
 _atom_site_fract_x
 _atom_site_fract_y
 _atom_site_fract_z
 _atom_site_occupancy
  Tb  Tb0  1  0.295551  0.909169  0.873634  1
  Tb  Tb1  1  0.704717  0.087005  0.873833  1
  Tb  Tb2  1  0.704436  0.908556  0.373861  1
  Tb  Tb3  1  0.586555  0.790379  0.879213  1
  Tb  Tb4  1  0.584718  0.206491  0.375032  1
  Tb  Tb5  1  0.413523  0.791718  0.378655  1
  Tb  Tb6  1  0.410403  0.207474  0.880557  1
  Tb  Tb7  1  0.209666  0.413433  0.620750  1
  Tb  Tb8  1  0.208350  0.586480  0.121282  1
  Tb  Tb9  1  0.793441  0.415179  0.124959  1
  Tb  Tb10  1  0.792497  0.589532  0.619573  1
  Tb  Tb11  1  0.909197  0.704700  0.125528  1
  Tb  Tb12  1  0.913039  0.295291  0.626144  1
  Tb  Tb13  1  0.090914  0.704524  0.626462  1
  Tb  Tb14  1  0.091509  0.295520  0.126195  1
  Tb  Tb15  1  0.999813  0.999832  0.499529  1
  Tb  Tb16  1  0.000296  0.000170  0.000533  1
  Tb  Tb17  1  0.498374  0.501182  0.000296  1
  Tb  Tb18  1  0.498855  0.501604  0.499674  1
  Y  Y19  1  0.295103  0.090806  0.374327  1
  Ir  Ir20  1  0.654085  0.653477  0.250131  1
  Ir  Ir21  1  0.346468  0.346072  0.249709  1
  Ir  Ir22  1  0.344978  0.654980  0.749976  1
  Ir  Ir23  1  0.500469  0.000247  0.120990  1
  Ir  Ir24  1  0.500400  0.000543  0.622770  1
  Ir  Ir25  1  0.999365  0.499769  0.877494  1
  Ir  Ir26  1  0.999669  0.499678  0.378761  1
  Pt  Pt27  1  0.845603  0.154361  0.250025  1
  Pt  Pt28  1  0.846258  0.847031  0.750348  1
  Pt  Pt29  1  0.152920  0.153670  0.749774  1
  Pt  Pt30  1  0.153762  0.846203  0.250017  1
  Pt  Pt31  1  0.655063  0.344925  0.749968  1
