# generated using pymatgen
data_NdGa3HgPd
_symmetry_space_group_name_H-M   'P 1'
_cell_length_a   4.43519329
_cell_length_b   6.69738200
_cell_length_c   8.35389409
_cell_angle_alpha   90.00000000
_cell_angle_beta   105.39409238
_cell_angle_gamma   90.00000000
_symmetry_Int_Tables_number   1
_chemical_formula_structural   NdGa3HgPd
_chemical_formula_sum   'Nd2 Ga6 Hg2 Pd2'
_cell_volume   239.24283034
_cell_formula_units_Z   2
loop_
 _symmetry_equiv_pos_site_id
 _symmetry_equiv_pos_as_xyz
  1  'x, y, z'
loop_
 _atom_site_type_symbol
 _atom_site_label
 _atom_site_symmetry_multiplicity
 _atom_site_fract_x
 _atom_site_fract_y
 _atom_site_fract_z
 _atom_site_occupancy
  Nd  Nd0  1  0.875340  0.750000  0.750679  1
  Nd  Nd1  1  0.124660  0.250000  0.249321  1
  Ga  Ga2  1  0.066032  0.750000  0.132063  1
  Ga  Ga3  1  0.933968  0.250000  0.867937  1
  Ga  Ga4  1  0.682638  0.551708  0.365275  1
  Ga  Ga5  1  0.317362  0.448292  0.634725  1
  Ga  Ga6  1  0.682638  0.948292  0.365275  1
  Ga  Ga7  1  0.317362  0.051708  0.634725  1
  Hg  Hg8  1  0.500000  0.500000  0.000000  1
  Hg  Hg9  1  0.500000  0.000000  0.000000  1
  Pd  Pd10  1  0.219717  0.750000  0.439435  1
  Pd  Pd11  1  0.780283  0.250000  0.560565  1
