# generated using pymatgen
data_LaNd3(WF7)4
_symmetry_space_group_name_H-M   'P 1'
_cell_length_a   5.82967505
_cell_length_b   9.44893698
_cell_length_c   12.61146000
_cell_angle_alpha   62.09566584
_cell_angle_beta   89.99214719
_cell_angle_gamma   90.00890715
_symmetry_Int_Tables_number   1
_chemical_formula_structural   LaNd3(WF7)4
_chemical_formula_sum   'La1 Nd3 W4 F28'
_cell_volume   613.92081912
_cell_formula_units_Z   1
loop_
 _symmetry_equiv_pos_site_id
 _symmetry_equiv_pos_as_xyz
  1  'x, y, z'
loop_
 _atom_site_type_symbol
 _atom_site_label
 _atom_site_symmetry_multiplicity
 _atom_site_fract_x
 _atom_site_fract_y
 _atom_site_fract_z
 _atom_site_occupancy
  La  La0  1  0.740013  0.811915  0.265049  1
  Nd  Nd1  1  0.759739  0.812500  0.765582  1
  Nd  Nd2  1  0.254347  0.187804  0.734868  1
  Nd  Nd3  1  0.245434  0.190434  0.233368  1
  W  W4  1  0.754414  0.275531  0.956026  1
  W  W5  1  0.256733  0.726494  0.545196  1
  W  W6  1  0.245986  0.726599  0.039664  1
  W  W7  1  0.744402  0.271614  0.457816  1
  F  F8  1  0.453531  0.708015  0.919592  1
  F  F9  1  0.948926  0.286739  0.581894  1
  F  F10  1  0.538120  0.289582  0.080726  1
  F  F11  1  0.052496  0.708241  0.424865  1
  F  F12  1  0.464974  0.281961  0.551822  1
  F  F13  1  0.955924  0.719797  0.949970  1
  F  F14  1  0.545642  0.718570  0.454106  1
  F  F15  1  0.032298  0.284153  0.047460  1
  F  F16  1  0.762793  0.514544  0.862901  1
  F  F17  1  0.260387  0.486945  0.642391  1
  F  F18  1  0.237400  0.486924  0.137048  1
  F  F19  1  0.738854  0.510578  0.360922  1
  F  F20  1  0.761564  0.037581  0.050191  1
  F  F21  1  0.262668  0.965549  0.446629  1
  F  F22  1  0.239289  0.966068  0.945082  1
  F  F23  1  0.739523  0.033082  0.556806  1
  F  F24  1  0.978195  0.733923  0.642912  1
  F  F25  1  0.484501  0.266000  0.861310  1
  F  F26  1  0.013325  0.266553  0.356731  1
  F  F27  1  0.525466  0.732417  0.135295  1
  F  F28  1  0.043191  0.745262  0.162109  1
  F  F29  1  0.541439  0.253505  0.333806  1
  F  F30  1  0.964962  0.256295  0.831500  1
  F  F31  1  0.459969  0.745496  0.666759  1
  F  F32  1  0.416551  0.973317  0.231896  1
  F  F33  1  0.927682  0.028339  0.265726  1
  F  F34  1  0.572294  0.023928  0.768765  1
  F  F35  1  0.076970  0.973745  0.733214  1
