# generated using pymatgen
data_Zr2Pa3FeSb3
_symmetry_space_group_name_H-M   'P 1'
_cell_length_a   8.98734900
_cell_length_b   8.98734964
_cell_length_c   5.95643000
_cell_angle_alpha   90.00000000
_cell_angle_beta   90.00000000
_cell_angle_gamma   120.00000132
_symmetry_Int_Tables_number   1
_chemical_formula_structural   Zr2Pa3FeSb3
_chemical_formula_sum   'Zr4 Pa6 Fe2 Sb6'
_cell_volume   416.65818021
_cell_formula_units_Z   2
loop_
 _symmetry_equiv_pos_site_id
 _symmetry_equiv_pos_as_xyz
  1  'x, y, z'
loop_
 _atom_site_type_symbol
 _atom_site_label
 _atom_site_symmetry_multiplicity
 _atom_site_fract_x
 _atom_site_fract_y
 _atom_site_fract_z
 _atom_site_occupancy
  Zr  Zr0  1  0.666667  0.333333  0.000000  1
  Zr  Zr1  1  0.333333  0.666667  0.000000  1
  Zr  Zr2  1  0.333333  0.666667  0.500000  1
  Zr  Zr3  1  0.666667  0.333333  0.500000  1
  Pa  Pa4  1  0.755283  0.755283  0.750000  1
  Pa  Pa5  1  0.244717  0.000000  0.750000  1
  Pa  Pa6  1  0.000000  0.244717  0.750000  1
  Pa  Pa7  1  0.244717  0.244717  0.250000  1
  Pa  Pa8  1  0.755283  0.000000  0.250000  1
  Pa  Pa9  1  0.000000  0.755283  0.250000  1
  Fe  Fe10  1  0.000000  0.000000  0.000000  1
  Fe  Fe11  1  0.000000  0.000000  0.500000  1
  Sb  Sb12  1  0.399177  0.399177  0.750000  1
  Sb  Sb13  1  0.600823  0.000000  0.750000  1
  Sb  Sb14  1  0.000000  0.600823  0.750000  1
  Sb  Sb15  1  0.600823  0.600823  0.250000  1
  Sb  Sb16  1  0.399177  0.000000  0.250000  1
  Sb  Sb17  1  0.000000  0.399177  0.250000  1
