# generated using pymatgen
data_LiThB6Ru
_symmetry_space_group_name_H-M   'P 1'
_cell_length_a   3.65543800
_cell_length_b   8.89827300
_cell_length_c   11.39470700
_cell_angle_alpha   90.00000000
_cell_angle_beta   90.00000000
_cell_angle_gamma   90.00000000
_symmetry_Int_Tables_number   1
_chemical_formula_structural   LiThB6Ru
_chemical_formula_sum   'Li4 Th4 B24 Ru4'
_cell_volume   370.63660609
_cell_formula_units_Z   4
loop_
 _symmetry_equiv_pos_site_id
 _symmetry_equiv_pos_as_xyz
  1  'x, y, z'
loop_
 _atom_site_type_symbol
 _atom_site_label
 _atom_site_symmetry_multiplicity
 _atom_site_fract_x
 _atom_site_fract_y
 _atom_site_fract_z
 _atom_site_occupancy
  Li  Li0  1  0.000000  0.944054  0.373544  1
  Li  Li1  1  0.000000  0.055946  0.626456  1
  Li  Li2  1  0.000000  0.444054  0.126456  1
  Li  Li3  1  0.000000  0.555946  0.873544  1
  Th  Th4  1  0.000000  0.315119  0.414193  1
  Th  Th5  1  0.000000  0.684881  0.585807  1
  Th  Th6  1  0.000000  0.815119  0.085807  1
  Th  Th7  1  0.000000  0.184881  0.914193  1
  B  B8  1  0.500000  0.556943  0.429349  1
  B  B9  1  0.500000  0.443057  0.570651  1
  B  B10  1  0.500000  0.056943  0.070651  1
  B  B11  1  0.500000  0.943057  0.929349  1
  B  B12  1  0.500000  0.757607  0.415036  1
  B  B13  1  0.500000  0.242393  0.584964  1
  B  B14  1  0.500000  0.257607  0.084964  1
  B  B15  1  0.500000  0.742393  0.915036  1
  B  B16  1  0.500000  0.790965  0.265174  1
  B  B17  1  0.500000  0.209035  0.734826  1
  B  B18  1  0.500000  0.290965  0.234826  1
  B  B19  1  0.500000  0.709035  0.765174  1
  B  B20  1  0.500000  0.622748  0.183467  1
  B  B21  1  0.500000  0.377252  0.816533  1
  B  B22  1  0.500000  0.122748  0.316533  1
  B  B23  1  0.500000  0.877252  0.683467  1
  B  B24  1  0.500000  0.980317  0.214649  1
  B  B25  1  0.500000  0.019683  0.785351  1
  B  B26  1  0.500000  0.480317  0.285351  1
  B  B27  1  0.500000  0.519683  0.714649  1
  B  B28  1  0.500000  0.589336  0.024595  1
  B  B29  1  0.500000  0.410664  0.975405  1
  B  B30  1  0.500000  0.089336  0.475405  1
  B  B31  1  0.500000  0.910664  0.524595  1
  Ru  Ru32  1  0.000000  0.639649  0.317872  1
  Ru  Ru33  1  0.000000  0.360351  0.682128  1
  Ru  Ru34  1  0.000000  0.139649  0.182128  1
  Ru  Ru35  1  0.000000  0.860351  0.817872  1
