# generated using pymatgen
data_Dy4ErP12Ir16Rh3
_symmetry_space_group_name_H-M   'P 1'
_cell_length_a   12.72165412
_cell_length_b   12.71867728
_cell_length_c   3.96727400
_cell_angle_alpha   90.00000000
_cell_angle_beta   90.00000000
_cell_angle_gamma   119.99225463
_symmetry_Int_Tables_number   1
_chemical_formula_structural   Dy4ErP12Ir16Rh3
_chemical_formula_sum   'Dy4 Er1 P12 Ir16 Rh3'
_cell_volume   555.95834000
_cell_formula_units_Z   1
loop_
 _symmetry_equiv_pos_site_id
 _symmetry_equiv_pos_as_xyz
  1  'x, y, z'
loop_
 _atom_site_type_symbol
 _atom_site_label
 _atom_site_symmetry_multiplicity
 _atom_site_fract_x
 _atom_site_fract_y
 _atom_site_fract_z
 _atom_site_occupancy
  Dy  Dy0  1  0.333348  0.666684  0.500000  1
  Dy  Dy1  1  0.666652  0.333335  0.500000  1
  Dy  Dy2  1  0.185884  0.185861  0.000000  1
  Dy  Dy3  1  0.814116  0.999978  0.000000  1
  Er  Er4  1  0.000000  0.814115  0.000000  1
  P  P5  1  0.000000  0.640841  0.500000  1
  P  P6  1  0.359505  0.359499  0.500000  1
  P  P7  1  0.640495  0.999995  0.500000  1
  P  P8  1  0.516654  0.687001  0.000000  1
  P  P9  1  0.313019  0.829590  0.000000  1
  P  P10  1  0.170406  0.483463  0.000000  1
  P  P11  1  0.483346  0.170348  0.000000  1
  P  P12  1  0.686981  0.516571  0.000000  1
  P  P13  1  0.829594  0.313057  0.000000  1
  P  P14  1  0.000000  0.178758  0.500000  1
  P  P15  1  0.821287  0.821040  0.500000  1
  P  P16  1  0.178713  0.999753  0.500000  1
  Ir  Ir17  1  0.507629  0.866766  0.000000  1
  Ir  Ir18  1  0.133208  0.640910  0.000000  1
  Ir  Ir19  1  0.359155  0.492393  0.000000  1
  Ir  Ir20  1  0.492371  0.359136  0.000000  1
  Ir  Ir21  1  0.866792  0.507701  0.000000  1
  Ir  Ir22  1  0.640845  0.133237  0.000000  1
  Ir  Ir23  1  0.000000  0.283350  0.000000  1
  Ir  Ir24  1  0.717015  0.716839  0.000000  1
  Ir  Ir25  1  0.282985  0.999824  0.000000  1
  Ir  Ir26  1  0.625687  0.805935  0.500000  1
  Ir  Ir27  1  0.193410  0.819620  0.500000  1
  Ir  Ir28  1  0.180307  0.374341  0.500000  1
  Ir  Ir29  1  0.374313  0.180247  0.500000  1
  Ir  Ir30  1  0.806590  0.626210  0.500000  1
  Ir  Ir31  1  0.819693  0.194035  0.500000  1
  Ir  Ir32  1  0.000000  0.999545  0.500000  1
  Rh  Rh33  1  0.000000  0.461196  0.500000  1
  Rh  Rh34  1  0.538897  0.538862  0.500000  1
  Rh  Rh35  1  0.461103  0.999965  0.500000  1
