# generated using pymatgen
data_Hf8Al14Rh7Se
_symmetry_space_group_name_H-M   'P 1'
_cell_length_a   8.85321321
_cell_length_b   8.85332336
_cell_length_c   8.85321327
_cell_angle_alpha   120.07483108
_cell_angle_beta   119.89492957
_cell_angle_gamma   90.02292328
_symmetry_Int_Tables_number   1
_chemical_formula_structural   Hf8Al14Rh7Se
_chemical_formula_sum   'Hf8 Al14 Rh7 Se1'
_cell_volume   490.79901667
_cell_formula_units_Z   1
loop_
 _symmetry_equiv_pos_site_id
 _symmetry_equiv_pos_as_xyz
  1  'x, y, z'
loop_
 _atom_site_type_symbol
 _atom_site_label
 _atom_site_symmetry_multiplicity
 _atom_site_fract_x
 _atom_site_fract_y
 _atom_site_fract_z
 _atom_site_occupancy
  Hf  Hf0  1  0.802380  0.296801  0.086278  1
  Hf  Hf1  1  0.210508  0.296857  0.494439  1
  Hf  Hf2  1  0.198231  0.698222  0.499969  1
  Hf  Hf3  1  0.210534  0.716095  0.913729  1
  Hf  Hf4  1  0.802416  0.716068  0.505552  1
  Hf  Hf5  1  0.785117  0.285137  0.500016  1
  Hf  Hf6  1  0.380264  0.120326  0.740023  1
  Hf  Hf7  1  0.380309  0.640234  0.259961  1
  Al  Al8  1  0.164958  0.329326  0.164361  1
  Al  Al9  1  0.164963  0.000578  0.835630  1
  Al  Al10  1  0.158563  0.334231  0.824331  1
  Al  Al11  1  0.509882  0.334227  0.175659  1
  Al  Al12  1  0.833310  0.665529  0.832207  1
  Al  Al13  1  0.833323  0.001109  0.167792  1
  Al  Al14  1  0.833626  0.666793  0.166802  1
  Al  Al15  1  0.499984  0.666824  0.833192  1
  Al  Al16  1  0.380278  0.119610  0.260701  1
  Al  Al17  1  0.858919  0.119572  0.739290  1
  Al  Al18  1  0.620531  0.877468  0.256944  1
  Al  Al19  1  0.620513  0.363586  0.743063  1
  Al  Al20  1  0.621620  0.879881  0.741680  1
  Al  Al21  1  0.138199  0.879940  0.258308  1
  Rh  Rh22  1  0.997742  0.999470  0.499774  1
  Rh  Rh23  1  0.499710  0.999520  0.001783  1
  Rh  Rh24  1  0.500445  0.500452  0.999986  1
  Rh  Rh25  1  0.499677  0.497968  0.500214  1
  Rh  Rh26  1  0.997824  0.498030  0.998314  1
  Rh  Rh27  1  0.000090  0.000098  0.999999  1
  Rh  Rh28  1  0.504692  0.004669  0.499994  1
  Se  Se29  1  0.991383  0.491379  0.500010  1
