# generated using pymatgen
data_Pa2Al16TcPt8
_symmetry_space_group_name_H-M   'P 1'
_cell_length_a   11.13726321
_cell_length_b   11.13726350
_cell_length_c   11.13726414
_cell_angle_alpha   158.64139540
_cell_angle_beta   115.86319000
_cell_angle_gamma   68.43583802
_symmetry_Int_Tables_number   1
_chemical_formula_structural   Pa2Al16TcPt8
_chemical_formula_sum   'Pa2 Al16 Tc1 Pt8'
_cell_volume   449.56454990
_cell_formula_units_Z   1
loop_
 _symmetry_equiv_pos_site_id
 _symmetry_equiv_pos_as_xyz
  1  'x, y, z'
loop_
 _atom_site_type_symbol
 _atom_site_label
 _atom_site_symmetry_multiplicity
 _atom_site_fract_x
 _atom_site_fract_y
 _atom_site_fract_z
 _atom_site_occupancy
  Pa  Pa0  1  0.229893  0.229939  0.999954  1
  Pa  Pa1  1  0.770015  0.770061  0.999954  1
  Al  Al2  1  0.274450  0.390981  0.883468  1
  Al  Al3  1  0.090687  0.926036  0.164651  1
  Al  Al4  1  0.501803  0.198906  0.302898  1
  Al  Al5  1  0.238616  0.073964  0.164651  1
  Al  Al6  1  0.907684  0.416453  0.491231  1
  Al  Al7  1  0.728603  0.601957  0.126645  1
  Al  Al8  1  0.899492  0.208157  0.691336  1
  Al  Al9  1  0.483180  0.791843  0.691336  1
  Al  Al10  1  0.395069  0.000000  0.395069  1
  Al  Al11  1  0.626085  0.000000  0.626085  1
  Al  Al12  1  0.492488  0.609019  0.883468  1
  Al  Al13  1  0.103994  0.801094  0.302898  1
  Al  Al14  1  0.904906  0.085439  0.819467  1
  Al  Al15  1  0.734029  0.914561  0.819467  1
  Al  Al16  1  0.524687  0.398043  0.126645  1
  Al  Al17  1  0.074778  0.583547  0.491231  1
  Tc  Tc18  1  0.781201  0.500000  0.281201  1
  Pt  Pt19  1  0.019346  0.343062  0.676285  1
  Pt  Pt20  1  0.634298  0.131192  0.503106  1
  Pt  Pt21  1  0.260830  0.500000  0.760830  1
  Pt  Pt22  1  0.371913  0.868808  0.503106  1
  Pt  Pt23  1  0.981343  0.000000  0.981343  1
  Pt  Pt24  1  0.651503  0.332809  0.318694  1
  Pt  Pt25  1  0.333223  0.656938  0.676285  1
  Pt  Pt26  1  0.985885  0.667191  0.318694  1
