# generated using pymatgen
data_K3LuAs2
_symmetry_space_group_name_H-M   'P 1'
_cell_length_a   9.31216140
_cell_length_b   9.31216121
_cell_length_c   9.31216049
_cell_angle_alpha   128.96135265
_cell_angle_beta   70.31115983
_cell_angle_gamma   135.08182381
_symmetry_Int_Tables_number   1
_chemical_formula_structural   K3LuAs2
_chemical_formula_sum   'K6 Lu2 As4'
_cell_volume   434.63966349
_cell_formula_units_Z   2
loop_
 _symmetry_equiv_pos_site_id
 _symmetry_equiv_pos_as_xyz
  1  'x, y, z'
loop_
 _atom_site_type_symbol
 _atom_site_label
 _atom_site_symmetry_multiplicity
 _atom_site_fract_x
 _atom_site_fract_y
 _atom_site_fract_z
 _atom_site_occupancy
  K  K0  1  0.810484  0.199361  0.009844  1
  K  K1  1  0.689516  0.699362  0.388879  1
  K  K2  1  0.750000  0.250000  0.500000  1
  K  K3  1  0.250000  0.750000  0.500001  1
  K  K4  1  0.310484  0.300638  0.611122  1
  K  K5  1  0.189516  0.800638  0.990155  1
  Lu  Lu6  1  0.250000  0.250000  0.000000  1
  Lu  Lu7  1  0.750000  0.750000  0.000000  1
  As  As8  1  0.401866  0.693110  0.094976  1
  As  As9  1  0.098134  0.193111  0.291244  1
  As  As10  1  0.901865  0.806890  0.708756  1
  As  As11  1  0.598134  0.306890  0.905024  1
