# generated using pymatgen
data_TbEr7(CuP)12
_symmetry_space_group_name_H-M   'P 1'
_cell_length_a   3.82413900
_cell_length_b   10.62569503
_cell_length_c   12.93544003
_cell_angle_alpha   90.00822026
_cell_angle_beta   90.00000000
_cell_angle_gamma   90.00000000
_symmetry_Int_Tables_number   1
_chemical_formula_structural   TbEr7(CuP)12
_chemical_formula_sum   'Tb1 Er7 Cu12 P12'
_cell_volume   525.62040803
_cell_formula_units_Z   1
loop_
 _symmetry_equiv_pos_site_id
 _symmetry_equiv_pos_as_xyz
  1  'x, y, z'
loop_
 _atom_site_type_symbol
 _atom_site_label
 _atom_site_symmetry_multiplicity
 _atom_site_fract_x
 _atom_site_fract_y
 _atom_site_fract_z
 _atom_site_occupancy
  Tb  Tb0  1  0.250000  0.931522  0.792064  1
  Er  Er1  1  0.750000  0.431563  0.708110  1
  Er  Er2  1  0.250000  0.568666  0.292151  1
  Er  Er3  1  0.750000  0.068695  0.207793  1
  Er  Er4  1  0.250000  0.840399  0.502995  1
  Er  Er5  1  0.750000  0.340834  0.996986  1
  Er  Er6  1  0.250000  0.658983  0.003834  1
  Er  Er7  1  0.750000  0.159439  0.496347  1
  Cu  Cu8  1  0.250000  0.405533  0.513096  1
  Cu  Cu9  1  0.750000  0.904885  0.986765  1
  Cu  Cu10  1  0.250000  0.094446  0.013064  1
  Cu  Cu11  1  0.750000  0.594689  0.487146  1
  Cu  Cu12  1  0.250000  0.271479  0.331427  1
  Cu  Cu13  1  0.750000  0.772025  0.168004  1
  Cu  Cu14  1  0.250000  0.229144  0.832231  1
  Cu  Cu15  1  0.750000  0.728223  0.668059  1
  Cu  Cu16  1  0.250000  0.859378  0.281649  1
  Cu  Cu17  1  0.750000  0.358888  0.218485  1
  Cu  Cu18  1  0.250000  0.639357  0.781877  1
  Cu  Cu19  1  0.750000  0.142596  0.718101  1
  P  P20  1  0.250000  0.244266  0.642123  1
  P  P21  1  0.750000  0.741833  0.858289  1
  P  P22  1  0.250000  0.255997  0.142001  1
  P  P23  1  0.750000  0.755871  0.357731  1
  P  P24  1  0.250000  0.605165  0.602613  1
  P  P25  1  0.750000  0.106016  0.897858  1
  P  P26  1  0.250000  0.894927  0.102162  1
  P  P27  1  0.750000  0.395008  0.397763  1
  P  P28  1  0.250000  0.056201  0.369553  1
  P  P29  1  0.750000  0.556129  0.130717  1
  P  P30  1  0.250000  0.443737  0.870266  1
  P  P31  1  0.750000  0.944107  0.628742  1
