# generated using pymatgen
data_Nd2Si3Ir
_symmetry_space_group_name_H-M   'P 1'
_cell_length_a   8.25662800
_cell_length_b   8.25662921
_cell_length_c   8.47624300
_cell_angle_alpha   90.00000000
_cell_angle_beta   90.00000000
_cell_angle_gamma   119.99999513
_symmetry_Int_Tables_number   1
_chemical_formula_structural   Nd2Si3Ir
_chemical_formula_sum   'Nd8 Si12 Ir4'
_cell_volume   500.42563813
_cell_formula_units_Z   4
loop_
 _symmetry_equiv_pos_site_id
 _symmetry_equiv_pos_as_xyz
  1  'x, y, z'
loop_
 _atom_site_type_symbol
 _atom_site_label
 _atom_site_symmetry_multiplicity
 _atom_site_fract_x
 _atom_site_fract_y
 _atom_site_fract_z
 _atom_site_occupancy
  Nd  Nd0  1  0.498966  0.501034  0.750000  1
  Nd  Nd1  1  0.501034  0.498966  0.250000  1
  Nd  Nd2  1  0.002068  0.501034  0.750000  1
  Nd  Nd3  1  0.997932  0.498966  0.250000  1
  Nd  Nd4  1  0.498966  0.997932  0.750000  1
  Nd  Nd5  1  0.501034  0.002068  0.250000  1
  Nd  Nd6  1  0.000000  0.000000  0.750000  1
  Nd  Nd7  1  0.000000  0.000000  0.250000  1
  Si  Si8  1  0.833194  0.166806  0.000072  1
  Si  Si9  1  0.166806  0.833194  0.999928  1
  Si  Si10  1  0.333611  0.166806  0.000072  1
  Si  Si11  1  0.166806  0.833194  0.500072  1
  Si  Si12  1  0.666389  0.833194  0.999928  1
  Si  Si13  1  0.833194  0.166806  0.499928  1
  Si  Si14  1  0.833194  0.666389  0.000072  1
  Si  Si15  1  0.666389  0.833194  0.500072  1
  Si  Si16  1  0.166806  0.333611  0.999928  1
  Si  Si17  1  0.333611  0.166806  0.499928  1
  Si  Si18  1  0.166806  0.333611  0.500072  1
  Si  Si19  1  0.833194  0.666389  0.499928  1
  Ir  Ir20  1  0.666667  0.333333  0.996988  1
  Ir  Ir21  1  0.333333  0.666667  0.003012  1
  Ir  Ir22  1  0.333333  0.666667  0.496988  1
  Ir  Ir23  1  0.666667  0.333333  0.503012  1
