# generated using pymatgen
data_GdDy3Cr6O24
_symmetry_space_group_name_H-M   'P 1'
_cell_length_a   5.09490689
_cell_length_b   6.85251019
_cell_length_c   14.27005629
_cell_angle_alpha   84.45222392
_cell_angle_beta   80.25600122
_cell_angle_gamma   68.61378654
_symmetry_Int_Tables_number   1
_chemical_formula_structural   GdDy3Cr6O24
_chemical_formula_sum   'Gd1 Dy3 Cr6 O24'
_cell_volume   456.87993075
_cell_formula_units_Z   1
loop_
 _symmetry_equiv_pos_site_id
 _symmetry_equiv_pos_as_xyz
  1  'x, y, z'
loop_
 _atom_site_type_symbol
 _atom_site_label
 _atom_site_symmetry_multiplicity
 _atom_site_fract_x
 _atom_site_fract_y
 _atom_site_fract_z
 _atom_site_occupancy
  Gd  Gd0  1  0.364600  0.129030  0.125760  1
  Dy  Dy1  1  0.379162  0.793767  0.454814  1
  Dy  Dy2  1  0.634331  0.871421  0.873941  1
  Dy  Dy3  1  0.620615  0.206044  0.545987  1
  Cr  Cr4  1  0.903780  0.277191  0.951601  1
  Cr  Cr5  1  0.850817  0.976341  0.299504  1
  Cr  Cr6  1  0.871705  0.622769  0.620830  1
  Cr  Cr7  1  0.148993  0.022661  0.701625  1
  Cr  Cr8  1  0.097336  0.723388  0.045984  1
  Cr  Cr9  1  0.127372  0.377782  0.380196  1
  O  O10  1  0.833763  0.191628  0.678021  1
  O  O11  1  0.750725  0.861146  0.028914  1
  O  O12  1  0.821992  0.567108  0.370926  1
  O  O13  1  0.870279  0.515885  0.907066  1
  O  O14  1  0.906036  0.180890  0.243612  1
  O  O15  1  0.949168  0.825777  0.557145  1
  O  O16  1  0.322489  0.102705  0.769147  1
  O  O17  1  0.202416  0.847199  0.117059  1
  O  O18  1  0.331285  0.454859  0.442216  1
  O  O19  1  0.696997  0.691997  0.726696  1
  O  O20  1  0.710049  0.284423  0.057724  1
  O  O21  1  0.636875  0.020467  0.409421  1
  O  O22  1  0.296725  0.717053  0.941064  1
  O  O23  1  0.302355  0.309716  0.274370  1
  O  O24  1  0.362633  0.978679  0.591522  1
  O  O25  1  0.088520  0.820042  0.757830  1
  O  O26  1  0.128767  0.485606  0.090814  1
  O  O27  1  0.050069  0.174430  0.443443  1
  O  O28  1  0.251394  0.137232  0.967302  1
  O  O29  1  0.167863  0.809314  0.322470  1
  O  O30  1  0.177260  0.433291  0.629866  1
  O  O31  1  0.793583  0.152029  0.882499  1
  O  O32  1  0.681799  0.892903  0.231904  1
  O  O33  1  0.668246  0.545229  0.558727  1
