# generated using pymatgen
data_YbY(Si7Ir3)2
_symmetry_space_group_name_H-M   'P 1'
_cell_length_a   8.03994970
_cell_length_b   8.03995000
_cell_length_c   8.03994901
_cell_angle_alpha   56.78403809
_cell_angle_beta   56.78403902
_cell_angle_gamma   56.78404010
_symmetry_Int_Tables_number   1
_chemical_formula_structural   YbY(Si7Ir3)2
_chemical_formula_sum   'Yb1 Y1 Si14 Ir6'
_cell_volume   340.21034303
_cell_formula_units_Z   1
loop_
 _symmetry_equiv_pos_site_id
 _symmetry_equiv_pos_as_xyz
  1  'x, y, z'
loop_
 _atom_site_type_symbol
 _atom_site_label
 _atom_site_symmetry_multiplicity
 _atom_site_fract_x
 _atom_site_fract_y
 _atom_site_fract_z
 _atom_site_occupancy
  Yb  Yb0  1  0.500000  0.500000  0.500000  1
  Y  Y1  1  0.000000  0.000000  0.000000  1
  Si  Si2  1  0.849012  0.065998  0.672159  1
  Si  Si3  1  0.672159  0.849012  0.065998  1
  Si  Si4  1  0.065998  0.672159  0.849012  1
  Si  Si5  1  0.648129  0.826502  0.435341  1
  Si  Si6  1  0.249896  0.249896  0.249896  1
  Si  Si7  1  0.750104  0.750104  0.750104  1
  Si  Si8  1  0.173498  0.564659  0.351871  1
  Si  Si9  1  0.564659  0.351871  0.173498  1
  Si  Si10  1  0.351871  0.173498  0.564659  1
  Si  Si11  1  0.934002  0.327841  0.150988  1
  Si  Si12  1  0.327841  0.150988  0.934002  1
  Si  Si13  1  0.150988  0.934002  0.327841  1
  Si  Si14  1  0.826502  0.435341  0.648129  1
  Si  Si15  1  0.435341  0.648129  0.826502  1
  Ir  Ir16  1  0.751411  0.069443  0.427823  1
  Ir  Ir17  1  0.427823  0.751411  0.069443  1
  Ir  Ir18  1  0.069443  0.427823  0.751411  1
  Ir  Ir19  1  0.248589  0.930557  0.572177  1
  Ir  Ir20  1  0.572177  0.248589  0.930557  1
  Ir  Ir21  1  0.930557  0.572177  0.248589  1
