# generated using pymatgen
data_Pa2NiB10
_symmetry_space_group_name_H-M   'P 1'
_cell_length_a   4.11692300
_cell_length_b   5.55094700
_cell_length_c   11.00982200
_cell_angle_alpha   90.00000000
_cell_angle_beta   90.00000000
_cell_angle_gamma   90.00000000
_symmetry_Int_Tables_number   1
_chemical_formula_structural   Pa2NiB10
_chemical_formula_sum   'Pa4 Ni2 B20'
_cell_volume   251.60549555
_cell_formula_units_Z   2
loop_
 _symmetry_equiv_pos_site_id
 _symmetry_equiv_pos_as_xyz
  1  'x, y, z'
loop_
 _atom_site_type_symbol
 _atom_site_label
 _atom_site_symmetry_multiplicity
 _atom_site_fract_x
 _atom_site_fract_y
 _atom_site_fract_z
 _atom_site_occupancy
  Pa  Pa0  1  0.500000  0.188525  0.361207  1
  Pa  Pa1  1  0.500000  0.811475  0.638793  1
  Pa  Pa2  1  0.500000  0.311475  0.861207  1
  Pa  Pa3  1  0.500000  0.688525  0.138793  1
  Ni  Ni4  1  0.000000  0.000000  0.000000  1
  Ni  Ni5  1  0.000000  0.500000  0.500000  1
  B  B6  1  0.000000  0.374498  0.038886  1
  B  B7  1  0.000000  0.625502  0.961114  1
  B  B8  1  0.000000  0.125502  0.538886  1
  B  B9  1  0.000000  0.874498  0.461114  1
  B  B10  1  0.000000  0.346268  0.197864  1
  B  B11  1  0.000000  0.653732  0.802136  1
  B  B12  1  0.000000  0.153732  0.697864  1
  B  B13  1  0.000000  0.846268  0.302136  1
  B  B14  1  0.000000  0.032240  0.188162  1
  B  B15  1  0.000000  0.967760  0.811838  1
  B  B16  1  0.000000  0.467760  0.688162  1
  B  B17  1  0.000000  0.532240  0.311838  1
  B  B18  1  0.302675  0.201827  0.113812  1
  B  B19  1  0.697325  0.798173  0.886188  1
  B  B20  1  0.302675  0.798173  0.886188  1
  B  B21  1  0.697325  0.298173  0.613812  1
  B  B22  1  0.697325  0.201827  0.113812  1
  B  B23  1  0.302675  0.701827  0.386188  1
  B  B24  1  0.697325  0.701827  0.386188  1
  B  B25  1  0.302675  0.298173  0.613812  1
