# generated using pymatgen
data_LiSc5Al14(Si5Os3)2
_symmetry_space_group_name_H-M   'P 1'
_cell_length_a   8.45894374
_cell_length_b   8.45894403
_cell_length_c   9.03977700
_cell_angle_alpha   90.00000000
_cell_angle_beta   90.00000000
_cell_angle_gamma   119.48405743
_symmetry_Int_Tables_number   1
_chemical_formula_structural   LiSc5Al14(Si5Os3)2
_chemical_formula_sum   'Li1 Sc5 Al14 Si10 Os6'
_cell_volume   563.06058653
_cell_formula_units_Z   1
loop_
 _symmetry_equiv_pos_site_id
 _symmetry_equiv_pos_as_xyz
  1  'x, y, z'
loop_
 _atom_site_type_symbol
 _atom_site_label
 _atom_site_symmetry_multiplicity
 _atom_site_fract_x
 _atom_site_fract_y
 _atom_site_fract_z
 _atom_site_occupancy
  Li  Li0  1  0.204015  0.795985  0.250000  1
  Sc  Sc1  1  0.198478  0.396887  0.250000  1
  Sc  Sc2  1  0.603113  0.801522  0.250000  1
  Sc  Sc3  1  0.802038  0.197962  0.750000  1
  Sc  Sc4  1  0.800634  0.603815  0.750000  1
  Sc  Sc5  1  0.396185  0.199366  0.750000  1
  Al  Al6  1  0.159876  0.840124  0.922813  1
  Al  Al7  1  0.160435  0.317930  0.918757  1
  Al  Al8  1  0.682070  0.839565  0.918757  1
  Al  Al9  1  0.841052  0.158948  0.081228  1
  Al  Al10  1  0.840862  0.682231  0.083455  1
  Al  Al11  1  0.317769  0.159138  0.083455  1
  Al  Al12  1  0.841052  0.158948  0.418772  1
  Al  Al13  1  0.840862  0.682231  0.416545  1
  Al  Al14  1  0.317769  0.159138  0.416545  1
  Al  Al15  1  0.159876  0.840124  0.577187  1
  Al  Al16  1  0.160435  0.317930  0.581243  1
  Al  Al17  1  0.682070  0.839565  0.581243  1
  Al  Al18  1  0.002078  0.997922  0.250000  1
  Al  Al19  1  0.999794  0.000206  0.750000  1
  Si  Si20  1  0.566367  0.433633  0.250000  1
  Si  Si21  1  0.564497  0.130053  0.250000  1
  Si  Si22  1  0.869947  0.435503  0.250000  1
  Si  Si23  1  0.432638  0.567362  0.750000  1
  Si  Si24  1  0.433793  0.867920  0.750000  1
  Si  Si25  1  0.132080  0.566207  0.750000  1
  Si  Si26  1  0.329736  0.670264  0.445315  1
  Si  Si27  1  0.665884  0.334116  0.548057  1
  Si  Si28  1  0.665884  0.334116  0.951943  1
  Si  Si29  1  0.329736  0.670264  0.054685  1
  Os  Os30  1  0.499415  0.500585  0.499632  1
  Os  Os31  1  0.502037  0.001964  0.501462  1
  Os  Os32  1  0.998036  0.497963  0.501462  1
  Os  Os33  1  0.499415  0.500585  0.000368  1
  Os  Os34  1  0.502037  0.001964  0.998538  1
  Os  Os35  1  0.998036  0.497963  0.998538  1
