# generated using pymatgen
data_Ba4NiOsO8
_symmetry_space_group_name_H-M   'P 1'
_cell_length_a   7.30945678
_cell_length_b   7.30945681
_cell_length_c   5.80281000
_cell_angle_alpha   90.00000000
_cell_angle_beta   90.00000000
_cell_angle_gamma   133.46606692
_symmetry_Int_Tables_number   1
_chemical_formula_structural   Ba4NiOsO8
_chemical_formula_sum   'Ba4 Ni1 Os1 O8'
_cell_volume   225.01667434
_cell_formula_units_Z   1
loop_
 _symmetry_equiv_pos_site_id
 _symmetry_equiv_pos_as_xyz
  1  'x, y, z'
loop_
 _atom_site_type_symbol
 _atom_site_label
 _atom_site_symmetry_multiplicity
 _atom_site_fract_x
 _atom_site_fract_y
 _atom_site_fract_z
 _atom_site_occupancy
  Ba  Ba0  1  0.353187  0.646813  0.000000  1
  Ba  Ba1  1  0.855520  0.144480  0.500000  1
  Ba  Ba2  1  0.144480  0.855520  0.500000  1
  Ba  Ba3  1  0.646813  0.353187  0.000000  1
  Ni  Ni4  1  0.000000  0.000000  0.000000  1
  Os  Os5  1  0.500000  0.500000  0.500000  1
  O  O6  1  0.262078  0.262078  0.734105  1
  O  O7  1  0.737922  0.737922  0.265895  1
  O  O8  1  0.737922  0.737922  0.734105  1
  O  O9  1  0.262078  0.262078  0.265895  1
  O  O10  1  0.156842  0.843158  0.000000  1
  O  O11  1  0.650119  0.349881  0.500000  1
  O  O12  1  0.349881  0.650119  0.500000  1
  O  O13  1  0.843158  0.156842  0.000000  1
