# generated using pymatgen
data_Y3Fe2P6Ru7
_symmetry_space_group_name_H-M   'P 1'
_cell_length_a   3.87925900
_cell_length_b   10.97790300
_cell_length_c   12.67548800
_cell_angle_alpha   90.00000000
_cell_angle_beta   90.00000000
_cell_angle_gamma   90.00000000
_symmetry_Int_Tables_number   1
_chemical_formula_structural   Y3Fe2P6Ru7
_chemical_formula_sum   'Y6 Fe4 P12 Ru14'
_cell_volume   539.79996728
_cell_formula_units_Z   2
loop_
 _symmetry_equiv_pos_site_id
 _symmetry_equiv_pos_as_xyz
  1  'x, y, z'
loop_
 _atom_site_type_symbol
 _atom_site_label
 _atom_site_symmetry_multiplicity
 _atom_site_fract_x
 _atom_site_fract_y
 _atom_site_fract_z
 _atom_site_occupancy
  Y  Y0  1  0.000000  0.500000  0.525809  1
  Y  Y1  1  0.500000  0.000000  0.473954  1
  Y  Y2  1  0.500000  0.822611  0.203339  1
  Y  Y3  1  0.500000  0.177389  0.203339  1
  Y  Y4  1  0.000000  0.679697  0.798347  1
  Y  Y5  1  0.000000  0.320303  0.798347  1
  Fe  Fe6  1  0.000000  0.500000  0.989662  1
  Fe  Fe7  1  0.500000  0.000000  0.012099  1
  Fe  Fe8  1  0.000000  0.163761  0.006790  1
  Fe  Fe9  1  0.000000  0.836239  0.006790  1
  P  P10  1  0.500000  0.305878  0.617243  1
  P  P11  1  0.500000  0.694122  0.617243  1
  P  P12  1  0.000000  0.194679  0.383359  1
  P  P13  1  0.000000  0.805321  0.383359  1
  P  P14  1  0.500000  0.500000  0.887915  1
  P  P15  1  0.000000  0.000000  0.111439  1
  P  P16  1  0.500000  0.852838  0.896874  1
  P  P17  1  0.500000  0.147162  0.896874  1
  P  P18  1  0.000000  0.654839  0.100928  1
  P  P19  1  0.000000  0.345161  0.100928  1
  P  P20  1  0.500000  0.500000  0.335407  1
  P  P21  1  0.000000  0.000000  0.663656  1
  Ru  Ru22  1  0.500000  0.300729  0.429451  1
  Ru  Ru23  1  0.500000  0.699271  0.429451  1
  Ru  Ru24  1  0.000000  0.199698  0.570598  1
  Ru  Ru25  1  0.000000  0.800302  0.570598  1
  Ru  Ru26  1  0.500000  0.877674  0.715468  1
  Ru  Ru27  1  0.500000  0.122326  0.715468  1
  Ru  Ru28  1  0.000000  0.623279  0.282760  1
  Ru  Ru29  1  0.000000  0.376721  0.282760  1
  Ru  Ru30  1  0.500000  0.326442  0.993874  1
  Ru  Ru31  1  0.500000  0.673558  0.993874  1
  Ru  Ru32  1  0.500000  0.500000  0.150978  1
  Ru  Ru33  1  0.000000  0.000000  0.850823  1
  Ru  Ru34  1  0.500000  0.500000  0.699281  1
  Ru  Ru35  1  0.000000  0.000000  0.300915  1
