# generated using pymatgen
data_YErNiOs3
_symmetry_space_group_name_H-M   'P 1'
_cell_length_a   5.32014979
_cell_length_b   5.32015017
_cell_length_c   5.32014900
_cell_angle_alpha   59.18526194
_cell_angle_beta   59.18526173
_cell_angle_gamma   59.18525956
_symmetry_Int_Tables_number   1
_chemical_formula_structural   YErNiOs3
_chemical_formula_sum   'Y1 Er1 Ni1 Os3'
_cell_volume   104.50050344
_cell_formula_units_Z   1
loop_
 _symmetry_equiv_pos_site_id
 _symmetry_equiv_pos_as_xyz
  1  'x, y, z'
loop_
 _atom_site_type_symbol
 _atom_site_label
 _atom_site_symmetry_multiplicity
 _atom_site_fract_x
 _atom_site_fract_y
 _atom_site_fract_z
 _atom_site_occupancy
  Y  Y0  1  0.001334  0.001334  0.001334  1
  Er  Er1  1  0.248156  0.248156  0.248156  1
  Ni  Ni2  1  0.625020  0.625020  0.625020  1
  Os  Os3  1  0.625052  0.625052  0.125388  1
  Os  Os4  1  0.625052  0.125388  0.625052  1
  Os  Os5  1  0.125388  0.625052  0.625052  1
