# generated using pymatgen
data_HoTm5Lu4In8(IrPt)2
_symmetry_space_group_name_H-M   'P 1'
_cell_length_a   3.58177600
_cell_length_b   8.05623905
_cell_length_c   18.01610159
_cell_angle_alpha   90.02413331
_cell_angle_beta   90.00000000
_cell_angle_gamma   90.00000000
_symmetry_Int_Tables_number   1
_chemical_formula_structural   HoTm5Lu4In8(IrPt)2
_chemical_formula_sum   'Ho1 Tm5 Lu4 In8 Ir2 Pt2'
_cell_volume   519.86616218
_cell_formula_units_Z   1
loop_
 _symmetry_equiv_pos_site_id
 _symmetry_equiv_pos_as_xyz
  1  'x, y, z'
loop_
 _atom_site_type_symbol
 _atom_site_label
 _atom_site_symmetry_multiplicity
 _atom_site_fract_x
 _atom_site_fract_y
 _atom_site_fract_z
 _atom_site_occupancy
  Ho  Ho0  1  0.000000  0.500000  0.500000  1
  Tm  Tm1  1  0.000000  0.236576  0.221386  1
  Tm  Tm2  1  0.000000  0.763424  0.778614  1
  Tm  Tm3  1  0.000000  0.250272  0.721290  1
  Tm  Tm4  1  0.000000  0.749728  0.278710  1
  Tm  Tm5  1  0.000000  0.000000  0.000000  1
  Lu  Lu6  1  0.000000  0.115749  0.412203  1
  Lu  Lu7  1  0.000000  0.884251  0.587797  1
  Lu  Lu8  1  0.000000  0.383249  0.913083  1
  Lu  Lu9  1  0.000000  0.616751  0.086917  1
  In  In10  1  0.500000  0.423142  0.351115  1
  In  In11  1  0.500000  0.576858  0.648885  1
  In  In12  1  0.500000  0.073587  0.852373  1
  In  In13  1  0.500000  0.926413  0.147627  1
  In  In14  1  0.500000  0.294043  0.064639  1
  In  In15  1  0.500000  0.705957  0.935361  1
  In  In16  1  0.500000  0.205048  0.566941  1
  In  In17  1  0.500000  0.794952  0.433059  1
  Ir  Ir18  1  0.500000  0.022233  0.304206  1
  Ir  Ir19  1  0.500000  0.977767  0.695794  1
  Pt  Pt20  1  0.500000  0.478485  0.804831  1
  Pt  Pt21  1  0.500000  0.521515  0.195169  1
