# generated using pymatgen
data_ThScB6Ru
_symmetry_space_group_name_H-M   'P 1'
_cell_length_a   3.66352500
_cell_length_b   9.11218300
_cell_length_c   11.51603900
_cell_angle_alpha   90.00000000
_cell_angle_beta   90.00000000
_cell_angle_gamma   90.00000000
_symmetry_Int_Tables_number   1
_chemical_formula_structural   ThScB6Ru
_chemical_formula_sum   'Th4 Sc4 B24 Ru4'
_cell_volume   384.43659288
_cell_formula_units_Z   4
loop_
 _symmetry_equiv_pos_site_id
 _symmetry_equiv_pos_as_xyz
  1  'x, y, z'
loop_
 _atom_site_type_symbol
 _atom_site_label
 _atom_site_symmetry_multiplicity
 _atom_site_fract_x
 _atom_site_fract_y
 _atom_site_fract_z
 _atom_site_occupancy
  Th  Th0  1  0.000000  0.820697  0.085564  1
  Th  Th1  1  0.000000  0.179303  0.914436  1
  Th  Th2  1  0.000000  0.320697  0.414436  1
  Th  Th3  1  0.000000  0.679303  0.585564  1
  Sc  Sc4  1  0.000000  0.445517  0.124620  1
  Sc  Sc5  1  0.000000  0.554483  0.875380  1
  Sc  Sc6  1  0.000000  0.945517  0.375380  1
  Sc  Sc7  1  0.000000  0.054483  0.624620  1
  B  B8  1  0.500000  0.056851  0.070311  1
  B  B9  1  0.500000  0.943149  0.929689  1
  B  B10  1  0.500000  0.556851  0.429689  1
  B  B11  1  0.500000  0.443149  0.570311  1
  B  B12  1  0.500000  0.255243  0.083860  1
  B  B13  1  0.500000  0.744757  0.916140  1
  B  B14  1  0.500000  0.755243  0.416140  1
  B  B15  1  0.500000  0.244757  0.583860  1
  B  B16  1  0.500000  0.294222  0.233802  1
  B  B17  1  0.500000  0.705778  0.766198  1
  B  B18  1  0.500000  0.794222  0.266198  1
  B  B19  1  0.500000  0.205778  0.733802  1
  B  B20  1  0.500000  0.128417  0.317306  1
  B  B21  1  0.500000  0.871583  0.682694  1
  B  B22  1  0.500000  0.628417  0.182694  1
  B  B23  1  0.500000  0.371583  0.817306  1
  B  B24  1  0.500000  0.484369  0.283655  1
  B  B25  1  0.500000  0.515631  0.716345  1
  B  B26  1  0.500000  0.984369  0.216345  1
  B  B27  1  0.500000  0.015631  0.783655  1
  B  B28  1  0.500000  0.097968  0.473969  1
  B  B29  1  0.500000  0.902032  0.526031  1
  B  B30  1  0.500000  0.597968  0.026031  1
  B  B31  1  0.500000  0.402032  0.973969  1
  Ru  Ru32  1  0.000000  0.141494  0.182962  1
  Ru  Ru33  1  0.000000  0.858506  0.817038  1
  Ru  Ru34  1  0.000000  0.641494  0.317038  1
  Ru  Ru35  1  0.000000  0.358506  0.682962  1
