# generated using pymatgen
data_Dy2V3Ni9P7
_symmetry_space_group_name_H-M   'P 1'
_cell_length_a   9.15883400
_cell_length_b   9.15883408
_cell_length_c   3.66365800
_cell_angle_alpha   90.00000000
_cell_angle_beta   90.00000000
_cell_angle_gamma   119.99999973
_symmetry_Int_Tables_number   1
_chemical_formula_structural   Dy2V3Ni9P7
_chemical_formula_sum   'Dy2 V3 Ni9 P7'
_cell_volume   266.14967343
_cell_formula_units_Z   1
loop_
 _symmetry_equiv_pos_site_id
 _symmetry_equiv_pos_as_xyz
  1  'x, y, z'
loop_
 _atom_site_type_symbol
 _atom_site_label
 _atom_site_symmetry_multiplicity
 _atom_site_fract_x
 _atom_site_fract_y
 _atom_site_fract_z
 _atom_site_occupancy
  Dy  Dy0  1  0.333333  0.666667  0.000000  1
  Dy  Dy1  1  0.666667  0.333333  0.500000  1
  V  V2  1  0.218623  0.117864  0.500000  1
  V  V3  1  0.882136  0.100760  0.500000  1
  V  V4  1  0.899240  0.781377  0.500000  1
  Ni  Ni5  1  0.124896  0.279776  0.000000  1
  Ni  Ni6  1  0.720224  0.845120  0.000000  1
  Ni  Ni7  1  0.154880  0.875104  0.000000  1
  Ni  Ni8  1  0.432889  0.371692  0.000000  1
  Ni  Ni9  1  0.628308  0.061196  0.000000  1
  Ni  Ni10  1  0.938804  0.567111  0.000000  1
  Ni  Ni11  1  0.053418  0.437700  0.500000  1
  Ni  Ni12  1  0.562300  0.615718  0.500000  1
  Ni  Ni13  1  0.384282  0.946582  0.500000  1
  P  P14  1  0.290493  0.404007  0.500000  1
  P  P15  1  0.595993  0.886486  0.500000  1
  P  P16  1  0.113514  0.709507  0.500000  1
  P  P17  1  0.407815  0.113574  0.000000  1
  P  P18  1  0.886426  0.294241  0.000000  1
  P  P19  1  0.705759  0.592185  0.000000  1
  P  P20  1  0.000000  0.000000  0.000000  1
