# generated using pymatgen
data_HoSc11Ni4
_symmetry_space_group_name_H-M   'P 1'
_cell_length_a   5.95121383
_cell_length_b   6.31832123
_cell_length_c   8.87043000
_cell_angle_alpha   90.00000000
_cell_angle_beta   90.00000000
_cell_angle_gamma   90.22655495
_symmetry_Int_Tables_number   1
_chemical_formula_structural   HoSc11Ni4
_chemical_formula_sum   'Ho1 Sc11 Ni4'
_cell_volume   333.54046887
_cell_formula_units_Z   1
loop_
 _symmetry_equiv_pos_site_id
 _symmetry_equiv_pos_as_xyz
  1  'x, y, z'
loop_
 _atom_site_type_symbol
 _atom_site_label
 _atom_site_symmetry_multiplicity
 _atom_site_fract_x
 _atom_site_fract_y
 _atom_site_fract_z
 _atom_site_occupancy
  Ho  Ho0  1  0.375550  0.979948  0.750000  1
  Sc  Sc1  1  0.315752  0.677235  0.062693  1
  Sc  Sc2  1  0.184107  0.183521  0.435294  1
  Sc  Sc3  1  0.687866  0.321263  0.555463  1
  Sc  Sc4  1  0.819348  0.818251  0.942066  1
  Sc  Sc5  1  0.687866  0.321263  0.944537  1
  Sc  Sc6  1  0.819348  0.818251  0.557934  1
  Sc  Sc7  1  0.315752  0.677235  0.437307  1
  Sc  Sc8  1  0.184107  0.183521  0.064706  1
  Sc  Sc9  1  0.877973  0.526396  0.250000  1
  Sc  Sc10  1  0.622467  0.023595  0.250000  1
  Sc  Sc11  1  0.121684  0.473562  0.750000  1
  Ni  Ni12  1  0.042984  0.900207  0.250000  1
  Ni  Ni13  1  0.460095  0.399748  0.250000  1
  Ni  Ni14  1  0.937716  0.105155  0.750000  1
  Ni  Ni15  1  0.547387  0.590848  0.750000  1
