# generated using pymatgen
data_Tm2Pa2Ge6Rh7
_symmetry_space_group_name_H-M   'P 1'
_cell_length_a   7.26269473
_cell_length_b   7.29760458
_cell_length_c   7.26269507
_cell_angle_alpha   109.46729557
_cell_angle_beta   109.28446918
_cell_angle_gamma   109.46729527
_symmetry_Int_Tables_number   1
_chemical_formula_structural   Tm2Pa2Ge6Rh7
_chemical_formula_sum   'Tm2 Pa2 Ge6 Rh7'
_cell_volume   297.02403022
_cell_formula_units_Z   1
loop_
 _symmetry_equiv_pos_site_id
 _symmetry_equiv_pos_as_xyz
  1  'x, y, z'
loop_
 _atom_site_type_symbol
 _atom_site_label
 _atom_site_symmetry_multiplicity
 _atom_site_fract_x
 _atom_site_fract_y
 _atom_site_fract_z
 _atom_site_occupancy
  Tm  Tm0  1  0.000000  0.000000  0.500000  1
  Tm  Tm1  1  0.500000  0.000000  0.000000  1
  Pa  Pa2  1  0.500000  0.500000  0.500000  1
  Pa  Pa3  1  0.000000  0.500000  0.000000  1
  Ge  Ge4  1  0.317047  0.312159  0.995112  1
  Ge  Ge5  1  0.995112  0.312159  0.317047  1
  Ge  Ge6  1  0.004888  0.687841  0.682953  1
  Ge  Ge7  1  0.683694  0.000000  0.683694  1
  Ge  Ge8  1  0.316306  0.000000  0.316306  1
  Ge  Ge9  1  0.682953  0.687841  0.004888  1
  Rh  Rh10  1  0.749545  0.253545  0.503999  1
  Rh  Rh11  1  0.503999  0.253545  0.749545  1
  Rh  Rh12  1  0.496001  0.746455  0.250455  1
  Rh  Rh13  1  0.250000  0.500000  0.750000  1
  Rh  Rh14  1  0.750000  0.500000  0.250000  1
  Rh  Rh15  1  0.250455  0.746455  0.496001  1
  Rh  Rh16  1  0.000000  0.000000  0.000000  1
