# generated using pymatgen
data_Lu9ScSb9Te
_symmetry_space_group_name_H-M   'P 1'
_cell_length_a   7.44165220
_cell_length_b   8.60021013
_cell_length_c   9.59831988
_cell_angle_alpha   102.84121459
_cell_angle_beta   97.50729289
_cell_angle_gamma   106.91973008
_symmetry_Int_Tables_number   1
_chemical_formula_structural   Lu9ScSb9Te
_chemical_formula_sum   'Lu9 Sc1 Sb9 Te1'
_cell_volume   560.29668245
_cell_formula_units_Z   1
loop_
 _symmetry_equiv_pos_site_id
 _symmetry_equiv_pos_as_xyz
  1  'x, y, z'
loop_
 _atom_site_type_symbol
 _atom_site_label
 _atom_site_symmetry_multiplicity
 _atom_site_fract_x
 _atom_site_fract_y
 _atom_site_fract_z
 _atom_site_occupancy
  Lu  Lu0  1  0.900856  0.549545  0.800444  1
  Lu  Lu1  1  0.695839  0.152320  0.398444  1
  Lu  Lu2  1  0.498432  0.749533  0.999377  1
  Lu  Lu3  1  0.695784  0.644843  0.398718  1
  Lu  Lu4  1  0.306064  0.356035  0.602528  1
  Lu  Lu5  1  0.100933  0.948214  0.194930  1
  Lu  Lu6  1  0.499844  0.249703  0.999450  1
  Lu  Lu7  1  0.304959  0.847773  0.601302  1
  Lu  Lu8  1  0.098910  0.450055  0.199173  1
  Sc  Sc9  1  0.898296  0.052065  0.806109  1
  Sb  Sb10  1  0.799492  0.600705  0.100805  1
  Sb  Sb11  1  0.603283  0.197613  0.700749  1
  Sb  Sb12  1  0.400636  0.800615  0.300417  1
  Sb  Sb13  1  0.800836  0.099069  0.098250  1
  Sb  Sb14  1  0.196216  0.394761  0.897933  1
  Sb  Sb15  1  0.607554  0.706050  0.702140  1
  Sb  Sb16  1  0.396311  0.298446  0.299541  1
  Sb  Sb17  1  0.196162  0.901988  0.896541  1
  Sb  Sb18  1  0.000230  0.499886  0.500045  1
  Te  Te19  1  0.999363  0.000783  0.503104  1
