# generated using pymatgen
data_Dy14Er2MgNi4Ag3
_symmetry_space_group_name_H-M   'P 1'
_cell_length_a   9.47172345
_cell_length_b   9.46996044
_cell_length_c   9.45824900
_cell_angle_alpha   60.04089759
_cell_angle_beta   60.04704452
_cell_angle_gamma   60.13681049
_symmetry_Int_Tables_number   1
_chemical_formula_structural   Dy14Er2MgNi4Ag3
_chemical_formula_sum   'Dy14 Er2 Mg1 Ni4 Ag3'
_cell_volume   600.90921300
_cell_formula_units_Z   1
loop_
 _symmetry_equiv_pos_site_id
 _symmetry_equiv_pos_as_xyz
  1  'x, y, z'
loop_
 _atom_site_type_symbol
 _atom_site_label
 _atom_site_symmetry_multiplicity
 _atom_site_fract_x
 _atom_site_fract_y
 _atom_site_fract_z
 _atom_site_occupancy
  Dy  Dy0  1  0.184097  0.815307  0.814765  1
  Dy  Dy1  1  0.813872  0.185660  0.185493  1
  Dy  Dy2  1  0.813872  0.185660  0.814974  1
  Dy  Dy3  1  0.184097  0.815307  0.185832  1
  Dy  Dy4  1  0.813806  0.814925  0.185634  1
  Dy  Dy5  1  0.184659  0.186793  0.814275  1
  Dy  Dy6  1  0.597626  0.597620  0.597061  1
  Dy  Dy7  1  0.597626  0.597620  0.207695  1
  Dy  Dy8  1  0.600479  0.204930  0.597296  1
  Dy  Dy9  1  0.192038  0.604645  0.601658  1
  Dy  Dy10  1  0.059679  0.438867  0.440373  1
  Dy  Dy11  1  0.436179  0.063025  0.063335  1
  Dy  Dy12  1  0.436179  0.063025  0.437460  1
  Dy  Dy13  1  0.059679  0.438867  0.061083  1
  Er  Er14  1  0.437533  0.437619  0.062423  1
  Er  Er15  1  0.059292  0.060900  0.439904  1
  Mg  Mg16  1  0.537478  0.819716  0.821403  1
  Ni  Ni17  1  0.390099  0.394550  0.394125  1
  Ni  Ni18  1  0.390099  0.394550  0.821226  1
  Ni  Ni19  1  0.388430  0.822855  0.394357  1
  Ni  Ni20  1  0.822650  0.391398  0.392975  1
  Ag  Ag21  1  0.833626  0.834089  0.833402  1
  Ag  Ag22  1  0.833626  0.834089  0.498882  1
  Ag  Ag23  1  0.833276  0.497984  0.834370  1
