# generated using pymatgen
data_Li6ZnGa5Ir4
_symmetry_space_group_name_H-M   'P 1'
_cell_length_a   6.11462000
_cell_length_b   6.01055700
_cell_length_c   6.01055700
_cell_angle_alpha   90.00000000
_cell_angle_beta   90.00000000
_cell_angle_gamma   90.00000000
_symmetry_Int_Tables_number   1
_chemical_formula_structural   Li6ZnGa5Ir4
_chemical_formula_sum   'Li6 Zn1 Ga5 Ir4'
_cell_volume   220.90162600
_cell_formula_units_Z   1
loop_
 _symmetry_equiv_pos_site_id
 _symmetry_equiv_pos_as_xyz
  1  'x, y, z'
loop_
 _atom_site_type_symbol
 _atom_site_label
 _atom_site_symmetry_multiplicity
 _atom_site_fract_x
 _atom_site_fract_y
 _atom_site_fract_z
 _atom_site_occupancy
  Li  Li0  1  0.000000  0.000000  0.000000  1
  Li  Li1  1  0.500000  0.500000  0.500000  1
  Li  Li2  1  0.752641  0.252150  0.252150  1
  Li  Li3  1  0.247359  0.252150  0.747850  1
  Li  Li4  1  0.247359  0.747850  0.252150  1
  Li  Li5  1  0.752641  0.747850  0.747850  1
  Zn  Zn6  1  0.000000  0.500000  0.500000  1
  Ga  Ga7  1  0.000000  0.500000  0.000000  1
  Ga  Ga8  1  0.000000  0.000000  0.500000  1
  Ga  Ga9  1  0.500000  0.500000  0.000000  1
  Ga  Ga10  1  0.500000  0.000000  0.000000  1
  Ga  Ga11  1  0.500000  0.000000  0.500000  1
  Ir  Ir12  1  0.748380  0.246831  0.753169  1
  Ir  Ir13  1  0.251620  0.246831  0.246831  1
  Ir  Ir14  1  0.748380  0.753169  0.246831  1
  Ir  Ir15  1  0.251620  0.753169  0.753169  1
