# generated using pymatgen
data_DyYLu2(B6Os)2
_symmetry_space_group_name_H-M   'P 1'
_cell_length_a   3.62084500
_cell_length_b   9.08089601
_cell_length_c   11.47090001
_cell_angle_alpha   90.00558093
_cell_angle_beta   90.00000000
_cell_angle_gamma   90.00000000
_symmetry_Int_Tables_number   1
_chemical_formula_structural   DyYLu2(B6Os)2
_chemical_formula_sum   'Dy2 Y2 Lu4 B24 Os4'
_cell_volume   377.16912015
_cell_formula_units_Z   2
loop_
 _symmetry_equiv_pos_site_id
 _symmetry_equiv_pos_as_xyz
  1  'x, y, z'
loop_
 _atom_site_type_symbol
 _atom_site_label
 _atom_site_symmetry_multiplicity
 _atom_site_fract_x
 _atom_site_fract_y
 _atom_site_fract_z
 _atom_site_occupancy
  Dy  Dy0  1  0.000000  0.321320  0.414032  1
  Dy  Dy1  1  0.000000  0.678680  0.585968  1
  Y  Y2  1  0.000000  0.821047  0.085934  1
  Y  Y3  1  0.000000  0.178953  0.914066  1
  Lu  Lu4  1  0.000000  0.944347  0.373097  1
  Lu  Lu5  1  0.000000  0.055653  0.626903  1
  Lu  Lu6  1  0.000000  0.444353  0.126981  1
  Lu  Lu7  1  0.000000  0.555647  0.873019  1
  B  B8  1  0.500000  0.554525  0.432828  1
  B  B9  1  0.500000  0.445475  0.567172  1
  B  B10  1  0.500000  0.054573  0.067283  1
  B  B11  1  0.500000  0.945427  0.932717  1
  B  B12  1  0.500000  0.749869  0.419515  1
  B  B13  1  0.500000  0.250131  0.580485  1
  B  B14  1  0.500000  0.249966  0.080677  1
  B  B15  1  0.500000  0.750034  0.919323  1
  B  B16  1  0.500000  0.792161  0.266308  1
  B  B17  1  0.500000  0.207839  0.733691  1
  B  B18  1  0.500000  0.292222  0.233898  1
  B  B19  1  0.500000  0.707778  0.766103  1
  B  B20  1  0.500000  0.630715  0.184554  1
  B  B21  1  0.500000  0.369285  0.815446  1
  B  B22  1  0.500000  0.130891  0.315602  1
  B  B23  1  0.500000  0.869109  0.684398  1
  B  B24  1  0.500000  0.982837  0.213877  1
  B  B25  1  0.500000  0.017163  0.786123  1
  B  B26  1  0.500000  0.482728  0.286288  1
  B  B27  1  0.500000  0.517272  0.713712  1
  B  B28  1  0.500000  0.603997  0.028596  1
  B  B29  1  0.500000  0.396003  0.971404  1
  B  B30  1  0.500000  0.104123  0.471384  1
  B  B31  1  0.500000  0.895877  0.528616  1
  Os  Os32  1  0.000000  0.638300  0.320398  1
  Os  Os33  1  0.000000  0.361700  0.679602  1
  Os  Os34  1  0.000000  0.138477  0.179876  1
  Os  Os35  1  0.000000  0.861523  0.820124  1
