# generated using pymatgen
data_Ho16Zn2CdInRh4
_symmetry_space_group_name_H-M   'P 1'
_cell_length_a   9.52148051
_cell_length_b   9.53201928
_cell_length_c   9.52148119
_cell_angle_alpha   59.93522466
_cell_angle_beta   59.93253345
_cell_angle_gamma   59.93522746
_symmetry_Int_Tables_number   1
_chemical_formula_structural   Ho16Zn2CdInRh4
_chemical_formula_sum   'Ho16 Zn2 Cd1 In1 Rh4'
_cell_volume   610.14284734
_cell_formula_units_Z   1
loop_
 _symmetry_equiv_pos_site_id
 _symmetry_equiv_pos_as_xyz
  1  'x, y, z'
loop_
 _atom_site_type_symbol
 _atom_site_label
 _atom_site_symmetry_multiplicity
 _atom_site_fract_x
 _atom_site_fract_y
 _atom_site_fract_z
 _atom_site_occupancy
  Ho  Ho0  1  0.190945  0.180250  0.814820  1
  Ho  Ho1  1  0.600312  0.600923  0.196778  1
  Ho  Ho2  1  0.440846  0.059368  0.440846  1
  Ho  Ho3  1  0.441247  0.441127  0.058737  1
  Ho  Ho4  1  0.814162  0.184622  0.814162  1
  Ho  Ho5  1  0.186339  0.813289  0.186339  1
  Ho  Ho6  1  0.439356  0.060504  0.059932  1
  Ho  Ho7  1  0.189941  0.812836  0.814469  1
  Ho  Ho8  1  0.059551  0.439801  0.059551  1
  Ho  Ho9  1  0.814469  0.812836  0.189941  1
  Ho  Ho10  1  0.196778  0.600923  0.600312  1
  Ho  Ho11  1  0.058737  0.441127  0.441247  1
  Ho  Ho12  1  0.059932  0.060504  0.439356  1
  Ho  Ho13  1  0.814820  0.180250  0.190945  1
  Ho  Ho14  1  0.601168  0.194535  0.601168  1
  Ho  Ho15  1  0.601616  0.602882  0.601616  1
  Zn  Zn16  1  0.829897  0.834005  0.503757  1
  Zn  Zn17  1  0.503757  0.834005  0.829897  1
  Cd  Cd18  1  0.828167  0.833158  0.828167  1
  In  In19  1  0.828296  0.512215  0.828296  1
  Rh  Rh20  1  0.392909  0.821676  0.392909  1
  Rh  Rh21  1  0.392813  0.392605  0.392813  1
  Rh  Rh22  1  0.820454  0.393279  0.393486  1
  Rh  Rh23  1  0.393486  0.393279  0.820454  1
