# generated using pymatgen
data_Ho8Er5Tm7Pt16
_symmetry_space_group_name_H-M   'P 1'
_cell_length_a   7.41954801
_cell_length_b   7.51355602
_cell_length_c   14.62212502
_cell_angle_alpha   89.99404032
_cell_angle_beta   89.99817565
_cell_angle_gamma   89.99510416
_symmetry_Int_Tables_number   1
_chemical_formula_structural   Ho8Er5Tm7Pt16
_chemical_formula_sum   'Ho8 Er5 Tm7 Pt16'
_cell_volume   815.14236780
_cell_formula_units_Z   1
loop_
 _symmetry_equiv_pos_site_id
 _symmetry_equiv_pos_as_xyz
  1  'x, y, z'
loop_
 _atom_site_type_symbol
 _atom_site_label
 _atom_site_symmetry_multiplicity
 _atom_site_fract_x
 _atom_site_fract_y
 _atom_site_fract_z
 _atom_site_occupancy
  Ho  Ho0  1  0.501165  0.679594  0.592740  1
  Ho  Ho1  1  0.001093  0.820332  0.907340  1
  Ho  Ho2  1  0.498900  0.320331  0.092646  1
  Ho  Ho3  1  0.998810  0.179759  0.407344  1
  Ho  Ho4  1  0.498783  0.320292  0.407307  1
  Ho  Ho5  1  0.998742  0.179730  0.092681  1
  Ho  Ho6  1  0.501284  0.679718  0.907316  1
  Ho  Ho7  1  0.001262  0.820255  0.592711  1
  Er  Er8  1  0.656809  0.167763  0.622561  1
  Er  Er9  1  0.156778  0.332250  0.877410  1
  Er  Er10  1  0.343251  0.832248  0.122541  1
  Er  Er11  1  0.843211  0.667692  0.377427  1
  Er  Er12  1  0.343205  0.832282  0.377435  1
  Tm  Tm13  1  0.843196  0.667707  0.122601  1
  Tm  Tm14  1  0.656809  0.167728  0.877380  1
  Tm  Tm15  1  0.156801  0.332268  0.622632  1
  Tm  Tm16  1  0.819229  0.511216  0.750008  1
  Tm  Tm17  1  0.319225  0.988784  0.750007  1
  Tm  Tm18  1  0.180691  0.488673  0.249950  1
  Tm  Tm19  1  0.680892  0.011303  0.249948  1
  Pt  Pt20  1  0.683671  0.966989  0.458247  1
  Pt  Pt21  1  0.183291  0.533185  0.041846  1
  Pt  Pt22  1  0.316696  0.033200  0.958168  1
  Pt  Pt23  1  0.816676  0.466831  0.541853  1
  Pt  Pt24  1  0.316031  0.033533  0.541908  1
  Pt  Pt25  1  0.816056  0.466810  0.958348  1
  Pt  Pt26  1  0.683899  0.966754  0.041682  1
  Pt  Pt27  1  0.183648  0.532702  0.458442  1
  Pt  Pt28  1  0.454392  0.386313  0.750028  1
  Pt  Pt29  1  0.954404  0.113690  0.750005  1
  Pt  Pt30  1  0.545822  0.613450  0.249824  1
  Pt  Pt31  1  0.045280  0.886374  0.249811  1
  Pt  Pt32  1  0.682161  0.856337  0.750126  1
  Pt  Pt33  1  0.182162  0.643698  0.749905  1
  Pt  Pt34  1  0.317808  0.143931  0.249954  1
  Pt  Pt35  1  0.817868  0.356278  0.249869  1
