# generated using pymatgen
data_Zr6Zn16CdSiPt6
_symmetry_space_group_name_H-M   'P 1'
_cell_length_a   8.87567833
_cell_length_b   8.87567834
_cell_length_c   8.87567900
_cell_angle_alpha   60.00000128
_cell_angle_beta   60.00000121
_cell_angle_gamma   59.99999873
_symmetry_Int_Tables_number   1
_chemical_formula_structural   Zr6Zn16CdSiPt6
_chemical_formula_sum   'Zr6 Zn16 Cd1 Si1 Pt6'
_cell_volume   494.41279595
_cell_formula_units_Z   1
loop_
 _symmetry_equiv_pos_site_id
 _symmetry_equiv_pos_as_xyz
  1  'x, y, z'
loop_
 _atom_site_type_symbol
 _atom_site_label
 _atom_site_symmetry_multiplicity
 _atom_site_fract_x
 _atom_site_fract_y
 _atom_site_fract_z
 _atom_site_occupancy
  Zr  Zr0  1  0.712803  0.287197  0.287197  1
  Zr  Zr1  1  0.287197  0.712803  0.712803  1
  Zr  Zr2  1  0.287197  0.712803  0.287197  1
  Zr  Zr3  1  0.712803  0.287197  0.712803  1
  Zr  Zr4  1  0.287197  0.287197  0.712803  1
  Zr  Zr5  1  0.712803  0.712803  0.287197  1
  Zn  Zn6  1  0.127948  0.127948  0.127948  1
  Zn  Zn7  1  0.872052  0.872052  0.872052  1
  Zn  Zn8  1  0.127948  0.127948  0.616158  1
  Zn  Zn9  1  0.127948  0.616158  0.127948  1
  Zn  Zn10  1  0.872052  0.872052  0.383842  1
  Zn  Zn11  1  0.872052  0.383842  0.872052  1
  Zn  Zn12  1  0.616158  0.127948  0.127948  1
  Zn  Zn13  1  0.383842  0.872052  0.872052  1
  Zn  Zn14  1  0.341894  0.341894  0.341894  1
  Zn  Zn15  1  0.658106  0.658106  0.658106  1
  Zn  Zn16  1  0.341894  0.341894  0.974319  1
  Zn  Zn17  1  0.341894  0.974319  0.341894  1
  Zn  Zn18  1  0.658106  0.658106  0.025681  1
  Zn  Zn19  1  0.658106  0.025681  0.658106  1
  Zn  Zn20  1  0.974319  0.341894  0.341894  1
  Zn  Zn21  1  0.025681  0.658106  0.658106  1
  Cd  Cd22  1  0.000000  0.000000  0.000000  1
  Si  Si23  1  0.500000  0.500000  0.500000  1
  Pt  Pt24  1  0.500000  0.000000  0.000000  1
  Pt  Pt25  1  0.000000  0.500000  0.500000  1
  Pt  Pt26  1  0.000000  0.500000  0.000000  1
  Pt  Pt27  1  0.500000  0.000000  0.500000  1
  Pt  Pt28  1  0.000000  0.000000  0.500000  1
  Pt  Pt29  1  0.500000  0.500000  0.000000  1
