# generated using pymatgen
data_Ho15Tm5Si15Rh
_symmetry_space_group_name_H-M   'P 1'
_cell_length_a   7.37819190
_cell_length_b   7.62459078
_cell_length_c   14.49714458
_cell_angle_alpha   89.72050408
_cell_angle_beta   89.69823887
_cell_angle_gamma   90.18675769
_symmetry_Int_Tables_number   1
_chemical_formula_structural   Ho15Tm5Si15Rh
_chemical_formula_sum   'Ho15 Tm5 Si15 Rh1'
_cell_volume   815.52151290
_cell_formula_units_Z   1
loop_
 _symmetry_equiv_pos_site_id
 _symmetry_equiv_pos_as_xyz
  1  'x, y, z'
loop_
 _atom_site_type_symbol
 _atom_site_label
 _atom_site_symmetry_multiplicity
 _atom_site_fract_x
 _atom_site_fract_y
 _atom_site_fract_z
 _atom_site_occupancy
  Ho  Ho0  1  0.472868  0.682105  0.401472  1
  Ho  Ho1  1  0.527752  0.322858  0.900915  1
  Ho  Ho2  1  0.027731  0.183455  0.599007  1
  Ho  Ho3  1  0.026833  0.184451  0.902095  1
  Ho  Ho4  1  0.528036  0.318548  0.598390  1
  Ho  Ho5  1  0.475559  0.681941  0.099341  1
  Ho  Ho6  1  0.971629  0.817739  0.401040  1
  Ho  Ho7  1  0.683165  0.811419  0.882174  1
  Ho  Ho8  1  0.178386  0.681057  0.622057  1
  Ho  Ho9  1  0.817869  0.334251  0.118634  1
  Ho  Ho10  1  0.316533  0.177349  0.375494  1
  Ho  Ho11  1  0.321497  0.178892  0.123705  1
  Ho  Ho12  1  0.819952  0.319911  0.376899  1
  Ho  Ho13  1  0.175291  0.675320  0.878307  1
  Ho  Ho14  1  0.682504  0.819571  0.622722  1
  Tm  Tm15  1  0.649029  0.993044  0.248840  1
  Tm  Tm16  1  0.148999  0.510340  0.247604  1
  Tm  Tm17  1  0.847060  0.487573  0.757414  1
  Tm  Tm18  1  0.351810  0.009859  0.751901  1
  Tm  Tm19  1  0.974268  0.815266  0.098021  1
  Si  Si20  1  0.767841  0.631505  0.251720  1
  Si  Si21  1  0.267789  0.870195  0.250295  1
  Si  Si22  1  0.730762  0.124896  0.748867  1
  Si  Si23  1  0.233106  0.371087  0.746701  1
  Si  Si24  1  0.018611  0.105573  0.248361  1
  Si  Si25  1  0.522470  0.396848  0.251449  1
  Si  Si26  1  0.472791  0.605776  0.747001  1
  Si  Si27  1  0.977848  0.898138  0.748740  1
  Si  Si28  1  0.353048  0.972105  0.539903  1
  Si  Si29  1  0.649180  0.027759  0.041902  1
  Si  Si30  1  0.149045  0.470163  0.459959  1
  Si  Si31  1  0.156198  0.472981  0.041706  1
  Si  Si32  1  0.644694  0.028382  0.459204  1
  Si  Si33  1  0.352575  0.969670  0.961056  1
  Si  Si34  1  0.852838  0.528617  0.539101  1
  Rh  Rh35  1  0.854433  0.521355  0.958002  1
