# generated using pymatgen
data_Er8Tm8Cd4CoRu3
_symmetry_space_group_name_H-M   'P 1'
_cell_length_a   9.43061112
_cell_length_b   9.52536627
_cell_length_c   9.53687600
_cell_angle_alpha   59.96002091
_cell_angle_beta   59.62654959
_cell_angle_gamma   59.64247594
_symmetry_Int_Tables_number   1
_chemical_formula_structural   Er8Tm8Cd4CoRu3
_chemical_formula_sum   'Er8 Tm8 Cd4 Co1 Ru3'
_cell_volume   602.22850969
_cell_formula_units_Z   1
loop_
 _symmetry_equiv_pos_site_id
 _symmetry_equiv_pos_as_xyz
  1  'x, y, z'
loop_
 _atom_site_type_symbol
 _atom_site_label
 _atom_site_symmetry_multiplicity
 _atom_site_fract_x
 _atom_site_fract_y
 _atom_site_fract_z
 _atom_site_occupancy
  Er  Er0  1  0.185604  0.190214  0.812092  1
  Er  Er1  1  0.807969  0.815846  0.188093  1
  Er  Er2  1  0.938131  0.561616  0.561432  1
  Er  Er3  1  0.559467  0.938139  0.938202  1
  Er  Er4  1  0.559467  0.938139  0.564192  1
  Er  Er5  1  0.938131  0.561616  0.938821  1
  Er  Er6  1  0.559002  0.564060  0.938469  1
  Er  Er7  1  0.938251  0.938675  0.561536  1
  Tm  Tm8  1  0.352335  0.344448  0.344145  1
  Tm  Tm9  1  0.352335  0.344448  0.959072  1
  Tm  Tm10  1  0.351939  0.959730  0.344165  1
  Tm  Tm11  1  0.963727  0.345090  0.345592  1
  Tm  Tm12  1  0.807844  0.187983  0.188187  1
  Tm  Tm13  1  0.185254  0.811919  0.812023  1
  Tm  Tm14  1  0.185254  0.811919  0.190805  1
  Tm  Tm15  1  0.807844  0.187983  0.815986  1
  Cd  Cd16  1  0.578873  0.580331  0.580437  1
  Cd  Cd17  1  0.578873  0.580331  0.260359  1
  Cd  Cd18  1  0.579222  0.260119  0.580329  1
  Cd  Cd19  1  0.255939  0.581467  0.581297  1
  Co  Co20  1  0.578619  0.141149  0.140116  1
  Ru  Ru21  1  0.145073  0.138249  0.138131  1
  Ru  Ru22  1  0.145073  0.138249  0.578550  1
  Ru  Ru23  1  0.145773  0.578282  0.137973  1
