# generated using pymatgen
data_TlF18
_symmetry_space_group_name_H-M   'P 1'
_cell_length_a   7.46128562
_cell_length_b   11.28560123
_cell_length_c   11.51746300
_cell_angle_alpha   91.19350626
_cell_angle_beta   98.71771109
_cell_angle_gamma   70.95942332
_symmetry_Int_Tables_number   1
_chemical_formula_structural   TlF18
_chemical_formula_sum   'Tl2 F36'
_cell_volume   905.75108514
_cell_formula_units_Z   2
loop_
 _symmetry_equiv_pos_site_id
 _symmetry_equiv_pos_as_xyz
  1  'x, y, z'
loop_
 _atom_site_type_symbol
 _atom_site_label
 _atom_site_symmetry_multiplicity
 _atom_site_fract_x
 _atom_site_fract_y
 _atom_site_fract_z
 _atom_site_occupancy
  Tl  Tl0  1  0.596900  0.981760  0.867531  1
  Tl  Tl1  1  0.403100  0.018240  0.132469  1
  F  F2  1  0.381505  0.360528  0.886085  1
  F  F3  1  0.618495  0.639472  0.113915  1
  F  F4  1  0.344296  0.222853  0.560976  1
  F  F5  1  0.655704  0.777147  0.439024  1
  F  F6  1  0.881473  0.214391  0.829930  1
  F  F7  1  0.118527  0.785609  0.170070  1
  F  F8  1  0.608913  0.876603  0.034074  1
  F  F9  1  0.391087  0.123397  0.965926  1
  F  F10  1  0.831339  0.647978  0.822391  1
  F  F11  1  0.168661  0.352022  0.177609  1
  F  F12  1  0.421284  0.457039  0.827072  1
  F  F13  1  0.578716  0.542961  0.172928  1
  F  F14  1  0.768123  0.618126  0.705772  1
  F  F15  1  0.231877  0.381874  0.294228  1
  F  F16  1  0.753772  0.029491  0.515915  1
  F  F17  1  0.246228  0.970509  0.484085  1
  F  F18  1  0.276248  0.234024  0.671292  1
  F  F19  1  0.723752  0.765976  0.328708  1
  F  F20  1  0.806072  0.067524  0.631723  1
  F  F21  1  0.193928  0.932476  0.368277  1
  F  F22  1  0.836776  0.027557  0.905728  1
  F  F23  1  0.163224  0.972443  0.094272  1
  F  F24  1  0.910815  0.325110  0.789203  1
  F  F25  1  0.089185  0.674890  0.210797  1
  F  F26  1  0.208285  0.719975  0.924326  1
  F  F27  1  0.791715  0.280025  0.075674  1
  F  F28  1  0.425684  0.922228  0.745466  1
  F  F29  1  0.574316  0.077772  0.254534  1
  F  F30  1  0.108049  0.751631  0.575758  1
  F  F31  1  0.891951  0.248369  0.424242  1
  F  F32  1  0.173835  0.637211  0.643680  1
  F  F33  1  0.826165  0.362789  0.356320  1
  F  F34  1  0.286878  0.792246  0.858556  1
  F  F35  1  0.713122  0.207754  0.141444  1
  F  F36  1  0.488590  0.443364  0.518553  1
  F  F37  1  0.511410  0.556636  0.481447  1
