# generated using pymatgen
data_Y3Hf(Ni4As3)2
_symmetry_space_group_name_H-M   'P 1'
_cell_length_a   3.90591200
_cell_length_b   11.17274600
_cell_length_c   12.77384600
_cell_angle_alpha   90.00000000
_cell_angle_beta   90.00000000
_cell_angle_gamma   90.00000000
_symmetry_Int_Tables_number   1
_chemical_formula_structural   Y3Hf(Ni4As3)2
_chemical_formula_sum   'Y6 Hf2 Ni16 As12'
_cell_volume   557.44760788
_cell_formula_units_Z   2
loop_
 _symmetry_equiv_pos_site_id
 _symmetry_equiv_pos_as_xyz
  1  'x, y, z'
loop_
 _atom_site_type_symbol
 _atom_site_label
 _atom_site_symmetry_multiplicity
 _atom_site_fract_x
 _atom_site_fract_y
 _atom_site_fract_z
 _atom_site_occupancy
  Y  Y0  1  0.000000  0.500000  0.527754  1
  Y  Y1  1  0.500000  0.000000  0.472246  1
  Y  Y2  1  0.500000  0.821261  0.205513  1
  Y  Y3  1  0.500000  0.178739  0.205513  1
  Y  Y4  1  0.000000  0.678739  0.794487  1
  Y  Y5  1  0.000000  0.321261  0.794487  1
  Hf  Hf6  1  0.500000  0.500000  0.150612  1
  Hf  Hf7  1  0.000000  0.000000  0.849388  1
  Ni  Ni8  1  0.500000  0.500000  0.699009  1
  Ni  Ni9  1  0.000000  0.000000  0.300991  1
  Ni  Ni10  1  0.000000  0.500000  0.983763  1
  Ni  Ni11  1  0.500000  0.000000  0.016237  1
  Ni  Ni12  1  0.500000  0.336664  0.992411  1
  Ni  Ni13  1  0.500000  0.663336  0.992411  1
  Ni  Ni14  1  0.000000  0.163336  0.007589  1
  Ni  Ni15  1  0.000000  0.836664  0.007589  1
  Ni  Ni16  1  0.500000  0.301659  0.428096  1
  Ni  Ni17  1  0.500000  0.698341  0.428096  1
  Ni  Ni18  1  0.000000  0.198341  0.571904  1
  Ni  Ni19  1  0.000000  0.801659  0.571904  1
  Ni  Ni20  1  0.500000  0.879725  0.706230  1
  Ni  Ni21  1  0.500000  0.120275  0.706230  1
  Ni  Ni22  1  0.000000  0.620275  0.293770  1
  Ni  Ni23  1  0.000000  0.379725  0.293770  1
  As  As24  1  0.500000  0.500000  0.877803  1
  As  As25  1  0.000000  0.000000  0.122197  1
  As  As26  1  0.500000  0.500000  0.357922  1
  As  As27  1  0.000000  0.000000  0.642078  1
  As  As28  1  0.500000  0.313738  0.614685  1
  As  As29  1  0.500000  0.686262  0.614685  1
  As  As30  1  0.000000  0.186262  0.385315  1
  As  As31  1  0.000000  0.813738  0.385315  1
  As  As32  1  0.500000  0.837161  0.891641  1
  As  As33  1  0.500000  0.162839  0.891641  1
  As  As34  1  0.000000  0.662839  0.108359  1
  As  As35  1  0.000000  0.337161  0.108359  1
