# generated using pymatgen
data_Lu3Co2Sn3Pd
_symmetry_space_group_name_H-M   'P 1'
_cell_length_a   7.54310600
_cell_length_b   7.54310700
_cell_length_c   3.57966900
_cell_angle_alpha   90.00000000
_cell_angle_beta   90.00000000
_cell_angle_gamma   119.99999678
_symmetry_Int_Tables_number   1
_chemical_formula_structural   Lu3Co2Sn3Pd
_chemical_formula_sum   'Lu3 Co2 Sn3 Pd1'
_cell_volume   176.39001441
_cell_formula_units_Z   1
loop_
 _symmetry_equiv_pos_site_id
 _symmetry_equiv_pos_as_xyz
  1  'x, y, z'
loop_
 _atom_site_type_symbol
 _atom_site_label
 _atom_site_symmetry_multiplicity
 _atom_site_fract_x
 _atom_site_fract_y
 _atom_site_fract_z
 _atom_site_occupancy
  Lu  Lu0  1  0.409566  0.392580  0.500000  1
  Lu  Lu1  1  0.607420  0.016987  0.500000  1
  Lu  Lu2  1  0.983013  0.590434  0.500000  1
  Co  Co3  1  0.666667  0.333333  0.000000  1
  Co  Co4  1  0.000000  0.000000  0.500000  1
  Sn  Sn5  1  0.740185  0.738668  0.000000  1
  Sn  Sn6  1  0.261332  0.001516  0.000000  1
  Sn  Sn7  1  0.998484  0.259815  0.000000  1
  Pd  Pd8  1  0.333333  0.666667  0.000000  1
