# generated using pymatgen
data_LiHo8Sc9(Si8Ag)2
_symmetry_space_group_name_H-M   'P 1'
_cell_length_a   6.90272279
_cell_length_b   7.39808285
_cell_length_c   14.01082200
_cell_angle_alpha   90.00000000
_cell_angle_beta   90.00000000
_cell_angle_gamma   89.76003279
_symmetry_Int_Tables_number   1
_chemical_formula_structural   LiHo8Sc9(Si8Ag)2
_chemical_formula_sum   'Li1 Ho8 Sc9 Si16 Ag2'
_cell_volume   715.48318267
_cell_formula_units_Z   1
loop_
 _symmetry_equiv_pos_site_id
 _symmetry_equiv_pos_as_xyz
  1  'x, y, z'
loop_
 _atom_site_type_symbol
 _atom_site_label
 _atom_site_symmetry_multiplicity
 _atom_site_fract_x
 _atom_site_fract_y
 _atom_site_fract_z
 _atom_site_occupancy
  Li  Li0  1  0.341361  0.007669  0.250000  1
  Ho  Ho1  1  0.013119  0.181989  0.099595  1
  Ho  Ho2  1  0.991020  0.815527  0.902021  1
  Ho  Ho3  1  0.485525  0.673796  0.902930  1
  Ho  Ho4  1  0.991020  0.815527  0.597979  1
  Ho  Ho5  1  0.512141  0.317928  0.098099  1
  Ho  Ho6  1  0.013119  0.181989  0.400405  1
  Ho  Ho7  1  0.512141  0.317928  0.401901  1
  Ho  Ho8  1  0.485525  0.673796  0.597070  1
  Sc  Sc9  1  0.658596  0.997273  0.750000  1
  Sc  Sc10  1  0.324554  0.183727  0.626454  1
  Sc  Sc11  1  0.670059  0.822091  0.373195  1
  Sc  Sc12  1  0.169697  0.679453  0.372656  1
  Sc  Sc13  1  0.670059  0.822091  0.126805  1
  Sc  Sc14  1  0.834046  0.326541  0.626449  1
  Sc  Sc15  1  0.324554  0.183727  0.873546  1
  Sc  Sc16  1  0.834046  0.326541  0.873551  1
  Sc  Sc17  1  0.169697  0.679453  0.127344  1
  Si  Si18  1  0.028139  0.097715  0.750000  1
  Si  Si19  1  0.972482  0.903648  0.250000  1
  Si  Si20  1  0.468870  0.605657  0.250000  1
  Si  Si21  1  0.534468  0.387767  0.750000  1
  Si  Si22  1  0.289599  0.881724  0.750000  1
  Si  Si23  1  0.714560  0.117690  0.250000  1
  Si  Si24  1  0.221336  0.379342  0.250000  1
  Si  Si25  1  0.778916  0.628379  0.750000  1
  Si  Si26  1  0.159266  0.460650  0.530391  1
  Si  Si27  1  0.838472  0.538315  0.466177  1
  Si  Si28  1  0.340691  0.963891  0.465684  1
  Si  Si29  1  0.838472  0.538315  0.033823  1
  Si  Si30  1  0.657279  0.032413  0.539191  1
  Si  Si31  1  0.159266  0.460650  0.969609  1
  Si  Si32  1  0.657279  0.032413  0.960809  1
  Si  Si33  1  0.340691  0.963891  0.034316  1
  Ag  Ag34  1  0.158216  0.514606  0.750000  1
  Ag  Ag35  1  0.841718  0.485886  0.250000  1
