# generated using pymatgen
data_Li4As6Ir4Pd3
_symmetry_space_group_name_H-M   'P 1'
_cell_length_a   7.06170575
_cell_length_b   7.02774513
_cell_length_c   7.02774526
_cell_angle_alpha   109.37312656
_cell_angle_beta   109.56914464
_cell_angle_gamma   109.56914014
_symmetry_Int_Tables_number   1
_chemical_formula_structural   Li4As6Ir4Pd3
_chemical_formula_sum   'Li4 As6 Ir4 Pd3'
_cell_volume   268.15966090
_cell_formula_units_Z   1
loop_
 _symmetry_equiv_pos_site_id
 _symmetry_equiv_pos_as_xyz
  1  'x, y, z'
loop_
 _atom_site_type_symbol
 _atom_site_label
 _atom_site_symmetry_multiplicity
 _atom_site_fract_x
 _atom_site_fract_y
 _atom_site_fract_z
 _atom_site_occupancy
  Li  Li0  1  0.998376  0.996753  0.498376  1
  Li  Li1  1  0.500000  0.000000  0.000000  1
  Li  Li2  1  0.001624  0.501624  0.003247  1
  Li  Li3  1  0.500000  0.501624  0.498376  1
  As  As4  1  0.696063  0.694982  0.010819  1
  As  As5  1  0.314756  0.315837  0.010819  1
  As  As6  1  0.998919  0.694982  0.684163  1
  As  As7  1  0.001081  0.315837  0.305018  1
  As  As8  1  0.685244  0.989181  0.684163  1
  As  As9  1  0.303937  0.989181  0.305018  1
  Ir  Ir10  1  0.000000  0.000000  0.000000  1
  Ir  Ir11  1  0.500000  0.747802  0.252198  1
  Ir  Ir12  1  0.752198  0.504395  0.252198  1
  Ir  Ir13  1  0.247802  0.747802  0.495605  1
  Pd  Pd14  1  0.250541  0.501083  0.750541  1
  Pd  Pd15  1  0.749459  0.249459  0.498917  1
  Pd  Pd16  1  0.500000  0.249459  0.750541  1
