# generated using pymatgen
data_Ho7LuIn4
_symmetry_space_group_name_H-M   'P 1'
_cell_length_a   5.14171400
_cell_length_b   6.76519192
_cell_length_c   9.70363142
_cell_angle_alpha   90.28353671
_cell_angle_beta   90.00000000
_cell_angle_gamma   90.00000000
_symmetry_Int_Tables_number   1
_chemical_formula_structural   Ho7LuIn4
_chemical_formula_sum   'Ho7 Lu1 In4'
_cell_volume   337.53359997
_cell_formula_units_Z   1
loop_
 _symmetry_equiv_pos_site_id
 _symmetry_equiv_pos_as_xyz
  1  'x, y, z'
loop_
 _atom_site_type_symbol
 _atom_site_label
 _atom_site_symmetry_multiplicity
 _atom_site_fract_x
 _atom_site_fract_y
 _atom_site_fract_z
 _atom_site_occupancy
  Ho  Ho0  1  0.750000  0.460125  0.790143  1
  Ho  Ho1  1  0.250000  0.537556  0.210482  1
  Ho  Ho2  1  0.750000  0.961461  0.712176  1
  Ho  Ho3  1  0.250000  0.038577  0.288397  1
  Ho  Ho4  1  0.750000  0.317261  0.433765  1
  Ho  Ho5  1  0.250000  0.679992  0.565520  1
  Ho  Ho6  1  0.750000  0.822949  0.065970  1
  Lu  Lu7  1  0.250000  0.179597  0.933681  1
  In  In8  1  0.750000  0.289315  0.107815  1
  In  In9  1  0.250000  0.714513  0.890132  1
  In  In10  1  0.750000  0.786927  0.388778  1
  In  In11  1  0.250000  0.211725  0.613140  1
