# generated using pymatgen
data_Hf4Ta2NbH16
_symmetry_space_group_name_H-M   'P 1'
_cell_length_a   6.44178253
_cell_length_b   6.44178264
_cell_length_c   6.65995800
_cell_angle_alpha   58.87315960
_cell_angle_beta   58.87315902
_cell_angle_gamma   62.25367017
_symmetry_Int_Tables_number   1
_chemical_formula_structural   Hf4Ta2NbH16
_chemical_formula_sum   'Hf4 Ta2 Nb1 H16'
_cell_volume   194.95561617
_cell_formula_units_Z   1
loop_
 _symmetry_equiv_pos_site_id
 _symmetry_equiv_pos_as_xyz
  1  'x, y, z'
loop_
 _atom_site_type_symbol
 _atom_site_label
 _atom_site_symmetry_multiplicity
 _atom_site_fract_x
 _atom_site_fract_y
 _atom_site_fract_z
 _atom_site_occupancy
  Hf  Hf0  1  0.500000  0.000000  0.500000  1
  Hf  Hf1  1  0.000000  0.500000  0.500000  1
  Hf  Hf2  1  0.000000  0.500000  0.000000  1
  Hf  Hf3  1  0.500000  0.000000  0.000000  1
  Ta  Ta4  1  0.000000  0.000000  0.500000  1
  Ta  Ta5  1  0.500000  0.500000  0.000000  1
  Nb  Nb6  1  0.000000  0.000000  0.000000  1
  H  H7  1  0.880644  0.880644  0.371138  1
  H  H8  1  0.867571  0.371138  0.880644  1
  H  H9  1  0.371138  0.867571  0.880644  1
  H  H10  1  0.880644  0.880644  0.867571  1
  H  H11  1  0.119356  0.119356  0.628862  1
  H  H12  1  0.132429  0.628862  0.119356  1
  H  H13  1  0.628862  0.132429  0.119356  1
  H  H14  1  0.119356  0.119356  0.132429  1
  H  H15  1  0.615558  0.615558  0.134254  1
  H  H16  1  0.634630  0.134254  0.615558  1
  H  H17  1  0.134254  0.634630  0.615558  1
  H  H18  1  0.615558  0.615558  0.634630  1
  H  H19  1  0.384442  0.384442  0.865746  1
  H  H20  1  0.365370  0.865746  0.384442  1
  H  H21  1  0.865746  0.365370  0.384442  1
  H  H22  1  0.384442  0.384442  0.365370  1
