# generated using pymatgen
data_Pr7SmSc11Si16W
_symmetry_space_group_name_H-M   'P 1'
_cell_length_a   7.22888681
_cell_length_b   7.46965482
_cell_length_c   14.11391309
_cell_angle_alpha   90.20568545
_cell_angle_beta   89.70629436
_cell_angle_gamma   89.60857583
_symmetry_Int_Tables_number   1
_chemical_formula_structural   Pr7SmSc11Si16W
_chemical_formula_sum   'Pr7 Sm1 Sc11 Si16 W1'
_cell_volume   762.08024206
_cell_formula_units_Z   1
loop_
 _symmetry_equiv_pos_site_id
 _symmetry_equiv_pos_as_xyz
  1  'x, y, z'
loop_
 _atom_site_type_symbol
 _atom_site_label
 _atom_site_symmetry_multiplicity
 _atom_site_fract_x
 _atom_site_fract_y
 _atom_site_fract_z
 _atom_site_occupancy
  Pr  Pr0  1  0.011601  0.170696  0.097159  1
  Pr  Pr1  1  0.989425  0.828724  0.897977  1
  Pr  Pr2  1  0.486773  0.673422  0.898214  1
  Pr  Pr3  1  0.992738  0.831294  0.595693  1
  Pr  Pr4  1  0.513433  0.327230  0.096965  1
  Pr  Pr5  1  0.011683  0.172600  0.403901  1
  Pr  Pr6  1  0.507631  0.328185  0.409251  1
  Sm  Sm7  1  0.487153  0.674037  0.598162  1
  Sc  Sc8  1  0.163285  0.489197  0.744039  1
  Sc  Sc9  1  0.838695  0.500781  0.252359  1
  Sc  Sc10  1  0.338487  0.999560  0.251597  1
  Sc  Sc11  1  0.656285  0.004264  0.747130  1
  Sc  Sc12  1  0.665132  0.826433  0.378921  1
  Sc  Sc13  1  0.169143  0.675806  0.378199  1
  Sc  Sc14  1  0.669411  0.824552  0.124881  1
  Sc  Sc15  1  0.832302  0.325776  0.623799  1
  Sc  Sc16  1  0.332840  0.176835  0.874780  1
  Sc  Sc17  1  0.828906  0.323945  0.870199  1
  Sc  Sc18  1  0.170479  0.675748  0.126012  1
  Si  Si19  1  0.044936  0.127370  0.744160  1
  Si  Si20  1  0.962985  0.876361  0.252005  1
  Si  Si21  1  0.465900  0.626308  0.251338  1
  Si  Si22  1  0.529310  0.367255  0.744140  1
  Si  Si23  1  0.290657  0.891565  0.745222  1
  Si  Si24  1  0.709798  0.117518  0.251149  1
  Si  Si25  1  0.212862  0.381872  0.250997  1
  Si  Si26  1  0.785413  0.617152  0.745723  1
  Si  Si27  1  0.173677  0.449298  0.543938  1
  Si  Si28  1  0.846345  0.535330  0.460007  1
  Si  Si29  1  0.340427  0.967535  0.471785  1
  Si  Si30  1  0.849718  0.537488  0.038908  1
  Si  Si31  1  0.639370  0.037298  0.547191  1
  Si  Si32  1  0.148420  0.464248  0.958635  1
  Si  Si33  1  0.654991  0.037791  0.957747  1
  Si  Si34  1  0.347626  0.961386  0.039094  1
  W  W35  1  0.332164  0.175139  0.628722  1
