# generated using pymatgen
data_Ta3NbNi4MoP4
_symmetry_space_group_name_H-M   'P 1'
_cell_length_a   7.20862458
_cell_length_b   7.20862476
_cell_length_c   7.21644682
_cell_angle_alpha   93.52066159
_cell_angle_beta   93.37271771
_cell_angle_gamma   151.59778159
_symmetry_Int_Tables_number   1
_chemical_formula_structural   Ta3NbNi4MoP4
_chemical_formula_sum   'Ta3 Nb1 Ni4 Mo1 P4'
_cell_volume   172.93152980
_cell_formula_units_Z   1
loop_
 _symmetry_equiv_pos_site_id
 _symmetry_equiv_pos_as_xyz
  1  'x, y, z'
loop_
 _atom_site_type_symbol
 _atom_site_label
 _atom_site_symmetry_multiplicity
 _atom_site_fract_x
 _atom_site_fract_y
 _atom_site_fract_z
 _atom_site_occupancy
  Ta  Ta0  1  0.803848  0.129471  0.933319  1
  Ta  Ta1  1  0.129568  0.195556  0.325124  1
  Ta  Ta2  1  0.870411  0.804475  0.674887  1
  Nb  Nb3  1  0.195616  0.870275  0.065892  1
  Ni  Ni4  1  0.914208  0.389802  0.304010  1
  Ni  Ni5  1  0.086619  0.609201  0.695821  1
  Ni  Ni6  1  0.610578  0.912496  0.523073  1
  Ni  Ni7  1  0.389903  0.088214  0.478118  1
  Mo  Mo8  1  0.499190  0.500447  0.999637  1
  P  P9  1  0.556237  0.243693  0.799931  1
  P  P10  1  0.243895  0.443740  0.687634  1
  P  P11  1  0.756288  0.556235  0.312524  1
  P  P12  1  0.443637  0.756395  0.200031  1
