# generated using pymatgen
data_Cs8ThAs4
_symmetry_space_group_name_H-M   'P 1'
_cell_length_a   12.11909376
_cell_length_b   12.11909331
_cell_length_c   12.11909400
_cell_angle_alpha   59.99999811
_cell_angle_beta   59.99999935
_cell_angle_gamma   59.99999833
_symmetry_Int_Tables_number   1
_chemical_formula_structural   Cs8ThAs4
_chemical_formula_sum   'Cs16 Th2 As8'
_cell_volume   1258.62228522
_cell_formula_units_Z   2
loop_
 _symmetry_equiv_pos_site_id
 _symmetry_equiv_pos_as_xyz
  1  'x, y, z'
loop_
 _atom_site_type_symbol
 _atom_site_label
 _atom_site_symmetry_multiplicity
 _atom_site_fract_x
 _atom_site_fract_y
 _atom_site_fract_z
 _atom_site_occupancy
  Cs  Cs0  1  0.625000  0.125000  0.625000  1
  Cs  Cs1  1  0.625000  0.625000  0.125000  1
  Cs  Cs2  1  0.125000  0.625000  0.625000  1
  Cs  Cs3  1  0.625000  0.625000  0.625000  1
  Cs  Cs4  1  0.030359  0.030359  0.469641  1
  Cs  Cs5  1  0.780359  0.219641  0.219641  1
  Cs  Cs6  1  0.219641  0.780359  0.780359  1
  Cs  Cs7  1  0.780359  0.780359  0.219641  1
  Cs  Cs8  1  0.780359  0.219641  0.780359  1
  Cs  Cs9  1  0.219641  0.780359  0.219641  1
  Cs  Cs10  1  0.469641  0.030359  0.469641  1
  Cs  Cs11  1  0.469641  0.030359  0.030359  1
  Cs  Cs12  1  0.030359  0.469641  0.469641  1
  Cs  Cs13  1  0.030359  0.469641  0.030359  1
  Cs  Cs14  1  0.219641  0.219641  0.780359  1
  Cs  Cs15  1  0.469641  0.469641  0.030359  1
  Th  Th16  1  0.750000  0.750000  0.750000  1
  Th  Th17  1  0.500000  0.500000  0.500000  1
  As  As18  1  0.401488  0.795537  0.401488  1
  As  As19  1  0.848512  0.848512  0.454463  1
  As  As20  1  0.454463  0.848512  0.848512  1
  As  As21  1  0.848512  0.848512  0.848512  1
  As  As22  1  0.795537  0.401488  0.401488  1
  As  As23  1  0.401488  0.401488  0.401488  1
  As  As24  1  0.401488  0.401488  0.795537  1
  As  As25  1  0.848512  0.454463  0.848512  1
