# generated using pymatgen
data_LaSe23
_symmetry_space_group_name_H-M   'P 1'
_cell_length_a   6.15499203
_cell_length_b   10.55302752
_cell_length_c   17.92889500
_cell_angle_alpha   82.42592024
_cell_angle_beta   85.98404791
_cell_angle_gamma   91.36398634
_symmetry_Int_Tables_number   1
_chemical_formula_structural   LaSe23
_chemical_formula_sum   'La1 Se23'
_cell_volume   1150.91219535
_cell_formula_units_Z   1
loop_
 _symmetry_equiv_pos_site_id
 _symmetry_equiv_pos_as_xyz
  1  'x, y, z'
loop_
 _atom_site_type_symbol
 _atom_site_label
 _atom_site_symmetry_multiplicity
 _atom_site_fract_x
 _atom_site_fract_y
 _atom_site_fract_z
 _atom_site_occupancy
  La  La0  1  0.614311  0.176058  0.428682  1
  Se  Se1  1  0.751664  0.926944  0.392970  1
  Se  Se2  1  0.020497  0.310247  0.102558  1
  Se  Se3  1  0.793015  0.221993  0.568258  1
  Se  Se4  1  0.465662  0.892581  0.488231  1
  Se  Se5  1  0.182946  0.282078  0.982898  1
  Se  Se6  1  0.804639  0.740641  0.027438  1
  Se  Se7  1  0.128168  0.185187  0.384422  1
  Se  Se8  1  0.610901  0.412406  0.309127  1
  Se  Se9  1  0.845039  0.113642  0.154721  1
  Se  Se10  1  0.276456  0.874867  0.119137  1
  Se  Se11  1  0.709622  0.646903  0.630676  1
  Se  Se12  1  0.294008  0.435593  0.562359  1
  Se  Se13  1  0.158301  0.901443  0.858740  1
  Se  Se14  1  0.723426  0.140645  0.886996  1
  Se  Se15  1  0.063784  0.686561  0.116283  1
  Se  Se16  1  0.617239  0.862212  0.609141  1
  Se  Se17  1  0.411758  0.218804  0.588926  1
  Se  Se18  1  0.964955  0.709102  0.908064  1
  Se  Se19  1  0.922582  0.332385  0.893990  1
  Se  Se20  1  0.238959  0.380220  0.309407  1
  Se  Se21  1  0.112374  0.986462  0.213272  1
  Se  Se22  1  0.379869  0.527784  0.669073  1
  Se  Se23  1  0.909825  0.035239  0.794633  1
