# generated using pymatgen
data_Ca5Ac2Ni4Sn13
_symmetry_space_group_name_H-M   'P 1'
_cell_length_a   11.34461000
_cell_length_b   11.34461000
_cell_length_c   4.65714500
_cell_angle_alpha   90.00000000
_cell_angle_beta   90.00000000
_cell_angle_gamma   90.00000000
_symmetry_Int_Tables_number   1
_chemical_formula_structural   Ca5Ac2Ni4Sn13
_chemical_formula_sum   'Ca5 Ac2 Ni4 Sn13'
_cell_volume   599.37538140
_cell_formula_units_Z   1
loop_
 _symmetry_equiv_pos_site_id
 _symmetry_equiv_pos_as_xyz
  1  'x, y, z'
loop_
 _atom_site_type_symbol
 _atom_site_label
 _atom_site_symmetry_multiplicity
 _atom_site_fract_x
 _atom_site_fract_y
 _atom_site_fract_z
 _atom_site_occupancy
  Ca  Ca0  1  0.837658  0.171218  0.000000  1
  Ca  Ca1  1  0.828782  0.837658  0.000000  1
  Ca  Ca2  1  0.162342  0.828782  0.000000  1
  Ca  Ca3  1  0.171218  0.162342  0.000000  1
  Ca  Ca4  1  0.500000  0.500000  0.500000  1
  Ac  Ac5  1  0.000000  0.500000  0.000000  1
  Ac  Ac6  1  0.500000  0.000000  0.000000  1
  Ni  Ni7  1  0.777412  0.618005  0.500000  1
  Ni  Ni8  1  0.381995  0.777412  0.500000  1
  Ni  Ni9  1  0.618005  0.222588  0.500000  1
  Ni  Ni10  1  0.222588  0.381995  0.500000  1
  Sn  Sn11  1  0.019051  0.278566  0.500000  1
  Sn  Sn12  1  0.980949  0.721434  0.500000  1
  Sn  Sn13  1  0.217746  0.613179  0.500000  1
  Sn  Sn14  1  0.575241  0.310483  0.000000  1
  Sn  Sn15  1  0.689517  0.575241  0.000000  1
  Sn  Sn16  1  0.782254  0.386821  0.500000  1
  Sn  Sn17  1  0.721434  0.019051  0.500000  1
  Sn  Sn18  1  0.000000  0.000000  0.500000  1
  Sn  Sn19  1  0.278566  0.980949  0.500000  1
  Sn  Sn20  1  0.424759  0.689517  0.000000  1
  Sn  Sn21  1  0.613179  0.782254  0.500000  1
  Sn  Sn22  1  0.310483  0.424759  0.000000  1
  Sn  Sn23  1  0.386821  0.217746  0.500000  1
