# generated using pymatgen
data_Dy3Er17(Cd3Ru)2
_symmetry_space_group_name_H-M   'P 1'
_cell_length_a   9.50925300
_cell_length_b   9.50925354
_cell_length_c   9.78431900
_cell_angle_alpha   90.00000000
_cell_angle_beta   90.00000000
_cell_angle_gamma   120.00000161
_symmetry_Int_Tables_number   1
_chemical_formula_structural   Dy3Er17(Cd3Ru)2
_chemical_formula_sum   'Dy3 Er17 Cd6 Ru2'
_cell_volume   766.22101176
_cell_formula_units_Z   1
loop_
 _symmetry_equiv_pos_site_id
 _symmetry_equiv_pos_as_xyz
  1  'x, y, z'
loop_
 _atom_site_type_symbol
 _atom_site_label
 _atom_site_symmetry_multiplicity
 _atom_site_fract_x
 _atom_site_fract_y
 _atom_site_fract_z
 _atom_site_occupancy
  Dy  Dy0  1  0.540946  0.459054  0.250000  1
  Dy  Dy1  1  0.540946  0.081892  0.250000  1
  Dy  Dy2  1  0.918108  0.459054  0.250000  1
  Er  Er3  1  0.000000  0.000000  0.499998  1
  Er  Er4  1  0.000000  0.000000  0.000002  1
  Er  Er5  1  0.209932  0.790068  0.440871  1
  Er  Er6  1  0.209932  0.419865  0.440871  1
  Er  Er7  1  0.580135  0.790068  0.440871  1
  Er  Er8  1  0.790143  0.209857  0.559498  1
  Er  Er9  1  0.790143  0.580286  0.559498  1
  Er  Er10  1  0.419714  0.209857  0.559498  1
  Er  Er11  1  0.790143  0.209857  0.940502  1
  Er  Er12  1  0.790143  0.580286  0.940502  1
  Er  Er13  1  0.419714  0.209857  0.940502  1
  Er  Er14  1  0.209932  0.790068  0.059129  1
  Er  Er15  1  0.209932  0.419865  0.059129  1
  Er  Er16  1  0.580135  0.790068  0.059129  1
  Er  Er17  1  0.458947  0.541053  0.750000  1
  Er  Er18  1  0.458947  0.917893  0.750000  1
  Er  Er19  1  0.082107  0.541053  0.750000  1
  Cd  Cd20  1  0.885586  0.114414  0.250000  1
  Cd  Cd21  1  0.885586  0.771172  0.250000  1
  Cd  Cd22  1  0.228828  0.114414  0.250000  1
  Cd  Cd23  1  0.114653  0.885347  0.750000  1
  Cd  Cd24  1  0.114653  0.229304  0.750000  1
  Cd  Cd25  1  0.770696  0.885347  0.750000  1
  Ru  Ru26  1  0.333333  0.666667  0.250000  1
  Ru  Ru27  1  0.666667  0.333333  0.750000  1
