# generated using pymatgen
data_CeHo5Ta2O14
_symmetry_space_group_name_H-M   'P 1'
_cell_length_a   6.49368382
_cell_length_b   6.49368330
_cell_length_c   7.50180347
_cell_angle_alpha   89.89852232
_cell_angle_beta   90.10147765
_cell_angle_gamma   108.58373080
_symmetry_Int_Tables_number   1
_chemical_formula_structural   CeHo5Ta2O14
_chemical_formula_sum   'Ce1 Ho5 Ta2 O14'
_cell_volume   299.84071362
_cell_formula_units_Z   1
loop_
 _symmetry_equiv_pos_site_id
 _symmetry_equiv_pos_as_xyz
  1  'x, y, z'
loop_
 _atom_site_type_symbol
 _atom_site_label
 _atom_site_symmetry_multiplicity
 _atom_site_fract_x
 _atom_site_fract_y
 _atom_site_fract_z
 _atom_site_occupancy
  Ce  Ce0  1  0.511486  0.511486  0.500000  1
  Ho  Ho1  1  0.459157  0.459157  0.000000  1
  Ho  Ho2  1  0.000083  0.534993  0.240523  1
  Ho  Ho3  1  0.998307  0.465739  0.744808  1
  Ho  Ho4  1  0.534993  0.000083  0.759477  1
  Ho  Ho5  1  0.465739  0.998307  0.255192  1
  Ta  Ta6  1  0.999848  0.999848  0.500000  1
  Ta  Ta7  1  0.997332  0.997332  0.000000  1
  O  O8  1  0.932036  0.068531  0.749734  1
  O  O9  1  0.068531  0.932036  0.250266  1
  O  O10  1  0.358475  0.642137  0.240485  1
  O  O11  1  0.642137  0.358475  0.759515  1
  O  O12  1  0.367692  0.631760  0.759208  1
  O  O13  1  0.631760  0.367692  0.240792  1
  O  O14  1  0.328107  0.082199  0.974668  1
  O  O15  1  0.674848  0.926936  0.473178  1
  O  O16  1  0.313832  0.059826  0.542802  1
  O  O17  1  0.693348  0.953327  0.044046  1
  O  O18  1  0.059826  0.313832  0.457198  1
  O  O19  1  0.953327  0.693348  0.955954  1
  O  O20  1  0.926936  0.674848  0.526822  1
  O  O21  1  0.082199  0.328107  0.025332  1
