# generated using pymatgen
data_Cs2Na2SiSe4
_symmetry_space_group_name_H-M   'P 1'
_cell_length_a   6.87920100
_cell_length_b   6.87920100
_cell_length_c   14.39688500
_cell_angle_alpha   90.00000000
_cell_angle_beta   90.00000000
_cell_angle_gamma   90.00000000
_symmetry_Int_Tables_number   1
_chemical_formula_structural   Cs2Na2SiSe4
_chemical_formula_sum   'Cs4 Na4 Si2 Se8'
_cell_volume   681.30963973
_cell_formula_units_Z   2
loop_
 _symmetry_equiv_pos_site_id
 _symmetry_equiv_pos_as_xyz
  1  'x, y, z'
loop_
 _atom_site_type_symbol
 _atom_site_label
 _atom_site_symmetry_multiplicity
 _atom_site_fract_x
 _atom_site_fract_y
 _atom_site_fract_z
 _atom_site_occupancy
  Cs  Cs0  1  0.738109  0.738109  0.000000  1
  Cs  Cs1  1  0.261891  0.738109  0.500000  1
  Cs  Cs2  1  0.738109  0.261891  0.500000  1
  Cs  Cs3  1  0.261891  0.261891  0.000000  1
  Na  Na4  1  0.000000  0.500000  0.750000  1
  Na  Na5  1  0.500000  0.000000  0.750000  1
  Na  Na6  1  0.000000  0.500000  0.250000  1
  Na  Na7  1  0.500000  0.000000  0.250000  1
  Si  Si8  1  0.500000  0.500000  0.750000  1
  Si  Si9  1  0.500000  0.500000  0.250000  1
  Se  Se10  1  0.691833  0.691833  0.654307  1
  Se  Se11  1  0.308167  0.308167  0.654307  1
  Se  Se12  1  0.691833  0.691833  0.345693  1
  Se  Se13  1  0.691833  0.308167  0.154307  1
  Se  Se14  1  0.308167  0.691833  0.845693  1
  Se  Se15  1  0.308167  0.308167  0.345693  1
  Se  Se16  1  0.308167  0.691833  0.154307  1
  Se  Se17  1  0.691833  0.308167  0.845693  1
