# generated using pymatgen
data_Tb11Ho(In2Au)4
_symmetry_space_group_name_H-M   'P 1'
_cell_length_a   13.29085943
_cell_length_b   13.29085929
_cell_length_c   3.79574900
_cell_angle_alpha   90.00000000
_cell_angle_beta   90.00000000
_cell_angle_gamma   110.49394752
_symmetry_Int_Tables_number   1
_chemical_formula_structural   Tb11Ho(In2Au)4
_chemical_formula_sum   'Tb11 Ho1 In8 Au4'
_cell_volume   628.07048751
_cell_formula_units_Z   1
loop_
 _symmetry_equiv_pos_site_id
 _symmetry_equiv_pos_as_xyz
  1  'x, y, z'
loop_
 _atom_site_type_symbol
 _atom_site_label
 _atom_site_symmetry_multiplicity
 _atom_site_fract_x
 _atom_site_fract_y
 _atom_site_fract_z
 _atom_site_occupancy
  Tb  Tb0  1  0.416566  0.070812  0.000000  1
  Tb  Tb1  1  0.583434  0.929188  0.000000  1
  Tb  Tb2  1  0.070812  0.416566  0.000000  1
  Tb  Tb3  1  0.929188  0.583434  0.000000  1
  Tb  Tb4  1  0.161699  0.838301  0.000000  1
  Tb  Tb5  1  0.838301  0.161699  0.000000  1
  Tb  Tb6  1  0.359054  0.640946  0.000000  1
  Tb  Tb7  1  0.640946  0.359054  0.000000  1
  Tb  Tb8  1  0.289602  0.289602  0.000000  1
  Tb  Tb9  1  0.710398  0.710398  0.000000  1
  Tb  Tb10  1  0.000000  0.000000  0.000000  1
  Ho  Ho11  1  0.500000  0.500000  0.500000  1
  In  In12  1  0.368543  0.850579  0.500000  1
  In  In13  1  0.631457  0.149421  0.500000  1
  In  In14  1  0.850579  0.368543  0.500000  1
  In  In15  1  0.149421  0.631457  0.500000  1
  In  In16  1  0.214332  0.065729  0.500000  1
  In  In17  1  0.785668  0.934271  0.500000  1
  In  In18  1  0.065729  0.214332  0.500000  1
  In  In19  1  0.934271  0.785668  0.500000  1
  Au  Au20  1  0.453480  0.257339  0.500000  1
  Au  Au21  1  0.546520  0.742661  0.500000  1
  Au  Au22  1  0.257339  0.453480  0.500000  1
  Au  Au23  1  0.742661  0.546520  0.500000  1
