# generated using pymatgen
data_HoTh2(AlCo)3
_symmetry_space_group_name_H-M   'P 1'
_cell_length_a   6.98430000
_cell_length_b   7.12833139
_cell_length_c   3.89478000
_cell_angle_alpha   90.00000000
_cell_angle_beta   90.00000000
_cell_angle_gamma   119.33382885
_symmetry_Int_Tables_number   1
_chemical_formula_structural   HoTh2(AlCo)3
_chemical_formula_sum   'Ho1 Th2 Al3 Co3'
_cell_volume   169.04436086
_cell_formula_units_Z   1
loop_
 _symmetry_equiv_pos_site_id
 _symmetry_equiv_pos_as_xyz
  1  'x, y, z'
loop_
 _atom_site_type_symbol
 _atom_site_label
 _atom_site_symmetry_multiplicity
 _atom_site_fract_x
 _atom_site_fract_y
 _atom_site_fract_z
 _atom_site_occupancy
  Ho  Ho0  1  0.584694  0.000000  0.000000  1
  Th  Th1  1  0.999702  0.577260  0.000000  1
  Th  Th2  1  0.422442  0.422740  0.000000  1
  Al  Al3  1  0.240080  0.000000  0.500000  1
  Al  Al4  1  0.991574  0.221770  0.500000  1
  Al  Al5  1  0.769803  0.778230  0.500000  1
  Co  Co6  1  0.314919  0.644724  0.500000  1
  Co  Co7  1  0.670196  0.355276  0.500000  1
  Co  Co8  1  0.006590  0.000000  0.000000  1
