# generated using pymatgen
data_Nd3Er5Cd2IrPt
_symmetry_space_group_name_H-M   'P 1'
_cell_length_a   9.71718246
_cell_length_b   9.71721720
_cell_length_c   9.70929646
_cell_angle_alpha   60.09332233
_cell_angle_beta   60.09340677
_cell_angle_gamma   60.21147344
_symmetry_Int_Tables_number   1
_chemical_formula_structural   Nd3Er5Cd2IrPt
_chemical_formula_sum   'Nd6 Er10 Cd4 Ir2 Pt2'
_cell_volume   650.21610310
_cell_formula_units_Z   2
loop_
 _symmetry_equiv_pos_site_id
 _symmetry_equiv_pos_as_xyz
  1  'x, y, z'
loop_
 _atom_site_type_symbol
 _atom_site_label
 _atom_site_symmetry_multiplicity
 _atom_site_fract_x
 _atom_site_fract_y
 _atom_site_fract_z
 _atom_site_occupancy
  Nd  Nd0  1  0.940682  0.561635  0.558601  1
  Nd  Nd1  1  0.559842  0.941089  0.940456  1
  Nd  Nd2  1  0.561638  0.940678  0.558610  1
  Nd  Nd3  1  0.941090  0.559835  0.940457  1
  Nd  Nd4  1  0.559684  0.559670  0.940700  1
  Nd  Nd5  1  0.940537  0.940528  0.558544  1
  Er  Er6  1  0.349030  0.349030  0.345296  1
  Er  Er7  1  0.349574  0.349573  0.955880  1
  Er  Er8  1  0.353354  0.950860  0.348656  1
  Er  Er9  1  0.950863  0.353355  0.348651  1
  Er  Er10  1  0.808772  0.188497  0.187635  1
  Er  Er11  1  0.185079  0.808873  0.815662  1
  Er  Er12  1  0.188503  0.808774  0.187631  1
  Er  Er13  1  0.808871  0.185074  0.815655  1
  Er  Er14  1  0.188402  0.188403  0.811775  1
  Er  Er15  1  0.813152  0.813149  0.183772  1
  Cd  Cd16  1  0.579641  0.579654  0.578654  1
  Cd  Cd17  1  0.580313  0.580336  0.259904  1
  Cd  Cd18  1  0.579683  0.261049  0.579980  1
  Cd  Cd19  1  0.261041  0.579685  0.579972  1
  Ir  Ir20  1  0.141659  0.574810  0.142758  1
  Ir  Ir21  1  0.574810  0.141655  0.142756  1
  Pt  Pt22  1  0.141964  0.141967  0.143761  1
  Pt  Pt23  1  0.141815  0.141820  0.574229  1
