# generated using pymatgen
data_Tb3YbDy6(In2Pt)4
_symmetry_space_group_name_H-M   'P 1'
_cell_length_a   3.62244800
_cell_length_b   8.20848730
_cell_length_c   18.36895201
_cell_angle_alpha   89.94712892
_cell_angle_beta   90.00000000
_cell_angle_gamma   90.00000000
_symmetry_Int_Tables_number   1
_chemical_formula_structural   Tb3YbDy6(In2Pt)4
_chemical_formula_sum   'Tb3 Yb1 Dy6 In8 Pt4'
_cell_volume   546.19721988
_cell_formula_units_Z   1
loop_
 _symmetry_equiv_pos_site_id
 _symmetry_equiv_pos_as_xyz
  1  'x, y, z'
loop_
 _atom_site_type_symbol
 _atom_site_label
 _atom_site_symmetry_multiplicity
 _atom_site_fract_x
 _atom_site_fract_y
 _atom_site_fract_z
 _atom_site_occupancy
  Tb  Tb0  1  0.000000  0.117536  0.414595  1
  Tb  Tb1  1  0.000000  0.882464  0.585405  1
  Tb  Tb2  1  0.000000  0.500000  0.500000  1
  Yb  Yb3  1  0.000000  0.000000  0.000000  1
  Dy  Dy4  1  0.000000  0.381856  0.914306  1
  Dy  Dy5  1  0.000000  0.618144  0.085694  1
  Dy  Dy6  1  0.000000  0.243836  0.220616  1
  Dy  Dy7  1  0.000000  0.756164  0.779384  1
  Dy  Dy8  1  0.000000  0.256300  0.720593  1
  Dy  Dy9  1  0.000000  0.743700  0.279407  1
  In  In10  1  0.500000  0.425182  0.351313  1
  In  In11  1  0.500000  0.574818  0.648687  1
  In  In12  1  0.500000  0.074266  0.851245  1
  In  In13  1  0.500000  0.925734  0.148755  1
  In  In14  1  0.500000  0.292389  0.067488  1
  In  In15  1  0.500000  0.707611  0.932512  1
  In  In16  1  0.500000  0.208236  0.567196  1
  In  In17  1  0.500000  0.791764  0.432804  1
  Pt  Pt18  1  0.500000  0.024975  0.303091  1
  Pt  Pt19  1  0.500000  0.975025  0.696909  1
  Pt  Pt20  1  0.500000  0.476207  0.802944  1
  Pt  Pt21  1  0.500000  0.523793  0.197056  1
