# generated using pymatgen
data_PrHf7Zr(In2Co)7
_symmetry_space_group_name_H-M   'P 1'
_cell_length_a   9.45295769
_cell_length_b   9.45782997
_cell_length_c   9.46257350
_cell_angle_alpha   60.00748750
_cell_angle_beta   60.06456605
_cell_angle_gamma   59.98890019
_symmetry_Int_Tables_number   1
_chemical_formula_structural   PrHf7Zr(In2Co)7
_chemical_formula_sum   'Pr1 Hf7 Zr1 In14 Co7'
_cell_volume   598.48471412
_cell_formula_units_Z   1
loop_
 _symmetry_equiv_pos_site_id
 _symmetry_equiv_pos_as_xyz
  1  'x, y, z'
loop_
 _atom_site_type_symbol
 _atom_site_label
 _atom_site_symmetry_multiplicity
 _atom_site_fract_x
 _atom_site_fract_y
 _atom_site_fract_z
 _atom_site_occupancy
  Pr  Pr0  1  0.500003  0.499935  0.500135  1
  Hf  Hf1  1  0.118990  0.642855  0.119276  1
  Hf  Hf2  1  0.357126  0.880527  0.881841  1
  Hf  Hf3  1  0.880476  0.880584  0.881768  1
  Hf  Hf4  1  0.642846  0.118982  0.119167  1
  Hf  Hf5  1  0.880922  0.880784  0.357502  1
  Hf  Hf6  1  0.118995  0.118875  0.119247  1
  Hf  Hf7  1  0.880507  0.357152  0.881749  1
  Zr  Zr8  1  0.121063  0.121212  0.636545  1
  In  In9  1  0.499957  0.847097  0.152964  1
  In  In10  1  0.500148  0.847064  0.500060  1
  In  In11  1  0.500154  0.152700  0.500050  1
  In  In12  1  0.499955  0.499941  0.847329  1
  In  In13  1  0.152758  0.500103  0.500075  1
  In  In14  1  0.847055  0.152722  0.500085  1
  In  In15  1  0.152744  0.847092  0.500050  1
  In  In16  1  0.499987  0.152775  0.847304  1
  In  In17  1  0.152769  0.499965  0.847302  1
  In  In18  1  0.499942  0.499964  0.152981  1
  In  In19  1  0.847065  0.500159  0.500072  1
  In  In20  1  0.847053  0.500019  0.152931  1
  In  In21  1  0.251211  0.251241  0.246284  1
  In  In22  1  0.750011  0.750016  0.749945  1
  Co  Co23  1  0.782088  0.782086  0.217997  1
  Co  Co24  1  0.999461  0.999432  0.001687  1
  Co  Co25  1  0.217966  0.781917  0.218182  1
  Co  Co26  1  0.217677  0.781468  0.783167  1
  Co  Co27  1  0.217700  0.217696  0.783147  1
  Co  Co28  1  0.781330  0.217782  0.783099  1
  Co  Co29  1  0.782041  0.217856  0.218058  1
