# generated using pymatgen
data_Gd8Be3Si12Ni
_symmetry_space_group_name_H-M   'P 1'
_cell_length_a   7.87194800
_cell_length_b   7.87194768
_cell_length_c   8.15585500
_cell_angle_alpha   90.00000000
_cell_angle_beta   90.00000000
_cell_angle_gamma   120.00000974
_symmetry_Int_Tables_number   1
_chemical_formula_structural   Gd8Be3Si12Ni
_chemical_formula_sum   'Gd8 Be3 Si12 Ni1'
_cell_volume   437.68785978
_cell_formula_units_Z   1
loop_
 _symmetry_equiv_pos_site_id
 _symmetry_equiv_pos_as_xyz
  1  'x, y, z'
loop_
 _atom_site_type_symbol
 _atom_site_label
 _atom_site_symmetry_multiplicity
 _atom_site_fract_x
 _atom_site_fract_y
 _atom_site_fract_z
 _atom_site_occupancy
  Gd  Gd0  1  0.499542  0.999085  0.249773  1
  Gd  Gd1  1  0.499973  0.999948  0.750229  1
  Gd  Gd2  1  0.000915  0.500458  0.249773  1
  Gd  Gd3  1  0.000052  0.500027  0.750229  1
  Gd  Gd4  1  0.499542  0.500458  0.249773  1
  Gd  Gd5  1  0.499973  0.500027  0.750229  1
  Gd  Gd6  1  0.000000  0.000000  0.249997  1
  Gd  Gd7  1  0.000000  0.000000  0.749832  1
  Be  Be8  1  0.333333  0.666667  0.000941  1
  Be  Be9  1  0.666667  0.333333  0.000870  1
  Be  Be10  1  0.666667  0.333333  0.498281  1
  Si  Si11  1  0.172479  0.344958  0.999555  1
  Si  Si12  1  0.827187  0.654375  0.000288  1
  Si  Si13  1  0.655042  0.827521  0.999555  1
  Si  Si14  1  0.829153  0.658308  0.500064  1
  Si  Si15  1  0.345625  0.172813  0.000288  1
  Si  Si16  1  0.172312  0.344622  0.499839  1
  Si  Si17  1  0.172479  0.827521  0.999555  1
  Si  Si18  1  0.341692  0.170847  0.500064  1
  Si  Si19  1  0.827187  0.172813  0.000288  1
  Si  Si20  1  0.655378  0.827688  0.499839  1
  Si  Si21  1  0.829153  0.170847  0.500064  1
  Si  Si22  1  0.172312  0.827688  0.499839  1
  Ni  Ni23  1  0.333333  0.666667  0.500837  1
