# generated using pymatgen
data_Hf6Ti2MoOs3
_symmetry_space_group_name_H-M   'P 1'
_cell_length_a   8.60232109
_cell_length_b   8.60232036
_cell_length_c   8.60199600
_cell_angle_alpha   60.00124730
_cell_angle_beta   60.00125010
_cell_angle_gamma   60.11383709
_symmetry_Int_Tables_number   1
_chemical_formula_structural   Hf6Ti2MoOs3
_chemical_formula_sum   'Hf12 Ti4 Mo2 Os6'
_cell_volume   450.50119938
_cell_formula_units_Z   2
loop_
 _symmetry_equiv_pos_site_id
 _symmetry_equiv_pos_as_xyz
  1  'x, y, z'
loop_
 _atom_site_type_symbol
 _atom_site_label
 _atom_site_symmetry_multiplicity
 _atom_site_fract_x
 _atom_site_fract_y
 _atom_site_fract_z
 _atom_site_occupancy
  Hf  Hf0  1  0.807844  0.807844  0.192156  1
  Hf  Hf1  1  0.192449  0.192449  0.807551  1
  Hf  Hf2  1  0.809321  0.191783  0.807782  1
  Hf  Hf3  1  0.191783  0.809321  0.191115  1
  Hf  Hf4  1  0.191783  0.809321  0.807782  1
  Hf  Hf5  1  0.809321  0.191783  0.191115  1
  Hf  Hf6  1  0.443701  0.443701  0.056299  1
  Hf  Hf7  1  0.057429  0.057429  0.442571  1
  Hf  Hf8  1  0.443189  0.057475  0.443037  1
  Hf  Hf9  1  0.057475  0.443189  0.056298  1
  Hf  Hf10  1  0.057475  0.443189  0.443037  1
  Hf  Hf11  1  0.443189  0.057475  0.056298  1
  Ti  Ti12  1  0.123733  0.623637  0.626315  1
  Ti  Ti13  1  0.623637  0.123733  0.626315  1
  Ti  Ti14  1  0.625491  0.625491  0.121215  1
  Ti  Ti15  1  0.625491  0.625491  0.627802  1
  Mo  Mo16  1  0.755162  0.413645  0.415595  1
  Mo  Mo17  1  0.413645  0.755162  0.415595  1
  Os  Os18  1  0.412470  0.412470  0.761250  1
  Os  Os19  1  0.412470  0.412470  0.413808  1
  Os  Os20  1  0.493324  0.836523  0.835077  1
  Os  Os21  1  0.836523  0.493324  0.835077  1
  Os  Os22  1  0.836547  0.836547  0.492416  1
  Os  Os23  1  0.836547  0.836547  0.834492  1
