# generated using pymatgen
data_AcLaB8Ru7
_symmetry_space_group_name_H-M   'P 1'
_cell_length_a   6.50966100
_cell_length_b   6.50995800
_cell_length_c   10.19205700
_cell_angle_alpha   90.00000000
_cell_angle_beta   90.00000000
_cell_angle_gamma   90.00185711
_symmetry_Int_Tables_number   1
_chemical_formula_structural   AcLaB8Ru7
_chemical_formula_sum   'Ac2 La2 B16 Ru14'
_cell_volume   431.91511544
_cell_formula_units_Z   2
loop_
 _symmetry_equiv_pos_site_id
 _symmetry_equiv_pos_as_xyz
  1  'x, y, z'
loop_
 _atom_site_type_symbol
 _atom_site_label
 _atom_site_symmetry_multiplicity
 _atom_site_fract_x
 _atom_site_fract_y
 _atom_site_fract_z
 _atom_site_occupancy
  Ac  Ac0  1  0.730973  0.884945  0.000000  1
  Ac  Ac1  1  0.115138  0.730475  0.500000  1
  La  La2  1  0.874953  0.261940  0.500000  1
  La  La3  1  0.262270  0.125209  0.000000  1
  B  B4  1  0.500489  0.000270  0.589414  1
  B  B5  1  0.500489  0.000270  0.410586  1
  B  B6  1  0.897755  0.278430  0.171729  1
  B  B7  1  0.103866  0.721902  0.829158  1
  B  B8  1  0.500702  0.500274  0.341177  1
  B  B9  1  0.500103  0.499072  0.841176  1
  B  B10  1  0.278763  0.103347  0.671221  1
  B  B11  1  0.103866  0.721902  0.170842  1
  B  B12  1  0.278763  0.103347  0.328779  1
  B  B13  1  0.897755  0.278430  0.828271  1
  B  B14  1  0.500702  0.500274  0.658823  1
  B  B15  1  0.500103  0.499072  0.158824  1
  B  B16  1  0.000203  0.499509  0.910587  1
  B  B17  1  0.722260  0.897252  0.671355  1
  B  B18  1  0.722260  0.897252  0.328645  1
  B  B19  1  0.000203  0.499509  0.089413  1
  Ru  Ru20  1  0.205782  0.398725  0.752634  1
  Ru  Ru21  1  0.399592  0.285113  0.500000  1
  Ru  Ru22  1  0.400672  0.795430  0.251277  1
  Ru  Ru23  1  0.205782  0.398725  0.247366  1
  Ru  Ru24  1  0.600597  0.715019  0.500000  1
  Ru  Ru25  1  0.600895  0.205569  0.747326  1
  Ru  Ru26  1  0.284935  0.599992  0.000000  1
  Ru  Ru27  1  0.714786  0.398968  0.000000  1
  Ru  Ru28  1  0.795608  0.598882  0.248771  1
  Ru  Ru29  1  0.795608  0.598882  0.751229  1
  Ru  Ru30  1  0.400672  0.795430  0.748723  1
  Ru  Ru31  1  0.001281  0.000509  0.249988  1
  Ru  Ru32  1  0.600895  0.205569  0.252674  1
  Ru  Ru33  1  0.001281  0.000509  0.750012  1
