# generated using pymatgen
data_SrErBO4
_symmetry_space_group_name_H-M   'P 1'
_cell_length_a   3.64686000
_cell_length_b   9.70899600
_cell_length_c   10.96496900
_cell_angle_alpha   90.00000000
_cell_angle_beta   90.00000000
_cell_angle_gamma   90.00000000
_symmetry_Int_Tables_number   1
_chemical_formula_structural   SrErBO4
_chemical_formula_sum   'Sr4 Er4 B4 O16'
_cell_volume   388.24048583
_cell_formula_units_Z   4
loop_
 _symmetry_equiv_pos_site_id
 _symmetry_equiv_pos_as_xyz
  1  'x, y, z'
loop_
 _atom_site_type_symbol
 _atom_site_label
 _atom_site_symmetry_multiplicity
 _atom_site_fract_x
 _atom_site_fract_y
 _atom_site_fract_z
 _atom_site_occupancy
  Sr  Sr0  1  0.250000  0.658015  0.084503  1
  Sr  Sr1  1  0.750000  0.341985  0.915497  1
  Sr  Sr2  1  0.750000  0.158015  0.415497  1
  Sr  Sr3  1  0.250000  0.841985  0.584503  1
  Er  Er4  1  0.250000  0.079572  0.109654  1
  Er  Er5  1  0.750000  0.920428  0.890346  1
  Er  Er6  1  0.750000  0.579572  0.390346  1
  Er  Er7  1  0.250000  0.420428  0.609654  1
  B  B8  1  0.250000  0.362492  0.204521  1
  B  B9  1  0.750000  0.637508  0.795479  1
  B  B10  1  0.750000  0.862492  0.295479  1
  B  B11  1  0.250000  0.137508  0.704521  1
  O  O12  1  0.250000  0.487869  0.265975  1
  O  O13  1  0.750000  0.512131  0.734025  1
  O  O14  1  0.750000  0.987869  0.234025  1
  O  O15  1  0.250000  0.012131  0.765975  1
  O  O16  1  0.250000  0.237661  0.267470  1
  O  O17  1  0.750000  0.762339  0.732530  1
  O  O18  1  0.750000  0.737661  0.232530  1
  O  O19  1  0.250000  0.262339  0.767470  1
  O  O20  1  0.250000  0.359681  0.076913  1
  O  O21  1  0.750000  0.640319  0.923087  1
  O  O22  1  0.750000  0.859681  0.423087  1
  O  O23  1  0.250000  0.140319  0.576913  1
  O  O24  1  0.250000  0.612644  0.499814  1
  O  O25  1  0.750000  0.387356  0.500186  1
  O  O26  1  0.750000  0.112644  0.000186  1
  O  O27  1  0.250000  0.887356  0.999814  1
