# generated using pymatgen
data_TmPa(Be11Cu2)2
_symmetry_space_group_name_H-M   'P 1'
_cell_length_a   7.32507229
_cell_length_b   7.34140026
_cell_length_c   7.29200200
_cell_angle_alpha   60.07458898
_cell_angle_beta   60.29720780
_cell_angle_gamma   59.62822386
_symmetry_Int_Tables_number   1
_chemical_formula_structural   TmPa(Be11Cu2)2
_chemical_formula_sum   'Tm1 Pa1 Be22 Cu4'
_cell_volume   277.26306733
_cell_formula_units_Z   1
loop_
 _symmetry_equiv_pos_site_id
 _symmetry_equiv_pos_as_xyz
  1  'x, y, z'
loop_
 _atom_site_type_symbol
 _atom_site_label
 _atom_site_symmetry_multiplicity
 _atom_site_fract_x
 _atom_site_fract_y
 _atom_site_fract_z
 _atom_site_occupancy
  Tm  Tm0  1  0.750000  0.750000  0.750000  1
  Pa  Pa1  1  0.250000  0.250000  0.250000  1
  Be  Be2  1  0.500000  0.500000  0.500000  1
  Be  Be3  1  0.000000  0.000000  0.000000  1
  Be  Be4  1  0.278559  0.933190  0.720151  1
  Be  Be5  1  0.720151  0.068100  0.278559  1
  Be  Be6  1  0.933190  0.278559  0.068100  1
  Be  Be7  1  0.068100  0.720151  0.933190  1
  Be  Be8  1  0.199879  0.800808  0.558029  1
  Be  Be9  1  0.800808  0.199879  0.441285  1
  Be  Be10  1  0.441285  0.558029  0.800808  1
  Be  Be11  1  0.558029  0.441285  0.199879  1
  Be  Be12  1  0.711252  0.284986  0.937141  1
  Be  Be13  1  0.284986  0.711252  0.066621  1
  Be  Be14  1  0.066621  0.937141  0.284986  1
  Be  Be15  1  0.937141  0.066621  0.711252  1
  Be  Be16  1  0.565441  0.206707  0.794901  1
  Be  Be17  1  0.432951  0.794901  0.206707  1
  Be  Be18  1  0.794901  0.432951  0.565441  1
  Be  Be19  1  0.206707  0.565441  0.432951  1
  Be  Be20  1  0.941886  0.709358  0.288202  1
  Be  Be21  1  0.060554  0.288202  0.709358  1
  Be  Be22  1  0.288202  0.060554  0.941886  1
  Be  Be23  1  0.709358  0.941886  0.060554  1
  Cu  Cu24  1  0.804945  0.557271  0.192925  1
  Cu  Cu25  1  0.192925  0.444860  0.804945  1
  Cu  Cu26  1  0.557271  0.804945  0.444860  1
  Cu  Cu27  1  0.444860  0.192925  0.557271  1
