# generated using pymatgen
data_Tb3Dy(Hf4Pb5)2
_symmetry_space_group_name_H-M   'P 1'
_cell_length_a   6.06416341
_cell_length_b   9.17771567
_cell_length_c   11.31604600
_cell_angle_alpha   113.98989152
_cell_angle_beta   105.54203592
_cell_angle_gamma   89.99999998
_symmetry_Int_Tables_number   1
_chemical_formula_structural   Tb3Dy(Hf4Pb5)2
_chemical_formula_sum   'Tb3 Dy1 Hf8 Pb10'
_cell_volume   550.09094300
_cell_formula_units_Z   1
loop_
 _symmetry_equiv_pos_site_id
 _symmetry_equiv_pos_as_xyz
  1  'x, y, z'
loop_
 _atom_site_type_symbol
 _atom_site_label
 _atom_site_symmetry_multiplicity
 _atom_site_fract_x
 _atom_site_fract_y
 _atom_site_fract_z
 _atom_site_occupancy
  Tb  Tb0  1  0.143879  0.254828  0.287757  1
  Tb  Tb1  1  0.856363  0.745696  0.712727  1
  Tb  Tb2  1  0.643702  0.032653  0.287404  1
  Dy  Dy3  1  0.356099  0.966730  0.712199  1
  Hf  Hf4  1  0.562012  0.312650  0.624322  1
  Hf  Hf5  1  0.437912  0.687859  0.375702  1
  Hf  Hf6  1  0.937789  0.687859  0.375702  1
  Hf  Hf7  1  0.062311  0.312650  0.624322  1
  Hf  Hf8  1  0.434664  0.671600  0.869327  1
  Hf  Hf9  1  0.565517  0.328259  0.131032  1
  Hf  Hf10  1  0.934548  0.196653  0.869098  1
  Hf  Hf11  1  0.065414  0.803272  0.130829  1
  Pb  Pb12  1  0.288899  0.589689  0.577799  1
  Pb  Pb13  1  0.711447  0.411840  0.422893  1
  Pb  Pb14  1  0.788618  0.988943  0.577237  1
  Pb  Pb15  1  0.211676  0.010917  0.423351  1
  Pb  Pb16  1  0.249924  0.999961  0.999529  1
  Pb  Pb17  1  0.749605  0.999961  0.999529  1
  Pb  Pb18  1  0.066773  0.463313  0.133546  1
  Pb  Pb19  1  0.933214  0.536678  0.866429  1
  Pb  Pb20  1  0.566749  0.669945  0.133499  1
  Pb  Pb21  1  0.432884  0.328044  0.865769  1
