# generated using pymatgen
data_LuTh2NpN6
_symmetry_space_group_name_H-M   'P 1'
_cell_length_a   5.86042011
_cell_length_b   5.97007300
_cell_length_c   8.41600714
_cell_angle_alpha   90.00000000
_cell_angle_beta   90.52751061
_cell_angle_gamma   90.00000000
_symmetry_Int_Tables_number   1
_chemical_formula_structural   LuTh2NpN6
_chemical_formula_sum   'Lu2 Th4 Np2 N12'
_cell_volume   294.43950611
_cell_formula_units_Z   2
loop_
 _symmetry_equiv_pos_site_id
 _symmetry_equiv_pos_as_xyz
  1  'x, y, z'
loop_
 _atom_site_type_symbol
 _atom_site_label
 _atom_site_symmetry_multiplicity
 _atom_site_fract_x
 _atom_site_fract_y
 _atom_site_fract_z
 _atom_site_occupancy
  Lu  Lu0  1  0.000000  0.500000  0.000000  1
  Lu  Lu1  1  0.500000  0.000000  0.500000  1
  Th  Th2  1  0.508818  0.547523  0.248363  1
  Th  Th3  1  0.991182  0.047523  0.251637  1
  Th  Th4  1  0.491182  0.452477  0.751637  1
  Th  Th5  1  0.008818  0.952477  0.748363  1
  Np  Np6  1  0.000000  0.500000  0.500000  1
  Np  Np7  1  0.500000  0.000000  0.000000  1
  N  N8  1  0.381159  0.951107  0.240120  1
  N  N9  1  0.118841  0.451107  0.259880  1
  N  N10  1  0.618841  0.048893  0.759880  1
  N  N11  1  0.881159  0.548893  0.740120  1
  N  N12  1  0.787984  0.819335  0.057851  1
  N  N13  1  0.712016  0.319335  0.442149  1
  N  N14  1  0.185220  0.205673  0.565810  1
  N  N15  1  0.314780  0.705673  0.934190  1
  N  N16  1  0.212016  0.180665  0.942149  1
  N  N17  1  0.287984  0.680665  0.557851  1
  N  N18  1  0.814780  0.794327  0.434190  1
  N  N19  1  0.685220  0.294327  0.065810  1
