# generated using pymatgen
data_Y4Lu8GaCo4Pd
_symmetry_space_group_name_H-M   'P 1'
_cell_length_a   8.15938024
_cell_length_b   8.15938572
_cell_length_c   8.15938876
_cell_angle_alpha   107.01917692
_cell_angle_beta   110.91076873
_cell_angle_gamma   110.51165358
_symmetry_Int_Tables_number   1
_chemical_formula_structural   Y4Lu8GaCo4Pd
_chemical_formula_sum   'Y4 Lu8 Ga1 Co4 Pd1'
_cell_volume   417.58991615
_cell_formula_units_Z   1
loop_
 _symmetry_equiv_pos_site_id
 _symmetry_equiv_pos_as_xyz
  1  'x, y, z'
loop_
 _atom_site_type_symbol
 _atom_site_label
 _atom_site_symmetry_multiplicity
 _atom_site_fract_x
 _atom_site_fract_y
 _atom_site_fract_z
 _atom_site_occupancy
  Y  Y0  1  0.600387  0.791698  0.808689  1
  Y  Y1  1  0.983011  0.791699  0.191312  1
  Y  Y2  1  0.016989  0.208301  0.808688  1
  Y  Y3  1  0.399613  0.208302  0.191311  1
  Lu  Lu4  1  0.698031  0.281111  0.979141  1
  Lu  Lu5  1  0.301969  0.718889  0.020859  1
  Lu  Lu6  1  0.698031  0.718889  0.416920  1
  Lu  Lu7  1  0.301969  0.281111  0.583080  1
  Lu  Lu8  1  0.804243  0.120242  0.315998  1
  Lu  Lu9  1  0.804243  0.488245  0.684002  1
  Lu  Lu10  1  0.195757  0.879758  0.684002  1
  Lu  Lu11  1  0.195757  0.511755  0.315998  1
  Ga  Ga12  1  0.500000  0.000000  0.500000  1
  Co  Co13  1  0.877263  0.500000  0.377263  1
  Co  Co14  1  0.122737  0.500000  0.622737  1
  Co  Co15  1  0.000000  0.114570  0.114570  1
  Co  Co16  1  0.000000  0.885430  0.885430  1
  Pd  Pd17  1  0.500000  0.500000  0.000000  1
