# generated using pymatgen
data_TbHoNiB8Ir
_symmetry_space_group_name_H-M   'P 1'
_cell_length_a   6.92656462
_cell_length_b   6.92656519
_cell_length_c   6.92656483
_cell_angle_alpha   111.24950323
_cell_angle_beta   113.24980800
_cell_angle_gamma   104.05359349
_symmetry_Int_Tables_number   1
_chemical_formula_structural   TbHoNiB8Ir
_chemical_formula_sum   'Tb2 Ho2 Ni2 B16 Ir2'
_cell_volume   254.03891620
_cell_formula_units_Z   2
loop_
 _symmetry_equiv_pos_site_id
 _symmetry_equiv_pos_as_xyz
  1  'x, y, z'
loop_
 _atom_site_type_symbol
 _atom_site_label
 _atom_site_symmetry_multiplicity
 _atom_site_fract_x
 _atom_site_fract_y
 _atom_site_fract_z
 _atom_site_occupancy
  Tb  Tb0  1  0.790504  0.790504  0.000000  1
  Tb  Tb1  1  0.209496  0.209496  0.000000  1
  Ho  Ho2  1  0.751587  0.251587  0.500000  1
  Ho  Ho3  1  0.248413  0.748413  0.500000  1
  Ni  Ni4  1  0.500000  0.745120  0.245120  1
  Ni  Ni5  1  0.500000  0.254880  0.754880  1
  B  B6  1  0.273122  0.108487  0.381609  1
  B  B7  1  0.726878  0.891513  0.618391  1
  B  B8  1  0.273122  0.891513  0.164636  1
  B  B9  1  0.726878  0.108487  0.835364  1
  B  B10  1  0.110671  0.730726  0.841397  1
  B  B11  1  0.889329  0.269274  0.158603  1
  B  B12  1  0.110671  0.269274  0.379945  1
  B  B13  1  0.889329  0.730726  0.620055  1
  B  B14  1  0.115220  0.109725  0.528965  1
  B  B15  1  0.580759  0.586255  0.471035  1
  B  B16  1  0.115220  0.586255  0.005496  1
  B  B17  1  0.580759  0.109725  0.994504  1
  B  B18  1  0.884780  0.890275  0.471035  1
  B  B19  1  0.419241  0.413745  0.528965  1
  B  B20  1  0.884780  0.413745  0.994504  1
  B  B21  1  0.419241  0.890275  0.005496  1
  Ir  Ir22  1  0.275537  0.500000  0.775537  1
  Ir  Ir23  1  0.724463  0.500000  0.224463  1
