# generated using pymatgen
data_Zr(MnZn10)2
_symmetry_space_group_name_H-M   'P 1'
_cell_length_a   9.84333820
_cell_length_b   9.84333817
_cell_length_c   9.84333800
_cell_angle_alpha   60.00000056
_cell_angle_beta   60.00000068
_cell_angle_gamma   60.00000034
_symmetry_Int_Tables_number   1
_chemical_formula_structural   Zr(MnZn10)2
_chemical_formula_sum   'Zr2 Mn4 Zn40'
_cell_volume   674.39170236
_cell_formula_units_Z   2
loop_
 _symmetry_equiv_pos_site_id
 _symmetry_equiv_pos_as_xyz
  1  'x, y, z'
loop_
 _atom_site_type_symbol
 _atom_site_label
 _atom_site_symmetry_multiplicity
 _atom_site_fract_x
 _atom_site_fract_y
 _atom_site_fract_z
 _atom_site_occupancy
  Zr  Zr0  1  0.500000  0.500000  0.500000  1
  Zr  Zr1  1  0.750000  0.750000  0.750000  1
  Mn  Mn2  1  0.625000  0.125000  0.125000  1
  Mn  Mn3  1  0.125000  0.625000  0.125000  1
  Mn  Mn4  1  0.125000  0.125000  0.625000  1
  Mn  Mn5  1  0.125000  0.125000  0.125000  1
  Zn  Zn6  1  0.568466  0.299942  0.299942  1
  Zn  Zn7  1  0.299942  0.568466  0.831650  1
  Zn  Zn8  1  0.299942  0.831650  0.568466  1
  Zn  Zn9  1  0.831650  0.299942  0.299942  1
  Zn  Zn10  1  0.299942  0.299942  0.568466  1
  Zn  Zn11  1  0.568466  0.831650  0.299942  1
  Zn  Zn12  1  0.831650  0.568466  0.299942  1
  Zn  Zn13  1  0.299942  0.299942  0.831650  1
  Zn  Zn14  1  0.299942  0.568466  0.299942  1
  Zn  Zn15  1  0.831650  0.299942  0.568466  1
  Zn  Zn16  1  0.568466  0.299942  0.831650  1
  Zn  Zn17  1  0.299942  0.831650  0.299942  1
  Zn  Zn18  1  0.681534  0.950058  0.950058  1
  Zn  Zn19  1  0.950058  0.681534  0.418350  1
  Zn  Zn20  1  0.950058  0.418350  0.681534  1
  Zn  Zn21  1  0.418350  0.950058  0.950058  1
  Zn  Zn22  1  0.950058  0.950058  0.681534  1
  Zn  Zn23  1  0.681534  0.418350  0.950058  1
  Zn  Zn24  1  0.418350  0.681534  0.950058  1
  Zn  Zn25  1  0.950058  0.950058  0.418350  1
  Zn  Zn26  1  0.950058  0.681534  0.950058  1
  Zn  Zn27  1  0.418350  0.950058  0.681534  1
  Zn  Zn28  1  0.681534  0.950058  0.418350  1
  Zn  Zn29  1  0.950058  0.418350  0.950058  1
  Zn  Zn30  1  0.864181  0.864181  0.135819  1
  Zn  Zn31  1  0.135819  0.135819  0.864181  1
  Zn  Zn32  1  0.864181  0.135819  0.864181  1
  Zn  Zn33  1  0.135819  0.864181  0.135819  1
  Zn  Zn34  1  0.135819  0.864181  0.864181  1
  Zn  Zn35  1  0.864181  0.135819  0.135819  1
  Zn  Zn36  1  0.385819  0.385819  0.114181  1
  Zn  Zn37  1  0.114181  0.114181  0.385819  1
  Zn  Zn38  1  0.385819  0.114181  0.385819  1
  Zn  Zn39  1  0.114181  0.385819  0.114181  1
  Zn  Zn40  1  0.114181  0.385819  0.385819  1
  Zn  Zn41  1  0.385819  0.114181  0.114181  1
  Zn  Zn42  1  0.125000  0.625000  0.625000  1
  Zn  Zn43  1  0.625000  0.125000  0.625000  1
  Zn  Zn44  1  0.625000  0.625000  0.125000  1
  Zn  Zn45  1  0.625000  0.625000  0.625000  1
