# generated using pymatgen
data_Be8CrGaRu2
_symmetry_space_group_name_H-M   'P 1'
_cell_length_a   4.30810000
_cell_length_b   4.30810133
_cell_length_c   7.05067800
_cell_angle_alpha   90.00000000
_cell_angle_beta   90.00000000
_cell_angle_gamma   120.00000515
_symmetry_Int_Tables_number   1
_chemical_formula_structural   Be8CrGaRu2
_chemical_formula_sum   'Be8 Cr1 Ga1 Ru2'
_cell_volume   113.32694348
_cell_formula_units_Z   1
loop_
 _symmetry_equiv_pos_site_id
 _symmetry_equiv_pos_as_xyz
  1  'x, y, z'
loop_
 _atom_site_type_symbol
 _atom_site_label
 _atom_site_symmetry_multiplicity
 _atom_site_fract_x
 _atom_site_fract_y
 _atom_site_fract_z
 _atom_site_occupancy
  Be  Be0  1  0.166793  0.333584  0.744393  1
  Be  Be1  1  0.166793  0.833207  0.744393  1
  Be  Be2  1  0.340063  0.170033  0.254726  1
  Be  Be3  1  0.829967  0.659937  0.254726  1
  Be  Be4  1  0.000000  0.000000  0.997302  1
  Be  Be5  1  0.666416  0.833207  0.744393  1
  Be  Be6  1  0.829967  0.170033  0.254726  1
  Be  Be7  1  0.000000  0.000000  0.496692  1
  Cr  Cr8  1  0.666667  0.333333  0.565343  1
  Ga  Ga9  1  0.333333  0.666667  0.065729  1
  Ru  Ru10  1  0.333333  0.666667  0.446756  1
  Ru  Ru11  1  0.666667  0.333333  0.930816  1
