# generated using pymatgen
data_Ti4VMoIr2
_symmetry_space_group_name_H-M   'P 1'
_cell_length_a   6.25704500
_cell_length_b   4.40779000
_cell_length_c   8.83954600
_cell_angle_alpha   89.99998052
_cell_angle_beta   89.99996224
_cell_angle_gamma   90.00008478
_symmetry_Int_Tables_number   1
_chemical_formula_structural   Ti4VMoIr2
_chemical_formula_sum   'Ti8 V2 Mo2 Ir4'
_cell_volume   243.79238376
_cell_formula_units_Z   2
loop_
 _symmetry_equiv_pos_site_id
 _symmetry_equiv_pos_as_xyz
  1  'x, y, z'
loop_
 _atom_site_type_symbol
 _atom_site_label
 _atom_site_symmetry_multiplicity
 _atom_site_fract_x
 _atom_site_fract_y
 _atom_site_fract_z
 _atom_site_occupancy
  Ti  Ti0  1  0.002994  0.750000  0.121967  1
  Ti  Ti1  1  0.496987  0.749999  0.121969  1
  Ti  Ti2  1  0.997108  0.249998  0.378084  1
  Ti  Ti3  1  0.502896  0.250000  0.378087  1
  Ti  Ti4  1  0.502425  0.749998  0.627640  1
  Ti  Ti5  1  0.997575  0.749999  0.627642  1
  Ti  Ti6  1  0.497551  0.249999  0.872313  1
  Ti  Ti7  1  0.002467  0.250000  0.872315  1
  V  V8  1  0.749987  0.249999  0.125918  1
  V  V9  1  0.250003  0.749999  0.374087  1
  Mo  Mo10  1  0.750003  0.249999  0.625261  1
  Mo  Mo11  1  0.250004  0.749999  0.874715  1
  Ir  Ir12  1  0.249997  0.249999  0.129786  1
  Ir  Ir13  1  0.749998  0.749999  0.370234  1
  Ir  Ir14  1  0.250000  0.249999  0.619589  1
  Ir  Ir15  1  0.750005  0.749999  0.880392  1
