# generated using pymatgen
data_Yb3EuSnSb3O14
_symmetry_space_group_name_H-M   'P 1'
_cell_length_a   7.42640938
_cell_length_b   7.40523918
_cell_length_c   7.37559679
_cell_angle_alpha   59.62165432
_cell_angle_beta   59.77183301
_cell_angle_gamma   59.90538058
_symmetry_Int_Tables_number   1
_chemical_formula_structural   Yb3EuSnSb3O14
_chemical_formula_sum   'Yb3 Eu1 Sn1 Sb3 O14'
_cell_volume   285.28835105
_cell_formula_units_Z   1
loop_
 _symmetry_equiv_pos_site_id
 _symmetry_equiv_pos_as_xyz
  1  'x, y, z'
loop_
 _atom_site_type_symbol
 _atom_site_label
 _atom_site_symmetry_multiplicity
 _atom_site_fract_x
 _atom_site_fract_y
 _atom_site_fract_z
 _atom_site_occupancy
  Yb  Yb0  1  0.625000  0.125000  0.625000  1
  Yb  Yb1  1  0.125000  0.625000  0.625000  1
  Yb  Yb2  1  0.625000  0.625000  0.625000  1
  Eu  Eu3  1  0.625000  0.625000  0.125000  1
  Sn  Sn4  1  0.125000  0.625000  0.125000  1
  Sb  Sb5  1  0.125000  0.125000  0.625000  1
  Sb  Sb6  1  0.625000  0.125000  0.125000  1
  Sb  Sb7  1  0.125000  0.125000  0.125000  1
  O  O8  1  0.746384  0.748456  0.758778  1
  O  O9  1  0.503616  0.501544  0.491222  1
  O  O10  1  0.047080  0.449150  0.041757  1
  O  O11  1  0.799236  0.196472  0.798682  1
  O  O12  1  0.044391  0.053528  0.451318  1
  O  O13  1  0.450114  0.056045  0.043726  1
  O  O14  1  0.043494  0.449888  0.463123  1
  O  O15  1  0.462012  0.449150  0.041757  1
  O  O16  1  0.450764  0.053528  0.451318  1
  O  O17  1  0.206506  0.800112  0.786877  1
  O  O18  1  0.799886  0.193955  0.206274  1
  O  O19  1  0.202920  0.800850  0.208243  1
  O  O20  1  0.787988  0.800850  0.208243  1
  O  O21  1  0.205609  0.196472  0.798682  1
