# generated using pymatgen
data_Be2VOs3
_symmetry_space_group_name_H-M   'P 1'
_cell_length_a   4.55831580
_cell_length_b   4.55831543
_cell_length_c   4.53557475
_cell_angle_alpha   104.47794072
_cell_angle_beta   104.47792334
_cell_angle_gamma   120.16422493
_symmetry_Int_Tables_number   1
_chemical_formula_structural   Be2VOs3
_chemical_formula_sum   'Be2 V1 Os3'
_cell_volume   70.50437002
_cell_formula_units_Z   1
loop_
 _symmetry_equiv_pos_site_id
 _symmetry_equiv_pos_as_xyz
  1  'x, y, z'
loop_
 _atom_site_type_symbol
 _atom_site_label
 _atom_site_symmetry_multiplicity
 _atom_site_fract_x
 _atom_site_fract_y
 _atom_site_fract_z
 _atom_site_occupancy
  Be  Be0  1  0.248532  0.248532  0.997065  1
  Be  Be1  1  0.748532  0.748532  0.997065  1
  V  V2  1  0.845090  0.345090  0.190181  1
  Os  Os3  1  0.160389  0.660389  0.820778  1
  Os  Os4  1  0.335706  0.161750  0.497456  1
  Os  Os5  1  0.661750  0.835706  0.497456  1
