# generated using pymatgen
data_Zr10Ga3As3O
_symmetry_space_group_name_H-M   'P 1'
_cell_length_a   8.07713700
_cell_length_b   8.07713826
_cell_length_c   5.62256900
_cell_angle_alpha   90.00000000
_cell_angle_beta   90.00000000
_cell_angle_gamma   119.99999893
_symmetry_Int_Tables_number   1
_chemical_formula_structural   Zr10Ga3As3O
_chemical_formula_sum   'Zr10 Ga3 As3 O1'
_cell_volume   317.67306733
_cell_formula_units_Z   1
loop_
 _symmetry_equiv_pos_site_id
 _symmetry_equiv_pos_as_xyz
  1  'x, y, z'
loop_
 _atom_site_type_symbol
 _atom_site_label
 _atom_site_symmetry_multiplicity
 _atom_site_fract_x
 _atom_site_fract_y
 _atom_site_fract_z
 _atom_site_occupancy
  Zr  Zr0  1  0.000000  0.756980  0.254163  1
  Zr  Zr1  1  0.243020  0.243020  0.254163  1
  Zr  Zr2  1  0.756980  0.000000  0.254163  1
  Zr  Zr3  1  0.000000  0.242834  0.747884  1
  Zr  Zr4  1  0.757166  0.757166  0.747884  1
  Zr  Zr5  1  0.242834  0.000000  0.747884  1
  Zr  Zr6  1  0.333333  0.666667  0.501058  1
  Zr  Zr7  1  0.666667  0.333333  0.501058  1
  Zr  Zr8  1  0.666667  0.333333  0.999575  1
  Zr  Zr9  1  0.333333  0.666667  0.999575  1
  Ga  Ga10  1  0.000000  0.605282  0.753627  1
  Ga  Ga11  1  0.394718  0.394718  0.753627  1
  Ga  Ga12  1  0.605282  0.000000  0.753627  1
  As  As13  1  0.000000  0.394701  0.244991  1
  As  As14  1  0.605299  0.605299  0.244991  1
  As  As15  1  0.394701  0.000000  0.244991  1
  O  O16  1  0.000000  0.000000  0.496739  1
