# generated using pymatgen
data_NdTlCd2(Ir2O7)2
_symmetry_space_group_name_H-M   'P 1'
_cell_length_a   7.25684701
_cell_length_b   7.25684804
_cell_length_c   7.36195267
_cell_angle_alpha   60.31523806
_cell_angle_beta   60.31523369
_cell_angle_gamma   59.85167601
_symmetry_Int_Tables_number   1
_chemical_formula_structural   NdTlCd2(Ir2O7)2
_chemical_formula_sum   'Nd1 Tl1 Cd2 Ir4 O14'
_cell_volume   275.12701212
_cell_formula_units_Z   1
loop_
 _symmetry_equiv_pos_site_id
 _symmetry_equiv_pos_as_xyz
  1  'x, y, z'
loop_
 _atom_site_type_symbol
 _atom_site_label
 _atom_site_symmetry_multiplicity
 _atom_site_fract_x
 _atom_site_fract_y
 _atom_site_fract_z
 _atom_site_occupancy
  Nd  Nd0  1  0.125000  0.125000  0.625000  1
  Tl  Tl1  1  0.125000  0.125000  0.125000  1
  Cd  Cd2  1  0.625000  0.125000  0.125000  1
  Cd  Cd3  1  0.125000  0.625000  0.125000  1
  Ir  Ir4  1  0.125000  0.625000  0.625000  1
  Ir  Ir5  1  0.625000  0.125000  0.625000  1
  Ir  Ir6  1  0.625000  0.625000  0.125000  1
  Ir  Ir7  1  0.625000  0.625000  0.625000  1
  O  O8  1  0.696842  0.696842  0.302700  1
  O  O9  1  0.296395  0.296395  0.704959  1
  O  O10  1  0.704814  0.296288  0.701152  1
  O  O11  1  0.299705  0.705605  0.301867  1
  O  O12  1  0.296288  0.704814  0.701152  1
  O  O13  1  0.705605  0.299705  0.301867  1
  O  O14  1  0.553158  0.553158  0.947300  1
  O  O15  1  0.953605  0.953605  0.545041  1
  O  O16  1  0.545186  0.953712  0.548848  1
  O  O17  1  0.950295  0.544395  0.948133  1
  O  O18  1  0.953712  0.545186  0.548848  1
  O  O19  1  0.544395  0.950295  0.948133  1
  O  O20  1  0.257864  0.257864  0.237362  1
  O  O21  1  0.992136  0.992136  0.012638  1
