# generated using pymatgen
data_Rb(RhS2)2
_symmetry_space_group_name_H-M   'P 1'
_cell_length_a   6.20939800
_cell_length_b   7.22595300
_cell_length_c   15.29689200
_cell_angle_alpha   90.00000000
_cell_angle_beta   90.00000000
_cell_angle_gamma   90.00000000
_symmetry_Int_Tables_number   1
_chemical_formula_structural   Rb(RhS2)2
_chemical_formula_sum   'Rb4 Rh8 S16'
_cell_volume   686.35346474
_cell_formula_units_Z   4
loop_
 _symmetry_equiv_pos_site_id
 _symmetry_equiv_pos_as_xyz
  1  'x, y, z'
loop_
 _atom_site_type_symbol
 _atom_site_label
 _atom_site_symmetry_multiplicity
 _atom_site_fract_x
 _atom_site_fract_y
 _atom_site_fract_z
 _atom_site_occupancy
  Rb  Rb0  1  0.348331  0.000000  0.000000  1
  Rb  Rb1  1  0.651669  0.500000  0.500000  1
  Rb  Rb2  1  0.038173  0.000000  0.500000  1
  Rb  Rb3  1  0.961827  0.500000  0.000000  1
  Rh  Rh4  1  0.000212  0.000000  0.249567  1
  Rh  Rh5  1  0.000212  0.000000  0.750433  1
  Rh  Rh6  1  0.999788  0.500000  0.250433  1
  Rh  Rh7  1  0.999788  0.500000  0.749567  1
  Rh  Rh8  1  0.500000  0.250000  0.250000  1
  Rh  Rh9  1  0.500000  0.750000  0.750000  1
  Rh  Rh10  1  0.500000  0.750000  0.250000  1
  Rh  Rh11  1  0.500000  0.250000  0.750000  1
  S  S12  1  0.834985  0.249813  0.328449  1
  S  S13  1  0.834985  0.750187  0.671551  1
  S  S14  1  0.165015  0.749813  0.171551  1
  S  S15  1  0.165015  0.250187  0.828449  1
  S  S16  1  0.165015  0.250187  0.171551  1
  S  S17  1  0.165015  0.749813  0.828449  1
  S  S18  1  0.834985  0.750187  0.328449  1
  S  S19  1  0.834985  0.249813  0.671551  1
  S  S20  1  0.667413  0.000000  0.172329  1
  S  S21  1  0.667413  0.000000  0.827671  1
  S  S22  1  0.332587  0.500000  0.327671  1
  S  S23  1  0.332587  0.500000  0.672329  1
  S  S24  1  0.336587  0.000000  0.326429  1
  S  S25  1  0.336587  0.000000  0.673571  1
  S  S26  1  0.663413  0.500000  0.173571  1
  S  S27  1  0.663413  0.500000  0.826429  1
