# generated using pymatgen
data_Co(IrS4)2
_symmetry_space_group_name_H-M   'P 1'
_cell_length_a   5.66898263
_cell_length_b   5.63328797
_cell_length_c   5.63254087
_cell_angle_alpha   89.90886459
_cell_angle_beta   90.56791746
_cell_angle_gamma   90.51012890
_symmetry_Int_Tables_number   1
_chemical_formula_structural   Co(IrS4)2
_chemical_formula_sum   'Co1 Ir2 S8'
_cell_volume   179.85909022
_cell_formula_units_Z   1
loop_
 _symmetry_equiv_pos_site_id
 _symmetry_equiv_pos_as_xyz
  1  'x, y, z'
loop_
 _atom_site_type_symbol
 _atom_site_label
 _atom_site_symmetry_multiplicity
 _atom_site_fract_x
 _atom_site_fract_y
 _atom_site_fract_z
 _atom_site_occupancy
  Co  Co0  1  0.000000  0.500001  0.500000  1
  Ir  Ir1  1  0.500000  0.500000  0.000000  1
  Ir  Ir2  1  0.500001  0.000000  0.500000  1
  S  S3  1  0.894412  0.397255  0.113692  1
  S  S4  1  0.609754  0.894087  0.109044  1
  S  S5  1  0.382961  0.389576  0.388611  1
  S  S6  1  0.102857  0.883780  0.398302  1
  S  S7  1  0.897143  0.116220  0.601698  1
  S  S8  1  0.617039  0.610424  0.611389  1
  S  S9  1  0.390246  0.105913  0.890956  1
  S  S10  1  0.105588  0.602745  0.886308  1
