# generated using pymatgen
data_Ho4CoRe4Ru3
_symmetry_space_group_name_H-M   'P 1'
_cell_length_a   5.19794309
_cell_length_b   5.18821730
_cell_length_c   9.01170100
_cell_angle_alpha   90.00000000
_cell_angle_beta   90.00000000
_cell_angle_gamma   117.83270829
_symmetry_Int_Tables_number   1
_chemical_formula_structural   Ho4CoRe4Ru3
_chemical_formula_sum   'Ho4 Co1 Re4 Ru3'
_cell_volume   214.91327391
_cell_formula_units_Z   1
loop_
 _symmetry_equiv_pos_site_id
 _symmetry_equiv_pos_as_xyz
  1  'x, y, z'
loop_
 _atom_site_type_symbol
 _atom_site_label
 _atom_site_symmetry_multiplicity
 _atom_site_fract_x
 _atom_site_fract_y
 _atom_site_fract_z
 _atom_site_occupancy
  Ho  Ho0  1  0.665743  0.333817  0.559998  1
  Ho  Ho1  1  0.330287  0.671059  0.433370  1
  Ho  Ho2  1  0.330287  0.671059  0.066630  1
  Ho  Ho3  1  0.665743  0.333817  0.940002  1
  Co  Co4  1  0.839123  0.651605  0.250000  1
  Re  Re5  1  0.166729  0.335616  0.750000  1
  Re  Re6  1  0.167803  0.828752  0.750000  1
  Re  Re7  1  0.658857  0.829375  0.750000  1
  Re  Re8  1  0.837802  0.162363  0.250000  1
  Ru  Ru9  1  0.989162  0.006070  0.491680  1
  Ru  Ru10  1  0.989162  0.006070  0.008320  1
  Ru  Ru11  1  0.359303  0.170398  0.250000  1
