# generated using pymatgen
data_Y20Cd6TcRh
_symmetry_space_group_name_H-M   'P 1'
_cell_length_a   9.63987300
_cell_length_b   9.63987283
_cell_length_c   9.89500200
_cell_angle_alpha   90.00000000
_cell_angle_beta   90.00000000
_cell_angle_gamma   119.99999715
_symmetry_Int_Tables_number   1
_chemical_formula_structural   Y20Cd6TcRh
_chemical_formula_sum   'Y20 Cd6 Tc1 Rh1'
_cell_volume   796.32279467
_cell_formula_units_Z   1
loop_
 _symmetry_equiv_pos_site_id
 _symmetry_equiv_pos_as_xyz
  1  'x, y, z'
loop_
 _atom_site_type_symbol
 _atom_site_label
 _atom_site_symmetry_multiplicity
 _atom_site_fract_x
 _atom_site_fract_y
 _atom_site_fract_z
 _atom_site_occupancy
  Y  Y0  1  0.000000  0.000000  0.499433  1
  Y  Y1  1  0.000000  0.000000  0.000567  1
  Y  Y2  1  0.209428  0.790572  0.440611  1
  Y  Y3  1  0.209428  0.418856  0.440611  1
  Y  Y4  1  0.581144  0.790572  0.440611  1
  Y  Y5  1  0.790373  0.209627  0.559723  1
  Y  Y6  1  0.790373  0.580743  0.559723  1
  Y  Y7  1  0.419257  0.209627  0.559723  1
  Y  Y8  1  0.790373  0.209627  0.940277  1
  Y  Y9  1  0.790373  0.580743  0.940277  1
  Y  Y10  1  0.419257  0.209627  0.940277  1
  Y  Y11  1  0.209428  0.790572  0.059389  1
  Y  Y12  1  0.209428  0.418856  0.059389  1
  Y  Y13  1  0.581144  0.790572  0.059389  1
  Y  Y14  1  0.542165  0.457835  0.250000  1
  Y  Y15  1  0.542165  0.084331  0.250000  1
  Y  Y16  1  0.915669  0.457835  0.250000  1
  Y  Y17  1  0.459383  0.540617  0.750000  1
  Y  Y18  1  0.459383  0.918767  0.750000  1
  Y  Y19  1  0.081233  0.540617  0.750000  1
  Cd  Cd20  1  0.885216  0.114784  0.250000  1
  Cd  Cd21  1  0.885216  0.770433  0.250000  1
  Cd  Cd22  1  0.229567  0.114784  0.250000  1
  Cd  Cd23  1  0.115034  0.884966  0.750000  1
  Cd  Cd24  1  0.115034  0.230066  0.750000  1
  Cd  Cd25  1  0.769934  0.884966  0.750000  1
  Tc  Tc26  1  0.666667  0.333333  0.750000  1
  Rh  Rh27  1  0.333333  0.666667  0.250000  1
