# generated using pymatgen
data_Tb10Lu2TlCo4Rh
_symmetry_space_group_name_H-M   'P 1'
_cell_length_a   8.29514926
_cell_length_b   8.30996573
_cell_length_c   8.29514800
_cell_angle_alpha   110.96748300
_cell_angle_beta   110.48316210
_cell_angle_gamma   106.92207883
_symmetry_Int_Tables_number   1
_chemical_formula_structural   Tb10Lu2TlCo4Rh
_chemical_formula_sum   'Tb10 Lu2 Tl1 Co4 Rh1'
_cell_volume   439.91131469
_cell_formula_units_Z   1
loop_
 _symmetry_equiv_pos_site_id
 _symmetry_equiv_pos_as_xyz
  1  'x, y, z'
loop_
 _atom_site_type_symbol
 _atom_site_label
 _atom_site_symmetry_multiplicity
 _atom_site_fract_x
 _atom_site_fract_y
 _atom_site_fract_z
 _atom_site_occupancy
  Tb  Tb0  1  0.407580  0.211469  0.192405  1
  Tb  Tb1  1  0.592420  0.788531  0.807595  1
  Tb  Tb2  1  0.019063  0.211469  0.803889  1
  Tb  Tb3  1  0.980937  0.788531  0.196111  1
  Tb  Tb4  1  0.183561  0.288760  0.476659  1
  Tb  Tb5  1  0.816439  0.711240  0.523341  1
  Tb  Tb6  1  0.187899  0.711240  0.894800  1
  Tb  Tb7  1  0.812101  0.288760  0.105200  1
  Tb  Tb8  1  0.315110  0.621962  0.306852  1
  Tb  Tb9  1  0.684890  0.378038  0.693148  1
  Lu  Lu10  1  0.316338  0.007322  0.690984  1
  Lu  Lu11  1  0.683662  0.992678  0.309016  1
  Tl  Tl12  1  0.500000  0.500000  0.000000  1
  Co  Co13  1  0.378721  0.000000  0.378721  1
  Co  Co14  1  0.621279  0.000000  0.621279  1
  Co  Co15  1  0.112439  0.614378  0.501939  1
  Co  Co16  1  0.887561  0.385622  0.498061  1
  Rh  Rh17  1  0.000000  0.000000  0.000000  1
