# generated using pymatgen
data_HfZr3(Sb3As)2
_symmetry_space_group_name_H-M   'P 1'
_cell_length_a   3.78423700
_cell_length_b   10.05787015
_cell_length_c   14.71997470
_cell_angle_alpha   89.88342185
_cell_angle_beta   90.00000000
_cell_angle_gamma   90.00000000
_symmetry_Int_Tables_number   1
_chemical_formula_structural   HfZr3(Sb3As)2
_chemical_formula_sum   'Hf2 Zr6 Sb12 As4'
_cell_volume   560.26116068
_cell_formula_units_Z   2
loop_
 _symmetry_equiv_pos_site_id
 _symmetry_equiv_pos_as_xyz
  1  'x, y, z'
loop_
 _atom_site_type_symbol
 _atom_site_label
 _atom_site_symmetry_multiplicity
 _atom_site_fract_x
 _atom_site_fract_y
 _atom_site_fract_z
 _atom_site_occupancy
  Hf  Hf0  1  0.500000  0.342444  0.005654  1
  Hf  Hf1  1  0.500000  0.657556  0.994346  1
  Zr  Zr2  1  0.500000  0.528254  0.239033  1
  Zr  Zr3  1  0.500000  0.471746  0.760967  1
  Zr  Zr4  1  0.000000  0.028038  0.260615  1
  Zr  Zr5  1  0.000000  0.971962  0.739385  1
  Zr  Zr6  1  0.000000  0.840585  0.494292  1
  Zr  Zr7  1  0.000000  0.159415  0.505708  1
  Sb  Sb8  1  0.000000  0.737032  0.299715  1
  Sb  Sb9  1  0.000000  0.262968  0.700285  1
  Sb  Sb10  1  0.500000  0.237654  0.199654  1
  Sb  Sb11  1  0.500000  0.762346  0.800346  1
  Sb  Sb12  1  0.000000  0.879972  0.942103  1
  Sb  Sb13  1  0.000000  0.120028  0.057897  1
  Sb  Sb14  1  0.500000  0.382094  0.558778  1
  Sb  Sb15  1  0.500000  0.617906  0.441222  1
  Sb  Sb16  1  0.000000  0.651627  0.655436  1
  Sb  Sb17  1  0.000000  0.348373  0.344564  1
  Sb  Sb18  1  0.500000  0.153237  0.845296  1
  Sb  Sb19  1  0.500000  0.846763  0.154704  1
  As  As20  1  0.000000  0.512841  0.098563  1
  As  As21  1  0.000000  0.487159  0.901437  1
  As  As22  1  0.500000  0.012492  0.400713  1
  As  As23  1  0.500000  0.987508  0.599287  1
