# generated using pymatgen
data_Ho12GaCo2Ni2Hg
_symmetry_space_group_name_H-M   'P 1'
_cell_length_a   8.27701976
_cell_length_b   8.27702098
_cell_length_c   8.27702039
_cell_angle_alpha   112.66629437
_cell_angle_beta   109.82650896
_cell_angle_gamma   105.98964124
_symmetry_Int_Tables_number   1
_chemical_formula_structural   Ho12GaCo2Ni2Hg
_chemical_formula_sum   'Ho12 Ga1 Co2 Ni2 Hg1'
_cell_volume   435.03106042
_cell_formula_units_Z   1
loop_
 _symmetry_equiv_pos_site_id
 _symmetry_equiv_pos_as_xyz
  1  'x, y, z'
loop_
 _atom_site_type_symbol
 _atom_site_label
 _atom_site_symmetry_multiplicity
 _atom_site_fract_x
 _atom_site_fract_y
 _atom_site_fract_z
 _atom_site_occupancy
  Ho  Ho0  1  0.959144  0.262893  0.696251  1
  Ho  Ho1  1  0.040856  0.737107  0.303749  1
  Ho  Ho2  1  0.671342  0.859418  0.188074  1
  Ho  Ho3  1  0.328658  0.516733  0.188074  1
  Ho  Ho4  1  0.328658  0.140582  0.811926  1
  Ho  Ho5  1  0.671342  0.483267  0.811926  1
  Ho  Ho6  1  0.566643  0.262893  0.303749  1
  Ho  Ho7  1  0.433357  0.737107  0.696251  1
  Ho  Ho8  1  0.181534  0.777884  0.959418  1
  Ho  Ho9  1  0.818466  0.777884  0.596351  1
  Ho  Ho10  1  0.181534  0.222116  0.403649  1
  Ho  Ho11  1  0.818466  0.222116  0.040582  1
  Ga  Ga12  1  0.000000  0.500000  0.500000  1
  Co  Co13  1  0.663028  0.500000  0.163028  1
  Co  Co14  1  0.336972  0.500000  0.836972  1
  Ni  Ni15  1  0.118290  0.118290  0.000000  1
  Ni  Ni16  1  0.881710  0.881710  0.000000  1
  Hg  Hg17  1  0.500000  0.000000  0.500000  1
