# generated using pymatgen
data_LaHo4(RhO6)2
_symmetry_space_group_name_H-M   'P 1'
_cell_length_a   6.92455188
_cell_length_b   6.92455125
_cell_length_c   7.36160811
_cell_angle_alpha   74.63736913
_cell_angle_beta   74.63737070
_cell_angle_gamma   50.63573637
_symmetry_Int_Tables_number   1
_chemical_formula_structural   LaHo4(RhO6)2
_chemical_formula_sum   'La1 Ho4 Rh2 O12'
_cell_volume   260.91936407
_cell_formula_units_Z   1
loop_
 _symmetry_equiv_pos_site_id
 _symmetry_equiv_pos_as_xyz
  1  'x, y, z'
loop_
 _atom_site_type_symbol
 _atom_site_label
 _atom_site_symmetry_multiplicity
 _atom_site_fract_x
 _atom_site_fract_y
 _atom_site_fract_z
 _atom_site_occupancy
  La  La0  1  0.000000  0.000000  0.500000  1
  Ho  Ho1  1  0.303258  0.303258  0.359243  1
  Ho  Ho2  1  0.696742  0.696742  0.640757  1
  Ho  Ho3  1  0.305587  0.305587  0.833177  1
  Ho  Ho4  1  0.694413  0.694413  0.166823  1
  Rh  Rh5  1  0.749856  0.250144  0.000000  1
  Rh  Rh6  1  0.250144  0.749856  0.000000  1
  O  O7  1  0.898940  0.431747  0.917577  1
  O  O8  1  0.431747  0.898940  0.917577  1
  O  O9  1  0.101060  0.568253  0.082423  1
  O  O10  1  0.568253  0.101060  0.082423  1
  O  O11  1  0.095146  0.584871  0.580079  1
  O  O12  1  0.584871  0.095146  0.580079  1
  O  O13  1  0.904854  0.415129  0.419921  1
  O  O14  1  0.415129  0.904854  0.419921  1
  O  O15  1  0.999935  0.999935  0.825787  1
  O  O16  1  0.000065  0.000065  0.174213  1
  O  O17  1  0.499443  0.499443  0.807664  1
  O  O18  1  0.500557  0.500557  0.192336  1
