# generated using pymatgen
data_Yb3LuAl13Si5Ir6
_symmetry_space_group_name_H-M   'P 1'
_cell_length_a   7.48283608
_cell_length_b   7.44704451
_cell_length_c   9.40757160
_cell_angle_alpha   89.98757327
_cell_angle_beta   90.04920760
_cell_angle_gamma   119.90171821
_symmetry_Int_Tables_number   1
_chemical_formula_structural   Yb3LuAl13Si5Ir6
_chemical_formula_sum   'Yb3 Lu1 Al13 Si5 Ir6'
_cell_volume   454.45137905
_cell_formula_units_Z   1
loop_
 _symmetry_equiv_pos_site_id
 _symmetry_equiv_pos_as_xyz
  1  'x, y, z'
loop_
 _atom_site_type_symbol
 _atom_site_label
 _atom_site_symmetry_multiplicity
 _atom_site_fract_x
 _atom_site_fract_y
 _atom_site_fract_z
 _atom_site_occupancy
  Yb  Yb0  1  0.005484  0.341911  0.749302  1
  Yb  Yb1  1  0.674920  0.007966  0.252340  1
  Yb  Yb2  1  0.319737  0.991121  0.745264  1
  Lu  Lu3  1  0.000428  0.662056  0.253620  1
  Al  Al4  1  0.129506  0.126678  0.250236  1
  Al  Al5  1  0.871208  0.872329  0.750585  1
  Al  Al6  1  0.665072  0.997374  0.578308  1
  Al  Al7  1  0.662588  0.998349  0.923584  1
  Al  Al8  1  0.338746  0.002959  0.072481  1
  Al  Al9  1  0.336366  0.334348  0.559834  1
  Al  Al10  1  0.664358  0.669228  0.438186  1
  Al  Al11  1  0.663715  0.669261  0.060574  1
  Al  Al12  1  0.336221  0.331429  0.940041  1
  Al  Al13  1  0.336042  0.546071  0.250302  1
  Al  Al14  1  0.660336  0.449488  0.750636  1
  Al  Al15  1  0.547235  0.345358  0.250040  1
  Al  Al16  1  0.453438  0.658026  0.749513  1
  Si  Si17  1  0.000932  0.326758  0.068468  1
  Si  Si18  1  0.998487  0.671339  0.932484  1
  Si  Si19  1  0.991391  0.665839  0.572534  1
  Si  Si20  1  0.339451  0.005636  0.421805  1
  Si  Si21  1  0.002956  0.327831  0.428958  1
  Ir  Ir22  1  0.689854  0.339488  0.004909  1
  Ir  Ir23  1  0.310619  0.661372  0.000563  1
  Ir  Ir24  1  0.310577  0.670871  0.498250  1
  Ir  Ir25  1  0.683501  0.332702  0.496358  1
  Ir  Ir26  1  0.000312  0.997677  0.002508  1
  Ir  Ir27  1  0.006524  0.996541  0.498318  1
