# generated using pymatgen
data_NaIn2(Ni10P3)2
_symmetry_space_group_name_H-M   'P 1'
_cell_length_a   7.88936481
_cell_length_b   7.88936466
_cell_length_c   7.88936400
_cell_angle_alpha   59.99999437
_cell_angle_beta   59.99999500
_cell_angle_gamma   59.99999846
_symmetry_Int_Tables_number   1
_chemical_formula_structural   NaIn2(Ni10P3)2
_chemical_formula_sum   'Na1 In2 Ni20 P6'
_cell_volume   347.22503071
_cell_formula_units_Z   1
loop_
 _symmetry_equiv_pos_site_id
 _symmetry_equiv_pos_as_xyz
  1  'x, y, z'
loop_
 _atom_site_type_symbol
 _atom_site_label
 _atom_site_symmetry_multiplicity
 _atom_site_fract_x
 _atom_site_fract_y
 _atom_site_fract_z
 _atom_site_occupancy
  Na  Na0  1  0.000000  0.000000  0.000000  1
  In  In1  1  0.750000  0.750000  0.750000  1
  In  In2  1  0.250000  0.250000  0.250000  1
  Ni  Ni3  1  0.384744  0.845766  0.384744  1
  Ni  Ni4  1  0.384744  0.384744  0.845766  1
  Ni  Ni5  1  0.350560  0.000000  0.649440  1
  Ni  Ni6  1  0.000000  0.350560  0.649440  1
  Ni  Ni7  1  0.154234  0.615256  0.615256  1
  Ni  Ni8  1  0.649440  0.000000  0.000000  1
  Ni  Ni9  1  0.845766  0.384744  0.384744  1
  Ni  Ni10  1  0.649440  0.350560  0.000000  1
  Ni  Ni11  1  0.000000  0.350560  0.000000  1
  Ni  Ni12  1  0.350560  0.649440  0.000000  1
  Ni  Ni13  1  0.000000  0.000000  0.350560  1
  Ni  Ni14  1  0.615256  0.154234  0.615256  1
  Ni  Ni15  1  0.649440  0.000000  0.350560  1
  Ni  Ni16  1  0.000000  0.649440  0.000000  1
  Ni  Ni17  1  0.615256  0.615256  0.154234  1
  Ni  Ni18  1  0.000000  0.649440  0.350560  1
  Ni  Ni19  1  0.350560  0.000000  0.000000  1
  Ni  Ni20  1  0.000000  0.000000  0.649440  1
  Ni  Ni21  1  0.384744  0.384744  0.384744  1
  Ni  Ni22  1  0.615256  0.615256  0.615256  1
  P  P23  1  0.263062  0.263062  0.736938  1
  P  P24  1  0.263062  0.736938  0.263062  1
  P  P25  1  0.736938  0.263062  0.263062  1
  P  P26  1  0.263062  0.736938  0.736938  1
  P  P27  1  0.736938  0.263062  0.736938  1
  P  P28  1  0.736938  0.736938  0.263062  1
