# generated using pymatgen
data_CuReRuO8
_symmetry_space_group_name_H-M   'P 1'
_cell_length_a   5.75816500
_cell_length_b   5.75816560
_cell_length_c   6.68393700
_cell_angle_alpha   90.00000000
_cell_angle_beta   90.00000000
_cell_angle_gamma   120.00001377
_symmetry_Int_Tables_number   1
_chemical_formula_structural   CuReRuO8
_chemical_formula_sum   'Cu1 Re1 Ru1 O8'
_cell_volume   191.92483484
_cell_formula_units_Z   1
loop_
 _symmetry_equiv_pos_site_id
 _symmetry_equiv_pos_as_xyz
  1  'x, y, z'
loop_
 _atom_site_type_symbol
 _atom_site_label
 _atom_site_symmetry_multiplicity
 _atom_site_fract_x
 _atom_site_fract_y
 _atom_site_fract_z
 _atom_site_occupancy
  Cu  Cu0  1  0.000000  0.000000  0.002202  1
  Re  Re1  1  0.666667  0.333333  0.729310  1
  Ru  Ru2  1  0.333333  0.666667  0.270332  1
  O  O3  1  0.666667  0.333333  0.468658  1
  O  O4  1  0.333333  0.666667  0.526810  1
  O  O5  1  0.815599  0.150843  0.817829  1
  O  O6  1  0.150992  0.336439  0.183067  1
  O  O7  1  0.663561  0.814554  0.183067  1
  O  O8  1  0.185446  0.849008  0.183067  1
  O  O9  1  0.849157  0.664756  0.817829  1
  O  O10  1  0.335244  0.184401  0.817829  1
