# generated using pymatgen
data_BaSrCd2Sb3
_symmetry_space_group_name_H-M   'P 1'
_cell_length_a   9.27720020
_cell_length_b   9.27719969
_cell_length_c   13.43090124
_cell_angle_alpha   53.82376569
_cell_angle_beta   53.82376822
_cell_angle_gamma   30.94930946
_symmetry_Int_Tables_number   1
_chemical_formula_structural   BaSrCd2Sb3
_chemical_formula_sum   'Ba2 Sr2 Cd4 Sb6'
_cell_volume   469.93201502
_cell_formula_units_Z   2
loop_
 _symmetry_equiv_pos_site_id
 _symmetry_equiv_pos_as_xyz
  1  'x, y, z'
loop_
 _atom_site_type_symbol
 _atom_site_label
 _atom_site_symmetry_multiplicity
 _atom_site_fract_x
 _atom_site_fract_y
 _atom_site_fract_z
 _atom_site_occupancy
  Ba  Ba0  1  0.403307  0.403307  0.937563  1
  Ba  Ba1  1  0.596693  0.596693  0.062437  1
  Sr  Sr2  1  0.264535  0.264535  0.337129  1
  Sr  Sr3  1  0.735465  0.735465  0.662871  1
  Cd  Cd4  1  0.045672  0.045672  0.686686  1
  Cd  Cd5  1  0.954328  0.954328  0.313314  1
  Cd  Cd6  1  0.407401  0.407401  0.653465  1
  Cd  Cd7  1  0.592599  0.592599  0.346535  1
  Sb  Sb8  1  0.087465  0.087465  0.871223  1
  Sb  Sb9  1  0.912535  0.912535  0.128777  1
  Sb  Sb10  1  0.157242  0.157242  0.196093  1
  Sb  Sb11  1  0.842758  0.842758  0.803907  1
  Sb  Sb12  1  0.378013  0.378013  0.464123  1
  Sb  Sb13  1  0.621987  0.621987  0.535877  1
