# generated using pymatgen
data_Y3Er7GaSb5
_symmetry_space_group_name_H-M   'P 1'
_cell_length_a   8.88233030
_cell_length_b   8.83724962
_cell_length_c   6.33570200
_cell_angle_alpha   90.00000000
_cell_angle_beta   90.00000000
_cell_angle_gamma   119.97807165
_symmetry_Int_Tables_number   1
_chemical_formula_structural   Y3Er7GaSb5
_chemical_formula_sum   'Y3 Er7 Ga1 Sb5'
_cell_volume   430.78972510
_cell_formula_units_Z   1
loop_
 _symmetry_equiv_pos_site_id
 _symmetry_equiv_pos_as_xyz
  1  'x, y, z'
loop_
 _atom_site_type_symbol
 _atom_site_label
 _atom_site_symmetry_multiplicity
 _atom_site_fract_x
 _atom_site_fract_y
 _atom_site_fract_z
 _atom_site_occupancy
  Y  Y0  1  0.011090  0.764685  0.750000  1
  Y  Y1  1  0.999309  0.244053  0.250000  1
  Y  Y2  1  0.754596  0.755553  0.250000  1
  Er  Er3  1  0.749741  0.000062  0.750000  1
  Er  Er4  1  0.247745  0.236538  0.750000  1
  Er  Er5  1  0.245507  0.000122  0.250000  1
  Er  Er6  1  0.335010  0.675466  0.501075  1
  Er  Er7  1  0.659570  0.324567  0.999359  1
  Er  Er8  1  0.659570  0.324567  0.500641  1
  Er  Er9  1  0.335010  0.675466  0.998925  1
  Ga  Ga10  1  0.393492  0.999689  0.750000  1
  Sb  Sb11  1  0.389565  0.391355  0.250000  1
  Sb  Sb12  1  0.997390  0.607787  0.250000  1
  Sb  Sb13  1  0.002007  0.389603  0.750000  1
  Sb  Sb14  1  0.611962  0.610640  0.750000  1
  Sb  Sb15  1  0.608435  0.999848  0.250000  1
