# generated using pymatgen
data_SrCuPRh2
_symmetry_space_group_name_H-M   'P 1'
_cell_length_a   5.74874059
_cell_length_b   5.74874114
_cell_length_c   5.74874078
_cell_angle_alpha   136.85949750
_cell_angle_beta   136.85951253
_cell_angle_gamma   62.65429384
_symmetry_Int_Tables_number   1
_chemical_formula_structural   SrCuPRh2
_chemical_formula_sum   'Sr1 Cu1 P1 Rh2'
_cell_volume   87.73919665
_cell_formula_units_Z   1
loop_
 _symmetry_equiv_pos_site_id
 _symmetry_equiv_pos_as_xyz
  1  'x, y, z'
loop_
 _atom_site_type_symbol
 _atom_site_label
 _atom_site_symmetry_multiplicity
 _atom_site_fract_x
 _atom_site_fract_y
 _atom_site_fract_z
 _atom_site_occupancy
  Sr  Sr0  1  0.008878  0.008878  0.000000  1
  Cu  Cu1  1  0.602843  0.602843  0.000000  1
  P  P2  1  0.359604  0.359604  0.000000  1
  Rh  Rh3  1  0.264338  0.764338  0.500000  1
  Rh  Rh4  1  0.764338  0.264338  0.500000  1
