# generated using pymatgen
data_Ac3P6IN13
_symmetry_space_group_name_H-M   'P 1'
_cell_length_a   7.65658088
_cell_length_b   7.65658006
_cell_length_c   7.65658100
_cell_angle_alpha   109.18844084
_cell_angle_beta   109.18843871
_cell_angle_gamma   109.18843907
_symmetry_Int_Tables_number   1
_chemical_formula_structural   Ac3P6IN13
_chemical_formula_sum   'Ac3 P6 I1 N13'
_cell_volume   349.09826118
_cell_formula_units_Z   1
loop_
 _symmetry_equiv_pos_site_id
 _symmetry_equiv_pos_as_xyz
  1  'x, y, z'
loop_
 _atom_site_type_symbol
 _atom_site_label
 _atom_site_symmetry_multiplicity
 _atom_site_fract_x
 _atom_site_fract_y
 _atom_site_fract_z
 _atom_site_occupancy
  Ac  Ac0  1  0.666892  0.005699  0.005699  1
  Ac  Ac1  1  0.005699  0.005699  0.666892  1
  Ac  Ac2  1  0.005699  0.666892  0.005699  1
  P  P3  1  0.262201  0.761180  0.511306  1
  P  P4  1  0.761180  0.262201  0.511306  1
  P  P5  1  0.761180  0.511306  0.262201  1
  P  P6  1  0.262201  0.511306  0.761180  1
  P  P7  1  0.511306  0.761180  0.262201  1
  P  P8  1  0.511306  0.262201  0.761180  1
  I  I9  1  0.205730  0.205730  0.205730  1
  N  N10  1  0.853346  0.853346  0.853346  1
  N  N11  1  0.735457  0.333812  0.333812  1
  N  N12  1  0.333812  0.735457  0.333812  1
  N  N13  1  0.312499  0.640253  0.640253  1
  N  N14  1  0.640253  0.640253  0.312499  1
  N  N15  1  0.385348  0.701330  0.011909  1
  N  N16  1  0.011909  0.701330  0.385348  1
  N  N17  1  0.640253  0.312499  0.640253  1
  N  N18  1  0.701330  0.011909  0.385348  1
  N  N19  1  0.385348  0.011909  0.701330  1
  N  N20  1  0.701330  0.385348  0.011909  1
  N  N21  1  0.333812  0.333812  0.735457  1
  N  N22  1  0.011909  0.385348  0.701330  1
