# generated using pymatgen
data_PrSmB4(IrOs)2
_symmetry_space_group_name_H-M   'P 1'
_cell_length_a   6.93568503
_cell_length_b   6.08000035
_cell_length_c   5.61378225
_cell_angle_alpha   72.63197736
_cell_angle_beta   56.78887406
_cell_angle_gamma   50.57914223
_symmetry_Int_Tables_number   1
_chemical_formula_structural   PrSmB4(IrOs)2
_chemical_formula_sum   'Pr1 Sm1 B4 Ir2 Os2'
_cell_volume   152.55590300
_cell_formula_units_Z   1
loop_
 _symmetry_equiv_pos_site_id
 _symmetry_equiv_pos_as_xyz
  1  'x, y, z'
loop_
 _atom_site_type_symbol
 _atom_site_label
 _atom_site_symmetry_multiplicity
 _atom_site_fract_x
 _atom_site_fract_y
 _atom_site_fract_z
 _atom_site_occupancy
  Pr  Pr0  1  0.500000  0.500000  0.500000  1
  Sm  Sm1  1  0.750000  0.750000  0.750000  1
  B  B2  1  0.175533  0.824467  0.175533  1
  B  B3  1  0.062090  0.437910  0.062090  1
  B  B4  1  0.824467  0.175533  0.824467  1
  B  B5  1  0.437910  0.062090  0.437910  1
  Ir  Ir6  1  0.383138  0.383138  0.116862  1
  Ir  Ir7  1  0.116862  0.116862  0.383138  1
  Os  Os8  1  0.864539  0.864539  0.135461  1
  Os  Os9  1  0.135461  0.135461  0.864539  1
