# generated using pymatgen
data_Hf18GaRe7SiMo
_symmetry_space_group_name_H-M   'P 1'
_cell_length_a   8.58138313
_cell_length_b   8.58138378
_cell_length_c   8.70829400
_cell_angle_alpha   90.00000000
_cell_angle_beta   90.00000000
_cell_angle_gamma   120.02006679
_symmetry_Int_Tables_number   1
_chemical_formula_structural   Hf18GaRe7SiMo
_chemical_formula_sum   'Hf18 Ga1 Re7 Si1 Mo1'
_cell_volume   555.25244432
_cell_formula_units_Z   1
loop_
 _symmetry_equiv_pos_site_id
 _symmetry_equiv_pos_as_xyz
  1  'x, y, z'
loop_
 _atom_site_type_symbol
 _atom_site_label
 _atom_site_symmetry_multiplicity
 _atom_site_fract_x
 _atom_site_fract_y
 _atom_site_fract_z
 _atom_site_occupancy
  Hf  Hf0  1  0.194412  0.805588  0.452542  1
  Hf  Hf1  1  0.194236  0.388406  0.453036  1
  Hf  Hf2  1  0.611594  0.805764  0.453036  1
  Hf  Hf3  1  0.804628  0.195372  0.547227  1
  Hf  Hf4  1  0.804390  0.609122  0.546839  1
  Hf  Hf5  1  0.390878  0.195610  0.546839  1
  Hf  Hf6  1  0.804628  0.195372  0.952773  1
  Hf  Hf7  1  0.804390  0.609122  0.953161  1
  Hf  Hf8  1  0.390878  0.195610  0.953161  1
  Hf  Hf9  1  0.194412  0.805588  0.047458  1
  Hf  Hf10  1  0.194236  0.388406  0.046964  1
  Hf  Hf11  1  0.611594  0.805764  0.046964  1
  Hf  Hf12  1  0.540410  0.459590  0.250000  1
  Hf  Hf13  1  0.540512  0.080768  0.250000  1
  Hf  Hf14  1  0.919232  0.459488  0.250000  1
  Hf  Hf15  1  0.460682  0.539318  0.750000  1
  Hf  Hf16  1  0.461378  0.921584  0.750000  1
  Hf  Hf17  1  0.078416  0.538622  0.750000  1
  Ga  Ga18  1  0.333408  0.666592  0.250000  1
  Re  Re19  1  0.890596  0.109404  0.250000  1
  Re  Re20  1  0.890306  0.780973  0.250000  1
  Re  Re21  1  0.219027  0.109694  0.250000  1
  Re  Re22  1  0.109539  0.219071  0.750000  1
  Re  Re23  1  0.780929  0.890461  0.750000  1
  Re  Re24  1  0.999809  0.000191  0.499734  1
  Re  Re25  1  0.999809  0.000191  0.000266  1
  Si  Si26  1  0.666781  0.333219  0.750000  1
  Mo  Mo27  1  0.108893  0.891107  0.750000  1
