# generated using pymatgen
data_K(CrS)3
_symmetry_space_group_name_H-M   'P 1'
_cell_length_a   8.72939400
_cell_length_b   8.72939403
_cell_length_c   4.09409600
_cell_angle_alpha   90.00000000
_cell_angle_beta   90.00000000
_cell_angle_gamma   119.99999988
_symmetry_Int_Tables_number   1
_chemical_formula_structural   K(CrS)3
_chemical_formula_sum   'K2 Cr6 S6'
_cell_volume   270.18227066
_cell_formula_units_Z   2
loop_
 _symmetry_equiv_pos_site_id
 _symmetry_equiv_pos_as_xyz
  1  'x, y, z'
loop_
 _atom_site_type_symbol
 _atom_site_label
 _atom_site_symmetry_multiplicity
 _atom_site_fract_x
 _atom_site_fract_y
 _atom_site_fract_z
 _atom_site_occupancy
  K  K0  1  0.333333  0.666667  0.750000  1
  K  K1  1  0.666667  0.333333  0.250000  1
  Cr  Cr2  1  0.968534  0.825038  0.250000  1
  Cr  Cr3  1  0.856504  0.031466  0.250000  1
  Cr  Cr4  1  0.143496  0.968534  0.750000  1
  Cr  Cr5  1  0.031466  0.174962  0.750000  1
  Cr  Cr6  1  0.174962  0.143496  0.250000  1
  Cr  Cr7  1  0.825038  0.856504  0.750000  1
  S  S8  1  0.938849  0.664104  0.750000  1
  S  S9  1  0.061151  0.335896  0.250000  1
  S  S10  1  0.274745  0.938849  0.250000  1
  S  S11  1  0.664104  0.725255  0.250000  1
  S  S12  1  0.335896  0.274745  0.750000  1
  S  S13  1  0.725255  0.061151  0.750000  1
