# generated using pymatgen
data_Ca12LuTi12Cr7O48
_symmetry_space_group_name_H-M   'P 1'
_cell_length_a   10.97329652
_cell_length_b   10.95859493
_cell_length_c   10.95859523
_cell_angle_alpha   109.44403518
_cell_angle_beta   109.49840053
_cell_angle_gamma   109.49839335
_symmetry_Int_Tables_number   1
_chemical_formula_structural   Ca12LuTi12Cr7O48
_chemical_formula_sum   'Ca12 Lu1 Ti12 Cr7 O48'
_cell_volume   1014.09628394
_cell_formula_units_Z   1
loop_
 _symmetry_equiv_pos_site_id
 _symmetry_equiv_pos_as_xyz
  1  'x, y, z'
loop_
 _atom_site_type_symbol
 _atom_site_label
 _atom_site_symmetry_multiplicity
 _atom_site_fract_x
 _atom_site_fract_y
 _atom_site_fract_z
 _atom_site_occupancy
  Ca  Ca0  1  0.244382  0.371052  0.124553  1
  Ca  Ca1  1  0.755618  0.628948  0.875447  1
  Ca  Ca2  1  0.748271  0.123953  0.374926  1
  Ca  Ca3  1  0.124318  0.250973  0.376047  1
  Ca  Ca4  1  0.373330  0.753501  0.128948  1
  Ca  Ca5  1  0.251729  0.876047  0.625074  1
  Ca  Ca6  1  0.875682  0.749027  0.623953  1
  Ca  Ca7  1  0.626670  0.246499  0.871052  1
  Ca  Ca8  1  0.373345  0.125074  0.249027  1
  Ca  Ca9  1  0.626655  0.874926  0.750973  1
  Ca  Ca10  1  0.119829  0.375447  0.746499  1
  Ca  Ca11  1  0.880171  0.624553  0.253501  1
  Lu  Lu12  1  0.500000  0.500000  0.000000  1
  Ti  Ti13  1  0.249780  0.624352  0.374530  1
  Ti  Ti14  1  0.750220  0.375648  0.625470  1
  Ti  Ti15  1  0.756128  0.881690  0.126574  1
  Ti  Ti16  1  0.374438  0.244884  0.618310  1
  Ti  Ti17  1  0.625562  0.755116  0.381690  1
  Ti  Ti18  1  0.243872  0.118310  0.873426  1
  Ti  Ti19  1  0.125429  0.750178  0.875648  1
  Ti  Ti20  1  0.874571  0.249822  0.124352  1
  Ti  Ti21  1  0.629554  0.373426  0.255116  1
  Ti  Ti22  1  0.370446  0.626574  0.744884  1
  Ti  Ti23  1  0.875250  0.125470  0.749822  1
  Ti  Ti24  1  0.124750  0.874530  0.250178  1
  Cr  Cr25  1  0.000000  0.000000  0.000000  1
  Cr  Cr26  1  0.500000  0.000000  0.500000  1
  Cr  Cr27  1  0.000000  0.500000  0.500000  1
  Cr  Cr28  1  0.500000  0.000000  0.000000  1
  Cr  Cr29  1  0.500000  0.500000  0.500000  1
  Cr  Cr30  1  0.000000  0.000000  0.500000  1
  Cr  Cr31  1  0.000000  0.500000  0.000000  1
  O  O32  1  0.484716  0.383193  0.300651  1
  O  O33  1  0.515284  0.616807  0.699349  1
  O  O34  1  0.582127  0.178893  0.202612  1
  O  O35  1  0.918933  0.117873  0.600314  1
  O  O36  1  0.301060  0.482441  0.382127  1
  O  O37  1  0.318483  0.919186  0.300469  1
  O  O38  1  0.417873  0.821107  0.797388  1
  O  O39  1  0.081067  0.882127  0.399686  1
  O  O40  1  0.698940  0.517559  0.617873  1
  O  O41  1  0.681517  0.080814  0.699531  1
  O  O42  1  0.015748  0.318445  0.898875  1
  O  O43  1  0.197303  0.580429  0.181555  1
  O  O44  1  0.115033  0.015095  0.198249  1
  O  O45  1  0.984252  0.681555  0.101125  1
  O  O46  1  0.802697  0.419571  0.818445  1
  O  O47  1  0.884967  0.984905  0.801751  1
  O  O48  1  0.601523  0.917458  0.116807  1
  O  O49  1  0.179158  0.479564  0.594901  1
  O  O50  1  0.398477  0.082542  0.883193  1
  O  O51  1  0.820842  0.520436  0.405099  1
  O  O52  1  0.903233  0.023719  0.321107  1
  O  O53  1  0.372213  0.587188  0.894702  1
  O  O54  1  0.096767  0.976281  0.678893  1
  O  O55  1  0.627787  0.412812  0.105298  1
  O  O56  1  0.379515  0.297388  0.476281  1
  O  O57  1  0.584257  0.905099  0.384662  1
  O  O58  1  0.620485  0.702612  0.523719  1
  O  O59  1  0.415743  0.094901  0.615338  1
  O  O60  1  0.116873  0.601125  0.919571  1
  O  O61  1  0.018014  0.199531  0.118718  1
  O  O62  1  0.883127  0.398875  0.080429  1
  O  O63  1  0.981986  0.800469  0.881282  1
  O  O64  1  0.318619  0.899686  0.017559  1
  O  O65  1  0.916784  0.301751  0.316846  1
  O  O66  1  0.681381  0.100314  0.982441  1
  O  O67  1  0.083216  0.698249  0.683154  1
  O  O68  1  0.184065  0.199349  0.582542  1
  O  O69  1  0.477511  0.605298  0.192486  1
  O  O70  1  0.815935  0.800651  0.417458  1
  O  O71  1  0.522489  0.394702  0.807514  1
  O  O72  1  0.285025  0.307514  0.912812  1
  O  O73  1  0.714975  0.692486  0.087188  1
  O  O74  1  0.199594  0.115338  0.020436  1
  O  O75  1  0.800406  0.884662  0.979564  1
  O  O76  1  0.899297  0.381282  0.580814  1
  O  O77  1  0.100703  0.618718  0.419186  1
  O  O78  1  0.599938  0.183154  0.484905  1
  O  O79  1  0.400062  0.816846  0.515095  1
