# generated using pymatgen
data_Y4Sc4B24Os3Ru
_symmetry_space_group_name_H-M   'P 1'
_cell_length_a   3.57197700
_cell_length_b   8.97781709
_cell_length_c   11.36863775
_cell_angle_alpha   89.98713344
_cell_angle_beta   90.00000000
_cell_angle_gamma   90.00000000
_symmetry_Int_Tables_number   1
_chemical_formula_structural   Y4Sc4B24Os3Ru
_chemical_formula_sum   'Y4 Sc4 B24 Os3 Ru1'
_cell_volume   364.57578872
_cell_formula_units_Z   1
loop_
 _symmetry_equiv_pos_site_id
 _symmetry_equiv_pos_as_xyz
  1  'x, y, z'
loop_
 _atom_site_type_symbol
 _atom_site_label
 _atom_site_symmetry_multiplicity
 _atom_site_fract_x
 _atom_site_fract_y
 _atom_site_fract_z
 _atom_site_occupancy
  Y  Y0  1  0.000000  0.319736  0.414329  1
  Y  Y1  1  0.000000  0.680590  0.585981  1
  Y  Y2  1  0.000000  0.819648  0.085663  1
  Y  Y3  1  0.000000  0.180148  0.914002  1
  Sc  Sc4  1  0.000000  0.945202  0.374363  1
  Sc  Sc5  1  0.000000  0.055137  0.625882  1
  Sc  Sc6  1  0.000000  0.444999  0.125678  1
  Sc  Sc7  1  0.000000  0.554915  0.874125  1
  B  B8  1  0.500000  0.555078  0.432840  1
  B  B9  1  0.500000  0.445276  0.567462  1
  B  B10  1  0.500000  0.054813  0.067168  1
  B  B11  1  0.500000  0.945017  0.932410  1
  B  B12  1  0.500000  0.753134  0.418777  1
  B  B13  1  0.500000  0.246870  0.581315  1
  B  B14  1  0.500000  0.252888  0.081231  1
  B  B15  1  0.500000  0.746770  0.918605  1
  B  B16  1  0.500000  0.793373  0.265468  1
  B  B17  1  0.500000  0.206459  0.734369  1
  B  B18  1  0.500000  0.293375  0.234416  1
  B  B19  1  0.500000  0.706915  0.765875  1
  B  B20  1  0.500000  0.628754  0.182677  1
  B  B21  1  0.500000  0.371126  0.817254  1
  B  B22  1  0.500000  0.128789  0.317286  1
  B  B23  1  0.500000  0.871391  0.682736  1
  B  B24  1  0.500000  0.981685  0.214616  1
  B  B25  1  0.500000  0.017968  0.785175  1
  B  B26  1  0.500000  0.481789  0.285440  1
  B  B27  1  0.500000  0.518411  0.714825  1
  B  B28  1  0.500000  0.599814  0.026846  1
  B  B29  1  0.500000  0.399951  0.972859  1
  B  B30  1  0.500000  0.099773  0.473070  1
  B  B31  1  0.500000  0.900085  0.527207  1
  Os  Os32  1  0.000000  0.639763  0.318526  1
  Os  Os33  1  0.000000  0.360325  0.681293  1
  Os  Os34  1  0.000000  0.139837  0.181593  1
  Ru  Ru35  1  0.000000  0.860195  0.818639  1
