# generated using pymatgen
data_Eu4Sc(AlSb3)2
_symmetry_space_group_name_H-M   'P 1'
_cell_length_a   4.43632300
_cell_length_b   7.56525200
_cell_length_c   22.97412600
_cell_angle_alpha   90.00000000
_cell_angle_beta   90.00000000
_cell_angle_gamma   90.00000000
_symmetry_Int_Tables_number   1
_chemical_formula_structural   Eu4Sc(AlSb3)2
_chemical_formula_sum   'Eu8 Sc2 Al4 Sb12'
_cell_volume   771.05535268
_cell_formula_units_Z   2
loop_
 _symmetry_equiv_pos_site_id
 _symmetry_equiv_pos_as_xyz
  1  'x, y, z'
loop_
 _atom_site_type_symbol
 _atom_site_label
 _atom_site_symmetry_multiplicity
 _atom_site_fract_x
 _atom_site_fract_y
 _atom_site_fract_z
 _atom_site_occupancy
  Eu  Eu0  1  0.000000  0.468267  0.918089  1
  Eu  Eu1  1  0.000000  0.279124  0.746411  1
  Eu  Eu2  1  0.000000  0.779124  0.753589  1
  Eu  Eu3  1  0.000000  0.531733  0.081911  1
  Eu  Eu4  1  0.000000  0.968267  0.581911  1
  Eu  Eu5  1  0.000000  0.720876  0.253589  1
  Eu  Eu6  1  0.000000  0.031733  0.418089  1
  Eu  Eu7  1  0.000000  0.220876  0.246411  1
  Sc  Sc8  1  0.000000  0.000000  0.000000  1
  Sc  Sc9  1  0.000000  0.500000  0.500000  1
  Al  Al10  1  0.500000  0.829717  0.881141  1
  Al  Al11  1  0.500000  0.170283  0.118859  1
  Al  Al12  1  0.500000  0.670283  0.381141  1
  Al  Al13  1  0.500000  0.329717  0.618859  1
  Sb  Sb14  1  0.500000  0.764653  0.496122  1
  Sb  Sb15  1  0.000000  0.462175  0.368449  1
  Sb  Sb16  1  0.000000  0.962175  0.131551  1
  Sb  Sb17  1  0.500000  0.526612  0.814194  1
  Sb  Sb18  1  0.500000  0.473388  0.185806  1
  Sb  Sb19  1  0.000000  0.037825  0.868449  1
  Sb  Sb20  1  0.000000  0.537825  0.631551  1
  Sb  Sb21  1  0.500000  0.973388  0.314194  1
  Sb  Sb22  1  0.500000  0.235347  0.503878  1
  Sb  Sb23  1  0.500000  0.026612  0.685806  1
  Sb  Sb24  1  0.500000  0.264653  0.003878  1
  Sb  Sb25  1  0.500000  0.735347  0.996122  1
