# generated using pymatgen
data_ZnAg3(TeO4)4
_symmetry_space_group_name_H-M   'P 1'
_cell_length_a   4.93311630
_cell_length_b   5.60983241
_cell_length_c   11.19605644
_cell_angle_alpha   91.81391094
_cell_angle_beta   91.24533148
_cell_angle_gamma   90.01220275
_symmetry_Int_Tables_number   1
_chemical_formula_structural   ZnAg3(TeO4)4
_chemical_formula_sum   'Zn1 Ag3 Te4 O16'
_cell_volume   309.61063787
_cell_formula_units_Z   1
loop_
 _symmetry_equiv_pos_site_id
 _symmetry_equiv_pos_as_xyz
  1  'x, y, z'
loop_
 _atom_site_type_symbol
 _atom_site_label
 _atom_site_symmetry_multiplicity
 _atom_site_fract_x
 _atom_site_fract_y
 _atom_site_fract_z
 _atom_site_occupancy
  Zn  Zn0  1  0.000000  0.000000  0.000000  1
  Ag  Ag1  1  0.000000  0.000000  0.500000  1
  Ag  Ag2  1  0.500000  0.500000  0.500000  1
  Ag  Ag3  1  0.500000  0.500000  0.000000  1
  Te  Te4  1  0.453934  0.190141  0.752660  1
  Te  Te5  1  0.041385  0.309152  0.246219  1
  Te  Te6  1  0.958615  0.690848  0.753781  1
  Te  Te7  1  0.546066  0.809859  0.247340  1
  O  O8  1  0.302796  0.202449  0.908982  1
  O  O9  1  0.697204  0.797551  0.091018  1
  O  O10  1  0.615627  0.206535  0.598448  1
  O  O11  1  0.797406  0.708516  0.594490  1
  O  O12  1  0.776490  0.074905  0.313168  1
  O  O13  1  0.814651  0.572441  0.308969  1
  O  O14  1  0.313710  0.534179  0.183379  1
  O  O15  1  0.734206  0.969411  0.815846  1
  O  O16  1  0.686290  0.465821  0.816621  1
  O  O17  1  0.121688  0.717138  0.908318  1
  O  O18  1  0.223510  0.925095  0.686832  1
  O  O19  1  0.384373  0.793465  0.401552  1
  O  O20  1  0.185349  0.427559  0.691031  1
  O  O21  1  0.202594  0.291484  0.405510  1
  O  O22  1  0.878312  0.282862  0.091682  1
  O  O23  1  0.265794  0.030589  0.184154  1
