# generated using pymatgen
data_MgNp3O10
_symmetry_space_group_name_H-M   'P 1'
_cell_length_a   5.57817020
_cell_length_b   5.61117063
_cell_length_c   7.56993597
_cell_angle_alpha   69.95173866
_cell_angle_beta   71.40974168
_cell_angle_gamma   72.92775266
_symmetry_Int_Tables_number   1
_chemical_formula_structural   MgNp3O10
_chemical_formula_sum   'Mg1 Np3 O10'
_cell_volume   206.39987658
_cell_formula_units_Z   1
loop_
 _symmetry_equiv_pos_site_id
 _symmetry_equiv_pos_as_xyz
  1  'x, y, z'
loop_
 _atom_site_type_symbol
 _atom_site_label
 _atom_site_symmetry_multiplicity
 _atom_site_fract_x
 _atom_site_fract_y
 _atom_site_fract_z
 _atom_site_occupancy
  Mg  Mg0  1  0.500000  0.500000  0.500000  1
  Np  Np1  1  0.959080  0.024870  0.267907  1
  Np  Np2  1  0.500000  0.500000  0.000000  1
  Np  Np3  1  0.040920  0.975130  0.732093  1
  O  O4  1  0.412818  0.587469  0.756252  1
  O  O5  1  0.265072  0.199403  0.632497  1
  O  O6  1  0.734928  0.800597  0.367503  1
  O  O7  1  0.186403  0.255976  0.146619  1
  O  O8  1  0.587182  0.412531  0.243748  1
  O  O9  1  0.813597  0.744024  0.853381  1
  O  O10  1  0.208810  0.808820  0.036332  1
  O  O11  1  0.819027  0.194131  0.536692  1
  O  O12  1  0.791190  0.191180  0.963668  1
  O  O13  1  0.180973  0.805869  0.463308  1
