# generated using pymatgen
data_LaHf8(In2Co)7
_symmetry_space_group_name_H-M   'P 1'
_cell_length_a   9.48657976
_cell_length_b   9.48658049
_cell_length_c   9.48658000
_cell_angle_alpha   60.00000170
_cell_angle_beta   59.99999917
_cell_angle_gamma   60.00000600
_symmetry_Int_Tables_number   1
_chemical_formula_structural   LaHf8(In2Co)7
_chemical_formula_sum   'La1 Hf8 In14 Co7'
_cell_volume   603.69010370
_cell_formula_units_Z   1
loop_
 _symmetry_equiv_pos_site_id
 _symmetry_equiv_pos_as_xyz
  1  'x, y, z'
loop_
 _atom_site_type_symbol
 _atom_site_label
 _atom_site_symmetry_multiplicity
 _atom_site_fract_x
 _atom_site_fract_y
 _atom_site_fract_z
 _atom_site_occupancy
  La  La0  1  0.500000  0.500000  0.500000  1
  Hf  Hf1  1  0.119006  0.642981  0.119006  1
  Hf  Hf2  1  0.357019  0.880994  0.880994  1
  Hf  Hf3  1  0.880994  0.880994  0.880994  1
  Hf  Hf4  1  0.642981  0.119006  0.119006  1
  Hf  Hf5  1  0.880994  0.880994  0.357019  1
  Hf  Hf6  1  0.119006  0.119006  0.119006  1
  Hf  Hf7  1  0.880994  0.357019  0.880994  1
  Hf  Hf8  1  0.119006  0.119006  0.642981  1
  In  In9  1  0.500000  0.847670  0.152330  1
  In  In10  1  0.500000  0.847670  0.500000  1
  In  In11  1  0.500000  0.152330  0.500000  1
  In  In12  1  0.500000  0.500000  0.847670  1
  In  In13  1  0.152330  0.500000  0.500000  1
  In  In14  1  0.847670  0.152330  0.500000  1
  In  In15  1  0.152330  0.847670  0.500000  1
  In  In16  1  0.500000  0.152330  0.847670  1
  In  In17  1  0.152330  0.500000  0.847670  1
  In  In18  1  0.500000  0.500000  0.152330  1
  In  In19  1  0.847670  0.500000  0.500000  1
  In  In20  1  0.847670  0.500000  0.152330  1
  In  In21  1  0.250000  0.250000  0.250000  1
  In  In22  1  0.750000  0.750000  0.750000  1
  Co  Co23  1  0.781472  0.781472  0.218528  1
  Co  Co24  1  0.000000  0.000000  0.000000  1
  Co  Co25  1  0.218528  0.781472  0.218528  1
  Co  Co26  1  0.218528  0.781472  0.781472  1
  Co  Co27  1  0.218528  0.218528  0.781472  1
  Co  Co28  1  0.781472  0.218528  0.781472  1
  Co  Co29  1  0.781472  0.218528  0.218528  1
