# generated using pymatgen
data_Yb4Re2B16OsRu
_symmetry_space_group_name_H-M   'P 1'
_cell_length_a   3.54411600
_cell_length_b   5.97486509
_cell_length_c   11.55190751
_cell_angle_alpha   89.85745055
_cell_angle_beta   90.00000000
_cell_angle_gamma   90.00000000
_symmetry_Int_Tables_number   1
_chemical_formula_structural   Yb4Re2B16OsRu
_chemical_formula_sum   'Yb4 Re2 B16 Os1 Ru1'
_cell_volume   244.61798823
_cell_formula_units_Z   1
loop_
 _symmetry_equiv_pos_site_id
 _symmetry_equiv_pos_as_xyz
  1  'x, y, z'
loop_
 _atom_site_type_symbol
 _atom_site_label
 _atom_site_symmetry_multiplicity
 _atom_site_fract_x
 _atom_site_fract_y
 _atom_site_fract_z
 _atom_site_occupancy
  Yb  Yb0  1  0.000000  0.128533  0.649152  1
  Yb  Yb1  1  0.000000  0.870642  0.350940  1
  Yb  Yb2  1  0.000000  0.628910  0.848215  1
  Yb  Yb3  1  0.000000  0.371581  0.151534  1
  Re  Re4  1  0.000000  0.130349  0.915675  1
  Re  Re5  1  0.000000  0.870052  0.084309  1
  B  B6  1  0.500000  0.475846  0.691500  1
  B  B7  1  0.500000  0.524143  0.308704  1
  B  B8  1  0.500000  0.976008  0.806388  1
  B  B9  1  0.500000  0.023775  0.193574  1
  B  B10  1  0.500000  0.286606  0.814223  1
  B  B11  1  0.500000  0.713433  0.185625  1
  B  B12  1  0.500000  0.784339  0.684353  1
  B  B13  1  0.500000  0.215594  0.315564  1
  B  B14  1  0.500000  0.366372  0.967885  1
  B  B15  1  0.500000  0.633795  0.032017  1
  B  B16  1  0.500000  0.863988  0.530838  1
  B  B17  1  0.500000  0.136106  0.469505  1
  B  B18  1  0.500000  0.387441  0.547526  1
  B  B19  1  0.500000  0.612878  0.452770  1
  B  B20  1  0.500000  0.884774  0.952047  1
  B  B21  1  0.500000  0.115432  0.047938  1
  Os  Os22  1  0.000000  0.363856  0.413247  1
  Ru  Ru23  1  0.000000  0.635546  0.586469  1
