# generated using pymatgen
data_U4Cr4(P2Ru)3
_symmetry_space_group_name_H-M   'P 1'
_cell_length_a   6.91610092
_cell_length_b   6.91610105
_cell_length_c   6.91610017
_cell_angle_alpha   109.17910324
_cell_angle_beta   109.46940527
_cell_angle_gamma   109.76568281
_symmetry_Int_Tables_number   1
_chemical_formula_structural   U4Cr4(P2Ru)3
_chemical_formula_sum   'U4 Cr4 P6 Ru3'
_cell_volume   254.65409442
_cell_formula_units_Z   1
loop_
 _symmetry_equiv_pos_site_id
 _symmetry_equiv_pos_as_xyz
  1  'x, y, z'
loop_
 _atom_site_type_symbol
 _atom_site_label
 _atom_site_symmetry_multiplicity
 _atom_site_fract_x
 _atom_site_fract_y
 _atom_site_fract_z
 _atom_site_occupancy
  U  U0  1  0.994974  0.992083  0.494983  1
  U  U1  1  0.502901  0.007917  0.002891  1
  U  U2  1  0.994974  0.499990  0.002891  1
  U  U3  1  0.502901  0.500010  0.494983  1
  Cr  Cr4  1  0.750446  0.500000  0.250446  1
  Cr  Cr5  1  0.499845  0.750167  0.250012  1
  Cr  Cr6  1  0.499845  0.249833  0.749677  1
  Cr  Cr7  1  0.001352  0.000000  0.001352  1
  P  P8  1  0.311476  0.000000  0.311476  1
  P  P9  1  0.997729  0.307353  0.305082  1
  P  P10  1  0.997729  0.692647  0.690375  1
  P  P11  1  0.319021  0.316046  0.002975  1
  P  P12  1  0.686929  0.683954  0.002975  1
  P  P13  1  0.689788  0.000000  0.689788  1
  Ru  Ru14  1  0.749580  0.249805  0.499775  1
  Ru  Ru15  1  0.249970  0.750195  0.499775  1
  Ru  Ru16  1  0.250543  0.500000  0.750543  1
