# generated using pymatgen
data_Sc12In(IrBr8)2
_symmetry_space_group_name_H-M   'P 1'
_cell_length_a   9.18375593
_cell_length_b   11.18216830
_cell_length_c   11.81702880
_cell_angle_alpha   116.97881011
_cell_angle_beta   101.99339335
_cell_angle_gamma   101.55558538
_symmetry_Int_Tables_number   1
_chemical_formula_structural   Sc12In(IrBr8)2
_chemical_formula_sum   'Sc12 In1 Ir2 Br16'
_cell_volume   995.63352887
_cell_formula_units_Z   1
loop_
 _symmetry_equiv_pos_site_id
 _symmetry_equiv_pos_as_xyz
  1  'x, y, z'
loop_
 _atom_site_type_symbol
 _atom_site_label
 _atom_site_symmetry_multiplicity
 _atom_site_fract_x
 _atom_site_fract_y
 _atom_site_fract_z
 _atom_site_occupancy
  Sc  Sc0  1  0.093292  0.249068  0.345414  1
  Sc  Sc1  1  0.906708  0.750932  0.654586  1
  Sc  Sc2  1  0.762435  0.538906  0.314755  1
  Sc  Sc3  1  0.237565  0.461094  0.685245  1
  Sc  Sc4  1  0.299593  0.751678  0.654312  1
  Sc  Sc5  1  0.700407  0.248322  0.345688  1
  Sc  Sc6  1  0.154763  0.537978  0.315131  1
  Sc  Sc7  1  0.845237  0.462022  0.684869  1
  Sc  Sc8  1  0.401882  0.352220  0.264406  1
  Sc  Sc9  1  0.598118  0.647780  0.735594  1
  Sc  Sc10  1  0.456224  0.299459  0.521119  1
  Sc  Sc11  1  0.543776  0.700541  0.478881  1
  In  In12  1  0.000000  0.500000  0.500000  1
  Ir  Ir13  1  0.343293  0.499882  0.499050  1
  Ir  Ir14  1  0.656708  0.500118  0.500950  1
  Br  Br15  1  0.403973  0.743969  0.887910  1
  Br  Br16  1  0.596027  0.256031  0.112090  1
  Br  Br17  1  0.188284  0.961940  0.781918  1
  Br  Br18  1  0.811716  0.038060  0.218082  1
  Br  Br19  1  0.337503  0.088913  0.246986  1
  Br  Br20  1  0.662497  0.911087  0.753014  1
  Br  Br21  1  0.554179  0.437485  0.802866  1
  Br  Br22  1  0.445821  0.562515  0.197134  1
  Br  Br23  1  0.315685  0.830094  0.462171  1
  Br  Br24  1  0.684315  0.169906  0.537829  1
  Br  Br25  1  0.171357  0.167453  0.532467  1
  Br  Br26  1  0.828643  0.832547  0.467533  1
  Br  Br27  1  0.927144  0.574562  0.163133  1
  Br  Br28  1  0.072856  0.425438  0.836867  1
  Br  Br29  1  0.919189  0.742937  0.888687  1
  Br  Br30  1  0.080811  0.257063  0.111313  1
