# generated using pymatgen
data_TmAlCu5
_symmetry_space_group_name_H-M   'P 1'
_cell_length_a   5.11018107
_cell_length_b   5.11018094
_cell_length_c   5.11018103
_cell_angle_alpha   103.19007458
_cell_angle_beta   103.19006851
_cell_angle_gamma   122.93147391
_symmetry_Int_Tables_number   1
_chemical_formula_structural   TmAlCu5
_chemical_formula_sum   'Tm1 Al1 Cu5'
_cell_volume   98.39987466
_cell_formula_units_Z   1
loop_
 _symmetry_equiv_pos_site_id
 _symmetry_equiv_pos_as_xyz
  1  'x, y, z'
loop_
 _atom_site_type_symbol
 _atom_site_label
 _atom_site_symmetry_multiplicity
 _atom_site_fract_x
 _atom_site_fract_y
 _atom_site_fract_z
 _atom_site_occupancy
  Tm  Tm0  1  0.000000  0.000000  0.000000  1
  Al  Al1  1  0.250000  0.750000  0.500000  1
  Cu  Cu2  1  0.692678  0.307322  0.000000  1
  Cu  Cu3  1  0.307322  0.692678  0.000000  1
  Cu  Cu4  1  0.307322  0.307322  0.614645  1
  Cu  Cu5  1  0.692678  0.692678  0.385355  1
  Cu  Cu6  1  0.750000  0.250000  0.500000  1
