# generated using pymatgen
data_Dy3ErMnGa12
_symmetry_space_group_name_H-M   'P 1'
_cell_length_a   7.46517920
_cell_length_b   7.46517867
_cell_length_c   7.47361100
_cell_angle_alpha   109.49410650
_cell_angle_beta   109.49410505
_cell_angle_gamma   109.44832030
_symmetry_Int_Tables_number   1
_chemical_formula_structural   Dy3ErMnGa12
_chemical_formula_sum   'Dy3 Er1 Mn1 Ga12'
_cell_volume   320.52826613
_cell_formula_units_Z   1
loop_
 _symmetry_equiv_pos_site_id
 _symmetry_equiv_pos_as_xyz
  1  'x, y, z'
loop_
 _atom_site_type_symbol
 _atom_site_label
 _atom_site_symmetry_multiplicity
 _atom_site_fract_x
 _atom_site_fract_y
 _atom_site_fract_z
 _atom_site_occupancy
  Dy  Dy0  1  0.000000  0.500000  0.000000  1
  Dy  Dy1  1  0.500000  0.000000  0.000000  1
  Dy  Dy2  1  0.500000  0.500000  0.500000  1
  Er  Er3  1  0.000000  0.000000  0.500000  1
  Mn  Mn4  1  0.000000  0.000000  0.000000  1
  Ga  Ga5  1  0.750148  0.249852  0.500000  1
  Ga  Ga6  1  0.750148  0.500295  0.250148  1
  Ga  Ga7  1  0.499705  0.249852  0.749852  1
  Ga  Ga8  1  0.249852  0.499705  0.749852  1
  Ga  Ga9  1  0.249852  0.750148  0.500000  1
  Ga  Ga10  1  0.500295  0.750148  0.250148  1
  Ga  Ga11  1  0.714003  0.714003  0.000227  1
  Ga  Ga12  1  0.285997  0.000000  0.286224  1
  Ga  Ga13  1  0.000000  0.285997  0.286224  1
  Ga  Ga14  1  0.285997  0.285997  0.999773  1
  Ga  Ga15  1  0.714003  0.000000  0.713776  1
  Ga  Ga16  1  0.000000  0.714003  0.713776  1
