# generated using pymatgen
data_NaCdInF6
_symmetry_space_group_name_H-M   'P 1'
_cell_length_a   5.07485500
_cell_length_b   5.07485500
_cell_length_c   10.15253800
_cell_angle_alpha   90.00000000
_cell_angle_beta   90.00000000
_cell_angle_gamma   90.00000000
_symmetry_Int_Tables_number   1
_chemical_formula_structural   NaCdInF6
_chemical_formula_sum   'Na2 Cd2 In2 F12'
_cell_volume   261.47001974
_cell_formula_units_Z   2
loop_
 _symmetry_equiv_pos_site_id
 _symmetry_equiv_pos_as_xyz
  1  'x, y, z'
loop_
 _atom_site_type_symbol
 _atom_site_label
 _atom_site_symmetry_multiplicity
 _atom_site_fract_x
 _atom_site_fract_y
 _atom_site_fract_z
 _atom_site_occupancy
  Na  Na0  1  0.500000  0.500000  0.832038  1
  Na  Na1  1  0.000000  0.000000  0.332038  1
  Cd  Cd2  1  0.500000  0.500000  0.500321  1
  Cd  Cd3  1  0.000000  0.000000  0.000321  1
  In  In4  1  0.500000  0.500000  0.166471  1
  In  In5  1  0.000000  0.000000  0.666471  1
  F  F6  1  0.191439  0.808561  0.510396  1
  F  F7  1  0.808561  0.191439  0.510396  1
  F  F8  1  0.691439  0.691439  0.010396  1
  F  F9  1  0.308561  0.308561  0.010396  1
  F  F10  1  0.191059  0.808941  0.823421  1
  F  F11  1  0.808941  0.191059  0.823421  1
  F  F12  1  0.691059  0.691059  0.323421  1
  F  F13  1  0.308941  0.308941  0.323421  1
  F  F14  1  0.791511  0.208489  0.164818  1
  F  F15  1  0.208489  0.791511  0.164818  1
  F  F16  1  0.291511  0.291511  0.664818  1
  F  F17  1  0.708489  0.708489  0.664818  1
