# generated using pymatgen
data_Yb2ScV2Si7Pt9
_symmetry_space_group_name_H-M   'P 1'
_cell_length_a   9.92371737
_cell_length_b   9.93727984
_cell_length_c   3.92556300
_cell_angle_alpha   90.00000000
_cell_angle_beta   90.00000000
_cell_angle_gamma   119.98617375
_symmetry_Int_Tables_number   1
_chemical_formula_structural   Yb2ScV2Si7Pt9
_chemical_formula_sum   'Yb2 Sc1 V2 Si7 Pt9'
_cell_volume   335.30110170
_cell_formula_units_Z   1
loop_
 _symmetry_equiv_pos_site_id
 _symmetry_equiv_pos_as_xyz
  1  'x, y, z'
loop_
 _atom_site_type_symbol
 _atom_site_label
 _atom_site_symmetry_multiplicity
 _atom_site_fract_x
 _atom_site_fract_y
 _atom_site_fract_z
 _atom_site_occupancy
  Yb  Yb0  1  0.997782  0.997112  0.000000  1
  Yb  Yb1  1  0.332045  0.668187  0.500000  1
  Sc  Sc2  1  0.545441  0.433092  0.500000  1
  V  V3  1  0.886567  0.453303  0.500000  1
  V  V4  1  0.573340  0.114745  0.500000  1
  Si  Si5  1  0.243970  0.200562  0.500000  1
  Si  Si6  1  0.789654  0.046461  0.500000  1
  Si  Si7  1  0.955725  0.740461  0.500000  1
  Si  Si8  1  0.550827  0.642081  0.000000  1
  Si  Si9  1  0.367211  0.919385  0.000000  1
  Si  Si10  1  0.083097  0.449974  0.000000  1
  Si  Si11  1  0.670197  0.328472  0.000000  1
  Pt  Pt12  1  0.226048  0.941838  0.500000  1
  Pt  Pt13  1  0.055209  0.282681  0.500000  1
  Pt  Pt14  1  0.719908  0.777051  0.500000  1
  Pt  Pt15  1  0.304620  0.407286  0.000000  1
  Pt  Pt16  1  0.596999  0.903810  0.000000  1
  Pt  Pt17  1  0.100426  0.696694  0.000000  1
  Pt  Pt18  1  0.391135  0.175203  0.000000  1
  Pt  Pt19  1  0.826960  0.215362  0.000000  1
  Pt  Pt20  1  0.782837  0.606244  0.000000  1
