# generated using pymatgen
data_HfZr5(SiTc)6
_symmetry_space_group_name_H-M   'P 1'
_cell_length_a   7.79728585
_cell_length_b   7.79159685
_cell_length_c   7.79728528
_cell_angle_alpha   126.64411858
_cell_angle_beta   127.73327374
_cell_angle_gamma   77.96284144
_symmetry_Int_Tables_number   1
_chemical_formula_structural   HfZr5(SiTc)6
_chemical_formula_sum   'Hf1 Zr5 Si6 Tc6'
_cell_volume   291.28661238
_cell_formula_units_Z   1
loop_
 _symmetry_equiv_pos_site_id
 _symmetry_equiv_pos_as_xyz
  1  'x, y, z'
loop_
 _atom_site_type_symbol
 _atom_site_label
 _atom_site_symmetry_multiplicity
 _atom_site_fract_x
 _atom_site_fract_y
 _atom_site_fract_z
 _atom_site_occupancy
  Hf  Hf0  1  0.950651  0.655275  0.204624  1
  Zr  Zr1  1  0.452777  0.659851  0.707074  1
  Zr  Zr2  1  0.547088  0.254854  0.207766  1
  Zr  Zr3  1  0.749093  0.847020  0.597927  1
  Zr  Zr4  1  0.251374  0.849446  0.098073  1
  Zr  Zr5  1  0.048543  0.254251  0.705708  1
  Si  Si6  1  0.250958  0.253896  0.502938  1
  Si  Si7  1  0.748771  0.251091  0.002321  1
  Si  Si8  1  0.330454  0.587560  0.251934  1
  Si  Si9  1  0.669480  0.919826  0.255262  1
  Si  Si10  1  0.164564  0.919826  0.750346  1
  Si  Si11  1  0.835626  0.587560  0.757106  1
  Tc  Tc12  1  0.501352  0.506856  0.007264  1
  Tc  Tc13  1  0.999592  0.506856  0.505504  1
  Tc  Tc14  1  0.125550  0.254099  0.125438  1
  Tc  Tc15  1  0.874675  0.998617  0.127826  1
  Tc  Tc16  1  0.370791  0.998617  0.623942  1
  Tc  Tc17  1  0.628663  0.254099  0.628551  1
