# generated using pymatgen
data_YbBi2F12
_symmetry_space_group_name_H-M   'P 1'
_cell_length_a   5.41968328
_cell_length_b   5.93231452
_cell_length_c   9.29402280
_cell_angle_alpha   105.00000143
_cell_angle_beta   90.95543089
_cell_angle_gamma   116.74032265
_symmetry_Int_Tables_number   1
_chemical_formula_structural   YbBi2F12
_chemical_formula_sum   'Yb1 Bi2 F12'
_cell_volume   254.67666865
_cell_formula_units_Z   1
loop_
 _symmetry_equiv_pos_site_id
 _symmetry_equiv_pos_as_xyz
  1  'x, y, z'
loop_
 _atom_site_type_symbol
 _atom_site_label
 _atom_site_symmetry_multiplicity
 _atom_site_fract_x
 _atom_site_fract_y
 _atom_site_fract_z
 _atom_site_occupancy
  Yb  Yb0  1  0.500000  0.500000  0.500000  1
  Bi  Bi1  1  0.272583  0.016057  0.768164  1
  Bi  Bi2  1  0.727417  0.983943  0.231836  1
  F  F3  1  0.764982  0.769483  0.370252  1
  F  F4  1  0.235018  0.230517  0.629748  1
  F  F5  1  0.312321  0.747480  0.212078  1
  F  F6  1  0.302211  0.766915  0.871214  1
  F  F7  1  0.697789  0.233085  0.128786  1
  F  F8  1  0.843945  0.772063  0.695026  1
  F  F9  1  0.156055  0.227937  0.304974  1
  F  F10  1  0.302043  0.764621  0.570316  1
  F  F11  1  0.697957  0.235379  0.429684  1
  F  F12  1  0.197152  0.236284  0.947766  1
  F  F13  1  0.802848  0.763716  0.052234  1
  F  F14  1  0.687679  0.252520  0.787922  1
