# generated using pymatgen
data_Y4TmIrRu
_symmetry_space_group_name_H-M   'P 1'
_cell_length_a   6.43192237
_cell_length_b   7.26015963
_cell_length_c   8.49482812
_cell_angle_alpha   96.51280346
_cell_angle_beta   112.24567232
_cell_angle_gamma   89.99999387
_symmetry_Int_Tables_number   1
_chemical_formula_structural   Y4TmIrRu
_chemical_formula_sum   'Y8 Tm2 Ir2 Ru2'
_cell_volume   364.38847839
_cell_formula_units_Z   2
loop_
 _symmetry_equiv_pos_site_id
 _symmetry_equiv_pos_as_xyz
  1  'x, y, z'
loop_
 _atom_site_type_symbol
 _atom_site_label
 _atom_site_symmetry_multiplicity
 _atom_site_fract_x
 _atom_site_fract_y
 _atom_site_fract_z
 _atom_site_occupancy
  Y  Y0  1  0.970694  0.915896  0.181457  1
  Y  Y1  1  0.789236  0.584104  0.818543  1
  Y  Y2  1  0.026929  0.081320  0.817219  1
  Y  Y3  1  0.209712  0.418680  0.182781  1
  Y  Y4  1  0.651969  0.816643  0.437821  1
  Y  Y5  1  0.214148  0.683357  0.562179  1
  Y  Y6  1  0.350919  0.181532  0.563079  1
  Y  Y7  1  0.787840  0.318468  0.436921  1
  Tm  Tm8  1  0.426186  0.750000  0.000000  1
  Tm  Tm9  1  0.573119  0.250000  0.000000  1
  Ir  Ir10  1  0.178158  0.425531  0.783626  1
  Ir  Ir11  1  0.394531  0.074469  0.216374  1
  Ru  Ru12  1  0.820953  0.571896  0.215347  1
  Ru  Ru13  1  0.605606  0.928104  0.784653  1
