# generated using pymatgen
data_Li7Dy8CdSn8
_symmetry_space_group_name_H-M   'P 1'
_cell_length_a   9.45158900
_cell_length_b   9.44089724
_cell_length_c   7.28683256
_cell_angle_alpha   90.06516744
_cell_angle_beta   90.00000000
_cell_angle_gamma   120.03747319
_symmetry_Int_Tables_number   1
_chemical_formula_structural   Li7Dy8CdSn8
_chemical_formula_sum   'Li7 Dy8 Cd1 Sn8'
_cell_volume   562.88934802
_cell_formula_units_Z   1
loop_
 _symmetry_equiv_pos_site_id
 _symmetry_equiv_pos_as_xyz
  1  'x, y, z'
loop_
 _atom_site_type_symbol
 _atom_site_label
 _atom_site_symmetry_multiplicity
 _atom_site_fract_x
 _atom_site_fract_y
 _atom_site_fract_z
 _atom_site_occupancy
  Li  Li0  1  0.164242  0.832146  0.290032  1
  Li  Li1  1  0.667904  0.832146  0.290032  1
  Li  Li2  1  0.833157  0.666315  0.790972  1
  Li  Li3  1  0.831893  0.166048  0.788898  1
  Li  Li4  1  0.334155  0.166048  0.788898  1
  Li  Li5  1  0.333363  0.666728  0.674178  1
  Li  Li6  1  0.668912  0.337824  0.171393  1
  Dy  Dy7  1  0.511623  0.023245  0.497103  1
  Dy  Dy8  1  0.516324  0.489738  0.494853  1
  Dy  Dy9  1  0.973415  0.489738  0.494853  1
  Dy  Dy10  1  0.488509  0.977018  0.988828  1
  Dy  Dy11  1  0.488482  0.512343  0.992477  1
  Dy  Dy12  1  0.023861  0.512343  0.992477  1
  Dy  Dy13  1  0.997010  0.994020  0.502820  1
  Dy  Dy14  1  0.000586  0.001173  0.999579  1
  Cd  Cd15  1  0.166512  0.333023  0.296554  1
  Sn  Sn16  1  0.166121  0.332241  0.735293  1
  Sn  Sn17  1  0.165638  0.832161  0.728618  1
  Sn  Sn18  1  0.666523  0.832161  0.728618  1
  Sn  Sn19  1  0.833745  0.667489  0.230382  1
  Sn  Sn20  1  0.822511  0.161665  0.224510  1
  Sn  Sn21  1  0.339154  0.161665  0.224510  1
  Sn  Sn22  1  0.339342  0.678685  0.255943  1
  Sn  Sn23  1  0.667020  0.334039  0.760173  1
