# generated using pymatgen
data_La3Pr13Cd4IrPd3
_symmetry_space_group_name_H-M   'P 1'
_cell_length_a   10.13022513
_cell_length_b   10.10948483
_cell_length_c   10.10948500
_cell_angle_alpha   60.00000271
_cell_angle_beta   60.06770601
_cell_angle_gamma   60.06770721
_symmetry_Int_Tables_number   1
_chemical_formula_structural   La3Pr13Cd4IrPd3
_chemical_formula_sum   'La3 Pr13 Cd4 Ir1 Pd3'
_cell_volume   732.83441832
_cell_formula_units_Z   1
loop_
 _symmetry_equiv_pos_site_id
 _symmetry_equiv_pos_as_xyz
  1  'x, y, z'
loop_
 _atom_site_type_symbol
 _atom_site_label
 _atom_site_symmetry_multiplicity
 _atom_site_fract_x
 _atom_site_fract_y
 _atom_site_fract_z
 _atom_site_occupancy
  La  La0  1  0.350321  0.346622  0.346622  1
  La  La1  1  0.350321  0.346622  0.956436  1
  La  La2  1  0.350321  0.956436  0.346622  1
  Pr  Pr3  1  0.938540  0.353820  0.353820  1
  Pr  Pr4  1  0.806862  0.189761  0.189761  1
  Pr  Pr5  1  0.197532  0.806597  0.806597  1
  Pr  Pr6  1  0.197532  0.806597  0.189275  1
  Pr  Pr7  1  0.806862  0.189761  0.813618  1
  Pr  Pr8  1  0.197532  0.189275  0.806597  1
  Pr  Pr9  1  0.806862  0.813618  0.189761  1
  Pr  Pr10  1  0.937034  0.565219  0.565219  1
  Pr  Pr11  1  0.569541  0.935187  0.935187  1
  Pr  Pr12  1  0.569541  0.935187  0.560085  1
  Pr  Pr13  1  0.937034  0.565219  0.932528  1
  Pr  Pr14  1  0.569541  0.560085  0.935187  1
  Pr  Pr15  1  0.937034  0.932528  0.565219  1
  Cd  Cd16  1  0.577437  0.580772  0.580772  1
  Cd  Cd17  1  0.577437  0.580772  0.261019  1
  Cd  Cd18  1  0.577437  0.261019  0.580772  1
  Cd  Cd19  1  0.262679  0.579107  0.579107  1
  Ir  Ir20  1  0.569322  0.143559  0.143559  1
  Pd  Pd21  1  0.137757  0.145116  0.145116  1
  Pd  Pd22  1  0.137757  0.145116  0.572009  1
  Pd  Pd23  1  0.137757  0.572009  0.145116  1
