# generated using pymatgen
data_Dy3P6(Pd7Rh3)2
_symmetry_space_group_name_H-M   'P 1'
_cell_length_a   8.61659341
_cell_length_b   8.62630196
_cell_length_c   8.62630100
_cell_angle_alpha   59.99999984
_cell_angle_beta   59.96272101
_cell_angle_gamma   59.96271782
_symmetry_Int_Tables_number   1
_chemical_formula_structural   Dy3P6(Pd7Rh3)2
_chemical_formula_sum   'Dy3 P6 Pd14 Rh6'
_cell_volume   453.13218824
_cell_formula_units_Z   1
loop_
 _symmetry_equiv_pos_site_id
 _symmetry_equiv_pos_as_xyz
  1  'x, y, z'
loop_
 _atom_site_type_symbol
 _atom_site_label
 _atom_site_symmetry_multiplicity
 _atom_site_fract_x
 _atom_site_fract_y
 _atom_site_fract_z
 _atom_site_occupancy
  Dy  Dy0  1  0.260255  0.246582  0.246582  1
  Dy  Dy1  1  0.739745  0.753418  0.753418  1
  Dy  Dy2  1  0.000000  0.000000  0.000000  1
  P  P3  1  0.721757  0.273343  0.273343  1
  P  P4  1  0.278243  0.726657  0.726657  1
  P  P5  1  0.278243  0.726657  0.268443  1
  P  P6  1  0.721757  0.273343  0.731557  1
  P  P7  1  0.278243  0.268443  0.726657  1
  P  P8  1  0.721757  0.731557  0.273343  1
  Pd  Pd9  1  0.856189  0.381271  0.381271  1
  Pd  Pd10  1  0.143811  0.618729  0.618729  1
  Pd  Pd11  1  0.342482  0.001067  0.001067  1
  Pd  Pd12  1  0.657518  0.998933  0.998933  1
  Pd  Pd13  1  0.000000  0.343030  0.656970  1
  Pd  Pd14  1  0.000000  0.656970  0.343030  1
  Pd  Pd15  1  0.000000  0.343030  0.000000  1
  Pd  Pd16  1  0.657518  0.998933  0.344616  1
  Pd  Pd17  1  0.000000  0.656970  0.000000  1
  Pd  Pd18  1  0.342482  0.001067  0.655384  1
  Pd  Pd19  1  0.000000  0.000000  0.343030  1
  Pd  Pd20  1  0.000000  0.000000  0.656970  1
  Pd  Pd21  1  0.657518  0.344616  0.998933  1
  Pd  Pd22  1  0.342482  0.655384  0.001067  1
  Rh  Rh23  1  0.382011  0.387193  0.387193  1
  Rh  Rh24  1  0.617989  0.612807  0.612807  1
  Rh  Rh25  1  0.382011  0.387193  0.843603  1
  Rh  Rh26  1  0.382011  0.843603  0.387193  1
  Rh  Rh27  1  0.617989  0.612807  0.156397  1
  Rh  Rh28  1  0.617989  0.156397  0.612807  1
