# generated using pymatgen
data_U2Co12Si4P3
_symmetry_space_group_name_H-M   'P 1'
_cell_length_a   9.09240700
_cell_length_b   9.09240710
_cell_length_c   3.59073000
_cell_angle_alpha   90.00000000
_cell_angle_beta   90.00000000
_cell_angle_gamma   120.00000036
_symmetry_Int_Tables_number   1
_chemical_formula_structural   U2Co12Si4P3
_chemical_formula_sum   'U2 Co12 Si4 P3'
_cell_volume   257.08167466
_cell_formula_units_Z   1
loop_
 _symmetry_equiv_pos_site_id
 _symmetry_equiv_pos_as_xyz
  1  'x, y, z'
loop_
 _atom_site_type_symbol
 _atom_site_label
 _atom_site_symmetry_multiplicity
 _atom_site_fract_x
 _atom_site_fract_y
 _atom_site_fract_z
 _atom_site_occupancy
  U  U0  1  0.333333  0.666667  0.000000  1
  U  U1  1  0.666667  0.333333  0.500000  1
  Co  Co2  1  0.443383  0.380132  0.000000  1
  Co  Co3  1  0.619868  0.063251  0.000000  1
  Co  Co4  1  0.936749  0.556617  0.000000  1
  Co  Co5  1  0.147662  0.866646  0.000000  1
  Co  Co6  1  0.133354  0.281015  0.000000  1
  Co  Co7  1  0.718985  0.852338  0.000000  1
  Co  Co8  1  0.377904  0.937282  0.500000  1
  Co  Co9  1  0.062718  0.440622  0.500000  1
  Co  Co10  1  0.559378  0.622096  0.500000  1
  Co  Co11  1  0.231435  0.127117  0.500000  1
  Co  Co12  1  0.872883  0.104318  0.500000  1
  Co  Co13  1  0.895682  0.768565  0.500000  1
  Si  Si14  1  0.393811  0.108488  0.000000  1
  Si  Si15  1  0.891512  0.285323  0.000000  1
  Si  Si16  1  0.714677  0.606189  0.000000  1
  Si  Si17  1  0.000000  0.000000  0.000000  1
  P  P18  1  0.104633  0.705127  0.500000  1
  P  P19  1  0.294873  0.399505  0.500000  1
  P  P20  1  0.600495  0.895367  0.500000  1
