# generated using pymatgen
data_Lu5TiCo5
_symmetry_space_group_name_H-M   'P 1'
_cell_length_a   5.47433748
_cell_length_b   5.47433785
_cell_length_c   20.45140500
_cell_angle_alpha   90.00000000
_cell_angle_beta   90.00000000
_cell_angle_gamma   138.85275413
_symmetry_Int_Tables_number   1
_chemical_formula_structural   Lu5TiCo5
_chemical_formula_sum   'Lu10 Ti2 Co10'
_cell_volume   403.28292602
_cell_formula_units_Z   2
loop_
 _symmetry_equiv_pos_site_id
 _symmetry_equiv_pos_as_xyz
  1  'x, y, z'
loop_
 _atom_site_type_symbol
 _atom_site_label
 _atom_site_symmetry_multiplicity
 _atom_site_fract_x
 _atom_site_fract_y
 _atom_site_fract_z
 _atom_site_occupancy
  Lu  Lu0  1  0.289975  0.710025  0.250000  1
  Lu  Lu1  1  0.291695  0.708305  0.068373  1
  Lu  Lu2  1  0.995038  0.004962  0.840049  1
  Lu  Lu3  1  0.710025  0.289975  0.750000  1
  Lu  Lu4  1  0.708305  0.291695  0.568373  1
  Lu  Lu5  1  0.004962  0.995038  0.340049  1
  Lu  Lu6  1  0.995038  0.004962  0.659951  1
  Lu  Lu7  1  0.708305  0.291695  0.931627  1
  Lu  Lu8  1  0.004962  0.995038  0.159951  1
  Lu  Lu9  1  0.291695  0.708305  0.431627  1
  Ti  Ti10  1  0.000000  0.000000  0.500000  1
  Ti  Ti11  1  0.000000  0.000000  0.000000  1
  Co  Co12  1  0.292592  0.707408  0.654313  1
  Co  Co13  1  0.580861  0.419139  0.441436  1
  Co  Co14  1  0.411944  0.588056  0.750000  1
  Co  Co15  1  0.419139  0.580861  0.941436  1
  Co  Co16  1  0.588056  0.411944  0.250000  1
  Co  Co17  1  0.419139  0.580861  0.558564  1
  Co  Co18  1  0.707408  0.292592  0.345687  1
  Co  Co19  1  0.707408  0.292592  0.154313  1
  Co  Co20  1  0.580861  0.419139  0.058564  1
  Co  Co21  1  0.292592  0.707408  0.845687  1
