# generated using pymatgen
data_BaRh2F12
_symmetry_space_group_name_H-M   'P 1'
_cell_length_a   5.62771557
_cell_length_b   5.73410835
_cell_length_c   9.59645855
_cell_angle_alpha   97.61268600
_cell_angle_beta   94.78925806
_cell_angle_gamma   119.00811750
_symmetry_Int_Tables_number   1
_chemical_formula_structural   BaRh2F12
_chemical_formula_sum   'Ba1 Rh2 F12'
_cell_volume   264.51417039
_cell_formula_units_Z   1
loop_
 _symmetry_equiv_pos_site_id
 _symmetry_equiv_pos_as_xyz
  1  'x, y, z'
loop_
 _atom_site_type_symbol
 _atom_site_label
 _atom_site_symmetry_multiplicity
 _atom_site_fract_x
 _atom_site_fract_y
 _atom_site_fract_z
 _atom_site_occupancy
  Ba  Ba0  1  0.002641  0.976315  0.940717  1
  Rh  Rh1  1  0.222996  0.503619  0.599352  1
  Rh  Rh2  1  0.372023  0.689092  0.124446  1
  F  F3  1  0.225842  0.886210  0.221721  1
  F  F4  1  0.563806  0.668151  0.731980  1
  F  F5  1  0.034084  0.511631  0.984352  1
  F  F6  1  0.202979  0.387312  0.216387  1
  F  F7  1  0.500175  0.485525  0.004805  1
  F  F8  1  0.329416  0.280550  0.495959  1
  F  F9  1  0.708365  0.858106  0.249528  1
  F  F10  1  0.122891  0.735214  0.712870  1
  F  F11  1  0.887369  0.344080  0.475489  1
  F  F12  1  0.057142  0.236371  0.716253  1
  F  F13  1  0.391493  0.772853  0.492563  1
  F  F14  1  0.526777  0.974971  0.011575  1
