# generated using pymatgen
data_Pr5Ho3S11Cl
_symmetry_space_group_name_H-M   'P 1'
_cell_length_a   3.99263500
_cell_length_b   10.68824824
_cell_length_c   11.00298000
_cell_angle_alpha   90.13852962
_cell_angle_beta   90.00000000
_cell_angle_gamma   90.00000000
_symmetry_Int_Tables_number   1
_chemical_formula_structural   Pr5Ho3S11Cl
_chemical_formula_sum   'Pr5 Ho3 S11 Cl1'
_cell_volume   469.54281106
_cell_formula_units_Z   1
loop_
 _symmetry_equiv_pos_site_id
 _symmetry_equiv_pos_as_xyz
  1  'x, y, z'
loop_
 _atom_site_type_symbol
 _atom_site_label
 _atom_site_symmetry_multiplicity
 _atom_site_fract_x
 _atom_site_fract_y
 _atom_site_fract_z
 _atom_site_occupancy
  Pr  Pr0  1  0.250000  0.984326  0.809068  1
  Pr  Pr1  1  0.750000  0.996825  0.188877  1
  Pr  Pr2  1  0.750000  0.520414  0.692873  1
  Pr  Pr3  1  0.250000  0.506287  0.308667  1
  Pr  Pr4  1  0.250000  0.183787  0.482038  1
  Ho  Ho5  1  0.750000  0.817025  0.505752  1
  Ho  Ho6  1  0.750000  0.681952  0.012272  1
  Ho  Ho7  1  0.250000  0.309992  0.003705  1
  S  S8  1  0.750000  0.703930  0.268470  1
  S  S9  1  0.750000  0.789254  0.770646  1
  S  S10  1  0.250000  0.198522  0.224114  1
  S  S11  1  0.250000  0.941544  0.380223  1
  S  S12  1  0.750000  0.049930  0.622320  1
  S  S13  1  0.750000  0.445121  0.117809  1
  S  S14  1  0.250000  0.546716  0.891278  1
  S  S15  1  0.250000  0.860508  0.042360  1
  S  S16  1  0.750000  0.137130  0.949371  1
  S  S17  1  0.750000  0.377303  0.459919  1
  S  S18  1  0.250000  0.642168  0.543641  1
  Cl  Cl19  1  0.250000  0.307263  0.726596  1
