# generated using pymatgen
data_Ti2AlIr5
_symmetry_space_group_name_H-M   'P 1'
_cell_length_a   3.99625900
_cell_length_b   5.41473200
_cell_length_c   10.76211700
_cell_angle_alpha   90.00000000
_cell_angle_beta   90.00000000
_cell_angle_gamma   90.00000000
_symmetry_Int_Tables_number   1
_chemical_formula_structural   Ti2AlIr5
_chemical_formula_sum   'Ti4 Al2 Ir10'
_cell_volume   232.87791427
_cell_formula_units_Z   2
loop_
 _symmetry_equiv_pos_site_id
 _symmetry_equiv_pos_as_xyz
  1  'x, y, z'
loop_
 _atom_site_type_symbol
 _atom_site_label
 _atom_site_symmetry_multiplicity
 _atom_site_fract_x
 _atom_site_fract_y
 _atom_site_fract_z
 _atom_site_occupancy
  Ti  Ti0  1  0.500000  0.313539  0.138535  1
  Ti  Ti1  1  0.500000  0.686461  0.861465  1
  Ti  Ti2  1  0.500000  0.813539  0.361465  1
  Ti  Ti3  1  0.500000  0.186461  0.638535  1
  Al  Al4  1  0.000000  0.000000  0.000000  1
  Al  Al5  1  0.000000  0.500000  0.500000  1
  Ir  Ir6  1  0.000000  0.000000  0.500000  1
  Ir  Ir7  1  0.000000  0.500000  0.000000  1
  Ir  Ir8  1  0.000000  0.059046  0.250616  1
  Ir  Ir9  1  0.000000  0.940954  0.749384  1
  Ir  Ir10  1  0.000000  0.559046  0.249384  1
  Ir  Ir11  1  0.000000  0.440954  0.750616  1
  Ir  Ir12  1  0.500000  0.305860  0.388385  1
  Ir  Ir13  1  0.500000  0.694140  0.611615  1
  Ir  Ir14  1  0.500000  0.805860  0.111615  1
  Ir  Ir15  1  0.500000  0.194140  0.888385  1
