# generated using pymatgen
data_Y2AlNi5(BIr)2
_symmetry_space_group_name_H-M   'P 1'
_cell_length_a   5.28459197
_cell_length_b   5.28459230
_cell_length_c   6.95545500
_cell_angle_alpha   90.00000000
_cell_angle_beta   90.00000000
_cell_angle_gamma   123.21473657
_symmetry_Int_Tables_number   1
_chemical_formula_structural   Y2AlNi5(BIr)2
_chemical_formula_sum   'Y2 Al1 Ni5 B2 Ir2'
_cell_volume   162.50941525
_cell_formula_units_Z   1
loop_
 _symmetry_equiv_pos_site_id
 _symmetry_equiv_pos_as_xyz
  1  'x, y, z'
loop_
 _atom_site_type_symbol
 _atom_site_label
 _atom_site_symmetry_multiplicity
 _atom_site_fract_x
 _atom_site_fract_y
 _atom_site_fract_z
 _atom_site_occupancy
  Y  Y0  1  0.999853  0.000147  0.500000  1
  Y  Y1  1  0.994763  0.005237  0.000000  1
  Al  Al2  1  0.315137  0.684863  0.000000  1
  Ni  Ni3  1  0.686067  0.313933  0.000000  1
  Ni  Ni4  1  0.500257  0.000606  0.300093  1
  Ni  Ni5  1  0.999394  0.499743  0.300093  1
  Ni  Ni6  1  0.500257  0.000606  0.699907  1
  Ni  Ni7  1  0.999394  0.499743  0.699907  1
  B  B8  1  0.664852  0.335148  0.500000  1
  B  B9  1  0.338108  0.661892  0.500000  1
  Ir  Ir10  1  0.500960  0.499040  0.278056  1
  Ir  Ir11  1  0.500960  0.499040  0.721944  1
