# generated using pymatgen
data_Cs4Li2ScAlAs4
_symmetry_space_group_name_H-M   'P 1'
_cell_length_a   10.04056827
_cell_length_b   10.04056837
_cell_length_c   10.04056851
_cell_angle_alpha   141.32847044
_cell_angle_beta   55.18582227
_cell_angle_gamma   142.20193452
_symmetry_Int_Tables_number   1
_chemical_formula_structural   Cs4Li2ScAlAs4
_chemical_formula_sum   'Cs4 Li2 Sc1 Al1 As4'
_cell_volume   384.83368645
_cell_formula_units_Z   1
loop_
 _symmetry_equiv_pos_site_id
 _symmetry_equiv_pos_as_xyz
  1  'x, y, z'
loop_
 _atom_site_type_symbol
 _atom_site_label
 _atom_site_symmetry_multiplicity
 _atom_site_fract_x
 _atom_site_fract_y
 _atom_site_fract_z
 _atom_site_occupancy
  Cs  Cs0  1  0.334447  0.772941  0.104602  1
  Cs  Cs1  1  0.165553  0.270156  0.438494  1
  Cs  Cs2  1  0.831661  0.727058  0.561506  1
  Cs  Cs3  1  0.668339  0.229844  0.895398  1
  Li  Li4  1  0.750001  0.250001  0.500000  1
  Li  Li5  1  0.250001  0.750001  0.500000  1
  Sc  Sc6  1  0.250001  0.250001  0.000000  1
  Al  Al7  1  0.750000  0.750000  0.000000  1
  As  As8  1  0.911403  0.217195  0.150119  1
  As  As9  1  0.588596  0.738715  0.305791  1
  As  As10  1  0.432924  0.282805  0.694210  1
  As  As11  1  0.067076  0.761285  0.849881  1
