# generated using pymatgen
data_NdEr2Mn(Co4P3)2
_symmetry_space_group_name_H-M   'P 1'
_cell_length_a   3.70973700
_cell_length_b   10.57853300
_cell_length_c   12.25386300
_cell_angle_alpha   90.00000000
_cell_angle_beta   90.00000000
_cell_angle_gamma   90.00000000
_symmetry_Int_Tables_number   1
_chemical_formula_structural   NdEr2Mn(Co4P3)2
_chemical_formula_sum   'Nd2 Er4 Mn2 Co16 P12'
_cell_volume   480.88539506
_cell_formula_units_Z   2
loop_
 _symmetry_equiv_pos_site_id
 _symmetry_equiv_pos_as_xyz
  1  'x, y, z'
loop_
 _atom_site_type_symbol
 _atom_site_label
 _atom_site_symmetry_multiplicity
 _atom_site_fract_x
 _atom_site_fract_y
 _atom_site_fract_z
 _atom_site_occupancy
  Nd  Nd0  1  0.750000  0.250000  0.477080  1
  Nd  Nd1  1  0.250000  0.750000  0.522920  1
  Er  Er2  1  0.250000  0.931735  0.796351  1
  Er  Er3  1  0.250000  0.568265  0.796351  1
  Er  Er4  1  0.750000  0.068265  0.203649  1
  Er  Er5  1  0.750000  0.431735  0.203649  1
  Mn  Mn6  1  0.250000  0.250000  0.843388  1
  Mn  Mn7  1  0.750000  0.750000  0.156612  1
  Co  Co8  1  0.250000  0.250000  0.293585  1
  Co  Co9  1  0.750000  0.750000  0.706415  1
  Co  Co10  1  0.750000  0.250000  0.013301  1
  Co  Co11  1  0.250000  0.750000  0.986699  1
  Co  Co12  1  0.250000  0.417022  0.006163  1
  Co  Co13  1  0.250000  0.082978  0.006163  1
  Co  Co14  1  0.750000  0.582978  0.993837  1
  Co  Co15  1  0.750000  0.917022  0.993837  1
  Co  Co16  1  0.250000  0.454222  0.571161  1
  Co  Co17  1  0.250000  0.045778  0.571161  1
  Co  Co18  1  0.750000  0.545778  0.428839  1
  Co  Co19  1  0.750000  0.954222  0.428839  1
  Co  Co20  1  0.250000  0.870607  0.287714  1
  Co  Co21  1  0.250000  0.629393  0.287714  1
  Co  Co22  1  0.750000  0.129393  0.712286  1
  Co  Co23  1  0.750000  0.370607  0.712286  1
  P  P24  1  0.250000  0.250000  0.116289  1
  P  P25  1  0.750000  0.750000  0.883711  1
  P  P26  1  0.250000  0.250000  0.659768  1
  P  P27  1  0.750000  0.750000  0.340232  1
  P  P28  1  0.250000  0.441766  0.381538  1
  P  P29  1  0.250000  0.058234  0.381538  1
  P  P30  1  0.750000  0.558234  0.618462  1
  P  P31  1  0.750000  0.941766  0.618462  1
  P  P32  1  0.250000  0.903081  0.106417  1
  P  P33  1  0.250000  0.596919  0.106417  1
  P  P34  1  0.750000  0.096919  0.893583  1
  P  P35  1  0.750000  0.403081  0.893583  1
