# generated using pymatgen
data_Er2Ni14(PH)3
_symmetry_space_group_name_H-M   'P 1'
_cell_length_a   6.20630139
_cell_length_b   6.20630240
_cell_length_c   6.20630155
_cell_angle_alpha   83.61150724
_cell_angle_beta   83.61150796
_cell_angle_gamma   83.61150310
_symmetry_Int_Tables_number   1
_chemical_formula_structural   Er2Ni14(PH)3
_chemical_formula_sum   'Er2 Ni14 P3 H3'
_cell_volume   234.90925735
_cell_formula_units_Z   1
loop_
 _symmetry_equiv_pos_site_id
 _symmetry_equiv_pos_as_xyz
  1  'x, y, z'
loop_
 _atom_site_type_symbol
 _atom_site_label
 _atom_site_symmetry_multiplicity
 _atom_site_fract_x
 _atom_site_fract_y
 _atom_site_fract_z
 _atom_site_occupancy
  Er  Er0  1  0.649941  0.649941  0.649941  1
  Er  Er1  1  0.350059  0.350059  0.350059  1
  Ni  Ni2  1  0.290941  0.709059  0.000000  1
  Ni  Ni3  1  0.709059  0.000000  0.290941  1
  Ni  Ni4  1  0.000000  0.290941  0.709059  1
  Ni  Ni5  1  0.290941  0.000000  0.709059  1
  Ni  Ni6  1  0.000000  0.709059  0.290941  1
  Ni  Ni7  1  0.709059  0.290941  0.000000  1
  Ni  Ni8  1  0.341908  0.341908  0.865158  1
  Ni  Ni9  1  0.341908  0.865158  0.341908  1
  Ni  Ni10  1  0.865158  0.341908  0.341908  1
  Ni  Ni11  1  0.658092  0.658092  0.134842  1
  Ni  Ni12  1  0.658092  0.134842  0.658092  1
  Ni  Ni13  1  0.134842  0.658092  0.658092  1
  Ni  Ni14  1  0.899058  0.899058  0.899058  1
  Ni  Ni15  1  0.100942  0.100942  0.100942  1
  P  P16  1  0.000000  0.000000  0.500000  1
  P  P17  1  0.000000  0.500000  0.000000  1
  P  P18  1  0.500000  0.000000  0.000000  1
  H  H19  1  0.500000  0.500000  0.000000  1
  H  H20  1  0.500000  0.000000  0.500000  1
  H  H21  1  0.000000  0.500000  0.500000  1
