# generated using pymatgen
data_La2Ho2ErRu2
_symmetry_space_group_name_H-M   'P 1'
_cell_length_a   6.50401063
_cell_length_b   7.23795768
_cell_length_c   8.75754649
_cell_angle_alpha   96.41371917
_cell_angle_beta   111.79812724
_cell_angle_gamma   89.99999903
_symmetry_Int_Tables_number   1
_chemical_formula_structural   La2Ho2ErRu2
_chemical_formula_sum   'La4 Ho4 Er2 Ru4'
_cell_volume   380.00968459
_cell_formula_units_Z   2
loop_
 _symmetry_equiv_pos_site_id
 _symmetry_equiv_pos_as_xyz
  1  'x, y, z'
loop_
 _atom_site_type_symbol
 _atom_site_label
 _atom_site_symmetry_multiplicity
 _atom_site_fract_x
 _atom_site_fract_y
 _atom_site_fract_z
 _atom_site_occupancy
  La  La0  1  0.979446  0.910332  0.194757  1
  La  La1  1  0.784688  0.589668  0.805243  1
  La  La2  1  0.021367  0.088686  0.805760  1
  La  La3  1  0.215608  0.411314  0.194240  1
  Ho  Ho4  1  0.365275  0.185008  0.569384  1
  Ho  Ho5  1  0.795892  0.314992  0.430616  1
  Ho  Ho6  1  0.425932  0.750000  0.000000  1
  Ho  Ho7  1  0.574543  0.250000  0.000000  1
  Er  Er8  1  0.633397  0.815429  0.430265  1
  Er  Er9  1  0.203131  0.684571  0.569735  1
  Ru  Ru10  1  0.826803  0.581359  0.226290  1
  Ru  Ru11  1  0.600513  0.918641  0.773710  1
  Ru  Ru12  1  0.173885  0.419009  0.774365  1
  Ru  Ru13  1  0.399520  0.080991  0.225635  1
