# generated using pymatgen
data_KSr3(PPd3)8
_symmetry_space_group_name_H-M   'P 1'
_cell_length_a   8.58429127
_cell_length_b   8.58429127
_cell_length_c   8.58429127
_cell_angle_alpha   89.97977451
_cell_angle_beta   90.02022549
_cell_angle_gamma   90.02022549
_symmetry_Int_Tables_number   1
_chemical_formula_structural   KSr3(PPd3)8
_chemical_formula_sum   'K1 Sr3 P8 Pd24'
_cell_volume   632.57679084
_cell_formula_units_Z   1
loop_
 _symmetry_equiv_pos_site_id
 _symmetry_equiv_pos_as_xyz
  1  'x, y, z'
loop_
 _atom_site_type_symbol
 _atom_site_label
 _atom_site_symmetry_multiplicity
 _atom_site_fract_x
 _atom_site_fract_y
 _atom_site_fract_z
 _atom_site_occupancy
  K  K0  1  0.500000  0.500000  0.000000  1
  Sr  Sr1  1  0.500000  0.000000  0.500000  1
  Sr  Sr2  1  0.000000  0.500000  0.500000  1
  Sr  Sr3  1  0.000000  0.000000  0.000000  1
  P  P4  1  0.807278  0.307691  0.192441  1
  P  P5  1  0.192794  0.807206  0.307206  1
  P  P6  1  0.692309  0.692441  0.692722  1
  P  P7  1  0.307559  0.192722  0.807691  1
  P  P8  1  0.192722  0.692309  0.807559  1
  P  P9  1  0.807206  0.192794  0.692794  1
  P  P10  1  0.307691  0.307559  0.307278  1
  P  P11  1  0.692441  0.807278  0.192309  1
  Pd  Pd12  1  0.421581  0.848368  0.162231  1
  Pd  Pd13  1  0.578658  0.347286  0.338524  1
  Pd  Pd14  1  0.078669  0.152444  0.661930  1
  Pd  Pd15  1  0.921617  0.652489  0.837961  1
  Pd  Pd16  1  0.161476  0.421342  0.847286  1
  Pd  Pd17  1  0.337769  0.578419  0.348368  1
  Pd  Pd18  1  0.662039  0.078383  0.152489  1
  Pd  Pd19  1  0.838070  0.921331  0.652444  1
  Pd  Pd20  1  0.847556  0.161930  0.421331  1
  Pd  Pd21  1  0.347511  0.337961  0.578383  1
  Pd  Pd22  1  0.151632  0.662231  0.078419  1
  Pd  Pd23  1  0.652714  0.838524  0.921342  1
  Pd  Pd24  1  0.578419  0.151632  0.837769  1
  Pd  Pd25  1  0.421342  0.652714  0.661476  1
  Pd  Pd26  1  0.921331  0.847556  0.338070  1
  Pd  Pd27  1  0.078383  0.347511  0.162039  1
  Pd  Pd28  1  0.838524  0.578658  0.152714  1
  Pd  Pd29  1  0.662231  0.421581  0.651632  1
  Pd  Pd30  1  0.337961  0.921617  0.847511  1
  Pd  Pd31  1  0.161930  0.078669  0.347556  1
  Pd  Pd32  1  0.152444  0.838070  0.578669  1
  Pd  Pd33  1  0.652489  0.662039  0.421617  1
  Pd  Pd34  1  0.848368  0.337769  0.921581  1
  Pd  Pd35  1  0.347286  0.161476  0.078658  1
