# generated using pymatgen
data_K3Ba2(BeAs)10
_symmetry_space_group_name_H-M   'P 1'
_cell_length_a   8.35639558
_cell_length_b   9.23873866
_cell_length_c   8.33536400
_cell_angle_alpha   63.21178458
_cell_angle_beta   90.05264344
_cell_angle_gamma   63.13864468
_symmetry_Int_Tables_number   1
_chemical_formula_structural   K3Ba2(BeAs)10
_chemical_formula_sum   'K3 Ba2 Be10 As10'
_cell_volume   495.27254146
_cell_formula_units_Z   1
loop_
 _symmetry_equiv_pos_site_id
 _symmetry_equiv_pos_as_xyz
  1  'x, y, z'
loop_
 _atom_site_type_symbol
 _atom_site_label
 _atom_site_symmetry_multiplicity
 _atom_site_fract_x
 _atom_site_fract_y
 _atom_site_fract_z
 _atom_site_occupancy
  K  K0  1  0.199605  0.000000  0.600975  1
  K  K1  1  0.386050  0.000000  0.206818  1
  K  K2  1  0.013385  0.000000  0.993363  1
  Ba  Ba3  1  0.597458  0.000000  0.809915  1
  Ba  Ba4  1  0.803303  0.000000  0.388591  1
  Be  Be5  1  0.951673  0.496479  0.852238  1
  Be  Be6  1  0.152902  0.497708  0.452374  1
  Be  Be7  1  0.351080  0.501914  0.049532  1
  Be  Be8  1  0.545961  0.505841  0.646328  1
  Be  Be9  1  0.747284  0.500066  0.248672  1
  Be  Be10  1  0.852994  0.498086  0.551447  1
  Be  Be11  1  0.051804  0.494159  0.152171  1
  Be  Be12  1  0.247350  0.499934  0.748738  1
  Be  Be13  1  0.448153  0.503521  0.348718  1
  Be  Be14  1  0.650608  0.502292  0.950082  1
  As  As15  1  0.148930  0.302814  0.748602  1
  As  As16  1  0.350506  0.304213  0.347709  1
  As  As17  1  0.546555  0.308383  0.944668  1
  As  As18  1  0.745260  0.306677  0.547464  1
  As  As19  1  0.946215  0.303366  0.148847  1
  As  As20  1  0.654720  0.695787  0.651922  1
  As  As21  1  0.854939  0.691617  0.253051  1
  As  As22  1  0.051937  0.693323  0.854142  1
  As  As23  1  0.249581  0.696634  0.452213  1
  As  As24  1  0.451744  0.697186  0.051415  1
