# generated using pymatgen
data_Tb2ScAlIr2
_symmetry_space_group_name_H-M   'P 1'
_cell_length_a   6.98382200
_cell_length_b   4.31928100
_cell_length_c   8.24652200
_cell_angle_alpha   90.00000000
_cell_angle_beta   90.00000000
_cell_angle_gamma   90.00000000
_symmetry_Int_Tables_number   1
_chemical_formula_structural   Tb2ScAlIr2
_chemical_formula_sum   'Tb4 Sc2 Al2 Ir4'
_cell_volume   248.75707561
_cell_formula_units_Z   2
loop_
 _symmetry_equiv_pos_site_id
 _symmetry_equiv_pos_as_xyz
  1  'x, y, z'
loop_
 _atom_site_type_symbol
 _atom_site_label
 _atom_site_symmetry_multiplicity
 _atom_site_fract_x
 _atom_site_fract_y
 _atom_site_fract_z
 _atom_site_occupancy
  Tb  Tb0  1  0.963255  0.250000  0.177944  1
  Tb  Tb1  1  0.463255  0.250000  0.322056  1
  Tb  Tb2  1  0.028184  0.750000  0.826739  1
  Tb  Tb3  1  0.528184  0.750000  0.673261  1
  Sc  Sc4  1  0.868723  0.250000  0.561403  1
  Sc  Sc5  1  0.368723  0.250000  0.938597  1
  Al  Al6  1  0.138342  0.750000  0.439709  1
  Al  Al7  1  0.638342  0.750000  0.060291  1
  Ir  Ir8  1  0.738627  0.250000  0.886995  1
  Ir  Ir9  1  0.238627  0.250000  0.613005  1
  Ir  Ir10  1  0.262869  0.750000  0.122961  1
  Ir  Ir11  1  0.762869  0.750000  0.377039  1
