# generated using pymatgen
data_PaNbN2
_symmetry_space_group_name_H-M   'P 1'
_cell_length_a   3.30119700
_cell_length_b   5.72532500
_cell_length_c   11.09510000
_cell_angle_alpha   90.00000000
_cell_angle_beta   90.00000000
_cell_angle_gamma   90.00000000
_symmetry_Int_Tables_number   1
_chemical_formula_structural   PaNbN2
_chemical_formula_sum   'Pa4 Nb4 N8'
_cell_volume   209.70211334
_cell_formula_units_Z   4
loop_
 _symmetry_equiv_pos_site_id
 _symmetry_equiv_pos_as_xyz
  1  'x, y, z'
loop_
 _atom_site_type_symbol
 _atom_site_label
 _atom_site_symmetry_multiplicity
 _atom_site_fract_x
 _atom_site_fract_y
 _atom_site_fract_z
 _atom_site_occupancy
  Pa  Pa0  1  0.250000  0.576643  0.854859  1
  Pa  Pa1  1  0.750000  0.423357  0.145141  1
  Pa  Pa2  1  0.750000  0.923357  0.354859  1
  Pa  Pa3  1  0.250000  0.076643  0.645141  1
  Nb  Nb4  1  0.250000  0.925575  0.097819  1
  Nb  Nb5  1  0.750000  0.074425  0.902181  1
  Nb  Nb6  1  0.750000  0.574425  0.597819  1
  Nb  Nb7  1  0.250000  0.425575  0.402181  1
  N  N8  1  0.250000  0.660968  0.244963  1
  N  N9  1  0.750000  0.339032  0.755037  1
  N  N10  1  0.750000  0.839032  0.744963  1
  N  N11  1  0.250000  0.160968  0.255037  1
  N  N12  1  0.250000  0.765341  0.503495  1
  N  N13  1  0.750000  0.234659  0.496505  1
  N  N14  1  0.750000  0.734659  0.003495  1
  N  N15  1  0.250000  0.265341  0.996505  1
