# generated using pymatgen
data_Dy11ThTc3Rh
_symmetry_space_group_name_H-M   'P 1'
_cell_length_a   6.32271777
_cell_length_b   7.37985288
_cell_length_c   9.26783700
_cell_angle_alpha   90.00000000
_cell_angle_beta   90.00000000
_cell_angle_gamma   90.28694387
_symmetry_Int_Tables_number   1
_chemical_formula_structural   Dy11ThTc3Rh
_chemical_formula_sum   'Dy11 Th1 Tc3 Rh1'
_cell_volume   432.43858852
_cell_formula_units_Z   1
loop_
 _symmetry_equiv_pos_site_id
 _symmetry_equiv_pos_as_xyz
  1  'x, y, z'
loop_
 _atom_site_type_symbol
 _atom_site_label
 _atom_site_symmetry_multiplicity
 _atom_site_fract_x
 _atom_site_fract_y
 _atom_site_fract_z
 _atom_site_occupancy
  Dy  Dy0  1  0.333949  0.678078  0.066341  1
  Dy  Dy1  1  0.163810  0.177183  0.436881  1
  Dy  Dy2  1  0.665746  0.318395  0.565140  1
  Dy  Dy3  1  0.835485  0.826983  0.934911  1
  Dy  Dy4  1  0.665746  0.318395  0.934860  1
  Dy  Dy5  1  0.835485  0.826983  0.565089  1
  Dy  Dy6  1  0.333949  0.678078  0.433659  1
  Dy  Dy7  1  0.163810  0.177183  0.063119  1
  Dy  Dy8  1  0.627014  0.041999  0.250000  1
  Dy  Dy9  1  0.134987  0.459310  0.750000  1
  Dy  Dy10  1  0.367908  0.958174  0.750000  1
  Th  Th11  1  0.860699  0.548718  0.250000  1
  Tc  Tc12  1  0.024199  0.871082  0.250000  1
  Tc  Tc13  1  0.480272  0.388378  0.250000  1
  Tc  Tc14  1  0.962900  0.115874  0.750000  1
  Rh  Rh15  1  0.544045  0.615184  0.750000  1
