# generated using pymatgen
data_Li4Yb3CeSi8
_symmetry_space_group_name_H-M   'P 1'
_cell_length_a   3.82259700
_cell_length_b   7.83281414
_cell_length_c   10.54476493
_cell_angle_alpha   90.17723945
_cell_angle_beta   90.00000000
_cell_angle_gamma   90.00000000
_symmetry_Int_Tables_number   1
_chemical_formula_structural   Li4Yb3CeSi8
_chemical_formula_sum   'Li4 Yb3 Ce1 Si8'
_cell_volume   315.72659122
_cell_formula_units_Z   1
loop_
 _symmetry_equiv_pos_site_id
 _symmetry_equiv_pos_as_xyz
  1  'x, y, z'
loop_
 _atom_site_type_symbol
 _atom_site_label
 _atom_site_symmetry_multiplicity
 _atom_site_fract_x
 _atom_site_fract_y
 _atom_site_fract_z
 _atom_site_occupancy
  Li  Li0  1  0.250000  0.990877  0.389210  1
  Li  Li1  1  0.250000  0.499665  0.107381  1
  Li  Li2  1  0.750000  0.003056  0.609924  1
  Li  Li3  1  0.750000  0.502804  0.888929  1
  Yb  Yb4  1  0.250000  0.136503  0.867489  1
  Yb  Yb5  1  0.250000  0.634583  0.634444  1
  Yb  Yb6  1  0.750000  0.864870  0.134470  1
  Ce  Ce7  1  0.750000  0.367179  0.366488  1
  Si  Si8  1  0.250000  0.236387  0.564407  1
  Si  Si9  1  0.250000  0.735504  0.930973  1
  Si  Si10  1  0.750000  0.760645  0.431209  1
  Si  Si11  1  0.750000  0.269513  0.072546  1
  Si  Si12  1  0.250000  0.657407  0.323148  1
  Si  Si13  1  0.250000  0.168430  0.182852  1
  Si  Si14  1  0.750000  0.336197  0.673886  1
  Si  Si15  1  0.750000  0.836381  0.822645  1
