# generated using pymatgen
data_Hf2Mn10Fe2P7
_symmetry_space_group_name_H-M   'P 1'
_cell_length_a   9.13980647
_cell_length_b   9.15037079
_cell_length_c   3.53554500
_cell_angle_alpha   90.00000000
_cell_angle_beta   90.00000000
_cell_angle_gamma   120.07508103
_symmetry_Int_Tables_number   1
_chemical_formula_structural   Hf2Mn10Fe2P7
_chemical_formula_sum   'Hf2 Mn10 Fe2 P7'
_cell_volume   255.87839842
_cell_formula_units_Z   1
loop_
 _symmetry_equiv_pos_site_id
 _symmetry_equiv_pos_as_xyz
  1  'x, y, z'
loop_
 _atom_site_type_symbol
 _atom_site_label
 _atom_site_symmetry_multiplicity
 _atom_site_fract_x
 _atom_site_fract_y
 _atom_site_fract_z
 _atom_site_occupancy
  Hf  Hf0  1  0.999964  0.000775  0.000000  1
  Hf  Hf1  1  0.333389  0.665918  0.500000  1
  Mn  Mn2  1  0.096206  0.384306  0.000000  1
  Mn  Mn3  1  0.289868  0.903879  0.000000  1
  Mn  Mn4  1  0.615325  0.710721  0.000000  1
  Mn  Mn5  1  0.826064  0.612093  0.000000  1
  Mn  Mn6  1  0.058048  0.770881  0.500000  1
  Mn  Mn7  1  0.711449  0.940759  0.500000  1
  Mn  Mn8  1  0.227530  0.287728  0.500000  1
  Mn  Mn9  1  0.900038  0.437419  0.500000  1
  Mn  Mn10  1  0.537738  0.100814  0.500000  1
  Mn  Mn11  1  0.562844  0.461412  0.500000  1
  Fe  Fe12  1  0.784643  0.174122  0.000000  1
  Fe  Fe13  1  0.389486  0.215041  0.000000  1
  P  P14  1  0.082113  0.622845  0.000000  1
  P  P15  1  0.542765  0.918660  0.000000  1
  P  P16  1  0.377167  0.457493  0.000000  1
  P  P17  1  0.797132  0.748183  0.500000  1
  P  P18  1  0.946750  0.202196  0.500000  1
  P  P19  1  0.254991  0.052434  0.500000  1
  P  P20  1  0.666490  0.332320  0.000000  1
