# generated using pymatgen
data_YEr7Ti11Si16Rh
_symmetry_space_group_name_H-M   'P 1'
_cell_length_a   7.01739284
_cell_length_b   7.01610946
_cell_length_c   12.82984819
_cell_angle_alpha   90.11895374
_cell_angle_beta   89.87099015
_cell_angle_gamma   89.78775707
_symmetry_Int_Tables_number   1
_chemical_formula_structural   YEr7Ti11Si16Rh
_chemical_formula_sum   'Y1 Er7 Ti11 Si16 Rh1'
_cell_volume   631.66765443
_cell_formula_units_Z   1
loop_
 _symmetry_equiv_pos_site_id
 _symmetry_equiv_pos_as_xyz
  1  'x, y, z'
loop_
 _atom_site_type_symbol
 _atom_site_label
 _atom_site_symmetry_multiplicity
 _atom_site_fract_x
 _atom_site_fract_y
 _atom_site_fract_z
 _atom_site_occupancy
  Y  Y0  1  0.340450  0.004107  0.467276  1
  Er  Er1  1  0.497130  0.841769  0.718040  1
  Er  Er2  1  0.500820  0.158518  0.214784  1
  Er  Er3  1  0.841887  0.497010  0.282029  1
  Er  Er4  1  0.158433  0.500806  0.785152  1
  Er  Er5  1  0.657255  0.998707  0.968063  1
  Er  Er6  1  0.003270  0.340959  0.532872  1
  Er  Er7  1  0.998684  0.657254  0.031903  1
  Ti  Ti8  1  0.175284  0.826868  0.248308  1
  Ti  Ti9  1  0.827000  0.175462  0.751584  1
  Ti  Ti10  1  0.673688  0.673157  0.500021  1
  Ti  Ti11  1  0.149070  0.002935  0.875704  1
  Ti  Ti12  1  0.494230  0.655181  0.124507  1
  Ti  Ti13  1  0.506817  0.349988  0.627487  1
  Ti  Ti14  1  0.655217  0.494239  0.875427  1
  Ti  Ti15  1  0.349843  0.506587  0.372653  1
  Ti  Ti16  1  0.849174  0.994283  0.374598  1
  Ti  Ti17  1  0.002849  0.149168  0.124280  1
  Ti  Ti18  1  0.994153  0.849107  0.625524  1
  Si  Si19  1  0.202640  0.133650  0.685052  1
  Si  Si20  1  0.371406  0.704032  0.933224  1
  Si  Si21  1  0.632513  0.295723  0.433354  1
  Si  Si22  1  0.704062  0.371425  0.066771  1
  Si  Si23  1  0.294834  0.630912  0.566885  1
  Si  Si24  1  0.796080  0.867614  0.183259  1
  Si  Si25  1  0.132830  0.203496  0.314712  1
  Si  Si26  1  0.867641  0.796036  0.816740  1
  Si  Si27  1  0.287076  0.950777  0.063831  1
  Si  Si28  1  0.547554  0.791871  0.315062  1
  Si  Si29  1  0.449487  0.209590  0.817371  1
  Si  Si30  1  0.792493  0.546976  0.684576  1
  Si  Si31  1  0.209574  0.449555  0.182612  1
  Si  Si32  1  0.709029  0.047929  0.565696  1
  Si  Si33  1  0.950740  0.287076  0.936156  1
  Si  Si34  1  0.047122  0.707594  0.434518  1
  Rh  Rh35  1  0.329663  0.329634  0.999970  1
