# generated using pymatgen
data_Th5UCo2(NiSb2)4
_symmetry_space_group_name_H-M   'P 1'
_cell_length_a   8.29043336
_cell_length_b   8.30630860
_cell_length_c   8.31658388
_cell_angle_alpha   109.58006744
_cell_angle_beta   109.37206671
_cell_angle_gamma   109.42756148
_symmetry_Int_Tables_number   1
_chemical_formula_structural   Th5UCo2(NiSb2)4
_chemical_formula_sum   'Th5 U1 Co2 Ni4 Sb8'
_cell_volume   441.05133688
_cell_formula_units_Z   1
loop_
 _symmetry_equiv_pos_site_id
 _symmetry_equiv_pos_as_xyz
  1  'x, y, z'
loop_
 _atom_site_type_symbol
 _atom_site_label
 _atom_site_symmetry_multiplicity
 _atom_site_fract_x
 _atom_site_fract_y
 _atom_site_fract_z
 _atom_site_occupancy
  Th  Th0  1  0.748207  0.874219  0.122338  1
  Th  Th1  1  0.252023  0.623950  0.378069  1
  Th  Th2  1  0.625562  0.376166  0.252232  1
  Th  Th3  1  0.873173  0.128058  0.749988  1
  Th  Th4  1  0.125978  0.747956  0.872045  1
  U  U5  1  0.391350  0.270980  0.629788  1
  Co  Co6  1  0.700984  0.360121  0.624372  1
  Co  Co7  1  0.378530  0.572293  0.731361  1
  Ni  Ni8  1  0.132035  0.886156  0.260319  1
  Ni  Ni9  1  0.627383  0.751865  0.374621  1
  Ni  Ni10  1  0.875991  0.251089  0.124839  1
  Ni  Ni11  1  0.255381  0.132875  0.871665  1
  Sb  Sb12  1  0.996183  0.335273  0.499987  1
  Sb  Sb13  1  0.841330  0.504962  0.004595  1
  Sb  Sb14  1  0.497936  0.001953  0.834234  1
  Sb  Sb15  1  0.671313  0.672809  0.665288  1
  Sb  Sb16  1  0.164079  0.162834  0.163698  1
  Sb  Sb17  1  0.337481  0.499967  0.001163  1
  Sb  Sb18  1  0.497674  0.998668  0.336403  1
  Sb  Sb19  1  0.007405  0.847805  0.502996  1
