# generated using pymatgen
data_Zr9Ta4Se
_symmetry_space_group_name_H-M   'P 1'
_cell_length_a   8.87555900
_cell_length_b   8.87556013
_cell_length_c   9.00258600
_cell_angle_alpha   90.00000000
_cell_angle_beta   90.00000000
_cell_angle_gamma   120.00000699
_symmetry_Int_Tables_number   1
_chemical_formula_structural   Zr9Ta4Se
_chemical_formula_sum   'Zr18 Ta8 Se2'
_cell_volume   614.17108421
_cell_formula_units_Z   2
loop_
 _symmetry_equiv_pos_site_id
 _symmetry_equiv_pos_as_xyz
  1  'x, y, z'
loop_
 _atom_site_type_symbol
 _atom_site_label
 _atom_site_symmetry_multiplicity
 _atom_site_fract_x
 _atom_site_fract_y
 _atom_site_fract_z
 _atom_site_occupancy
  Zr  Zr0  1  0.540652  0.081305  0.250000  1
  Zr  Zr1  1  0.459348  0.918695  0.750000  1
  Zr  Zr2  1  0.918695  0.459348  0.250000  1
  Zr  Zr3  1  0.081305  0.540652  0.750000  1
  Zr  Zr4  1  0.540652  0.459348  0.250000  1
  Zr  Zr5  1  0.459348  0.540652  0.750000  1
  Zr  Zr6  1  0.196345  0.392692  0.048727  1
  Zr  Zr7  1  0.803655  0.607308  0.951273  1
  Zr  Zr8  1  0.607308  0.803655  0.048727  1
  Zr  Zr9  1  0.803655  0.607308  0.548727  1
  Zr  Zr10  1  0.392692  0.196345  0.951273  1
  Zr  Zr11  1  0.196345  0.392692  0.451273  1
  Zr  Zr12  1  0.196345  0.803655  0.048727  1
  Zr  Zr13  1  0.392692  0.196345  0.548727  1
  Zr  Zr14  1  0.803655  0.196345  0.951273  1
  Zr  Zr15  1  0.607308  0.803655  0.451273  1
  Zr  Zr16  1  0.803655  0.196345  0.548727  1
  Zr  Zr17  1  0.196345  0.803655  0.451273  1
  Ta  Ta18  1  0.000000  0.000000  0.000000  1
  Ta  Ta19  1  0.000000  0.000000  0.500000  1
  Ta  Ta20  1  0.888865  0.777730  0.250000  1
  Ta  Ta21  1  0.111135  0.222270  0.750000  1
  Ta  Ta22  1  0.222270  0.111135  0.250000  1
  Ta  Ta23  1  0.777730  0.888865  0.750000  1
  Ta  Ta24  1  0.888865  0.111135  0.250000  1
  Ta  Ta25  1  0.111135  0.888865  0.750000  1
  Se  Se26  1  0.333333  0.666667  0.250000  1
  Se  Se27  1  0.666667  0.333333  0.750000  1
