# generated using pymatgen
data_Na3LiSnS4
_symmetry_space_group_name_H-M   'P 1'
_cell_length_a   9.91059200
_cell_length_b   6.69136195
_cell_length_c   14.26995719
_cell_angle_alpha   62.04975623
_cell_angle_beta   90.00000000
_cell_angle_gamma   90.00000000
_symmetry_Int_Tables_number   1
_chemical_formula_structural   Na3LiSnS4
_chemical_formula_sum   'Na12 Li4 Sn4 S16'
_cell_volume   835.93409488
_cell_formula_units_Z   4
loop_
 _symmetry_equiv_pos_site_id
 _symmetry_equiv_pos_as_xyz
  1  'x, y, z'
loop_
 _atom_site_type_symbol
 _atom_site_label
 _atom_site_symmetry_multiplicity
 _atom_site_fract_x
 _atom_site_fract_y
 _atom_site_fract_z
 _atom_site_occupancy
  Na  Na0  1  0.894640  0.742671  0.486168  1
  Na  Na1  1  0.356996  0.828737  0.620034  1
  Na  Na2  1  0.394640  0.257329  0.013832  1
  Na  Na3  1  0.643004  0.171263  0.379966  1
  Na  Na4  1  0.881303  0.395360  0.121873  1
  Na  Na5  1  0.618697  0.395360  0.621873  1
  Na  Na6  1  0.605360  0.742671  0.986168  1
  Na  Na7  1  0.381303  0.604640  0.378127  1
  Na  Na8  1  0.143004  0.828737  0.120034  1
  Na  Na9  1  0.856996  0.171263  0.879966  1
  Na  Na10  1  0.118697  0.604640  0.878127  1
  Na  Na11  1  0.105360  0.257329  0.513832  1
  Li  Li12  1  0.603676  0.615028  0.792217  1
  Li  Li13  1  0.103676  0.384972  0.707783  1
  Li  Li14  1  0.396324  0.384972  0.207783  1
  Li  Li15  1  0.896324  0.615028  0.292217  1
  Sn  Sn16  1  0.860855  0.892286  0.693696  1
  Sn  Sn17  1  0.639145  0.892286  0.193696  1
  Sn  Sn18  1  0.360855  0.107714  0.806304  1
  Sn  Sn19  1  0.139145  0.107714  0.306304  1
  S  S20  1  0.163621  0.144470  0.897919  1
  S  S21  1  0.931898  0.219306  0.356208  1
  S  S22  1  0.891647  0.278232  0.659919  1
  S  S23  1  0.676996  0.627235  0.379257  1
  S  S24  1  0.568102  0.219306  0.856208  1
  S  S25  1  0.663621  0.855530  0.602081  1
  S  S26  1  0.108353  0.721768  0.340081  1
  S  S27  1  0.068102  0.780694  0.643792  1
  S  S28  1  0.323004  0.372765  0.620743  1
  S  S29  1  0.431898  0.780694  0.143792  1
  S  S30  1  0.608353  0.278232  0.159919  1
  S  S31  1  0.391647  0.721768  0.840081  1
  S  S32  1  0.336379  0.144470  0.397919  1
  S  S33  1  0.176996  0.372765  0.120743  1
  S  S34  1  0.836379  0.855530  0.102081  1
  S  S35  1  0.823004  0.627235  0.879257  1
