# generated using pymatgen
data_Tb3SiPt5
_symmetry_space_group_name_H-M   'P 1'
_cell_length_a   8.23941808
_cell_length_b   8.23941833
_cell_length_c   8.23941825
_cell_angle_alpha   127.40531476
_cell_angle_beta   125.94879833
_cell_angle_gamma   78.78381079
_symmetry_Int_Tables_number   1
_chemical_formula_structural   Tb3SiPt5
_chemical_formula_sum   'Tb6 Si2 Pt10'
_cell_volume   348.08873014
_cell_formula_units_Z   2
loop_
 _symmetry_equiv_pos_site_id
 _symmetry_equiv_pos_as_xyz
  1  'x, y, z'
loop_
 _atom_site_type_symbol
 _atom_site_label
 _atom_site_symmetry_multiplicity
 _atom_site_fract_x
 _atom_site_fract_y
 _atom_site_fract_z
 _atom_site_occupancy
  Tb  Tb0  1  0.827688  0.549304  0.278383  1
  Tb  Tb1  1  0.611889  0.250000  0.361889  1
  Tb  Tb2  1  0.172312  0.450696  0.721617  1
  Tb  Tb3  1  0.388111  0.750000  0.638111  1
  Tb  Tb4  1  0.229079  0.950696  0.278383  1
  Tb  Tb5  1  0.770921  0.049304  0.721617  1
  Si  Si6  1  0.219946  0.250000  0.969946  1
  Si  Si7  1  0.780054  0.750000  0.030054  1
  Pt  Pt8  1  0.169462  0.899994  0.856300  1
  Pt  Pt9  1  0.830538  0.100006  0.143700  1
  Pt  Pt10  1  0.456306  0.186838  0.856300  1
  Pt  Pt11  1  0.543694  0.399994  0.730532  1
  Pt  Pt12  1  0.830538  0.686838  0.730532  1
  Pt  Pt13  1  0.456306  0.600006  0.269468  1
  Pt  Pt14  1  0.543694  0.813162  0.143700  1
  Pt  Pt15  1  0.169462  0.313162  0.269468  1
  Pt  Pt16  1  0.000000  0.000000  0.500000  1
  Pt  Pt17  1  0.000000  0.500000  0.000000  1
