# generated using pymatgen
data_Y2Sc3S7
_symmetry_space_group_name_H-M   'P 1'
_cell_length_a   6.39473861
_cell_length_b   6.39473964
_cell_length_c   11.28952027
_cell_angle_alpha   76.07200104
_cell_angle_beta   76.07199965
_cell_angle_gamma   33.64487897
_symmetry_Int_Tables_number   1
_chemical_formula_structural   Y2Sc3S7
_chemical_formula_sum   'Y2 Sc3 S7'
_cell_volume   247.56020629
_cell_formula_units_Z   1
loop_
 _symmetry_equiv_pos_site_id
 _symmetry_equiv_pos_as_xyz
  1  'x, y, z'
loop_
 _atom_site_type_symbol
 _atom_site_label
 _atom_site_symmetry_multiplicity
 _atom_site_fract_x
 _atom_site_fract_y
 _atom_site_fract_z
 _atom_site_occupancy
  Y  Y0  1  0.299920  0.299920  0.808732  1
  Y  Y1  1  0.700080  0.700080  0.191268  1
  Sc  Sc2  1  0.111065  0.111065  0.575003  1
  Sc  Sc3  1  0.888935  0.888935  0.424997  1
  Sc  Sc4  1  0.000000  0.000000  0.000000  1
  S  S5  1  0.262052  0.262052  0.360870  1
  S  S6  1  0.737948  0.737948  0.639130  1
  S  S7  1  0.969350  0.969350  0.783757  1
  S  S8  1  0.030650  0.030650  0.216243  1
  S  S9  1  0.653297  0.653297  0.950647  1
  S  S10  1  0.500000  0.500000  0.500000  1
  S  S11  1  0.346703  0.346703  0.049353  1
