# generated using pymatgen
data_ErTa2Be2Co5
_symmetry_space_group_name_H-M   'P 1'
_cell_length_a   8.90193908
_cell_length_b   8.90193908
_cell_length_c   3.19016000
_cell_angle_alpha   90.00000000
_cell_angle_beta   90.00000000
_cell_angle_gamma   89.89031212
_symmetry_Int_Tables_number   1
_chemical_formula_structural   ErTa2Be2Co5
_chemical_formula_sum   'Er2 Ta4 Be4 Co10'
_cell_volume   252.80223260
_cell_formula_units_Z   2
loop_
 _symmetry_equiv_pos_site_id
 _symmetry_equiv_pos_as_xyz
  1  'x, y, z'
loop_
 _atom_site_type_symbol
 _atom_site_label
 _atom_site_symmetry_multiplicity
 _atom_site_fract_x
 _atom_site_fract_y
 _atom_site_fract_z
 _atom_site_occupancy
  Er  Er0  1  0.823359  0.323359  0.000000  1
  Er  Er1  1  0.176641  0.676641  0.000000  1
  Ta  Ta2  1  0.500000  0.500000  0.000000  1
  Ta  Ta3  1  0.000000  0.000000  0.000000  1
  Ta  Ta4  1  0.324922  0.175078  0.000000  1
  Ta  Ta5  1  0.675078  0.824922  0.000000  1
  Be  Be6  1  0.613674  0.113674  0.000000  1
  Be  Be7  1  0.386326  0.886326  0.000000  1
  Be  Be8  1  0.122437  0.377563  0.000000  1
  Be  Be9  1  0.877563  0.622437  0.000000  1
  Co  Co10  1  0.500000  0.000000  0.500000  1
  Co  Co11  1  0.000000  0.500000  0.500000  1
  Co  Co12  1  0.710603  0.582557  0.500000  1
  Co  Co13  1  0.289397  0.417443  0.500000  1
  Co  Co14  1  0.221365  0.945282  0.500000  1
  Co  Co15  1  0.778635  0.054718  0.500000  1
  Co  Co16  1  0.445282  0.721365  0.500000  1
  Co  Co17  1  0.554718  0.278635  0.500000  1
  Co  Co18  1  0.082557  0.210603  0.500000  1
  Co  Co19  1  0.917443  0.789397  0.500000  1
