# generated using pymatgen
data_KLiTbF5
_symmetry_space_group_name_H-M   'P 1'
_cell_length_a   11.90391800
_cell_length_b   6.38898012
_cell_length_c   6.55440321
_cell_angle_alpha   66.27507512
_cell_angle_beta   90.00000000
_cell_angle_gamma   90.00000000
_symmetry_Int_Tables_number   1
_chemical_formula_structural   KLiTbF5
_chemical_formula_sum   'K4 Li4 Tb4 F20'
_cell_volume   456.35951350
_cell_formula_units_Z   4
loop_
 _symmetry_equiv_pos_site_id
 _symmetry_equiv_pos_as_xyz
  1  'x, y, z'
loop_
 _atom_site_type_symbol
 _atom_site_label
 _atom_site_symmetry_multiplicity
 _atom_site_fract_x
 _atom_site_fract_y
 _atom_site_fract_z
 _atom_site_occupancy
  K  K0  1  0.849383  0.037267  0.946571  1
  K  K1  1  0.650617  0.537267  0.946571  1
  K  K2  1  0.349383  0.462733  0.053429  1
  K  K3  1  0.150617  0.962733  0.053429  1
  Li  Li4  1  0.745641  0.461206  0.442318  1
  Li  Li5  1  0.754359  0.961206  0.442318  1
  Li  Li6  1  0.254359  0.538794  0.557682  1
  Li  Li7  1  0.245641  0.038794  0.557682  1
  Tb  Tb8  1  0.997615  0.319989  0.317862  1
  Tb  Tb9  1  0.002385  0.680011  0.682138  1
  Tb  Tb10  1  0.502385  0.819989  0.317862  1
  Tb  Tb11  1  0.497615  0.180011  0.682138  1
  F  F12  1  0.674976  0.280646  0.711047  1
  F  F13  1  0.605335  0.965491  0.535229  1
  F  F14  1  0.325024  0.719354  0.288953  1
  F  F15  1  0.007205  0.326130  0.956236  1
  F  F16  1  0.174976  0.219354  0.288953  1
  F  F17  1  0.394665  0.034509  0.464771  1
  F  F18  1  0.894665  0.465491  0.535229  1
  F  F19  1  0.532384  0.452565  0.335297  1
  F  F20  1  0.804287  0.277172  0.279431  1
  F  F21  1  0.304287  0.222828  0.720569  1
  F  F22  1  0.467616  0.547435  0.664703  1
  F  F23  1  0.992795  0.673870  0.043764  1
  F  F24  1  0.195713  0.722828  0.720569  1
  F  F25  1  0.507205  0.173870  0.043764  1
  F  F26  1  0.967616  0.952565  0.335297  1
  F  F27  1  0.695713  0.777172  0.279431  1
  F  F28  1  0.032384  0.047435  0.664703  1
  F  F29  1  0.825024  0.780646  0.711047  1
  F  F30  1  0.105335  0.534509  0.464771  1
  F  F31  1  0.492795  0.826130  0.956236  1
