# generated using pymatgen
data_Ca2TmTl(BO4)2
_symmetry_space_group_name_H-M   'P 1'
_cell_length_a   3.59302500
_cell_length_b   9.76284414
_cell_length_c   10.48517800
_cell_angle_alpha   90.68324538
_cell_angle_beta   90.00000000
_cell_angle_gamma   90.00000000
_symmetry_Int_Tables_number   1
_chemical_formula_structural   Ca2TmTl(BO4)2
_chemical_formula_sum   'Ca4 Tm2 Tl2 B4 O16'
_cell_volume   367.77442327
_cell_formula_units_Z   2
loop_
 _symmetry_equiv_pos_site_id
 _symmetry_equiv_pos_as_xyz
  1  'x, y, z'
loop_
 _atom_site_type_symbol
 _atom_site_label
 _atom_site_symmetry_multiplicity
 _atom_site_fract_x
 _atom_site_fract_y
 _atom_site_fract_z
 _atom_site_occupancy
  Ca  Ca0  1  0.250000  0.657524  0.083000  1
  Ca  Ca1  1  0.750000  0.342476  0.917000  1
  Ca  Ca2  1  0.750000  0.178152  0.411868  1
  Ca  Ca3  1  0.250000  0.821848  0.588132  1
  Tm  Tm4  1  0.750000  0.585719  0.390625  1
  Tm  Tm5  1  0.250000  0.414281  0.609375  1
  Tl  Tl6  1  0.250000  0.072783  0.118899  1
  Tl  Tl7  1  0.750000  0.927217  0.881101  1
  B  B8  1  0.250000  0.376321  0.191688  1
  B  B9  1  0.750000  0.623679  0.808312  1
  B  B10  1  0.750000  0.858478  0.307283  1
  B  B11  1  0.250000  0.141522  0.692717  1
  O  O12  1  0.250000  0.498557  0.261625  1
  O  O13  1  0.750000  0.501443  0.738375  1
  O  O14  1  0.750000  0.992812  0.262613  1
  O  O15  1  0.250000  0.007188  0.737387  1
  O  O16  1  0.250000  0.250881  0.258589  1
  O  O17  1  0.750000  0.749119  0.741411  1
  O  O18  1  0.750000  0.743740  0.227748  1
  O  O19  1  0.250000  0.256260  0.772252  1
  O  O20  1  0.250000  0.381518  0.060876  1
  O  O21  1  0.750000  0.618482  0.939124  1
  O  O22  1  0.750000  0.838012  0.439306  1
  O  O23  1  0.250000  0.161988  0.560694  1
  O  O24  1  0.250000  0.610938  0.508642  1
  O  O25  1  0.750000  0.389062  0.491358  1
  O  O26  1  0.750000  0.122536  0.997175  1
  O  O27  1  0.250000  0.877464  0.002825  1
