# generated using pymatgen
data_LiLu6Mg(Co4P3)4
_symmetry_space_group_name_H-M   'P 1'
_cell_length_a   3.68987400
_cell_length_b   10.53696200
_cell_length_c   12.13884200
_cell_angle_alpha   90.00000000
_cell_angle_beta   90.00000000
_cell_angle_gamma   90.00000000
_symmetry_Int_Tables_number   1
_chemical_formula_structural   LiLu6Mg(Co4P3)4
_chemical_formula_sum   'Li1 Lu6 Mg1 Co16 P12'
_cell_volume   471.95893106
_cell_formula_units_Z   1
loop_
 _symmetry_equiv_pos_site_id
 _symmetry_equiv_pos_as_xyz
  1  'x, y, z'
loop_
 _atom_site_type_symbol
 _atom_site_label
 _atom_site_symmetry_multiplicity
 _atom_site_fract_x
 _atom_site_fract_y
 _atom_site_fract_z
 _atom_site_occupancy
  Li  Li0  1  0.000000  0.000000  0.843612  1
  Lu  Lu1  1  0.000000  0.500000  0.526690  1
  Lu  Lu2  1  0.500000  0.000000  0.476312  1
  Lu  Lu3  1  0.500000  0.823353  0.206824  1
  Lu  Lu4  1  0.500000  0.176647  0.206824  1
  Lu  Lu5  1  0.000000  0.679278  0.794232  1
  Lu  Lu6  1  0.000000  0.320722  0.794232  1
  Mg  Mg7  1  0.500000  0.500000  0.156083  1
  Co  Co8  1  0.500000  0.500000  0.704348  1
  Co  Co9  1  0.000000  0.000000  0.295121  1
  Co  Co10  1  0.000000  0.500000  0.987745  1
  Co  Co11  1  0.500000  0.000000  0.011444  1
  Co  Co12  1  0.500000  0.330914  0.994897  1
  Co  Co13  1  0.500000  0.669086  0.994897  1
  Co  Co14  1  0.000000  0.165904  0.001116  1
  Co  Co15  1  0.000000  0.834096  0.001116  1
  Co  Co16  1  0.500000  0.296055  0.432778  1
  Co  Co17  1  0.500000  0.703945  0.432778  1
  Co  Co18  1  0.000000  0.202793  0.568528  1
  Co  Co19  1  0.000000  0.797207  0.568528  1
  Co  Co20  1  0.500000  0.877756  0.705667  1
  Co  Co21  1  0.500000  0.122244  0.705667  1
  Co  Co22  1  0.000000  0.623464  0.294420  1
  Co  Co23  1  0.000000  0.376536  0.294420  1
  P  P24  1  0.500000  0.500000  0.883431  1
  P  P25  1  0.000000  0.000000  0.114838  1
  P  P26  1  0.500000  0.500000  0.357226  1
  P  P27  1  0.000000  0.000000  0.650833  1
  P  P28  1  0.500000  0.311195  0.617240  1
  P  P29  1  0.500000  0.688805  0.617240  1
  P  P30  1  0.000000  0.187749  0.384077  1
  P  P31  1  0.000000  0.812251  0.384077  1
  P  P32  1  0.500000  0.843542  0.889609  1
  P  P33  1  0.500000  0.156458  0.889609  1
  P  P34  1  0.000000  0.663619  0.106769  1
  P  P35  1  0.000000  0.336381  0.106769  1
