# generated using pymatgen
data_Pr16Nd4(Ir3Ru)3
_symmetry_space_group_name_H-M   'P 1'
_cell_length_a   11.29628100
_cell_length_b   11.29628100
_cell_length_c   6.64915300
_cell_angle_alpha   90.00000000
_cell_angle_beta   90.00000000
_cell_angle_gamma   90.00000000
_symmetry_Int_Tables_number   1
_chemical_formula_structural   Pr16Nd4(Ir3Ru)3
_chemical_formula_sum   'Pr16 Nd4 Ir9 Ru3'
_cell_volume   848.47158121
_cell_formula_units_Z   1
loop_
 _symmetry_equiv_pos_site_id
 _symmetry_equiv_pos_as_xyz
  1  'x, y, z'
loop_
 _atom_site_type_symbol
 _atom_site_label
 _atom_site_symmetry_multiplicity
 _atom_site_fract_x
 _atom_site_fract_y
 _atom_site_fract_z
 _atom_site_occupancy
  Pr  Pr0  1  0.088943  0.291597  0.117637  1
  Pr  Pr1  1  0.791597  0.411057  0.117637  1
  Pr  Pr2  1  0.208403  0.588943  0.117637  1
  Pr  Pr3  1  0.911057  0.708403  0.117637  1
  Pr  Pr4  1  0.412832  0.793361  0.384788  1
  Pr  Pr5  1  0.587168  0.206639  0.384788  1
  Pr  Pr6  1  0.293361  0.087168  0.384788  1
  Pr  Pr7  1  0.706639  0.912832  0.384788  1
  Pr  Pr8  1  0.412128  0.206660  0.884399  1
  Pr  Pr9  1  0.706660  0.087872  0.884399  1
  Pr  Pr10  1  0.293340  0.912128  0.884399  1
  Pr  Pr11  1  0.587872  0.793340  0.884399  1
  Pr  Pr12  1  0.089310  0.708141  0.614441  1
  Pr  Pr13  1  0.910690  0.291859  0.614441  1
  Pr  Pr14  1  0.208141  0.410690  0.614441  1
  Pr  Pr15  1  0.791859  0.589310  0.614441  1
  Nd  Nd16  1  0.000000  0.000000  0.997898  1
  Nd  Nd17  1  0.500000  0.500000  0.997898  1
  Nd  Nd18  1  0.500000  0.500000  0.498269  1
  Nd  Nd19  1  0.000000  0.000000  0.498269  1
  Ir  Ir20  1  0.152460  0.847131  0.249434  1
  Ir  Ir21  1  0.347131  0.347540  0.249434  1
  Ir  Ir22  1  0.652869  0.652460  0.249434  1
  Ir  Ir23  1  0.847540  0.152869  0.249434  1
  Ir  Ir24  1  0.346971  0.651979  0.749851  1
  Ir  Ir25  1  0.151979  0.153029  0.749851  1
  Ir  Ir26  1  0.848021  0.846971  0.749851  1
  Ir  Ir27  1  0.653029  0.348021  0.749851  1
  Ir  Ir28  1  0.000000  0.500000  0.879399  1
  Ru  Ru29  1  0.000000  0.500000  0.381565  1
  Ru  Ru30  1  0.500000  0.000000  0.121951  1
  Ru  Ru31  1  0.500000  0.000000  0.622543  1
