# generated using pymatgen
data_Er3Tm7(Zn2Sb)2
_symmetry_space_group_name_H-M   'P 1'
_cell_length_a   8.47495881
_cell_length_b   8.47495809
_cell_length_c   8.47316803
_cell_angle_alpha   123.72678036
_cell_angle_beta   123.72678002
_cell_angle_gamma   83.66014015
_symmetry_Int_Tables_number   1
_chemical_formula_structural   Er3Tm7(Zn2Sb)2
_chemical_formula_sum   'Er3 Tm7 Zn4 Sb2'
_cell_volume   403.37880503
_cell_formula_units_Z   1
loop_
 _symmetry_equiv_pos_site_id
 _symmetry_equiv_pos_as_xyz
  1  'x, y, z'
loop_
 _atom_site_type_symbol
 _atom_site_label
 _atom_site_symmetry_multiplicity
 _atom_site_fract_x
 _atom_site_fract_y
 _atom_site_fract_z
 _atom_site_occupancy
  Er  Er0  1  0.298984  0.798984  0.809463  1
  Er  Er1  1  0.489338  0.299052  0.499933  1
  Er  Er2  1  0.799052  0.989338  0.499933  1
  Tm  Tm3  1  0.999831  0.999957  0.000089  1
  Tm  Tm4  1  0.499957  0.499831  0.000089  1
  Tm  Tm5  1  0.010737  0.510737  0.809302  1
  Tm  Tm6  1  0.701602  0.201602  0.190904  1
  Tm  Tm7  1  0.510644  0.701546  0.499968  1
  Tm  Tm8  1  0.201546  0.010644  0.499968  1
  Tm  Tm9  1  0.989313  0.489313  0.190591  1
  Zn  Zn10  1  0.636042  0.136042  0.772521  1
  Zn  Zn11  1  0.363556  0.863556  0.227648  1
  Zn  Zn12  1  0.135785  0.363670  0.499826  1
  Zn  Zn13  1  0.863670  0.635785  0.499826  1
  Sb  Sb14  1  0.750033  0.749910  0.999969  1
  Sb  Sb15  1  0.249910  0.250033  0.999969  1
