# generated using pymatgen
data_Dy5Er(CI5)2
_symmetry_space_group_name_H-M   'P 1'
_cell_length_a   7.65266943
_cell_length_b   9.50703482
_cell_length_c   9.59539041
_cell_angle_alpha   106.91083349
_cell_angle_beta   96.29541702
_cell_angle_gamma   104.16857321
_symmetry_Int_Tables_number   1
_chemical_formula_structural   Dy5Er(CI5)2
_chemical_formula_sum   'Dy5 Er1 C2 I10'
_cell_volume   635.17290934
_cell_formula_units_Z   1
loop_
 _symmetry_equiv_pos_site_id
 _symmetry_equiv_pos_as_xyz
  1  'x, y, z'
loop_
 _atom_site_type_symbol
 _atom_site_label
 _atom_site_symmetry_multiplicity
 _atom_site_fract_x
 _atom_site_fract_y
 _atom_site_fract_z
 _atom_site_occupancy
  Dy  Dy0  1  0.030050  0.744341  0.926420  1
  Dy  Dy1  1  0.104031  0.038266  0.782831  1
  Dy  Dy2  1  0.970064  0.255887  0.073639  1
  Dy  Dy3  1  0.895805  0.961588  0.217073  1
  Dy  Dy4  1  0.372040  0.131052  0.176262  1
  Er  Er5  1  0.628361  0.869428  0.824407  1
  C  C6  1  0.090705  0.029833  0.041005  1
  C  C7  1  0.907431  0.969748  0.958347  1
  I  I8  1  0.197769  0.738189  0.651646  1
  I  I9  1  0.911659  0.635741  0.177223  1
  I  I10  1  0.086546  0.363696  0.821991  1
  I  I11  1  0.746276  0.915655  0.545798  1
  I  I12  1  0.252580  0.083013  0.456228  1
  I  I13  1  0.657118  0.551183  0.728702  1
  I  I14  1  0.457367  0.810406  0.092117  1
  I  I15  1  0.805503  0.262502  0.349540  1
  I  I16  1  0.342690  0.451547  0.270991  1
  I  I17  1  0.544003  0.187927  0.905780  1
