# generated using pymatgen
data_Y2Ag2IrRh3O14
_symmetry_space_group_name_H-M   'P 1'
_cell_length_a   7.20150387
_cell_length_b   7.12601107
_cell_length_c   7.22808751
_cell_angle_alpha   60.46606984
_cell_angle_beta   61.30958840
_cell_angle_gamma   60.34616796
_symmetry_Int_Tables_number   1
_chemical_formula_structural   Y2Ag2IrRh3O14
_chemical_formula_sum   'Y2 Ag2 Ir1 Rh3 O14'
_cell_volume   266.43052113
_cell_formula_units_Z   1
loop_
 _symmetry_equiv_pos_site_id
 _symmetry_equiv_pos_as_xyz
  1  'x, y, z'
loop_
 _atom_site_type_symbol
 _atom_site_label
 _atom_site_symmetry_multiplicity
 _atom_site_fract_x
 _atom_site_fract_y
 _atom_site_fract_z
 _atom_site_occupancy
  Y  Y0  1  0.625000  0.125000  0.125000  1
  Y  Y1  1  0.125000  0.125000  0.625000  1
  Ag  Ag2  1  0.125000  0.625000  0.125000  1
  Ag  Ag3  1  0.125000  0.125000  0.125000  1
  Ir  Ir4  1  0.625000  0.625000  0.125000  1
  Rh  Rh5  1  0.125000  0.625000  0.625000  1
  Rh  Rh6  1  0.625000  0.125000  0.625000  1
  Rh  Rh7  1  0.625000  0.625000  0.625000  1
  O  O8  1  0.693706  0.711238  0.296860  1
  O  O9  1  0.295136  0.291261  0.704548  1
  O  O10  1  0.714235  0.283288  0.719189  1
  O  O11  1  0.312461  0.693122  0.301294  1
  O  O12  1  0.295136  0.709054  0.704548  1
  O  O13  1  0.693706  0.298195  0.296860  1
  O  O14  1  0.556294  0.538762  0.953140  1
  O  O15  1  0.954864  0.958739  0.545452  1
  O  O16  1  0.535765  0.966712  0.530811  1
  O  O17  1  0.937539  0.556878  0.948706  1
  O  O18  1  0.954864  0.540946  0.545452  1
  O  O19  1  0.556294  0.951805  0.953140  1
  O  O20  1  0.241540  0.259376  0.239707  1
  O  O21  1  0.008460  0.990624  0.010293  1
