# generated using pymatgen
data_Tb3Dy11(Lu3Pb8)2
_symmetry_space_group_name_H-M   'P 1'
_cell_length_a   8.15560102
_cell_length_b   8.24199006
_cell_length_c   15.58815610
_cell_angle_alpha   89.99848578
_cell_angle_beta   90.00746126
_cell_angle_gamma   89.99812056
_symmetry_Int_Tables_number   1
_chemical_formula_structural   Tb3Dy11(Lu3Pb8)2
_chemical_formula_sum   'Tb3 Dy11 Lu6 Pb16'
_cell_volume   1047.81062909
_cell_formula_units_Z   1
loop_
 _symmetry_equiv_pos_site_id
 _symmetry_equiv_pos_as_xyz
  1  'x, y, z'
loop_
 _atom_site_type_symbol
 _atom_site_label
 _atom_site_symmetry_multiplicity
 _atom_site_fract_x
 _atom_site_fract_y
 _atom_site_fract_z
 _atom_site_occupancy
  Tb  Tb0  1  0.968739  0.821339  0.403237  1
  Tb  Tb1  1  0.532858  0.324990  0.599739  1
  Tb  Tb2  1  0.032860  0.174997  0.900260  1
  Dy  Dy3  1  0.626893  0.157216  0.380240  1
  Dy  Dy4  1  0.126906  0.342809  0.119760  1
  Dy  Dy5  1  0.624919  0.158861  0.121466  1
  Dy  Dy6  1  0.124925  0.341125  0.378530  1
  Dy  Dy7  1  0.375261  0.842679  0.621346  1
  Dy  Dy8  1  0.875270  0.657333  0.878654  1
  Dy  Dy9  1  0.533629  0.323440  0.901105  1
  Dy  Dy10  1  0.033629  0.176574  0.598906  1
  Dy  Dy11  1  0.466145  0.676822  0.401734  1
  Dy  Dy12  1  0.966145  0.823163  0.098273  1
  Dy  Dy13  1  0.468714  0.678647  0.096764  1
  Lu  Lu14  1  0.372452  0.844005  0.876248  1
  Lu  Lu15  1  0.872437  0.655984  0.623771  1
  Lu  Lu16  1  0.206308  0.505543  0.749975  1
  Lu  Lu17  1  0.706312  0.994446  0.750030  1
  Lu  Lu18  1  0.793747  0.495229  0.250753  1
  Lu  Lu19  1  0.293790  0.004782  0.249225  1
  Pb  Pb20  1  0.284219  0.032723  0.041517  1
  Pb  Pb21  1  0.784182  0.467224  0.458487  1
  Pb  Pb22  1  0.719205  0.961702  0.544886  1
  Pb  Pb23  1  0.219256  0.538341  0.955148  1
  Pb  Pb24  1  0.711732  0.964038  0.955596  1
  Pb  Pb25  1  0.211737  0.535960  0.544401  1
  Pb  Pb26  1  0.284072  0.034240  0.455925  1
  Pb  Pb27  1  0.784003  0.465819  0.044086  1
  Pb  Pb28  1  0.568298  0.626297  0.750515  1
  Pb  Pb29  1  0.068299  0.873701  0.749487  1
  Pb  Pb30  1  0.431044  0.375689  0.250642  1
  Pb  Pb31  1  0.931038  0.124347  0.249353  1
  Pb  Pb32  1  0.346239  0.156298  0.750377  1
  Pb  Pb33  1  0.846249  0.343704  0.749626  1
  Pb  Pb34  1  0.654201  0.843925  0.250118  1
  Pb  Pb35  1  0.154281  0.656008  0.249821  1
