# generated using pymatgen
data_Rb2Li2TiO4
_symmetry_space_group_name_H-M   'P 1'
_cell_length_a   5.74652991
_cell_length_b   5.84859855
_cell_length_c   9.07932743
_cell_angle_alpha   83.44501992
_cell_angle_beta   73.23730187
_cell_angle_gamma   84.96526352
_symmetry_Int_Tables_number   1
_chemical_formula_structural   Rb2Li2TiO4
_chemical_formula_sum   'Rb4 Li4 Ti2 O8'
_cell_volume   289.78915197
_cell_formula_units_Z   2
loop_
 _symmetry_equiv_pos_site_id
 _symmetry_equiv_pos_as_xyz
  1  'x, y, z'
loop_
 _atom_site_type_symbol
 _atom_site_label
 _atom_site_symmetry_multiplicity
 _atom_site_fract_x
 _atom_site_fract_y
 _atom_site_fract_z
 _atom_site_occupancy
  Rb  Rb0  1  0.468943  0.856955  0.720990  1
  Rb  Rb1  1  0.531057  0.143045  0.279010  1
  Rb  Rb2  1  0.784095  0.726948  0.015723  1
  Rb  Rb3  1  0.215905  0.273052  0.984277  1
  Li  Li4  1  0.924315  0.183087  0.440264  1
  Li  Li5  1  0.075685  0.816913  0.559736  1
  Li  Li6  1  0.690719  0.586795  0.421337  1
  Li  Li7  1  0.309281  0.413205  0.578663  1
  Ti  Ti8  1  0.139635  0.683646  0.278629  1
  Ti  Ti9  1  0.860365  0.316354  0.721371  1
  O  O10  1  0.021635  0.574576  0.721185  1
  O  O11  1  0.978365  0.425424  0.278815  1
  O  O12  1  0.891691  0.866866  0.400106  1
  O  O13  1  0.108309  0.133134  0.599894  1
  O  O14  1  0.264648  0.799276  0.081136  1
  O  O15  1  0.735352  0.200724  0.918864  1
  O  O16  1  0.369978  0.637571  0.389256  1
  O  O17  1  0.630022  0.362429  0.610744  1
