# generated using pymatgen
data_Tb20(RuPt3)3
_symmetry_space_group_name_H-M   'P 1'
_cell_length_a   11.06945000
_cell_length_b   11.06945000
_cell_length_c   6.39109100
_cell_angle_alpha   90.00000000
_cell_angle_beta   90.00000000
_cell_angle_gamma   90.00000000
_symmetry_Int_Tables_number   1
_chemical_formula_structural   Tb20(RuPt3)3
_chemical_formula_sum   'Tb20 Ru3 Pt9'
_cell_volume   783.11778510
_cell_formula_units_Z   1
loop_
 _symmetry_equiv_pos_site_id
 _symmetry_equiv_pos_as_xyz
  1  'x, y, z'
loop_
 _atom_site_type_symbol
 _atom_site_label
 _atom_site_symmetry_multiplicity
 _atom_site_fract_x
 _atom_site_fract_y
 _atom_site_fract_z
 _atom_site_occupancy
  Tb  Tb0  1  0.297062  0.086817  0.374580  1
  Tb  Tb1  1  0.297557  0.913827  0.875104  1
  Tb  Tb2  1  0.702443  0.086173  0.875104  1
  Tb  Tb3  1  0.702938  0.913183  0.374580  1
  Tb  Tb4  1  0.586173  0.797557  0.875104  1
  Tb  Tb5  1  0.586817  0.202938  0.374580  1
  Tb  Tb6  1  0.413183  0.797062  0.374580  1
  Tb  Tb7  1  0.413827  0.202443  0.875104  1
  Tb  Tb8  1  0.207021  0.410204  0.629966  1
  Tb  Tb9  1  0.206226  0.589002  0.122054  1
  Tb  Tb10  1  0.793774  0.410998  0.122054  1
  Tb  Tb11  1  0.792979  0.589796  0.629966  1
  Tb  Tb12  1  0.910998  0.706226  0.122054  1
  Tb  Tb13  1  0.910204  0.292979  0.629966  1
  Tb  Tb14  1  0.089796  0.707021  0.629966  1
  Tb  Tb15  1  0.089002  0.293774  0.122054  1
  Tb  Tb16  1  0.000000  0.000000  0.498416  1
  Tb  Tb17  1  0.000000  0.000000  0.998249  1
  Tb  Tb18  1  0.500000  0.500000  0.998249  1
  Tb  Tb19  1  0.500000  0.500000  0.498416  1
  Ru  Ru20  1  0.500000  0.000000  0.124998  1
  Ru  Ru21  1  0.500000  0.000000  0.624773  1
  Ru  Ru22  1  0.000000  0.500000  0.876577  1
  Pt  Pt23  1  0.846853  0.154497  0.249431  1
  Pt  Pt24  1  0.846513  0.845719  0.748932  1
  Pt  Pt25  1  0.153487  0.154281  0.748932  1
  Pt  Pt26  1  0.153147  0.845503  0.249431  1
  Pt  Pt27  1  0.654281  0.346513  0.748932  1
  Pt  Pt28  1  0.654497  0.653147  0.249431  1
  Pt  Pt29  1  0.345503  0.346853  0.249431  1
  Pt  Pt30  1  0.345719  0.653487  0.748932  1
  Pt  Pt31  1  0.000000  0.500000  0.380050  1
