# generated using pymatgen
data_Tc(Ir3Rh)2
_symmetry_space_group_name_H-M   'P 1'
_cell_length_a   6.11843480
_cell_length_b   6.11843529
_cell_length_c   6.12068061
_cell_angle_alpha   95.71790436
_cell_angle_beta   95.72416690
_cell_angle_gamma   143.18327585
_symmetry_Int_Tables_number   1
_chemical_formula_structural   Tc(Ir3Rh)2
_chemical_formula_sum   'Tc1 Ir6 Rh2'
_cell_volume   130.28662351
_cell_formula_units_Z   1
loop_
 _symmetry_equiv_pos_site_id
 _symmetry_equiv_pos_as_xyz
  1  'x, y, z'
loop_
 _atom_site_type_symbol
 _atom_site_label
 _atom_site_symmetry_multiplicity
 _atom_site_fract_x
 _atom_site_fract_y
 _atom_site_fract_z
 _atom_site_occupancy
  Tc  Tc0  1  0.001648  0.002596  0.004244  1
  Ir  Ir1  1  0.664524  0.337031  0.001557  1
  Ir  Ir2  1  0.336250  0.664024  0.000275  1
  Ir  Ir3  1  0.662054  0.662489  0.324544  1
  Ir  Ir4  1  0.329893  0.998482  0.328375  1
  Ir  Ir5  1  0.000247  0.331045  0.331292  1
  Ir  Ir6  1  0.668158  0.000494  0.668652  1
  Rh  Rh7  1  0.001746  0.666787  0.668532  1
  Rh  Rh8  1  0.335480  0.337051  0.672529  1
