# generated using pymatgen
data_MnFe5(P2O7)4
_symmetry_space_group_name_H-M   'P 1'
_cell_length_a   8.91396000
_cell_length_b   10.59680300
_cell_length_c   12.46576400
_cell_angle_alpha   90.00000000
_cell_angle_beta   90.00000000
_cell_angle_gamma   90.00000000
_symmetry_Int_Tables_number   1
_chemical_formula_structural   MnFe5(P2O7)4
_chemical_formula_sum   'Mn2 Fe10 P16 O56'
_cell_volume   1177.50956118
_cell_formula_units_Z   2
loop_
 _symmetry_equiv_pos_site_id
 _symmetry_equiv_pos_as_xyz
  1  'x, y, z'
loop_
 _atom_site_type_symbol
 _atom_site_label
 _atom_site_symmetry_multiplicity
 _atom_site_fract_x
 _atom_site_fract_y
 _atom_site_fract_z
 _atom_site_occupancy
  Mn  Mn0  1  0.738403  0.881647  0.750000  1
  Mn  Mn1  1  0.761597  0.381647  0.250000  1
  Fe  Fe2  1  0.239345  0.617262  0.750000  1
  Fe  Fe3  1  0.245676  0.121158  0.009808  1
  Fe  Fe4  1  0.245676  0.121158  0.490192  1
  Fe  Fe5  1  0.254324  0.621158  0.509808  1
  Fe  Fe6  1  0.254324  0.621158  0.990192  1
  Fe  Fe7  1  0.260655  0.117262  0.250000  1
  Fe  Fe8  1  0.745597  0.379206  0.006904  1
  Fe  Fe9  1  0.745597  0.379206  0.493096  1
  Fe  Fe10  1  0.754403  0.879206  0.506904  1
  Fe  Fe11  1  0.754403  0.879206  0.993096  1
  P  P12  1  0.074039  0.365691  0.627654  1
  P  P13  1  0.074039  0.365691  0.872346  1
  P  P14  1  0.088673  0.877976  0.631942  1
  P  P15  1  0.088673  0.877976  0.868058  1
  P  P16  1  0.411327  0.377976  0.368058  1
  P  P17  1  0.411327  0.377976  0.131942  1
  P  P18  1  0.425961  0.865691  0.127654  1
  P  P19  1  0.425961  0.865691  0.372346  1
  P  P20  1  0.573426  0.133597  0.873270  1
  P  P21  1  0.573426  0.133597  0.626730  1
  P  P22  1  0.587188  0.622399  0.868021  1
  P  P23  1  0.587188  0.622399  0.631979  1
  P  P24  1  0.912812  0.122399  0.131979  1
  P  P25  1  0.912812  0.122399  0.368021  1
  P  P26  1  0.926574  0.633597  0.126730  1
  P  P27  1  0.926574  0.633597  0.373270  1
  O  O28  1  0.053682  0.319427  0.750000  1
  O  O29  1  0.082707  0.610139  0.417815  1
  O  O30  1  0.082707  0.610139  0.082185  1
  O  O31  1  0.085394  0.128012  0.131668  1
  O  O32  1  0.085394  0.128012  0.368332  1
  O  O33  1  0.132577  0.929671  0.750000  1
  O  O34  1  0.151332  0.971830  0.553472  1
  O  O35  1  0.151332  0.971830  0.946528  1
  O  O36  1  0.151121  0.257196  0.570674  1
  O  O37  1  0.151121  0.257196  0.929326  1
  O  O38  1  0.158200  0.744927  0.624074  1
  O  O39  1  0.158200  0.744927  0.875926  1
  O  O40  1  0.166207  0.488952  0.631266  1
  O  O41  1  0.166207  0.488952  0.868734  1
  O  O42  1  0.333793  0.988952  0.131266  1
  O  O43  1  0.333793  0.988952  0.368734  1
  O  O44  1  0.341800  0.244927  0.124074  1
  O  O45  1  0.341800  0.244927  0.375926  1
  O  O46  1  0.348879  0.757196  0.070674  1
  O  O47  1  0.348879  0.757196  0.429326  1
  O  O48  1  0.348668  0.471830  0.053472  1
  O  O49  1  0.348668  0.471830  0.446528  1
  O  O50  1  0.367423  0.429671  0.250000  1
  O  O51  1  0.414606  0.628012  0.631668  1
  O  O52  1  0.414606  0.628012  0.868332  1
  O  O53  1  0.417293  0.110139  0.582185  1
  O  O54  1  0.417293  0.110139  0.917815  1
  O  O55  1  0.446318  0.819427  0.250000  1
  O  O56  1  0.551816  0.175683  0.750000  1
  O  O57  1  0.582416  0.891367  0.084402  1
  O  O58  1  0.582416  0.891367  0.415598  1
  O  O59  1  0.583717  0.371183  0.129164  1
  O  O60  1  0.583717  0.371183  0.370836  1
  O  O61  1  0.634800  0.573317  0.750000  1
  O  O62  1  0.648129  0.527367  0.554066  1
  O  O63  1  0.648129  0.527367  0.945934  1
  O  O64  1  0.651267  0.244045  0.572997  1
  O  O65  1  0.651267  0.244045  0.927003  1
  O  O66  1  0.654617  0.755561  0.879139  1
  O  O67  1  0.654617  0.755561  0.620861  1
  O  O68  1  0.666114  0.010891  0.872631  1
  O  O69  1  0.666114  0.010891  0.627369  1
  O  O70  1  0.833886  0.510891  0.127369  1
  O  O71  1  0.833886  0.510891  0.372631  1
  O  O72  1  0.845383  0.255561  0.120861  1
  O  O73  1  0.845383  0.255561  0.379139  1
  O  O74  1  0.848733  0.744045  0.072997  1
  O  O75  1  0.848733  0.744045  0.427003  1
  O  O76  1  0.851871  0.027367  0.054066  1
  O  O77  1  0.851871  0.027367  0.445934  1
  O  O78  1  0.865200  0.073317  0.250000  1
  O  O79  1  0.916283  0.871183  0.629164  1
  O  O80  1  0.916283  0.871183  0.870836  1
  O  O81  1  0.917584  0.391367  0.915598  1
  O  O82  1  0.917584  0.391367  0.584402  1
  O  O83  1  0.948184  0.675683  0.250000  1
