# generated using pymatgen
data_Rb2TlCr3F12
_symmetry_space_group_name_H-M   'P 1'
_cell_length_a   7.51732400
_cell_length_b   7.85199547
_cell_length_c   10.68883100
_cell_angle_alpha   86.75156049
_cell_angle_beta   90.00000000
_cell_angle_gamma   90.00000000
_symmetry_Int_Tables_number   1
_chemical_formula_structural   Rb2TlCr3F12
_chemical_formula_sum   'Rb4 Tl2 Cr6 F24'
_cell_volume   629.90512331
_cell_formula_units_Z   2
loop_
 _symmetry_equiv_pos_site_id
 _symmetry_equiv_pos_as_xyz
  1  'x, y, z'
loop_
 _atom_site_type_symbol
 _atom_site_label
 _atom_site_symmetry_multiplicity
 _atom_site_fract_x
 _atom_site_fract_y
 _atom_site_fract_z
 _atom_site_occupancy
  Rb  Rb0  1  0.750000  0.989607  0.108206  1
  Rb  Rb1  1  0.250000  0.010393  0.891794  1
  Rb  Rb2  1  0.250000  0.469046  0.643173  1
  Rb  Rb3  1  0.750000  0.530954  0.356827  1
  Tl  Tl4  1  0.750000  0.224794  0.755544  1
  Tl  Tl5  1  0.250000  0.775206  0.244456  1
  Cr  Cr6  1  0.500000  0.000000  0.500000  1
  Cr  Cr7  1  0.000000  0.000000  0.500000  1
  Cr  Cr8  1  0.000000  0.500000  0.000000  1
  Cr  Cr9  1  0.500000  0.500000  0.000000  1
  Cr  Cr10  1  0.750000  0.708714  0.728701  1
  Cr  Cr11  1  0.250000  0.291286  0.271299  1
  F  F12  1  0.750000  0.082732  0.499261  1
  F  F13  1  0.250000  0.917268  0.500739  1
  F  F14  1  0.750000  0.530209  0.613216  1
  F  F15  1  0.250000  0.469791  0.386784  1
  F  F16  1  0.250000  0.510169  0.942581  1
  F  F17  1  0.750000  0.489831  0.057419  1
  F  F18  1  0.250000  0.111153  0.159659  1
  F  F19  1  0.750000  0.888847  0.840341  1
  F  F20  1  0.945682  0.850295  0.369708  1
  F  F21  1  0.445682  0.149705  0.630292  1
  F  F22  1  0.054318  0.149705  0.630292  1
  F  F23  1  0.554318  0.850295  0.369708  1
  F  F24  1  0.945188  0.817901  0.629475  1
  F  F25  1  0.445188  0.182099  0.370525  1
  F  F26  1  0.054812  0.182099  0.370525  1
  F  F27  1  0.554812  0.817901  0.629475  1
  F  F28  1  0.013276  0.731814  0.046782  1
  F  F29  1  0.513276  0.268186  0.953218  1
  F  F30  1  0.986724  0.268186  0.953218  1
  F  F31  1  0.486724  0.731814  0.046782  1
  F  F32  1  0.437011  0.419380  0.173515  1
  F  F33  1  0.937011  0.580620  0.826485  1
  F  F34  1  0.562989  0.580620  0.826485  1
  F  F35  1  0.062989  0.419380  0.173515  1
