# generated using pymatgen
data_HoTm5Pa2(NiB14)2
_symmetry_space_group_name_H-M   'P 1'
_cell_length_a   7.18933598
_cell_length_b   7.18974506
_cell_length_c   7.46180300
_cell_angle_alpha   90.00000000
_cell_angle_beta   90.00000000
_cell_angle_gamma   89.96259932
_symmetry_Int_Tables_number   1
_chemical_formula_structural   HoTm5Pa2(NiB14)2
_chemical_formula_sum   'Ho1 Tm5 Pa2 Ni2 B28'
_cell_volume   385.69673076
_cell_formula_units_Z   1
loop_
 _symmetry_equiv_pos_site_id
 _symmetry_equiv_pos_as_xyz
  1  'x, y, z'
loop_
 _atom_site_type_symbol
 _atom_site_label
 _atom_site_symmetry_multiplicity
 _atom_site_fract_x
 _atom_site_fract_y
 _atom_site_fract_z
 _atom_site_occupancy
  Ho  Ho0  1  0.166757  0.306369  0.500000  1
  Tm  Tm1  1  0.335392  0.808439  0.000000  1
  Tm  Tm2  1  0.694240  0.167169  0.500000  1
  Tm  Tm3  1  0.306128  0.834002  0.500000  1
  Tm  Tm4  1  0.808340  0.664313  0.000000  1
  Tm  Tm5  1  0.833814  0.694004  0.500000  1
  Pa  Pa6  1  0.193897  0.329086  0.000000  1
  Pa  Pa7  1  0.671257  0.194018  0.000000  1
  Ni  Ni8  1  0.000411  0.994890  0.000000  1
  Ni  Ni9  1  0.501645  0.503441  0.500000  1
  B  B10  1  0.174053  0.037839  0.232191  1
  B  B11  1  0.960324  0.171965  0.233628  1
  B  B12  1  0.039706  0.822337  0.231000  1
  B  B13  1  0.675487  0.462507  0.269141  1
  B  B14  1  0.324962  0.542479  0.269479  1
  B  B15  1  0.823782  0.958988  0.233256  1
  B  B16  1  0.539826  0.677396  0.271485  1
  B  B17  1  0.460564  0.327252  0.268373  1
  B  B18  1  0.823782  0.958988  0.766744  1
  B  B19  1  0.039706  0.822337  0.769000  1
  B  B20  1  0.960324  0.171965  0.766372  1
  B  B21  1  0.324962  0.542479  0.730521  1
  B  B22  1  0.675487  0.462507  0.730859  1
  B  B23  1  0.174053  0.037839  0.767809  1
  B  B24  1  0.460564  0.327252  0.731627  1
  B  B25  1  0.539826  0.677396  0.728515  1
  B  B26  1  0.087975  0.587911  0.246806  1
  B  B27  1  0.409880  0.090645  0.244168  1
  B  B28  1  0.587479  0.913280  0.248755  1
  B  B29  1  0.910131  0.409915  0.244190  1
  B  B30  1  0.910131  0.409915  0.755810  1
  B  B31  1  0.587479  0.913280  0.751245  1
  B  B32  1  0.409880  0.090645  0.755832  1
  B  B33  1  0.087975  0.587911  0.753194  1
  B  B34  1  0.999910  0.995740  0.390942  1
  B  B35  1  0.499983  0.503882  0.110815  1
  B  B36  1  0.999910  0.995740  0.609058  1
  B  B37  1  0.499983  0.503882  0.889185  1
