# generated using pymatgen
data_Tb3ZrIn2Ir3
_symmetry_space_group_name_H-M   'P 1'
_cell_length_a   7.46723714
_cell_length_b   7.21967306
_cell_length_c   4.20655200
_cell_angle_alpha   90.00000000
_cell_angle_beta   90.00000000
_cell_angle_gamma   118.90922779
_symmetry_Int_Tables_number   1
_chemical_formula_structural   Tb3ZrIn2Ir3
_chemical_formula_sum   'Tb3 Zr1 In2 Ir3'
_cell_volume   198.51972764
_cell_formula_units_Z   1
loop_
 _symmetry_equiv_pos_site_id
 _symmetry_equiv_pos_as_xyz
  1  'x, y, z'
loop_
 _atom_site_type_symbol
 _atom_site_label
 _atom_site_symmetry_multiplicity
 _atom_site_fract_x
 _atom_site_fract_y
 _atom_site_fract_z
 _atom_site_occupancy
  Tb  Tb0  1  0.418144  0.412811  0.000000  1
  Tb  Tb1  1  0.581856  0.994667  0.000000  1
  Tb  Tb2  1  0.000000  0.605903  0.000000  1
  Zr  Zr3  1  0.000000  0.246433  0.500000  1
  In  In4  1  0.745453  0.747202  0.500000  1
  In  In5  1  0.254547  0.001750  0.500000  1
  Ir  Ir6  1  0.000000  0.018538  0.000000  1
  Ir  Ir7  1  0.320976  0.646836  0.500000  1
  Ir  Ir8  1  0.679024  0.325859  0.500000  1
