# generated using pymatgen
data_KAc4Tl7Br20
_symmetry_space_group_name_H-M   'P 1'
_cell_length_a   8.79532104
_cell_length_b   9.54753964
_cell_length_c   13.96752100
_cell_angle_alpha   90.04220577
_cell_angle_beta   90.00530919
_cell_angle_gamma   90.14612913
_symmetry_Int_Tables_number   1
_chemical_formula_structural   KAc4Tl7Br20
_chemical_formula_sum   'K1 Ac4 Tl7 Br20'
_cell_volume   1172.89994886
_cell_formula_units_Z   1
loop_
 _symmetry_equiv_pos_site_id
 _symmetry_equiv_pos_as_xyz
  1  'x, y, z'
loop_
 _atom_site_type_symbol
 _atom_site_label
 _atom_site_symmetry_multiplicity
 _atom_site_fract_x
 _atom_site_fract_y
 _atom_site_fract_z
 _atom_site_occupancy
  K  K0  1  0.449576  0.502708  0.673480  1
  Ac  Ac1  1  0.921722  0.749970  0.506394  1
  Ac  Ac2  1  0.077907  0.250003  0.494079  1
  Ac  Ac3  1  0.422435  0.250055  0.993592  1
  Ac  Ac4  1  0.577738  0.749942  0.005783  1
  Tl  Tl5  1  0.948121  0.003332  0.826764  1
  Tl  Tl6  1  0.051887  0.996753  0.173149  1
  Tl  Tl7  1  0.448107  0.996692  0.673098  1
  Tl  Tl8  1  0.051924  0.503308  0.173158  1
  Tl  Tl9  1  0.551794  0.003335  0.327073  1
  Tl  Tl10  1  0.947953  0.496666  0.826770  1
  Tl  Tl11  1  0.551867  0.496660  0.327049  1
  Br  Br12  1  0.132043  0.749073  0.682491  1
  Br  Br13  1  0.869037  0.249908  0.317239  1
  Br  Br14  1  0.629886  0.251204  0.816666  1
  Br  Br15  1  0.369053  0.749925  0.182671  1
  Br  Br16  1  0.832282  0.045183  0.580145  1
  Br  Br17  1  0.167846  0.954986  0.420070  1
  Br  Br18  1  0.332123  0.954416  0.919892  1
  Br  Br19  1  0.167650  0.545784  0.419862  1
  Br  Br20  1  0.667782  0.045687  0.079929  1
  Br  Br21  1  0.831622  0.454077  0.580173  1
  Br  Br22  1  0.667769  0.454740  0.080071  1
  Br  Br23  1  0.332450  0.545074  0.919054  1
  Br  Br24  1  0.567668  0.748307  0.507531  1
  Br  Br25  1  0.432206  0.251875  0.494320  1
  Br  Br26  1  0.067860  0.249924  0.993397  1
  Br  Br27  1  0.931956  0.750203  0.006421  1
  Br  Br28  1  0.665457  0.748346  0.790550  1
  Br  Br29  1  0.333201  0.249866  0.209080  1
  Br  Br30  1  0.168045  0.251952  0.708923  1
  Br  Br31  1  0.833029  0.750042  0.291124  1
