# generated using pymatgen
data_Tb19HoPb16
_symmetry_space_group_name_H-M   'P 1'
_cell_length_a   8.24675208
_cell_length_b   15.74758000
_cell_length_c   8.33553708
_cell_angle_alpha   90.00000000
_cell_angle_beta   90.01579744
_cell_angle_gamma   90.00000000
_symmetry_Int_Tables_number   1
_chemical_formula_structural   Tb19HoPb16
_chemical_formula_sum   'Tb19 Ho1 Pb16'
_cell_volume   1082.50605216
_cell_formula_units_Z   1
loop_
 _symmetry_equiv_pos_site_id
 _symmetry_equiv_pos_as_xyz
  1  'x, y, z'
loop_
 _atom_site_type_symbol
 _atom_site_label
 _atom_site_symmetry_multiplicity
 _atom_site_fract_x
 _atom_site_fract_y
 _atom_site_fract_z
 _atom_site_occupancy
  Tb  Tb0  1  0.622786  0.620110  0.159604  1
  Tb  Tb1  1  0.122783  0.879843  0.340394  1
  Tb  Tb2  1  0.377394  0.120187  0.840521  1
  Tb  Tb3  1  0.877099  0.379824  0.659682  1
  Tb  Tb4  1  0.377394  0.379813  0.840521  1
  Tb  Tb5  1  0.877099  0.120176  0.659682  1
  Tb  Tb6  1  0.622786  0.879890  0.159604  1
  Tb  Tb7  1  0.122783  0.620157  0.340394  1
  Tb  Tb8  1  0.466531  0.600188  0.677084  1
  Tb  Tb9  1  0.966559  0.899851  0.822906  1
  Tb  Tb10  1  0.533528  0.100189  0.322791  1
  Tb  Tb11  1  0.033352  0.399794  0.177003  1
  Tb  Tb12  1  0.533528  0.399811  0.322791  1
  Tb  Tb13  1  0.033352  0.100206  0.177003  1
  Tb  Tb14  1  0.466531  0.899812  0.677084  1
  Tb  Tb15  1  0.966559  0.600149  0.822906  1
  Tb  Tb16  1  0.791321  0.750000  0.496607  1
  Tb  Tb17  1  0.291327  0.750000  0.003341  1
  Tb  Tb18  1  0.208649  0.250000  0.503322  1
  Ho  Ho19  1  0.708836  0.250000  0.996603  1
  Pb  Pb20  1  0.718979  0.457169  0.967293  1
  Pb  Pb21  1  0.218990  0.042590  0.532771  1
  Pb  Pb22  1  0.281015  0.957463  0.032792  1
  Pb  Pb23  1  0.781020  0.542534  0.467228  1
  Pb  Pb24  1  0.281015  0.542537  0.032792  1
  Pb  Pb25  1  0.781020  0.957466  0.467228  1
  Pb  Pb26  1  0.718979  0.042831  0.967293  1
  Pb  Pb27  1  0.218990  0.457410  0.532771  1
  Pb  Pb28  1  0.427333  0.750000  0.373193  1
  Pb  Pb29  1  0.927335  0.750000  0.126794  1
  Pb  Pb30  1  0.572783  0.250000  0.627148  1
  Pb  Pb31  1  0.072114  0.250000  0.873454  1
  Pb  Pb32  1  0.655215  0.750000  0.848980  1
  Pb  Pb33  1  0.155174  0.750000  0.651160  1
  Pb  Pb34  1  0.345097  0.250000  0.150987  1
  Pb  Pb35  1  0.844745  0.250000  0.348269  1
