# generated using pymatgen
data_Zr8Ta11TiGe16
_symmetry_space_group_name_H-M   'P 1'
_cell_length_a   6.85168475
_cell_length_b   6.95503645
_cell_length_c   13.31415161
_cell_angle_alpha   89.99992212
_cell_angle_beta   89.96539405
_cell_angle_gamma   89.95899957
_symmetry_Int_Tables_number   1
_chemical_formula_structural   Zr8Ta11TiGe16
_chemical_formula_sum   'Zr8 Ta11 Ti1 Ge16'
_cell_volume   634.46853666
_cell_formula_units_Z   1
loop_
 _symmetry_equiv_pos_site_id
 _symmetry_equiv_pos_as_xyz
  1  'x, y, z'
loop_
 _atom_site_type_symbol
 _atom_site_label
 _atom_site_symmetry_multiplicity
 _atom_site_fract_x
 _atom_site_fract_y
 _atom_site_fract_z
 _atom_site_occupancy
  Zr  Zr0  1  0.488462  0.674429  0.591453  1
  Zr  Zr1  1  0.988587  0.825532  0.907878  1
  Zr  Zr2  1  0.511492  0.325349  0.091254  1
  Zr  Zr3  1  0.011874  0.174369  0.408869  1
  Zr  Zr4  1  0.510919  0.326558  0.408524  1
  Zr  Zr5  1  0.011330  0.174279  0.091063  1
  Zr  Zr6  1  0.488718  0.673959  0.907966  1
  Zr  Zr7  1  0.989935  0.823597  0.591024  1
  Ta  Ta8  1  0.158705  0.333449  0.874927  1
  Ta  Ta9  1  0.341207  0.833799  0.124772  1
  Ta  Ta10  1  0.839896  0.666551  0.376025  1
  Ta  Ta11  1  0.341453  0.834594  0.375511  1
  Ta  Ta12  1  0.841575  0.665868  0.124963  1
  Ta  Ta13  1  0.657697  0.167249  0.874935  1
  Ta  Ta14  1  0.158760  0.333968  0.624697  1
  Ta  Ta15  1  0.836312  0.490626  0.750718  1
  Ta  Ta16  1  0.335108  0.010277  0.750441  1
  Ta  Ta17  1  0.163940  0.510925  0.250313  1
  Ta  Ta18  1  0.664243  0.989144  0.250311  1
  Ti  Ti19  1  0.659506  0.165914  0.624957  1
  Ge  Ge20  1  0.682702  0.963515  0.462644  1
  Ge  Ge21  1  0.182522  0.539292  0.039522  1
  Ge  Ge22  1  0.317384  0.039188  0.960243  1
  Ge  Ge23  1  0.814702  0.456108  0.540656  1
  Ge  Ge24  1  0.320520  0.040043  0.540587  1
  Ge  Ge25  1  0.818177  0.460878  0.960290  1
  Ge  Ge26  1  0.682329  0.960692  0.039341  1
  Ge  Ge27  1  0.181492  0.539633  0.460484  1
  Ge  Ge28  1  0.463098  0.384854  0.747624  1
  Ge  Ge29  1  0.958720  0.113081  0.748377  1
  Ge  Ge30  1  0.538731  0.612118  0.250242  1
  Ge  Ge31  1  0.038600  0.888041  0.250343  1
  Ge  Ge32  1  0.692570  0.851917  0.748438  1
  Ge  Ge33  1  0.193807  0.649962  0.750053  1
  Ge  Ge34  1  0.307467  0.150975  0.250260  1
  Ge  Ge35  1  0.807461  0.349266  0.250296  1
