# generated using pymatgen
data_Ho3BeGa4Co7
_symmetry_space_group_name_H-M   'P 1'
_cell_length_a   7.08725526
_cell_length_b   8.55362979
_cell_length_c   8.55471500
_cell_angle_alpha   120.01387005
_cell_angle_beta   90.01550576
_cell_angle_gamma   89.98222973
_symmetry_Int_Tables_number   1
_chemical_formula_structural   Ho3BeGa4Co7
_chemical_formula_sum   'Ho6 Be2 Ga8 Co14'
_cell_volume   449.05957535
_cell_formula_units_Z   2
loop_
 _symmetry_equiv_pos_site_id
 _symmetry_equiv_pos_as_xyz
  1  'x, y, z'
loop_
 _atom_site_type_symbol
 _atom_site_label
 _atom_site_symmetry_multiplicity
 _atom_site_fract_x
 _atom_site_fract_y
 _atom_site_fract_z
 _atom_site_occupancy
  Ho  Ho0  1  0.001670  0.525206  0.050126  1
  Ho  Ho1  1  0.001610  0.525070  0.474852  1
  Ho  Ho2  1  0.001699  0.949816  0.474727  1
  Ho  Ho3  1  0.501403  0.050075  0.525087  1
  Ho  Ho4  1  0.501576  0.474993  0.525118  1
  Ho  Ho5  1  0.501413  0.475002  0.949983  1
  Be  Be6  1  0.218988  0.999875  0.000053  1
  Be  Be7  1  0.719054  0.999862  0.000047  1
  Ga  Ga8  1  0.291896  0.339904  0.169950  1
  Ga  Ga9  1  0.291879  0.830183  0.169907  1
  Ga  Ga10  1  0.677309  0.666720  0.333385  1
  Ga  Ga11  1  0.792143  0.169935  0.340076  1
  Ga  Ga12  1  0.291948  0.830038  0.660022  1
  Ga  Ga13  1  0.176544  0.333312  0.666605  1
  Ga  Ga14  1  0.792061  0.169975  0.829895  1
  Ga  Ga15  1  0.792061  0.660041  0.830076  1
  Co  Co16  1  0.969476  0.194300  0.097191  1
  Co  Co17  1  0.969441  0.902886  0.097140  1
  Co  Co18  1  0.669584  0.322998  0.161497  1
  Co  Co19  1  0.669334  0.838380  0.161670  1
  Co  Co20  1  0.469476  0.097207  0.194336  1
  Co  Co21  1  0.169480  0.161747  0.323348  1
  Co  Co22  1  0.326577  0.666690  0.333269  1
  Co  Co23  1  0.825799  0.333384  0.666707  1
  Co  Co24  1  0.669472  0.838483  0.676925  1
  Co  Co25  1  0.969484  0.902797  0.805669  1
  Co  Co26  1  0.169491  0.161596  0.838366  1
  Co  Co27  1  0.169566  0.676689  0.838260  1
  Co  Co28  1  0.469503  0.097162  0.902884  1
  Co  Co29  1  0.469463  0.805673  0.902828  1
