# generated using pymatgen
data_Y5Lu3Re(B8Os)3
_symmetry_space_group_name_H-M   'P 1'
_cell_length_a   3.64082800
_cell_length_b   9.11006050
_cell_length_c   11.50632631
_cell_angle_alpha   90.10443992
_cell_angle_beta   90.00000000
_cell_angle_gamma   90.00000000
_symmetry_Int_Tables_number   1
_chemical_formula_structural   Y5Lu3Re(B8Os)3
_chemical_formula_sum   'Y5 Lu3 Re1 B24 Os3'
_cell_volume   381.64307683
_cell_formula_units_Z   1
loop_
 _symmetry_equiv_pos_site_id
 _symmetry_equiv_pos_as_xyz
  1  'x, y, z'
loop_
 _atom_site_type_symbol
 _atom_site_label
 _atom_site_symmetry_multiplicity
 _atom_site_fract_x
 _atom_site_fract_y
 _atom_site_fract_z
 _atom_site_occupancy
  Y  Y0  1  0.000000  0.322177  0.415061  1
  Y  Y1  1  0.000000  0.680336  0.588391  1
  Y  Y2  1  0.000000  0.821396  0.083231  1
  Y  Y3  1  0.000000  0.177642  0.913038  1
  Y  Y4  1  0.000000  0.943530  0.372621  1
  Lu  Lu5  1  0.000000  0.056029  0.628790  1
  Lu  Lu6  1  0.000000  0.443069  0.127104  1
  Lu  Lu7  1  0.000000  0.556575  0.872662  1
  Re  Re8  1  0.000000  0.861743  0.820513  1
  B  B9  1  0.500000  0.553018  0.432909  1
  B  B10  1  0.500000  0.445780  0.567900  1
  B  B11  1  0.500000  0.054529  0.066956  1
  B  B12  1  0.500000  0.946800  0.932755  1
  B  B13  1  0.500000  0.747594  0.419062  1
  B  B14  1  0.500000  0.250625  0.581523  1
  B  B15  1  0.500000  0.250236  0.080665  1
  B  B16  1  0.500000  0.749860  0.918824  1
  B  B17  1  0.500000  0.789429  0.265307  1
  B  B18  1  0.500000  0.208774  0.733691  1
  B  B19  1  0.500000  0.292331  0.233354  1
  B  B20  1  0.500000  0.707780  0.766283  1
  B  B21  1  0.500000  0.629044  0.184256  1
  B  B22  1  0.500000  0.370031  0.815071  1
  B  B23  1  0.500000  0.132316  0.314590  1
  B  B24  1  0.500000  0.869639  0.685510  1
  B  B25  1  0.500000  0.983729  0.212191  1
  B  B26  1  0.500000  0.018268  0.786678  1
  B  B27  1  0.500000  0.481781  0.286495  1
  B  B28  1  0.500000  0.517652  0.713851  1
  B  B29  1  0.500000  0.601552  0.028536  1
  B  B30  1  0.500000  0.396874  0.971497  1
  B  B31  1  0.500000  0.106380  0.472082  1
  B  B32  1  0.500000  0.895548  0.529887  1
  Os  Os33  1  0.000000  0.635787  0.320000  1
  Os  Os34  1  0.000000  0.362282  0.679698  1
  Os  Os35  1  0.000000  0.139866  0.179014  1
