# generated using pymatgen
data_K2LiVSe4
_symmetry_space_group_name_H-M   'P 1'
_cell_length_a   13.50923441
_cell_length_b   12.10514041
_cell_length_c   7.38171478
_cell_angle_alpha   84.05027566
_cell_angle_beta   63.02912553
_cell_angle_gamma   32.92060954
_symmetry_Int_Tables_number   1
_chemical_formula_structural   K2LiVSe4
_chemical_formula_sum   'K4 Li2 V2 Se8'
_cell_volume   479.60332866
_cell_formula_units_Z   2
loop_
 _symmetry_equiv_pos_site_id
 _symmetry_equiv_pos_as_xyz
  1  'x, y, z'
loop_
 _atom_site_type_symbol
 _atom_site_label
 _atom_site_symmetry_multiplicity
 _atom_site_fract_x
 _atom_site_fract_y
 _atom_site_fract_z
 _atom_site_occupancy
  K  K0  1  0.069632  0.069632  0.430368  1
  K  K1  1  0.180368  0.180368  0.819632  1
  K  K2  1  0.430368  0.430368  0.069632  1
  K  K3  1  0.819632  0.819632  0.180368  1
  Li  Li4  1  0.500000  0.500000  0.500000  1
  Li  Li5  1  0.750000  0.750000  0.750000  1
  V  V6  1  0.000000  0.000000  0.000000  1
  V  V7  1  0.250000  0.250000  0.250000  1
  Se  Se8  1  0.739639  0.373085  0.062127  1
  Se  Se9  1  0.062127  0.825148  0.739639  1
  Se  Se10  1  0.825148  0.062127  0.373085  1
  Se  Se11  1  0.373085  0.739639  0.825148  1
  Se  Se12  1  0.510361  0.876915  0.187873  1
  Se  Se13  1  0.424852  0.187873  0.876915  1
  Se  Se14  1  0.187873  0.424852  0.510361  1
  Se  Se15  1  0.876915  0.510361  0.424852  1
