# generated using pymatgen
data_Dy2ErCo8P6Ru
_symmetry_space_group_name_H-M   'P 1'
_cell_length_a   3.70489000
_cell_length_b   10.51964800
_cell_length_c   12.24879400
_cell_angle_alpha   90.00000000
_cell_angle_beta   90.00000000
_cell_angle_gamma   90.00000000
_symmetry_Int_Tables_number   1
_chemical_formula_structural   Dy2ErCo8P6Ru
_chemical_formula_sum   'Dy4 Er2 Co16 P12 Ru2'
_cell_volume   477.38619600
_cell_formula_units_Z   2
loop_
 _symmetry_equiv_pos_site_id
 _symmetry_equiv_pos_as_xyz
  1  'x, y, z'
loop_
 _atom_site_type_symbol
 _atom_site_label
 _atom_site_symmetry_multiplicity
 _atom_site_fract_x
 _atom_site_fract_y
 _atom_site_fract_z
 _atom_site_occupancy
  Dy  Dy0  1  0.000000  0.500000  0.524225  1
  Dy  Dy1  1  0.500000  0.000000  0.475477  1
  Dy  Dy2  1  0.000000  0.682979  0.793132  1
  Dy  Dy3  1  0.000000  0.317021  0.793132  1
  Er  Er4  1  0.500000  0.817162  0.206867  1
  Er  Er5  1  0.500000  0.182838  0.206867  1
  Co  Co6  1  0.500000  0.500000  0.704105  1
  Co  Co7  1  0.000000  0.000000  0.295396  1
  Co  Co8  1  0.000000  0.500000  0.986683  1
  Co  Co9  1  0.500000  0.000000  0.014289  1
  Co  Co10  1  0.500000  0.332281  0.991106  1
  Co  Co11  1  0.500000  0.667719  0.991106  1
  Co  Co12  1  0.000000  0.167267  0.009911  1
  Co  Co13  1  0.000000  0.832733  0.009911  1
  Co  Co14  1  0.500000  0.297223  0.430618  1
  Co  Co15  1  0.500000  0.702777  0.430618  1
  Co  Co16  1  0.000000  0.202532  0.568688  1
  Co  Co17  1  0.000000  0.797468  0.568688  1
  Co  Co18  1  0.500000  0.879254  0.707861  1
  Co  Co19  1  0.500000  0.120746  0.707861  1
  Co  Co20  1  0.000000  0.621361  0.291705  1
  Co  Co21  1  0.000000  0.378639  0.291705  1
  P  P22  1  0.500000  0.500000  0.882230  1
  P  P23  1  0.000000  0.000000  0.118705  1
  P  P24  1  0.500000  0.500000  0.349895  1
  P  P25  1  0.000000  0.000000  0.649950  1
  P  P26  1  0.500000  0.311381  0.615894  1
  P  P27  1  0.500000  0.688619  0.615894  1
  P  P28  1  0.000000  0.188302  0.383029  1
  P  P29  1  0.000000  0.811698  0.383029  1
  P  P30  1  0.500000  0.846716  0.893626  1
  P  P31  1  0.500000  0.153284  0.893626  1
  P  P32  1  0.000000  0.654004  0.106987  1
  P  P33  1  0.000000  0.345996  0.106987  1
  Ru  Ru34  1  0.500000  0.500000  0.159334  1
  Ru  Ru35  1  0.000000  0.000000  0.840862  1
