# generated using pymatgen
data_Nd2Dy2Ir3RhO14
_symmetry_space_group_name_H-M   'P 1'
_cell_length_a   7.31429982
_cell_length_b   7.31430079
_cell_length_c   7.28254374
_cell_angle_alpha   60.20798424
_cell_angle_beta   60.20798371
_cell_angle_gamma   60.40021311
_symmetry_Int_Tables_number   1
_chemical_formula_structural   Nd2Dy2Ir3RhO14
_chemical_formula_sum   'Nd2 Dy2 Ir3 Rh1 O14'
_cell_volume   277.18930044
_cell_formula_units_Z   1
loop_
 _symmetry_equiv_pos_site_id
 _symmetry_equiv_pos_as_xyz
  1  'x, y, z'
loop_
 _atom_site_type_symbol
 _atom_site_label
 _atom_site_symmetry_multiplicity
 _atom_site_fract_x
 _atom_site_fract_y
 _atom_site_fract_z
 _atom_site_occupancy
  Nd  Nd0  1  0.625000  0.125000  0.125000  1
  Nd  Nd1  1  0.125000  0.625000  0.125000  1
  Dy  Dy2  1  0.125000  0.125000  0.625000  1
  Dy  Dy3  1  0.125000  0.125000  0.125000  1
  Ir  Ir4  1  0.125000  0.625000  0.625000  1
  Ir  Ir5  1  0.625000  0.125000  0.625000  1
  Ir  Ir6  1  0.625000  0.625000  0.625000  1
  Rh  Rh7  1  0.625000  0.625000  0.125000  1
  O  O8  1  0.710968  0.710968  0.292033  1
  O  O9  1  0.291870  0.291870  0.705381  1
  O  O10  1  0.718311  0.291384  0.698239  1
  O  O11  1  0.285748  0.718428  0.291969  1
  O  O12  1  0.291384  0.718311  0.698239  1
  O  O13  1  0.718428  0.285748  0.291969  1
  O  O14  1  0.539032  0.539032  0.957967  1
  O  O15  1  0.958130  0.958130  0.544619  1
  O  O16  1  0.531689  0.958616  0.551761  1
  O  O17  1  0.964252  0.531572  0.958031  1
  O  O18  1  0.958616  0.531689  0.551761  1
  O  O19  1  0.531572  0.964252  0.958031  1
  O  O20  1  0.242790  0.242790  0.258302  1
  O  O21  1  0.007210  0.007210  0.991698  1
