# generated using pymatgen
data_Ta10AlSi4Ge
_symmetry_space_group_name_H-M   'P 1'
_cell_length_a   7.58761203
_cell_length_b   7.58761160
_cell_length_c   7.58761307
_cell_angle_alpha   128.28885257
_cell_angle_beta   128.28885362
_cell_angle_gamma   76.15756276
_symmetry_Int_Tables_number   1
_chemical_formula_structural   Ta10AlSi4Ge
_chemical_formula_sum   'Ta10 Al1 Si4 Ge1'
_cell_volume   261.58976598
_cell_formula_units_Z   1
loop_
 _symmetry_equiv_pos_site_id
 _symmetry_equiv_pos_as_xyz
  1  'x, y, z'
loop_
 _atom_site_type_symbol
 _atom_site_label
 _atom_site_symmetry_multiplicity
 _atom_site_fract_x
 _atom_site_fract_y
 _atom_site_fract_z
 _atom_site_occupancy
  Ta  Ta0  1  0.014625  0.188007  0.499944  1
  Ta  Ta1  1  0.514681  0.014625  0.826619  1
  Ta  Ta2  1  0.188007  0.688063  0.173381  1
  Ta  Ta3  1  0.485375  0.985319  0.173381  1
  Ta  Ta4  1  0.688063  0.514681  0.500056  1
  Ta  Ta5  1  0.985319  0.811937  0.499944  1
  Ta  Ta6  1  0.311993  0.485375  0.500056  1
  Ta  Ta7  1  0.811937  0.311993  0.826619  1
  Ta  Ta8  1  0.500211  0.500211  0.000000  1
  Ta  Ta9  1  0.999789  0.999789  0.000000  1
  Al  Al10  1  0.750000  0.750000  0.000000  1
  Si  Si11  1  0.130605  0.630605  0.761212  1
  Si  Si12  1  0.630605  0.869395  0.500000  1
  Si  Si13  1  0.369395  0.130605  0.500000  1
  Si  Si14  1  0.869395  0.369395  0.238788  1
  Ge  Ge15  1  0.250000  0.250000  0.000000  1
