# generated using pymatgen
data_Tb3Er5Cd2RuPt
_symmetry_space_group_name_H-M   'P 1'
_cell_length_a   9.60860511
_cell_length_b   9.60860435
_cell_length_c   9.63856600
_cell_angle_alpha   59.89679672
_cell_angle_beta   59.89679935
_cell_angle_gamma   59.84793611
_symmetry_Int_Tables_number   1
_chemical_formula_structural   Tb3Er5Cd2RuPt
_chemical_formula_sum   'Tb6 Er10 Cd4 Ru2 Pt2'
_cell_volume   627.53627656
_cell_formula_units_Z   2
loop_
 _symmetry_equiv_pos_site_id
 _symmetry_equiv_pos_as_xyz
  1  'x, y, z'
loop_
 _atom_site_type_symbol
 _atom_site_label
 _atom_site_symmetry_multiplicity
 _atom_site_fract_x
 _atom_site_fract_y
 _atom_site_fract_z
 _atom_site_occupancy
  Tb  Tb0  1  0.937973  0.558702  0.565385  1
  Tb  Tb1  1  0.558702  0.937973  0.937940  1
  Tb  Tb2  1  0.558702  0.937973  0.565385  1
  Tb  Tb3  1  0.937973  0.558702  0.937940  1
  Tb  Tb4  1  0.563070  0.563070  0.936930  1
  Tb  Tb5  1  0.938957  0.938957  0.561043  1
  Er  Er6  1  0.348899  0.348899  0.352115  1
  Er  Er7  1  0.348899  0.348899  0.950086  1
  Er  Er8  1  0.346168  0.954678  0.349578  1
  Er  Er9  1  0.954678  0.346168  0.349578  1
  Er  Er10  1  0.815899  0.187432  0.188790  1
  Er  Er11  1  0.187432  0.815899  0.807879  1
  Er  Er12  1  0.187432  0.815899  0.188790  1
  Er  Er13  1  0.815899  0.187432  0.807879  1
  Er  Er14  1  0.187167  0.187167  0.812833  1
  Er  Er15  1  0.809740  0.809740  0.190260  1
  Cd  Cd16  1  0.579990  0.579990  0.580974  1
  Cd  Cd17  1  0.579990  0.579990  0.259045  1
  Cd  Cd18  1  0.580908  0.256532  0.581280  1
  Cd  Cd19  1  0.256532  0.580908  0.581280  1
  Ru  Ru20  1  0.143695  0.143695  0.138895  1
  Ru  Ru21  1  0.143695  0.143695  0.573717  1
  Pt  Pt22  1  0.143994  0.573605  0.141201  1
  Pt  Pt23  1  0.573605  0.143994  0.141201  1
