# generated using pymatgen
data_Dy2HoAl3Ge2Os
_symmetry_space_group_name_H-M   'P 1'
_cell_length_a   6.97007251
_cell_length_b   6.97007209
_cell_length_c   4.26201200
_cell_angle_alpha   90.00000000
_cell_angle_beta   90.00000000
_cell_angle_gamma   119.95630209
_symmetry_Int_Tables_number   1
_chemical_formula_structural   Dy2HoAl3Ge2Os
_chemical_formula_sum   'Dy2 Ho1 Al3 Ge2 Os1'
_cell_volume   179.39524600
_cell_formula_units_Z   1
loop_
 _symmetry_equiv_pos_site_id
 _symmetry_equiv_pos_as_xyz
  1  'x, y, z'
loop_
 _atom_site_type_symbol
 _atom_site_label
 _atom_site_symmetry_multiplicity
 _atom_site_fract_x
 _atom_site_fract_y
 _atom_site_fract_z
 _atom_site_occupancy
  Dy  Dy0  1  0.417511  0.000043  0.000000  1
  Dy  Dy1  1  0.000043  0.417511  0.000000  1
  Ho  Ho2  1  0.582803  0.582803  0.000000  1
  Al  Al3  1  0.774254  0.999722  0.499999  1
  Al  Al4  1  0.225866  0.225866  0.499999  1
  Al  Al5  1  0.999722  0.774255  0.499999  1
  Ge  Ge6  1  0.666406  0.333721  0.499999  1
  Ge  Ge7  1  0.333720  0.666406  0.499999  1
  Os  Os8  1  0.999675  0.999675  0.000000  1
