# generated using pymatgen
data_TbPu3(SiPd2)4
_symmetry_space_group_name_H-M   'P 1'
_cell_length_a   5.54360029
_cell_length_b   6.95608200
_cell_length_c   7.56177511
_cell_angle_alpha   90.00000000
_cell_angle_beta   89.97188012
_cell_angle_gamma   90.00000000
_symmetry_Int_Tables_number   1
_chemical_formula_structural   TbPu3(SiPd2)4
_chemical_formula_sum   'Tb1 Pu3 Si4 Pd8'
_cell_volume   291.59515673
_cell_formula_units_Z   1
loop_
 _symmetry_equiv_pos_site_id
 _symmetry_equiv_pos_as_xyz
  1  'x, y, z'
loop_
 _atom_site_type_symbol
 _atom_site_label
 _atom_site_symmetry_multiplicity
 _atom_site_fract_x
 _atom_site_fract_y
 _atom_site_fract_z
 _atom_site_occupancy
  Tb  Tb0  1  0.359393  0.750000  0.033144  1
  Pu  Pu1  1  0.138137  0.750000  0.533328  1
  Pu  Pu2  1  0.860667  0.250000  0.467105  1
  Pu  Pu3  1  0.639521  0.250000  0.965771  1
  Si  Si4  1  0.856333  0.750000  0.877772  1
  Si  Si5  1  0.149968  0.250000  0.121761  1
  Si  Si6  1  0.351780  0.250000  0.621367  1
  Si  Si7  1  0.649325  0.750000  0.379055  1
  Pd  Pd8  1  0.591567  0.552310  0.678047  1
  Pd  Pd9  1  0.406595  0.449609  0.324478  1
  Pd  Pd10  1  0.095137  0.448460  0.826304  1
  Pd  Pd11  1  0.406595  0.050391  0.324478  1
  Pd  Pd12  1  0.904140  0.551811  0.171519  1
  Pd  Pd13  1  0.591567  0.947690  0.678047  1
  Pd  Pd14  1  0.904140  0.948189  0.171519  1
  Pd  Pd15  1  0.095137  0.051540  0.826304  1
