# generated using pymatgen
data_Lu20Ir4Pt7Au
_symmetry_space_group_name_H-M   'P 1'
_cell_length_a   10.90506483
_cell_length_b   10.90506417
_cell_length_c   6.21077100
_cell_angle_alpha   89.97762299
_cell_angle_beta   89.97762299
_cell_angle_gamma   89.91037286
_symmetry_Int_Tables_number   1
_chemical_formula_structural   Lu20Ir4Pt7Au
_chemical_formula_sum   'Lu20 Ir4 Pt7 Au1'
_cell_volume   738.58655288
_cell_formula_units_Z   1
loop_
 _symmetry_equiv_pos_site_id
 _symmetry_equiv_pos_as_xyz
  1  'x, y, z'
loop_
 _atom_site_type_symbol
 _atom_site_label
 _atom_site_symmetry_multiplicity
 _atom_site_fract_x
 _atom_site_fract_y
 _atom_site_fract_z
 _atom_site_occupancy
  Lu  Lu0  1  0.086045  0.294518  0.127902  1
  Lu  Lu1  1  0.795200  0.412337  0.126619  1
  Lu  Lu2  1  0.204863  0.580513  0.127780  1
  Lu  Lu3  1  0.909056  0.701723  0.126053  1
  Lu  Lu4  1  0.419487  0.795137  0.372220  1
  Lu  Lu5  1  0.587663  0.204800  0.373381  1
  Lu  Lu6  1  0.298277  0.090944  0.373947  1
  Lu  Lu7  1  0.705482  0.913955  0.372098  1
  Lu  Lu8  1  0.413471  0.204918  0.873948  1
  Lu  Lu9  1  0.703287  0.088006  0.872618  1
  Lu  Lu10  1  0.299685  0.915249  0.864170  1
  Lu  Lu11  1  0.588896  0.796821  0.872993  1
  Lu  Lu12  1  0.084751  0.700315  0.635830  1
  Lu  Lu13  1  0.911994  0.296713  0.627382  1
  Lu  Lu14  1  0.203179  0.411104  0.627007  1
  Lu  Lu15  1  0.795082  0.586529  0.626052  1
  Lu  Lu16  1  0.996910  0.002005  0.998644  1
  Lu  Lu17  1  0.500576  0.501142  0.999712  1
  Lu  Lu18  1  0.498858  0.499424  0.500288  1
  Lu  Lu19  1  0.997995  0.003090  0.501356  1
  Ir  Ir20  1  0.999485  0.499617  0.382182  1
  Ir  Ir21  1  0.500383  0.000515  0.117818  1
  Ir  Ir22  1  0.500850  0.000732  0.615892  1
  Ir  Ir23  1  0.999268  0.499150  0.884108  1
  Pt  Pt24  1  0.345870  0.347338  0.248898  1
  Pt  Pt25  1  0.652662  0.654130  0.251102  1
  Pt  Pt26  1  0.845314  0.154686  0.250000  1
  Pt  Pt27  1  0.346085  0.653915  0.750000  1
  Pt  Pt28  1  0.153398  0.153240  0.749783  1
  Pt  Pt29  1  0.846760  0.846602  0.750217  1
  Pt  Pt30  1  0.653244  0.346756  0.750000  1
  Au  Au31  1  0.155930  0.844070  0.250000  1
