# generated using pymatgen
data_YTmFe3Co9As7
_symmetry_space_group_name_H-M   'P 1'
_cell_length_a   3.75237100
_cell_length_b   9.35560200
_cell_length_c   9.35560300
_cell_angle_alpha   120.00000000
_cell_angle_beta   90.00000000
_cell_angle_gamma   90.00000000
_symmetry_Int_Tables_number   1
_chemical_formula_structural   YTmFe3Co9As7
_chemical_formula_sum   'Y1 Tm1 Fe3 Co9 As7'
_cell_volume   284.43296278
_cell_formula_units_Z   1
loop_
 _symmetry_equiv_pos_site_id
 _symmetry_equiv_pos_as_xyz
  1  'x, y, z'
loop_
 _atom_site_type_symbol
 _atom_site_label
 _atom_site_symmetry_multiplicity
 _atom_site_fract_x
 _atom_site_fract_y
 _atom_site_fract_z
 _atom_site_occupancy
  Y  Y0  1  0.000000  0.666667  0.333333  1
  Tm  Tm1  1  0.500000  0.333333  0.666667  1
  Fe  Fe2  1  0.500000  0.783350  0.903747  1
  Fe  Fe3  1  0.500000  0.120397  0.216650  1
  Fe  Fe4  1  0.500000  0.096253  0.879603  1
  Co  Co5  1  0.000000  0.567549  0.941200  1
  Co  Co6  1  0.000000  0.373651  0.432451  1
  Co  Co7  1  0.000000  0.058800  0.626349  1
  Co  Co8  1  0.000000  0.880087  0.157205  1
  Co  Co9  1  0.000000  0.277117  0.119913  1
  Co  Co10  1  0.000000  0.842795  0.722883  1
  Co  Co11  1  0.500000  0.950589  0.382270  1
  Co  Co12  1  0.500000  0.431681  0.049411  1
  Co  Co13  1  0.500000  0.617730  0.568319  1
  As  As14  1  0.000000  0.000000  0.000000  1
  As  As15  1  0.500000  0.708569  0.113510  1
  As  As16  1  0.500000  0.404940  0.291431  1
  As  As17  1  0.500000  0.886490  0.595060  1
  As  As18  1  0.000000  0.588737  0.705702  1
  As  As19  1  0.000000  0.116965  0.411263  1
  As  As20  1  0.000000  0.294298  0.883035  1
