# generated using pymatgen
data_Ac3Al11Au
_symmetry_space_group_name_H-M   'P 1'
_cell_length_a   8.97489267
_cell_length_b   8.97489078
_cell_length_c   8.97489080
_cell_angle_alpha   150.53751037
_cell_angle_beta   105.39622490
_cell_angle_gamma   82.17369558
_symmetry_Int_Tables_number   1
_chemical_formula_structural   Ac3Al11Au
_chemical_formula_sum   'Ac3 Al11 Au1'
_cell_volume   335.86041913
_cell_formula_units_Z   1
loop_
 _symmetry_equiv_pos_site_id
 _symmetry_equiv_pos_as_xyz
  1  'x, y, z'
loop_
 _atom_site_type_symbol
 _atom_site_label
 _atom_site_symmetry_multiplicity
 _atom_site_fract_x
 _atom_site_fract_y
 _atom_site_fract_z
 _atom_site_occupancy
  Ac  Ac0  1  0.998238  0.000000  0.998238  1
  Ac  Ac1  1  0.330891  0.331270  0.999621  1
  Ac  Ac2  1  0.668350  0.668730  0.999621  1
  Al  Al3  1  0.387029  0.000000  0.387029  1
  Al  Al4  1  0.250404  0.500000  0.750404  1
  Al  Al5  1  0.746953  0.500000  0.246953  1
  Al  Al6  1  0.586240  0.836378  0.749862  1
  Al  Al7  1  0.913486  0.163622  0.749862  1
  Al  Al8  1  0.290661  0.668568  0.622093  1
  Al  Al9  1  0.953526  0.331432  0.622093  1
  Al  Al10  1  0.046459  0.666456  0.380003  1
  Al  Al11  1  0.713545  0.333544  0.380003  1
  Al  Al12  1  0.085971  0.834785  0.251187  1
  Al  Al13  1  0.416400  0.165215  0.251187  1
  Au  Au14  1  0.622846  0.000000  0.622846  1
