# generated using pymatgen
data_Sr6Rh
_symmetry_space_group_name_H-M   'P 1'
_cell_length_a   7.51680006
_cell_length_b   7.51695412
_cell_length_c   13.87695703
_cell_angle_alpha   89.99825639
_cell_angle_beta   90.00448228
_cell_angle_gamma   120.00539966
_symmetry_Int_Tables_number   1
_chemical_formula_structural   Sr6Rh
_chemical_formula_sum   'Sr12 Rh2'
_cell_volume   679.00995117
_cell_formula_units_Z   2
loop_
 _symmetry_equiv_pos_site_id
 _symmetry_equiv_pos_as_xyz
  1  'x, y, z'
loop_
 _atom_site_type_symbol
 _atom_site_label
 _atom_site_symmetry_multiplicity
 _atom_site_fract_x
 _atom_site_fract_y
 _atom_site_fract_z
 _atom_site_occupancy
  Sr  Sr0  1  0.666254  0.011027  0.119634  1
  Sr  Sr1  1  0.988973  0.655205  0.119633  1
  Sr  Sr2  1  0.344894  0.333676  0.119636  1
  Sr  Sr3  1  0.011081  0.344934  0.380318  1
  Sr  Sr4  1  0.655061  0.666340  0.380348  1
  Sr  Sr5  1  0.333705  0.988953  0.380392  1
  Sr  Sr6  1  0.011084  0.666245  0.619651  1
  Sr  Sr7  1  0.655165  0.988914  0.619650  1
  Sr  Sr8  1  0.333720  0.344934  0.619662  1
  Sr  Sr9  1  0.344883  0.011076  0.880321  1
  Sr  Sr10  1  0.666328  0.655136  0.880357  1
  Sr  Sr11  1  0.988986  0.333708  0.880400  1
  Rh  Rh12  1  0.666685  0.333214  0.000070  1
  Rh  Rh13  1  0.333160  0.666620  0.499984  1
