# generated using pymatgen
data_MnSi6(Tc2Ni)3
_symmetry_space_group_name_H-M   'P 1'
_cell_length_a   6.91532500
_cell_length_b   6.91532464
_cell_length_c   4.81776700
_cell_angle_alpha   90.00000000
_cell_angle_beta   90.00000000
_cell_angle_gamma   119.99999693
_symmetry_Int_Tables_number   1
_chemical_formula_structural   MnSi6(Tc2Ni)3
_chemical_formula_sum   'Mn1 Si6 Tc6 Ni3'
_cell_volume   199.52696939
_cell_formula_units_Z   1
loop_
 _symmetry_equiv_pos_site_id
 _symmetry_equiv_pos_as_xyz
  1  'x, y, z'
loop_
 _atom_site_type_symbol
 _atom_site_label
 _atom_site_symmetry_multiplicity
 _atom_site_fract_x
 _atom_site_fract_y
 _atom_site_fract_z
 _atom_site_occupancy
  Mn  Mn0  1  0.333333  0.666667  0.000000  1
  Si  Si1  1  0.404588  0.999184  0.754662  1
  Si  Si2  1  0.404588  0.405405  0.245338  1
  Si  Si3  1  0.000816  0.595412  0.245338  1
  Si  Si4  1  0.000816  0.405405  0.754662  1
  Si  Si5  1  0.594595  0.595412  0.754662  1
  Si  Si6  1  0.594595  0.999184  0.245338  1
  Tc  Tc7  1  0.000183  0.760842  0.744437  1
  Tc  Tc8  1  0.000183  0.239341  0.255563  1
  Tc  Tc9  1  0.760659  0.760842  0.255563  1
  Tc  Tc10  1  0.760659  0.999817  0.744437  1
  Tc  Tc11  1  0.239158  0.239341  0.744437  1
  Tc  Tc12  1  0.239158  0.999817  0.255563  1
  Ni  Ni13  1  0.333333  0.666667  0.500000  1
  Ni  Ni14  1  0.666667  0.333333  0.000000  1
  Ni  Ni15  1  0.666667  0.333333  0.500000  1
