# generated using pymatgen
data_Pa6Zn23Co
_symmetry_space_group_name_H-M   'P 1'
_cell_length_a   9.05299109
_cell_length_b   9.05299126
_cell_length_c   9.05299000
_cell_angle_alpha   59.99999730
_cell_angle_beta   59.99999667
_cell_angle_gamma   59.99999420
_symmetry_Int_Tables_number   1
_chemical_formula_structural   Pa6Zn23Co
_chemical_formula_sum   'Pa6 Zn23 Co1'
_cell_volume   524.63975687
_cell_formula_units_Z   1
loop_
 _symmetry_equiv_pos_site_id
 _symmetry_equiv_pos_as_xyz
  1  'x, y, z'
loop_
 _atom_site_type_symbol
 _atom_site_label
 _atom_site_symmetry_multiplicity
 _atom_site_fract_x
 _atom_site_fract_y
 _atom_site_fract_z
 _atom_site_occupancy
  Pa  Pa0  1  0.703929  0.296071  0.296071  1
  Pa  Pa1  1  0.296071  0.703929  0.703929  1
  Pa  Pa2  1  0.296071  0.703929  0.296071  1
  Pa  Pa3  1  0.703929  0.296071  0.703929  1
  Pa  Pa4  1  0.296071  0.296071  0.703929  1
  Pa  Pa5  1  0.703929  0.703929  0.296071  1
  Zn  Zn6  1  0.120456  0.120456  0.120456  1
  Zn  Zn7  1  0.879544  0.879544  0.879544  1
  Zn  Zn8  1  0.120456  0.120456  0.638633  1
  Zn  Zn9  1  0.120456  0.638633  0.120456  1
  Zn  Zn10  1  0.879544  0.879544  0.361367  1
  Zn  Zn11  1  0.879544  0.361367  0.879544  1
  Zn  Zn12  1  0.638633  0.120456  0.120456  1
  Zn  Zn13  1  0.361367  0.879544  0.879544  1
  Zn  Zn14  1  0.500000  0.000000  0.000000  1
  Zn  Zn15  1  0.000000  0.500000  0.500000  1
  Zn  Zn16  1  0.000000  0.500000  0.000000  1
  Zn  Zn17  1  0.500000  0.000000  0.500000  1
  Zn  Zn18  1  0.000000  0.000000  0.500000  1
  Zn  Zn19  1  0.500000  0.500000  0.000000  1
  Zn  Zn20  1  0.327399  0.327399  0.327399  1
  Zn  Zn21  1  0.672601  0.672601  0.672601  1
  Zn  Zn22  1  0.327399  0.327399  0.017803  1
  Zn  Zn23  1  0.327399  0.017803  0.327399  1
  Zn  Zn24  1  0.672601  0.672601  0.982197  1
  Zn  Zn25  1  0.672601  0.982197  0.672601  1
  Zn  Zn26  1  0.017803  0.327399  0.327399  1
  Zn  Zn27  1  0.982197  0.672601  0.672601  1
  Zn  Zn28  1  0.000000  0.000000  0.000000  1
  Co  Co29  1  0.500000  0.500000  0.500000  1
