# generated using pymatgen
data_Pr6Al24Ir3Ru4Pt
_symmetry_space_group_name_H-M   'P 1'
_cell_length_a   8.93417800
_cell_length_b   8.94071820
_cell_length_c   9.68489889
_cell_angle_alpha   89.91076815
_cell_angle_beta   90.00000000
_cell_angle_gamma   119.97579749
_symmetry_Int_Tables_number   1
_chemical_formula_structural   Pr6Al24Ir3Ru4Pt
_chemical_formula_sum   'Pr6 Al24 Ir3 Ru4 Pt1'
_cell_volume   670.12819814
_cell_formula_units_Z   1
loop_
 _symmetry_equiv_pos_site_id
 _symmetry_equiv_pos_as_xyz
  1  'x, y, z'
loop_
 _atom_site_type_symbol
 _atom_site_label
 _atom_site_symmetry_multiplicity
 _atom_site_fract_x
 _atom_site_fract_y
 _atom_site_fract_z
 _atom_site_occupancy
  Pr  Pr0  1  0.191499  0.382998  0.249330  1
  Pr  Pr1  1  0.808501  0.617002  0.750670  1
  Pr  Pr2  1  0.619214  0.809439  0.250246  1
  Pr  Pr3  1  0.380786  0.190561  0.749754  1
  Pr  Pr4  1  0.190225  0.809439  0.250246  1
  Pr  Pr5  1  0.809775  0.190561  0.749754  1
  Al  Al6  1  0.333647  0.667294  0.020205  1
  Al  Al7  1  0.666353  0.332706  0.979795  1
  Al  Al8  1  0.668892  0.337782  0.519532  1
  Al  Al9  1  0.331108  0.662218  0.480468  1
  Al  Al10  1  0.163885  0.327768  0.575427  1
  Al  Al11  1  0.836115  0.672232  0.424573  1
  Al  Al12  1  0.673833  0.831625  0.575928  1
  Al  Al13  1  0.836544  0.673088  0.075467  1
  Al  Al14  1  0.326167  0.168375  0.424072  1
  Al  Al15  1  0.163456  0.326912  0.924533  1
  Al  Al16  1  0.157794  0.831625  0.575928  1
  Al  Al17  1  0.326369  0.163216  0.075149  1
  Al  Al18  1  0.842206  0.168375  0.424072  1
  Al  Al19  1  0.673631  0.836784  0.924851  1
  Al  Al20  1  0.836846  0.163216  0.075149  1
  Al  Al21  1  0.163154  0.836784  0.924851  1
  Al  Al22  1  0.563951  0.127901  0.247626  1
  Al  Al23  1  0.436049  0.872099  0.752374  1
  Al  Al24  1  0.874562  0.437997  0.250940  1
  Al  Al25  1  0.125438  0.562003  0.749060  1
  Al  Al26  1  0.563434  0.437997  0.250940  1
  Al  Al27  1  0.436566  0.562003  0.749060  1
  Al  Al28  1  0.999817  0.999635  0.249867  1
  Al  Al29  1  0.000183  0.000365  0.750133  1
  Ir  Ir30  1  0.500000  0.000000  0.000000  1
  Ir  Ir31  1  0.000000  0.500000  0.000000  1
  Ir  Ir32  1  0.500000  0.500000  0.000000  1
  Ru  Ru33  1  0.000000  0.500000  0.500000  1
  Ru  Ru34  1  0.500000  0.500000  0.500000  1
  Ru  Ru35  1  0.000000  0.000000  0.000000  1
  Ru  Ru36  1  0.000000  0.000000  0.500000  1
  Pt  Pt37  1  0.500000  0.000000  0.500000  1
