# generated using pymatgen
data_DyLu2(NiIr2)3
_symmetry_space_group_name_H-M   'P 1'
_cell_length_a   5.28121580
_cell_length_b   5.28121514
_cell_length_c   8.71823445
_cell_angle_alpha   72.36914530
_cell_angle_beta   72.36914785
_cell_angle_gamma   60.00001648
_symmetry_Int_Tables_number   1
_chemical_formula_structural   DyLu2(NiIr2)3
_chemical_formula_sum   'Dy1 Lu2 Ni3 Ir6'
_cell_volume   197.28574828
_cell_formula_units_Z   1
loop_
 _symmetry_equiv_pos_site_id
 _symmetry_equiv_pos_as_xyz
  1  'x, y, z'
loop_
 _atom_site_type_symbol
 _atom_site_label
 _atom_site_symmetry_multiplicity
 _atom_site_fract_x
 _atom_site_fract_y
 _atom_site_fract_z
 _atom_site_occupancy
  Dy  Dy0  1  0.000000  0.000000  0.000000  1
  Lu  Lu1  1  0.140783  0.140783  0.577652  1
  Lu  Lu2  1  0.859217  0.859217  0.422348  1
  Ni  Ni3  1  0.333035  0.333035  0.000896  1
  Ni  Ni4  1  0.666965  0.666965  0.999104  1
  Ni  Ni5  1  0.500000  0.500000  0.500000  1
  Ir  Ir6  1  0.081217  0.583342  0.752102  1
  Ir  Ir7  1  0.583342  0.583342  0.752102  1
  Ir  Ir8  1  0.583342  0.081217  0.752102  1
  Ir  Ir9  1  0.918783  0.416658  0.247898  1
  Ir  Ir10  1  0.416658  0.416658  0.247898  1
  Ir  Ir11  1  0.416658  0.918783  0.247898  1
