# generated using pymatgen
data_NaEuGaPd3
_symmetry_space_group_name_H-M   'P 1'
_cell_length_a   5.29390255
_cell_length_b   5.61543284
_cell_length_c   5.61543300
_cell_angle_alpha   60.00000495
_cell_angle_beta   57.96968397
_cell_angle_gamma   57.96968970
_symmetry_Int_Tables_number   1
_chemical_formula_structural   NaEuGaPd3
_chemical_formula_sum   'Na1 Eu1 Ga1 Pd3'
_cell_volume   114.28639201
_cell_formula_units_Z   1
loop_
 _symmetry_equiv_pos_site_id
 _symmetry_equiv_pos_as_xyz
  1  'x, y, z'
loop_
 _atom_site_type_symbol
 _atom_site_label
 _atom_site_symmetry_multiplicity
 _atom_site_fract_x
 _atom_site_fract_y
 _atom_site_fract_z
 _atom_site_occupancy
  Na  Na0  1  0.245272  0.251576  0.251576  1
  Eu  Eu1  1  0.992158  0.002615  0.002615  1
  Ga  Ga2  1  0.128430  0.623857  0.623857  1
  Pd  Pd3  1  0.628046  0.125003  0.623475  1
  Pd  Pd4  1  0.628046  0.623475  0.125003  1
  Pd  Pd5  1  0.628046  0.623475  0.623475  1
