# generated using pymatgen
data_Y12Th4MgCo4Cu3
_symmetry_space_group_name_H-M   'P 1'
_cell_length_a   9.41757736
_cell_length_b   9.50793711
_cell_length_c   9.52694948
_cell_angle_alpha   59.93618979
_cell_angle_beta   59.58129861
_cell_angle_gamma   59.55325118
_symmetry_Int_Tables_number   1
_chemical_formula_structural   Y12Th4MgCo4Cu3
_chemical_formula_sum   'Y12 Th4 Mg1 Co4 Cu3'
_cell_volume   598.94297167
_cell_formula_units_Z   1
loop_
 _symmetry_equiv_pos_site_id
 _symmetry_equiv_pos_as_xyz
  1  'x, y, z'
loop_
 _atom_site_type_symbol
 _atom_site_label
 _atom_site_symmetry_multiplicity
 _atom_site_fract_x
 _atom_site_fract_y
 _atom_site_fract_z
 _atom_site_occupancy
  Y  Y0  1  0.807838  0.191554  0.191580  1
  Y  Y1  1  0.188141  0.811785  0.811791  1
  Y  Y2  1  0.188125  0.811788  0.188280  1
  Y  Y3  1  0.807864  0.191525  0.809043  1
  Y  Y4  1  0.188061  0.188260  0.811835  1
  Y  Y5  1  0.807878  0.809072  0.191519  1
  Y  Y6  1  0.930954  0.564637  0.564661  1
  Y  Y7  1  0.563991  0.935461  0.935364  1
  Y  Y8  1  0.564002  0.935475  0.565199  1
  Y  Y9  1  0.930982  0.564629  0.939722  1
  Y  Y10  1  0.564008  0.565192  0.935420  1
  Y  Y11  1  0.931038  0.939633  0.564659  1
  Th  Th12  1  0.346794  0.346498  0.346329  1
  Th  Th13  1  0.346830  0.346541  0.960310  1
  Th  Th14  1  0.347023  0.960073  0.346483  1
  Th  Th15  1  0.938226  0.353981  0.353894  1
  Mg  Mg16  1  0.305326  0.564727  0.564937  1
  Co  Co17  1  0.141142  0.147035  0.146958  1
  Co  Co18  1  0.141132  0.147022  0.564924  1
  Co  Co19  1  0.141113  0.565065  0.146916  1
  Co  Co20  1  0.564147  0.145356  0.145259  1
  Cu  Cu21  1  0.585109  0.586736  0.586942  1
  Cu  Cu22  1  0.585119  0.586686  0.241224  1
  Cu  Cu23  1  0.585155  0.241270  0.586751  1
