# generated using pymatgen
data_Y5Ho7Rh4
_symmetry_space_group_name_H-M   'P 1'
_cell_length_a   6.30843961
_cell_length_b   7.20362196
_cell_length_c   9.42721154
_cell_angle_alpha   89.97601208
_cell_angle_beta   89.90413192
_cell_angle_gamma   90.10075041
_symmetry_Int_Tables_number   1
_chemical_formula_structural   Y5Ho7Rh4
_chemical_formula_sum   'Y5 Ho7 Rh4'
_cell_volume   428.40526326
_cell_formula_units_Z   1
loop_
 _symmetry_equiv_pos_site_id
 _symmetry_equiv_pos_as_xyz
  1  'x, y, z'
loop_
 _atom_site_type_symbol
 _atom_site_label
 _atom_site_symmetry_multiplicity
 _atom_site_fract_x
 _atom_site_fract_y
 _atom_site_fract_z
 _atom_site_occupancy
  Y  Y0  1  0.634789  0.033676  0.249585  1
  Y  Y1  1  0.364966  0.965848  0.750121  1
  Y  Y2  1  0.135065  0.466190  0.750185  1
  Y  Y3  1  0.865291  0.533984  0.249461  1
  Y  Y4  1  0.670403  0.321264  0.563152  1
  Ho  Ho5  1  0.170668  0.178391  0.064306  1
  Ho  Ho6  1  0.829095  0.821668  0.935731  1
  Ho  Ho7  1  0.670749  0.321626  0.935898  1
  Ho  Ho8  1  0.829292  0.821637  0.564302  1
  Ho  Ho9  1  0.329273  0.678467  0.064255  1
  Ho  Ho10  1  0.170828  0.178126  0.435438  1
  Ho  Ho11  1  0.328834  0.678596  0.435574  1
  Rh  Rh12  1  0.439853  0.383495  0.249499  1
  Rh  Rh13  1  0.559293  0.618027  0.751240  1
  Rh  Rh14  1  0.941696  0.115649  0.751193  1
  Rh  Rh15  1  0.059907  0.883355  0.250060  1
