# generated using pymatgen
data_Nd4In(B3Ru)2
_symmetry_space_group_name_H-M   'P 1'
_cell_length_a   5.53531537
_cell_length_b   5.53531544
_cell_length_c   8.65957831
_cell_angle_alpha   71.36086051
_cell_angle_beta   71.36086043
_cell_angle_gamma   59.99998306
_symmetry_Int_Tables_number   1
_chemical_formula_structural   Nd4In(B3Ru)2
_chemical_formula_sum   'Nd4 In1 B6 Ru2'
_cell_volume   213.55964016
_cell_formula_units_Z   1
loop_
 _symmetry_equiv_pos_site_id
 _symmetry_equiv_pos_as_xyz
  1  'x, y, z'
loop_
 _atom_site_type_symbol
 _atom_site_label
 _atom_site_symmetry_multiplicity
 _atom_site_fract_x
 _atom_site_fract_y
 _atom_site_fract_z
 _atom_site_occupancy
  Nd  Nd0  1  0.749207  0.749207  0.752376  1
  Nd  Nd1  1  0.250793  0.250793  0.247624  1
  Nd  Nd2  1  0.583720  0.583720  0.248841  1
  Nd  Nd3  1  0.416280  0.416280  0.751159  1
  In  In4  1  0.000000  0.000000  0.000000  1
  B  B5  1  0.500000  0.171127  0.500000  1
  B  B6  1  0.828873  0.500000  0.500000  1
  B  B7  1  0.171127  0.828873  0.500000  1
  B  B8  1  0.171127  0.500000  0.500000  1
  B  B9  1  0.828873  0.171127  0.500000  1
  B  B10  1  0.500000  0.828873  0.500000  1
  Ru  Ru11  1  0.884977  0.884977  0.345069  1
  Ru  Ru12  1  0.115023  0.115023  0.654931  1
