# generated using pymatgen
data_Hf6Al8Si8Ir6Rh
_symmetry_space_group_name_H-M   'P 1'
_cell_length_a   8.56748505
_cell_length_b   8.56748380
_cell_length_c   8.56748400
_cell_angle_alpha   59.99999921
_cell_angle_beta   60.00000404
_cell_angle_gamma   59.99999786
_symmetry_Int_Tables_number   1
_chemical_formula_structural   Hf6Al8Si8Ir6Rh
_chemical_formula_sum   'Hf6 Al8 Si8 Ir6 Rh1'
_cell_volume   444.67729453
_cell_formula_units_Z   1
loop_
 _symmetry_equiv_pos_site_id
 _symmetry_equiv_pos_as_xyz
  1  'x, y, z'
loop_
 _atom_site_type_symbol
 _atom_site_label
 _atom_site_symmetry_multiplicity
 _atom_site_fract_x
 _atom_site_fract_y
 _atom_site_fract_z
 _atom_site_occupancy
  Hf  Hf0  1  0.689787  0.310212  0.310212  1
  Hf  Hf1  1  0.310212  0.689787  0.689787  1
  Hf  Hf2  1  0.310212  0.689787  0.310212  1
  Hf  Hf3  1  0.310212  0.310212  0.689787  1
  Hf  Hf4  1  0.689787  0.310212  0.689787  1
  Hf  Hf5  1  0.689787  0.689787  0.310212  1
  Al  Al6  1  0.119478  0.119478  0.119478  1
  Al  Al7  1  0.119478  0.119478  0.641567  1
  Al  Al8  1  0.641567  0.119478  0.119478  1
  Al  Al9  1  0.119478  0.641567  0.119478  1
  Al  Al10  1  0.880521  0.880521  0.880521  1
  Al  Al11  1  0.880521  0.880521  0.358436  1
  Al  Al12  1  0.880521  0.358436  0.880521  1
  Al  Al13  1  0.358436  0.880521  0.880521  1
  Si  Si14  1  0.341248  0.341248  0.341248  1
  Si  Si15  1  0.341248  0.341248  0.976255  1
  Si  Si16  1  0.976255  0.341248  0.341248  1
  Si  Si17  1  0.341248  0.976255  0.341248  1
  Si  Si18  1  0.658752  0.658752  0.658752  1
  Si  Si19  1  0.658752  0.658752  0.023745  1
  Si  Si20  1  0.658752  0.023745  0.658752  1
  Si  Si21  1  0.023745  0.658752  0.658752  1
  Ir  Ir22  1  0.500000  0.000000  0.000000  1
  Ir  Ir23  1  0.000000  0.500000  0.500000  1
  Ir  Ir24  1  0.000000  0.500000  0.000000  1
  Ir  Ir25  1  0.000000  0.000000  0.500000  1
  Ir  Ir26  1  0.500000  0.000000  0.500000  1
  Ir  Ir27  1  0.500000  0.500000  0.000000  1
  Rh  Rh28  1  0.000000  0.000000  0.000000  1
