# generated using pymatgen
data_Tb3Y3Ta2(Co4P3)4
_symmetry_space_group_name_H-M   'P 1'
_cell_length_a   3.71105800
_cell_length_b   10.64380100
_cell_length_c   12.32275400
_cell_angle_alpha   89.99939094
_cell_angle_beta   90.00000000
_cell_angle_gamma   90.00000000
_symmetry_Int_Tables_number   1
_chemical_formula_structural   Tb3Y3Ta2(Co4P3)4
_chemical_formula_sum   'Tb3 Y3 Ta2 Co16 P12'
_cell_volume   486.74586066
_cell_formula_units_Z   1
loop_
 _symmetry_equiv_pos_site_id
 _symmetry_equiv_pos_as_xyz
  1  'x, y, z'
loop_
 _atom_site_type_symbol
 _atom_site_label
 _atom_site_symmetry_multiplicity
 _atom_site_fract_x
 _atom_site_fract_y
 _atom_site_fract_z
 _atom_site_occupancy
  Tb  Tb0  1  0.000000  0.499974  0.526783  1
  Tb  Tb1  1  0.500000  0.000036  0.473254  1
  Tb  Tb2  1  0.500000  0.820471  0.204978  1
  Y  Y3  1  0.500000  0.179787  0.204838  1
  Y  Y4  1  0.000000  0.679664  0.795183  1
  Y  Y5  1  0.000000  0.320354  0.795151  1
  Ta  Ta6  1  0.500000  0.499924  0.156161  1
  Ta  Ta7  1  0.000000  0.000010  0.843800  1
  Co  Co8  1  0.500000  0.499970  0.702046  1
  Co  Co9  1  0.000000  0.000062  0.297966  1
  Co  Co10  1  0.000000  0.499931  0.987065  1
  Co  Co11  1  0.500000  0.000031  0.012813  1
  Co  Co12  1  0.500000  0.332888  0.992145  1
  Co  Co13  1  0.500000  0.667084  0.992130  1
  Co  Co14  1  0.000000  0.167187  0.007780  1
  Co  Co15  1  0.000000  0.832871  0.007666  1
  Co  Co16  1  0.500000  0.295292  0.431967  1
  Co  Co17  1  0.500000  0.704696  0.432054  1
  Co  Co18  1  0.000000  0.204735  0.568036  1
  Co  Co19  1  0.000000  0.795280  0.568120  1
  Co  Co20  1  0.500000  0.878119  0.706162  1
  Co  Co21  1  0.500000  0.121850  0.706113  1
  Co  Co22  1  0.000000  0.621674  0.293991  1
  Co  Co23  1  0.000000  0.378108  0.293867  1
  P  P24  1  0.500000  0.499974  0.881850  1
  P  P25  1  0.000000  0.000157  0.117940  1
  P  P26  1  0.500000  0.500049  0.355886  1
  P  P27  1  0.000000  0.000014  0.644114  1
  P  P28  1  0.500000  0.310627  0.615640  1
  P  P29  1  0.500000  0.689327  0.615702  1
  P  P30  1  0.000000  0.189443  0.384376  1
  P  P31  1  0.000000  0.810466  0.384601  1
  P  P32  1  0.500000  0.841109  0.893598  1
  P  P33  1  0.500000  0.158911  0.893520  1
  P  P34  1  0.000000  0.658820  0.106291  1
  P  P35  1  0.000000  0.341103  0.106412  1
