# generated using pymatgen
data_Tm10In3Bi2Pb
_symmetry_space_group_name_H-M   'P 1'
_cell_length_a   6.53746900
_cell_length_b   8.95630575
_cell_length_c   8.90490283
_cell_angle_alpha   120.03038722
_cell_angle_beta   89.99998356
_cell_angle_gamma   90.00003789
_symmetry_Int_Tables_number   1
_chemical_formula_structural   Tm10In3Bi2Pb
_chemical_formula_sum   'Tm10 In3 Bi2 Pb1'
_cell_volume   451.40389976
_cell_formula_units_Z   1
loop_
 _symmetry_equiv_pos_site_id
 _symmetry_equiv_pos_as_xyz
  1  'x, y, z'
loop_
 _atom_site_type_symbol
 _atom_site_label
 _atom_site_symmetry_multiplicity
 _atom_site_fract_x
 _atom_site_fract_y
 _atom_site_fract_z
 _atom_site_occupancy
  Tm  Tm0  1  0.494956  0.327475  0.663043  1
  Tm  Tm1  1  0.494645  0.675255  0.342769  1
  Tm  Tm2  1  0.005355  0.675251  0.342766  1
  Tm  Tm3  1  0.005044  0.327478  0.663046  1
  Tm  Tm4  1  0.750000  0.228915  0.991275  1
  Tm  Tm5  1  0.749999  0.772704  0.761700  1
  Tm  Tm6  1  0.750000  0.001782  0.237291  1
  Tm  Tm7  1  0.250000  0.765902  0.000589  1
  Tm  Tm8  1  0.249999  0.232329  0.238147  1
  Tm  Tm9  1  0.250000  0.993805  0.761267  1
  In  In10  1  0.750002  0.001677  0.598118  1
  In  In11  1  0.249999  0.600996  0.605598  1
  In  In12  1  0.249998  0.000058  0.397796  1
  Bi  Bi13  1  0.749999  0.605667  0.999216  1
  Bi  Bi14  1  0.749999  0.396086  0.393211  1
  Pb  Pb15  1  0.250003  0.394622  0.004173  1
