# generated using pymatgen
data_Nb4P4Ru3Rh
_symmetry_space_group_name_H-M   'P 1'
_cell_length_a   3.73786900
_cell_length_b   6.38615785
_cell_length_c   7.24854635
_cell_angle_alpha   89.79796199
_cell_angle_beta   90.00000000
_cell_angle_gamma   90.00000000
_symmetry_Int_Tables_number   1
_chemical_formula_structural   Nb4P4Ru3Rh
_chemical_formula_sum   'Nb4 P4 Ru3 Rh1'
_cell_volume   173.02623036
_cell_formula_units_Z   1
loop_
 _symmetry_equiv_pos_site_id
 _symmetry_equiv_pos_as_xyz
  1  'x, y, z'
loop_
 _atom_site_type_symbol
 _atom_site_label
 _atom_site_symmetry_multiplicity
 _atom_site_fract_x
 _atom_site_fract_y
 _atom_site_fract_z
 _atom_site_occupancy
  Nb  Nb0  1  0.250000  0.025206  0.831238  1
  Nb  Nb1  1  0.250000  0.525546  0.673016  1
  Nb  Nb2  1  0.750000  0.972504  0.169963  1
  Nb  Nb3  1  0.750000  0.475330  0.327135  1
  P  P4  1  0.250000  0.267363  0.121411  1
  P  P5  1  0.250000  0.762813  0.376304  1
  P  P6  1  0.750000  0.732685  0.875010  1
  P  P7  1  0.750000  0.232965  0.627754  1
  Ru  Ru8  1  0.250000  0.645166  0.063538  1
  Ru  Ru9  1  0.750000  0.856982  0.561275  1
  Ru  Ru10  1  0.750000  0.356315  0.938041  1
  Rh  Rh11  1  0.250000  0.147125  0.435315  1
