# generated using pymatgen
data_Lu(Sn3Se4)2
_symmetry_space_group_name_H-M   'P 1'
_cell_length_a   8.43090109
_cell_length_b   8.43067698
_cell_length_c   8.42784500
_cell_angle_alpha   120.01877693
_cell_angle_beta   89.94353264
_cell_angle_gamma   120.01752661
_symmetry_Int_Tables_number   1
_chemical_formula_structural   Lu(Sn3Se4)2
_chemical_formula_sum   'Lu1 Sn6 Se8'
_cell_volume   423.55854932
_cell_formula_units_Z   1
loop_
 _symmetry_equiv_pos_site_id
 _symmetry_equiv_pos_as_xyz
  1  'x, y, z'
loop_
 _atom_site_type_symbol
 _atom_site_label
 _atom_site_symmetry_multiplicity
 _atom_site_fract_x
 _atom_site_fract_y
 _atom_site_fract_z
 _atom_site_occupancy
  Lu  Lu0  1  0.249952  0.499895  0.750007  1
  Sn  Sn1  1  0.250346  0.000018  0.249735  1
  Sn  Sn2  1  0.249903  0.500212  0.250352  1
  Sn  Sn3  1  0.750113  0.999906  0.249948  1
  Sn  Sn4  1  0.249567  0.000053  0.750657  1
  Sn  Sn5  1  0.750011  0.000217  0.749678  1
  Sn  Sn6  1  0.749904  0.500073  0.749963  1
  Se  Se7  1  0.000071  0.999930  0.999965  1
  Se  Se8  1  0.500079  0.999947  0.499913  1
  Se  Se9  1  0.010122  0.020205  0.510057  1
  Se  Se10  1  0.010187  0.499919  0.510087  1
  Se  Se11  1  0.489859  0.499973  0.510079  1
  Se  Se12  1  0.010256  0.500035  0.989824  1
  Se  Se13  1  0.489878  0.499999  0.989860  1
  Se  Se14  1  0.489755  0.979622  0.989885  1
