# generated using pymatgen
data_Ho4Tm8Tc3Ir
_symmetry_space_group_name_H-M   'P 1'
_cell_length_a   6.24530401
_cell_length_b   7.34882005
_cell_length_c   9.01405500
_cell_angle_alpha   90.00000000
_cell_angle_beta   90.00000000
_cell_angle_gamma   89.99034402
_symmetry_Int_Tables_number   1
_chemical_formula_structural   Ho4Tm8Tc3Ir
_chemical_formula_sum   'Ho4 Tm8 Tc3 Ir1'
_cell_volume   413.70559481
_cell_formula_units_Z   1
loop_
 _symmetry_equiv_pos_site_id
 _symmetry_equiv_pos_as_xyz
  1  'x, y, z'
loop_
 _atom_site_type_symbol
 _atom_site_label
 _atom_site_symmetry_multiplicity
 _atom_site_fract_x
 _atom_site_fract_y
 _atom_site_fract_z
 _atom_site_occupancy
  Ho  Ho0  1  0.874423  0.540287  0.250000  1
  Ho  Ho1  1  0.624896  0.038390  0.250000  1
  Ho  Ho2  1  0.130344  0.458320  0.750000  1
  Ho  Ho3  1  0.371975  0.960330  0.750000  1
  Tm  Tm4  1  0.333384  0.676017  0.064280  1
  Tm  Tm5  1  0.162833  0.175555  0.436728  1
  Tm  Tm6  1  0.664304  0.323034  0.561720  1
  Tm  Tm7  1  0.836019  0.825298  0.937970  1
  Tm  Tm8  1  0.664304  0.323034  0.938280  1
  Tm  Tm9  1  0.836019  0.825298  0.562030  1
  Tm  Tm10  1  0.333384  0.676017  0.435720  1
  Tm  Tm11  1  0.162833  0.175555  0.063272  1
  Tc  Tc12  1  0.040109  0.883863  0.250000  1
  Tc  Tc13  1  0.461774  0.386210  0.250000  1
  Tc  Tc14  1  0.959540  0.116548  0.750000  1
  Ir  Ir15  1  0.543860  0.616244  0.750000  1
