# generated using pymatgen
data_Tb2Dy6Tc3B24Ru
_symmetry_space_group_name_H-M   'P 1'
_cell_length_a   3.68805000
_cell_length_b   9.16599781
_cell_length_c   11.55587806
_cell_angle_alpha   89.92189575
_cell_angle_beta   90.00000000
_cell_angle_gamma   90.00000000
_symmetry_Int_Tables_number   1
_chemical_formula_structural   Tb2Dy6Tc3B24Ru
_chemical_formula_sum   'Tb2 Dy6 Tc3 B24 Ru1'
_cell_volume   390.64214530
_cell_formula_units_Z   1
loop_
 _symmetry_equiv_pos_site_id
 _symmetry_equiv_pos_as_xyz
  1  'x, y, z'
loop_
 _atom_site_type_symbol
 _atom_site_label
 _atom_site_symmetry_multiplicity
 _atom_site_fract_x
 _atom_site_fract_y
 _atom_site_fract_z
 _atom_site_occupancy
  Tb  Tb0  1  0.000000  0.323740  0.413907  1
  Tb  Tb1  1  0.000000  0.675086  0.584083  1
  Dy  Dy2  1  0.000000  0.823330  0.087242  1
  Dy  Dy3  1  0.000000  0.177723  0.914666  1
  Dy  Dy4  1  0.000000  0.942506  0.370010  1
  Dy  Dy5  1  0.000000  0.057824  0.630890  1
  Dy  Dy6  1  0.000000  0.442872  0.130112  1
  Dy  Dy7  1  0.000000  0.557991  0.869114  1
  Tc  Tc8  1  0.000000  0.638437  0.320379  1
  Tc  Tc9  1  0.000000  0.361617  0.680085  1
  Tc  Tc10  1  0.000000  0.137783  0.178155  1
  B  B11  1  0.500000  0.553184  0.432513  1
  B  B12  1  0.500000  0.446528  0.567021  1
  B  B13  1  0.500000  0.053125  0.066990  1
  B  B14  1  0.500000  0.946088  0.932710  1
  B  B15  1  0.500000  0.748180  0.418327  1
  B  B16  1  0.500000  0.251104  0.581748  1
  B  B17  1  0.500000  0.248724  0.081396  1
  B  B18  1  0.500000  0.751907  0.918288  1
  B  B19  1  0.500000  0.791407  0.265551  1
  B  B20  1  0.500000  0.208780  0.735174  1
  B  B21  1  0.500000  0.291228  0.234359  1
  B  B22  1  0.500000  0.709716  0.765490  1
  B  B23  1  0.500000  0.631258  0.185662  1
  B  B24  1  0.500000  0.368927  0.814809  1
  B  B25  1  0.500000  0.130500  0.313767  1
  B  B26  1  0.500000  0.868853  0.686112  1
  B  B27  1  0.500000  0.982170  0.211697  1
  B  B28  1  0.500000  0.016418  0.788548  1
  B  B29  1  0.500000  0.482708  0.287876  1
  B  B30  1  0.500000  0.517185  0.711644  1
  B  B31  1  0.500000  0.602549  0.028213  1
  B  B32  1  0.500000  0.399074  0.971467  1
  B  B33  1  0.500000  0.101595  0.472035  1
  B  B34  1  0.500000  0.898054  0.528793  1
  Ru  Ru35  1  0.000000  0.861831  0.821169  1
