# generated using pymatgen
data_YbY18Ho(Cd3Ru)2
_symmetry_space_group_name_H-M   'P 1'
_cell_length_a   9.66685387
_cell_length_b   9.66685344
_cell_length_c   9.85063537
_cell_angle_alpha   90.06876383
_cell_angle_beta   89.93123391
_cell_angle_gamma   119.98097464
_symmetry_Int_Tables_number   1
_chemical_formula_structural   YbY18Ho(Cd3Ru)2
_chemical_formula_sum   'Yb1 Y18 Ho1 Cd6 Ru2'
_cell_volume   797.34811813
_cell_formula_units_Z   1
loop_
 _symmetry_equiv_pos_site_id
 _symmetry_equiv_pos_as_xyz
  1  'x, y, z'
loop_
 _atom_site_type_symbol
 _atom_site_label
 _atom_site_symmetry_multiplicity
 _atom_site_fract_x
 _atom_site_fract_y
 _atom_site_fract_z
 _atom_site_occupancy
  Yb  Yb0  1  0.000326  0.999674  0.499833  1
  Y  Y1  1  0.000026  0.999974  0.999974  1
  Y  Y2  1  0.210413  0.421280  0.440060  1
  Y  Y3  1  0.578720  0.789587  0.440060  1
  Y  Y4  1  0.789585  0.210415  0.560115  1
  Y  Y5  1  0.789984  0.579176  0.559943  1
  Y  Y6  1  0.420824  0.210016  0.559943  1
  Y  Y7  1  0.789748  0.210252  0.940437  1
  Y  Y8  1  0.789876  0.579575  0.940428  1
  Y  Y9  1  0.420425  0.210124  0.940428  1
  Y  Y10  1  0.210148  0.789852  0.059960  1
  Y  Y11  1  0.210316  0.420572  0.059540  1
  Y  Y12  1  0.579428  0.789684  0.059540  1
  Y  Y13  1  0.541726  0.458274  0.251185  1
  Y  Y14  1  0.541140  0.082723  0.251498  1
  Y  Y15  1  0.917277  0.458860  0.251498  1
  Y  Y16  1  0.458470  0.541530  0.748813  1
  Y  Y17  1  0.458009  0.916475  0.748348  1
  Y  Y18  1  0.083525  0.541991  0.748348  1
  Ho  Ho19  1  0.211204  0.788796  0.439139  1
  Cd  Cd20  1  0.884815  0.115185  0.250301  1
  Cd  Cd21  1  0.884785  0.769609  0.250156  1
  Cd  Cd22  1  0.230391  0.115215  0.250156  1
  Cd  Cd23  1  0.115223  0.884777  0.749768  1
  Cd  Cd24  1  0.115236  0.230414  0.749767  1
  Cd  Cd25  1  0.769586  0.884764  0.749767  1
  Ru  Ru26  1  0.332238  0.667762  0.250944  1
  Ru  Ru27  1  0.666556  0.333444  0.750051  1
