# generated using pymatgen
data_Pr8Ho12Tl9Bi7
_symmetry_space_group_name_H-M   'P 1'
_cell_length_a   8.38621339
_cell_length_b   8.37904810
_cell_length_c   15.73010600
_cell_angle_alpha   90.04049453
_cell_angle_beta   90.04326794
_cell_angle_gamma   90.00230801
_symmetry_Int_Tables_number   1
_chemical_formula_structural   Pr8Ho12Tl9Bi7
_chemical_formula_sum   'Pr8 Ho12 Tl9 Bi7'
_cell_volume   1105.33013132
_cell_formula_units_Z   1
loop_
 _symmetry_equiv_pos_site_id
 _symmetry_equiv_pos_as_xyz
  1  'x, y, z'
loop_
 _atom_site_type_symbol
 _atom_site_label
 _atom_site_symmetry_multiplicity
 _atom_site_fract_x
 _atom_site_fract_y
 _atom_site_fract_z
 _atom_site_occupancy
  Pr  Pr0  1  0.471814  0.676797  0.598845  1
  Pr  Pr1  1  0.973862  0.823006  0.900633  1
  Pr  Pr2  1  0.524896  0.319983  0.098878  1
  Pr  Pr3  1  0.024387  0.181164  0.399694  1
  Pr  Pr4  1  0.519799  0.320883  0.402301  1
  Pr  Pr5  1  0.026312  0.178418  0.099635  1
  Pr  Pr6  1  0.474202  0.678667  0.901013  1
  Pr  Pr7  1  0.976005  0.820830  0.599895  1
  Ho  Ho8  1  0.632442  0.159224  0.625089  1
  Ho  Ho9  1  0.132635  0.340370  0.874550  1
  Ho  Ho10  1  0.366737  0.841543  0.124306  1
  Ho  Ho11  1  0.872099  0.657612  0.374354  1
  Ho  Ho12  1  0.364832  0.838362  0.376306  1
  Ho  Ho13  1  0.867163  0.659030  0.125243  1
  Ho  Ho14  1  0.634137  0.159007  0.874668  1
  Ho  Ho15  1  0.136195  0.343593  0.624466  1
  Ho  Ho16  1  0.797143  0.496866  0.750249  1
  Ho  Ho17  1  0.298285  0.002292  0.749298  1
  Ho  Ho18  1  0.202741  0.504202  0.252122  1
  Ho  Ho19  1  0.701722  0.998446  0.251451  1
  Tl  Tl20  1  0.208875  0.538088  0.456811  1
  Tl  Tl21  1  0.435116  0.374377  0.750085  1
  Tl  Tl22  1  0.934965  0.125475  0.749701  1
  Tl  Tl23  1  0.565729  0.626191  0.250655  1
  Tl  Tl24  1  0.065339  0.876110  0.248416  1
  Tl  Tl25  1  0.668711  0.856385  0.749818  1
  Tl  Tl26  1  0.169282  0.643126  0.751309  1
  Tl  Tl27  1  0.329829  0.141664  0.249189  1
  Tl  Tl28  1  0.827885  0.356757  0.248547  1
  Bi  Bi29  1  0.707582  0.960421  0.456415  1
  Bi  Bi30  1  0.207168  0.538657  0.044033  1
  Bi  Bi31  1  0.292703  0.038958  0.955677  1
  Bi  Bi32  1  0.797566  0.460977  0.542707  1
  Bi  Bi33  1  0.291962  0.039556  0.543664  1
  Bi  Bi34  1  0.792821  0.461694  0.955967  1
  Bi  Bi35  1  0.707062  0.961270  0.044007  1
