# generated using pymatgen
data_Er3Tm(Si2Pt3)2
_symmetry_space_group_name_H-M   'P 1'
_cell_length_a   4.16269600
_cell_length_b   6.63943507
_cell_length_c   8.90445844
_cell_angle_alpha   90.06507060
_cell_angle_beta   90.00000000
_cell_angle_gamma   90.00000000
_symmetry_Int_Tables_number   1
_chemical_formula_structural   Er3Tm(Si2Pt3)2
_chemical_formula_sum   'Er3 Tm1 Si4 Pt6'
_cell_volume   246.10081662
_cell_formula_units_Z   1
loop_
 _symmetry_equiv_pos_site_id
 _symmetry_equiv_pos_as_xyz
  1  'x, y, z'
loop_
 _atom_site_type_symbol
 _atom_site_label
 _atom_site_symmetry_multiplicity
 _atom_site_fract_x
 _atom_site_fract_y
 _atom_site_fract_z
 _atom_site_occupancy
  Er  Er0  1  0.000000  0.888396  0.329239  1
  Er  Er1  1  0.000000  0.111503  0.670734  1
  Er  Er2  1  0.000000  0.388420  0.170536  1
  Tm  Tm3  1  0.000000  0.611615  0.829314  1
  Si  Si4  1  0.500000  0.573958  0.355889  1
  Si  Si5  1  0.500000  0.426343  0.644606  1
  Si  Si6  1  0.500000  0.073869  0.144054  1
  Si  Si7  1  0.500000  0.925680  0.855715  1
  Pt  Pt8  1  0.500000  0.693718  0.089265  1
  Pt  Pt9  1  0.500000  0.306625  0.910384  1
  Pt  Pt10  1  0.500000  0.193855  0.410675  1
  Pt  Pt11  1  0.500000  0.806190  0.589515  1
  Pt  Pt12  1  0.000000  0.500042  0.500174  1
  Pt  Pt13  1  0.000000  0.999785  0.999902  1
