# generated using pymatgen
data_Sc20GaBi8Se3
_symmetry_space_group_name_H-M   'P 1'
_cell_length_a   11.30351681
_cell_length_b   8.66545300
_cell_length_c   7.54755000
_cell_angle_alpha   90.00000000
_cell_angle_beta   89.56564647
_cell_angle_gamma   90.00000000
_symmetry_Int_Tables_number   1
_chemical_formula_structural   Sc20GaBi8Se3
_chemical_formula_sum   'Sc20 Ga1 Bi8 Se3'
_cell_volume   739.26198581
_cell_formula_units_Z   1
loop_
 _symmetry_equiv_pos_site_id
 _symmetry_equiv_pos_as_xyz
  1  'x, y, z'
loop_
 _atom_site_type_symbol
 _atom_site_label
 _atom_site_symmetry_multiplicity
 _atom_site_fract_x
 _atom_site_fract_y
 _atom_site_fract_z
 _atom_site_occupancy
  Sc  Sc0  1  0.060734  0.557323  0.812780  1
  Sc  Sc1  1  0.560475  0.939664  0.682689  1
  Sc  Sc2  1  0.940348  0.061199  0.182361  1
  Sc  Sc3  1  0.439035  0.440722  0.317040  1
  Sc  Sc4  1  0.940348  0.438801  0.182361  1
  Sc  Sc5  1  0.439035  0.059278  0.317040  1
  Sc  Sc6  1  0.060734  0.942677  0.812780  1
  Sc  Sc7  1  0.560475  0.560336  0.682689  1
  Sc  Sc8  1  0.000166  0.750000  0.467228  1
  Sc  Sc9  1  0.502562  0.750000  0.027717  1
  Sc  Sc10  1  0.997746  0.250000  0.532715  1
  Sc  Sc11  1  0.498017  0.250000  0.969144  1
  Sc  Sc12  1  0.208583  0.750000  0.155226  1
  Sc  Sc13  1  0.707452  0.750000  0.345322  1
  Sc  Sc14  1  0.795743  0.250000  0.848796  1
  Sc  Sc15  1  0.281507  0.250000  0.664447  1
  Sc  Sc16  1  0.293806  0.750000  0.642346  1
  Sc  Sc17  1  0.791462  0.750000  0.858690  1
  Sc  Sc18  1  0.705025  0.250000  0.361122  1
  Sc  Sc19  1  0.211682  0.250000  0.143312  1
  Ga  Ga20  1  0.032492  0.250000  0.907121  1
  Bi  Bi21  1  0.326386  0.510470  0.930025  1
  Bi  Bi22  1  0.824433  0.991153  0.569857  1
  Bi  Bi23  1  0.674431  0.008928  0.072048  1
  Bi  Bi24  1  0.175369  0.492436  0.428439  1
  Bi  Bi25  1  0.674431  0.491072  0.072048  1
  Bi  Bi26  1  0.175369  0.007564  0.428439  1
  Bi  Bi27  1  0.326386  0.989530  0.930025  1
  Bi  Bi28  1  0.824433  0.508847  0.569857  1
  Se  Se29  1  0.476488  0.750000  0.410210  1
  Se  Se30  1  0.977205  0.750000  0.085610  1
  Se  Se31  1  0.517639  0.250000  0.590513  1
