# generated using pymatgen
data_Y2Si5Os2Rh
_symmetry_space_group_name_H-M   'P 1'
_cell_length_a   8.11874598
_cell_length_b   8.11874568
_cell_length_c   5.79940910
_cell_angle_alpha   70.88024716
_cell_angle_beta   70.88025062
_cell_angle_gamma   94.02780532
_symmetry_Int_Tables_number   1
_chemical_formula_structural   Y2Si5Os2Rh
_chemical_formula_sum   'Y4 Si10 Os4 Rh2'
_cell_volume   334.43597673
_cell_formula_units_Z   2
loop_
 _symmetry_equiv_pos_site_id
 _symmetry_equiv_pos_as_xyz
  1  'x, y, z'
loop_
 _atom_site_type_symbol
 _atom_site_label
 _atom_site_symmetry_multiplicity
 _atom_site_fract_x
 _atom_site_fract_y
 _atom_site_fract_z
 _atom_site_occupancy
  Y  Y0  1  0.866529  0.600157  0.756888  1
  Y  Y1  1  0.399843  0.133471  0.743112  1
  Y  Y2  1  0.130277  0.398517  0.248453  1
  Y  Y3  1  0.601483  0.869723  0.251547  1
  Si  Si4  1  0.064613  0.260020  0.835362  1
  Si  Si5  1  0.739980  0.935387  0.664638  1
  Si  Si6  1  0.936152  0.737398  0.164510  1
  Si  Si7  1  0.262602  0.063848  0.335490  1
  Si  Si8  1  0.209580  0.790420  0.750000  1
  Si  Si9  1  0.792496  0.207504  0.250000  1
  Si  Si10  1  0.514896  0.485104  0.750000  1
  Si  Si11  1  0.488274  0.511726  0.250000  1
  Si  Si12  1  0.771692  0.228308  0.750000  1
  Si  Si13  1  0.222686  0.777314  0.250000  1
  Os  Os14  1  0.742176  0.458844  0.367492  1
  Os  Os15  1  0.541156  0.257824  0.132508  1
  Os  Os16  1  0.005318  0.994682  0.750000  1
  Os  Os17  1  0.995423  0.004577  0.250000  1
  Rh  Rh18  1  0.257507  0.542681  0.627566  1
  Rh  Rh19  1  0.457319  0.742493  0.872434  1
