# generated using pymatgen
data_Tm4Fe11Co5(MoP3)4
_symmetry_space_group_name_H-M   'P 1'
_cell_length_a   3.70099100
_cell_length_b   10.40363005
_cell_length_c   11.92014726
_cell_angle_alpha   90.46685533
_cell_angle_beta   90.00000000
_cell_angle_gamma   90.00000000
_symmetry_Int_Tables_number   1
_chemical_formula_structural   Tm4Fe11Co5(MoP3)4
_chemical_formula_sum   'Tm4 Fe11 Co5 Mo4 P12'
_cell_volume   458.95502890
_cell_formula_units_Z   1
loop_
 _symmetry_equiv_pos_site_id
 _symmetry_equiv_pos_as_xyz
  1  'x, y, z'
loop_
 _atom_site_type_symbol
 _atom_site_label
 _atom_site_symmetry_multiplicity
 _atom_site_fract_x
 _atom_site_fract_y
 _atom_site_fract_z
 _atom_site_occupancy
  Tm  Tm0  1  0.250000  0.581831  0.706248  1
  Tm  Tm1  1  0.250000  0.922874  0.206063  1
  Tm  Tm2  1  0.750000  0.415080  0.293863  1
  Tm  Tm3  1  0.750000  0.080298  0.794651  1
  Fe  Fe4  1  0.250000  0.284092  0.678020  1
  Fe  Fe5  1  0.750000  0.782555  0.822753  1
  Fe  Fe6  1  0.750000  0.715729  0.321903  1
  Fe  Fe7  1  0.250000  0.877327  0.701900  1
  Fe  Fe8  1  0.250000  0.623666  0.202432  1
  Fe  Fe9  1  0.750000  0.118847  0.299584  1
  Fe  Fe10  1  0.750000  0.377395  0.797410  1
  Fe  Fe11  1  0.250000  0.462490  0.932810  1
  Fe  Fe12  1  0.250000  0.036011  0.434890  1
  Fe  Fe13  1  0.750000  0.537672  0.067751  1
  Fe  Fe14  1  0.750000  0.962561  0.568131  1
  Co  Co15  1  0.250000  0.404930  0.486129  1
  Co  Co16  1  0.250000  0.093115  0.988191  1
  Co  Co17  1  0.750000  0.592795  0.512460  1
  Co  Co18  1  0.750000  0.908538  0.012924  1
  Co  Co19  1  0.250000  0.223964  0.175303  1
  Mo  Mo20  1  0.250000  0.705606  0.987183  1
  Mo  Mo21  1  0.250000  0.794237  0.486431  1
  Mo  Mo22  1  0.750000  0.295071  0.011322  1
  Mo  Mo23  1  0.750000  0.204383  0.512356  1
  P  P24  1  0.250000  0.425599  0.114656  1
  P  P25  1  0.250000  0.074881  0.615611  1
  P  P26  1  0.750000  0.575135  0.885359  1
  P  P27  1  0.750000  0.925989  0.385130  1
  P  P28  1  0.250000  0.264022  0.867316  1
  P  P29  1  0.250000  0.229056  0.361616  1
  P  P30  1  0.750000  0.737250  0.132837  1
  P  P31  1  0.750000  0.765290  0.634153  1
  P  P32  1  0.250000  0.591267  0.391935  1
  P  P33  1  0.250000  0.906101  0.891675  1
  P  P34  1  0.750000  0.407020  0.607469  1
  P  P35  1  0.750000  0.097325  0.111535  1
