# generated using pymatgen
data_Tm4LuGaBiPt
_symmetry_space_group_name_H-M   'P 1'
_cell_length_a   8.61168966
_cell_length_b   8.61169002
_cell_length_c   8.66175878
_cell_angle_alpha   125.58963652
_cell_angle_beta   125.58964506
_cell_angle_gamma   80.17035437
_symmetry_Int_Tables_number   1
_chemical_formula_structural   Tm4LuGaBiPt
_chemical_formula_sum   'Tm8 Lu2 Ga2 Bi2 Pt2'
_cell_volume   410.86694239
_cell_formula_units_Z   2
loop_
 _symmetry_equiv_pos_site_id
 _symmetry_equiv_pos_as_xyz
  1  'x, y, z'
loop_
 _atom_site_type_symbol
 _atom_site_label
 _atom_site_symmetry_multiplicity
 _atom_site_fract_x
 _atom_site_fract_y
 _atom_site_fract_z
 _atom_site_occupancy
  Tm  Tm0  1  0.785951  0.285951  0.798350  1
  Tm  Tm1  1  0.214049  0.714049  0.201650  1
  Tm  Tm2  1  0.487601  0.987601  0.201650  1
  Tm  Tm3  1  0.300907  0.472859  0.500000  1
  Tm  Tm4  1  0.027141  0.199093  0.500000  1
  Tm  Tm5  1  0.512399  0.012399  0.798350  1
  Tm  Tm6  1  0.699093  0.527141  0.500000  1
  Tm  Tm7  1  0.972859  0.800907  0.500000  1
  Lu  Lu8  1  0.000000  0.000000  0.000000  1
  Lu  Lu9  1  0.500000  0.500000  0.000000  1
  Ga  Ga10  1  0.137694  0.637694  0.775388  1
  Ga  Ga11  1  0.862306  0.362306  0.224612  1
  Bi  Bi12  1  0.250000  0.250000  0.000000  1
  Bi  Bi13  1  0.750000  0.750000  0.000000  1
  Pt  Pt14  1  0.637516  0.862484  0.500000  1
  Pt  Pt15  1  0.362484  0.137516  0.500000  1
