# generated using pymatgen
data_RbMn6S7
_symmetry_space_group_name_H-M   'P 1'
_cell_length_a   8.96380592
_cell_length_b   8.96380581
_cell_length_c   8.96380719
_cell_angle_alpha   61.10153520
_cell_angle_beta   61.10153737
_cell_angle_gamma   61.10153752
_symmetry_Int_Tables_number   1
_chemical_formula_structural   RbMn6S7
_chemical_formula_sum   'Rb2 Mn12 S14'
_cell_volume   521.91446711
_cell_formula_units_Z   2
loop_
 _symmetry_equiv_pos_site_id
 _symmetry_equiv_pos_as_xyz
  1  'x, y, z'
loop_
 _atom_site_type_symbol
 _atom_site_label
 _atom_site_symmetry_multiplicity
 _atom_site_fract_x
 _atom_site_fract_y
 _atom_site_fract_z
 _atom_site_occupancy
  Rb  Rb0  1  0.120270  0.120270  0.120270  1
  Rb  Rb1  1  0.879730  0.879730  0.879730  1
  Mn  Mn2  1  0.614109  0.305165  0.439796  1
  Mn  Mn3  1  0.305165  0.439796  0.614109  1
  Mn  Mn4  1  0.439796  0.614109  0.305165  1
  Mn  Mn5  1  0.385891  0.694835  0.560204  1
  Mn  Mn6  1  0.694835  0.560204  0.385891  1
  Mn  Mn7  1  0.560204  0.385891  0.694835  1
  Mn  Mn8  1  0.374300  0.193700  0.504298  1
  Mn  Mn9  1  0.193700  0.504298  0.374300  1
  Mn  Mn10  1  0.504298  0.374300  0.193700  1
  Mn  Mn11  1  0.625700  0.806300  0.495702  1
  Mn  Mn12  1  0.806300  0.495702  0.625700  1
  Mn  Mn13  1  0.495702  0.625700  0.806300  1
  S  S14  1  0.666589  0.324633  0.908652  1
  S  S15  1  0.091348  0.333411  0.675367  1
  S  S16  1  0.279691  0.279691  0.279691  1
  S  S17  1  0.720309  0.720309  0.720309  1
  S  S18  1  0.841915  0.271324  0.517542  1
  S  S19  1  0.271324  0.517542  0.841915  1
  S  S20  1  0.517542  0.841915  0.271324  1
  S  S21  1  0.158085  0.728676  0.482458  1
  S  S22  1  0.728676  0.482458  0.158085  1
  S  S23  1  0.482458  0.158085  0.728676  1
  S  S24  1  0.333411  0.675367  0.091348  1
  S  S25  1  0.675367  0.091348  0.333411  1
  S  S26  1  0.908652  0.666589  0.324633  1
  S  S27  1  0.324633  0.908652  0.666589  1
