# generated using pymatgen
data_Ho8Fe(Si4Pt)3
_symmetry_space_group_name_H-M   'P 1'
_cell_length_a   8.14394900
_cell_length_b   8.14394863
_cell_length_c   7.90563100
_cell_angle_alpha   90.00000000
_cell_angle_beta   90.00000000
_cell_angle_gamma   120.00000558
_symmetry_Int_Tables_number   1
_chemical_formula_structural   Ho8Fe(Si4Pt)3
_chemical_formula_sum   'Ho8 Fe1 Si12 Pt3'
_cell_volume   454.08506436
_cell_formula_units_Z   1
loop_
 _symmetry_equiv_pos_site_id
 _symmetry_equiv_pos_as_xyz
  1  'x, y, z'
loop_
 _atom_site_type_symbol
 _atom_site_label
 _atom_site_symmetry_multiplicity
 _atom_site_fract_x
 _atom_site_fract_y
 _atom_site_fract_z
 _atom_site_occupancy
  Ho  Ho0  1  0.000000  0.000000  0.249546  1
  Ho  Ho1  1  0.000000  0.000000  0.752276  1
  Ho  Ho2  1  0.506213  0.493787  0.244095  1
  Ho  Ho3  1  0.506213  0.012426  0.244095  1
  Ho  Ho4  1  0.987574  0.493787  0.244095  1
  Ho  Ho5  1  0.488661  0.511339  0.753669  1
  Ho  Ho6  1  0.488661  0.977320  0.753669  1
  Ho  Ho7  1  0.022680  0.511339  0.753669  1
  Fe  Fe8  1  0.333333  0.666667  0.038301  1
  Si  Si9  1  0.165092  0.834908  0.501040  1
  Si  Si10  1  0.165092  0.330184  0.501040  1
  Si  Si11  1  0.669816  0.834908  0.501040  1
  Si  Si12  1  0.834636  0.165364  0.499785  1
  Si  Si13  1  0.834636  0.669273  0.499785  1
  Si  Si14  1  0.330727  0.165364  0.499785  1
  Si  Si15  1  0.836959  0.163041  0.997688  1
  Si  Si16  1  0.836959  0.673919  0.997688  1
  Si  Si17  1  0.326081  0.163041  0.997688  1
  Si  Si18  1  0.173382  0.826618  0.002733  1
  Si  Si19  1  0.173382  0.346763  0.002733  1
  Si  Si20  1  0.653237  0.826618  0.002733  1
  Pt  Pt21  1  0.333333  0.666667  0.462249  1
  Pt  Pt22  1  0.666667  0.333333  0.528387  1
  Pt  Pt23  1  0.666667  0.333333  0.972208  1
