# generated using pymatgen
data_Dy2Ho3Ta3(Co4P3)4
_symmetry_space_group_name_H-M   'P 1'
_cell_length_a   12.15572000
_cell_length_b   12.15571959
_cell_length_c   3.69010100
_cell_angle_alpha   90.00000000
_cell_angle_beta   90.00000000
_cell_angle_gamma   119.99999024
_symmetry_Int_Tables_number   1
_chemical_formula_structural   Dy2Ho3Ta3(Co4P3)4
_chemical_formula_sum   'Dy2 Ho3 Ta3 Co16 P12'
_cell_volume   472.20468157
_cell_formula_units_Z   1
loop_
 _symmetry_equiv_pos_site_id
 _symmetry_equiv_pos_as_xyz
  1  'x, y, z'
loop_
 _atom_site_type_symbol
 _atom_site_label
 _atom_site_symmetry_multiplicity
 _atom_site_fract_x
 _atom_site_fract_y
 _atom_site_fract_z
 _atom_site_occupancy
  Dy  Dy0  1  0.666667  0.333333  0.000000  1
  Dy  Dy1  1  0.333333  0.666667  0.000000  1
  Ho  Ho2  1  0.183789  0.183789  0.500000  1
  Ho  Ho3  1  0.816211  0.000000  0.500000  1
  Ho  Ho4  1  0.000000  0.816211  0.500000  1
  Ta  Ta5  1  0.556480  0.556480  0.000000  1
  Ta  Ta6  1  0.443520  0.000000  0.000000  1
  Ta  Ta7  1  0.000000  0.443520  0.000000  1
  Co  Co8  1  0.823320  0.197365  0.000000  1
  Co  Co9  1  0.802635  0.625954  0.000000  1
  Co  Co10  1  0.374046  0.176680  0.000000  1
  Co  Co11  1  0.197365  0.823320  0.000000  1
  Co  Co12  1  0.625954  0.802635  0.000000  1
  Co  Co13  1  0.176680  0.374046  0.000000  1
  Co  Co14  1  0.645013  0.126236  0.500000  1
  Co  Co15  1  0.873764  0.518775  0.500000  1
  Co  Co16  1  0.481225  0.354987  0.500000  1
  Co  Co17  1  0.126236  0.645013  0.500000  1
  Co  Co18  1  0.518775  0.873764  0.500000  1
  Co  Co19  1  0.354987  0.481225  0.500000  1
  Co  Co20  1  0.720070  0.720070  0.500000  1
  Co  Co21  1  0.279930  0.000000  0.500000  1
  Co  Co22  1  0.000000  0.279930  0.500000  1
  Co  Co23  1  0.000000  0.000000  0.000000  1
  P  P24  1  0.355684  0.355684  0.000000  1
  P  P25  1  0.644316  0.000000  0.000000  1
  P  P26  1  0.000000  0.644316  0.000000  1
  P  P27  1  0.831887  0.311363  0.500000  1
  P  P28  1  0.688637  0.520525  0.500000  1
  P  P29  1  0.479475  0.168113  0.500000  1
  P  P30  1  0.311363  0.831887  0.500000  1
  P  P31  1  0.520525  0.688637  0.500000  1
  P  P32  1  0.168113  0.479475  0.500000  1
  P  P33  1  0.822524  0.822524  0.000000  1
  P  P34  1  0.177476  0.000000  0.000000  1
  P  P35  1  0.000000  0.177476  0.000000  1
