# generated using pymatgen
data_La7Pr(SI6)2
_symmetry_space_group_name_H-M   'P 1'
_cell_length_a   4.33629600
_cell_length_b   14.34298250
_cell_length_c   15.12324800
_cell_angle_alpha   90.21555402
_cell_angle_beta   90.00000000
_cell_angle_gamma   90.00000000
_symmetry_Int_Tables_number   1
_chemical_formula_structural   La7Pr(SI6)2
_chemical_formula_sum   'La7 Pr1 S2 I12'
_cell_volume   940.59006922
_cell_formula_units_Z   1
loop_
 _symmetry_equiv_pos_site_id
 _symmetry_equiv_pos_as_xyz
  1  'x, y, z'
loop_
 _atom_site_type_symbol
 _atom_site_label
 _atom_site_symmetry_multiplicity
 _atom_site_fract_x
 _atom_site_fract_y
 _atom_site_fract_z
 _atom_site_occupancy
  La  La0  1  0.500000  0.114568  0.347714  1
  La  La1  1  0.500000  0.886185  0.652862  1
  La  La2  1  0.500000  0.614019  0.152620  1
  La  La3  1  0.000000  0.110687  0.574426  1
  La  La4  1  0.000000  0.891362  0.427412  1
  La  La5  1  0.000000  0.608446  0.925645  1
  La  La6  1  0.000000  0.389482  0.071668  1
  Pr  Pr7  1  0.500000  0.387416  0.849048  1
  S  S8  1  0.500000  0.001052  0.500690  1
  S  S9  1  0.500000  0.500127  0.000180  1
  I  I10  1  0.500000  0.243323  0.160990  1
  I  I11  1  0.500000  0.755246  0.837470  1
  I  I12  1  0.500000  0.744170  0.338372  1
  I  I13  1  0.500000  0.255917  0.663616  1
  I  I14  1  0.000000  0.264468  0.416822  1
  I  I15  1  0.000000  0.736326  0.583819  1
  I  I16  1  0.000000  0.763355  0.083486  1
  I  I17  1  0.000000  0.238234  0.912590  1
  I  I18  1  0.000000  0.995711  0.236375  1
  I  I19  1  0.000000  0.004292  0.764687  1
  I  I20  1  0.000000  0.495191  0.263159  1
  I  I21  1  0.000000  0.500426  0.736351  1
