# generated using pymatgen
data_Sc2SnMoRu4
_symmetry_space_group_name_H-M   'P 1'
_cell_length_a   4.52322702
_cell_length_b   6.35403900
_cell_length_c   13.49728206
_cell_angle_alpha   90.00000000
_cell_angle_beta   89.98939047
_cell_angle_gamma   90.00000000
_symmetry_Int_Tables_number   1
_chemical_formula_structural   Sc2SnMoRu4
_chemical_formula_sum   'Sc6 Sn3 Mo3 Ru12'
_cell_volume   387.92214960
_cell_formula_units_Z   3
loop_
 _symmetry_equiv_pos_site_id
 _symmetry_equiv_pos_as_xyz
  1  'x, y, z'
loop_
 _atom_site_type_symbol
 _atom_site_label
 _atom_site_symmetry_multiplicity
 _atom_site_fract_x
 _atom_site_fract_y
 _atom_site_fract_z
 _atom_site_occupancy
  Sc  Sc0  1  0.000004  0.000000  0.000212  1
  Sc  Sc1  1  0.499907  0.500001  0.166606  1
  Sc  Sc2  1  0.999919  0.000000  0.333119  1
  Sc  Sc3  1  0.500022  0.500001  0.501951  1
  Sc  Sc4  1  0.000097  0.000000  0.666666  1
  Sc  Sc5  1  0.500079  0.500001  0.831456  1
  Sn  Sn6  1  0.499992  0.000000  0.500950  1
  Sn  Sn7  1  0.000256  0.500001  0.666786  1
  Sn  Sn8  1  0.500079  0.000000  0.832300  1
  Mo  Mo9  1  0.999976  0.500001  0.000452  1
  Mo  Mo10  1  0.499908  0.000000  0.166714  1
  Mo  Mo11  1  0.999895  0.500001  0.332968  1
  Ru  Ru12  1  0.499980  0.253845  0.006726  1
  Ru  Ru13  1  0.499980  0.746155  0.006726  1
  Ru  Ru14  1  0.999872  0.250613  0.166623  1
  Ru  Ru15  1  0.999872  0.749387  0.166623  1
  Ru  Ru16  1  0.499869  0.253880  0.326554  1
  Ru  Ru17  1  0.499869  0.746119  0.326554  1
  Ru  Ru18  1  0.999976  0.258691  0.488880  1
  Ru  Ru19  1  0.999976  0.741312  0.488880  1
  Ru  Ru20  1  0.500176  0.250321  0.666620  1
  Ru  Ru21  1  0.500176  0.749678  0.666620  1
  Ru  Ru22  1  0.000058  0.258681  0.844505  1
  Ru  Ru23  1  0.000058  0.741319  0.844505  1
