# generated using pymatgen
data_Ca3Nd(NiSn)4
_symmetry_space_group_name_H-M   'P 1'
_cell_length_a   4.57947500
_cell_length_b   7.35072072
_cell_length_c   7.64117275
_cell_angle_alpha   89.92195060
_cell_angle_beta   90.00000000
_cell_angle_gamma   90.00000000
_symmetry_Int_Tables_number   1
_chemical_formula_structural   Ca3Nd(NiSn)4
_chemical_formula_sum   'Ca3 Nd1 Ni4 Sn4'
_cell_volume   257.22029433
_cell_formula_units_Z   1
loop_
 _symmetry_equiv_pos_site_id
 _symmetry_equiv_pos_as_xyz
  1  'x, y, z'
loop_
 _atom_site_type_symbol
 _atom_site_label
 _atom_site_symmetry_multiplicity
 _atom_site_fract_x
 _atom_site_fract_y
 _atom_site_fract_z
 _atom_site_occupancy
  Ca  Ca0  1  0.250000  0.017316  0.305481  1
  Ca  Ca1  1  0.250000  0.516240  0.195996  1
  Ca  Ca2  1  0.750000  0.982732  0.693026  1
  Nd  Nd3  1  0.750000  0.482024  0.807390  1
  Ni  Ni4  1  0.250000  0.313070  0.589733  1
  Ni  Ni5  1  0.250000  0.803264  0.913129  1
  Ni  Ni6  1  0.750000  0.690969  0.412292  1
  Ni  Ni7  1  0.750000  0.195144  0.087595  1
  Sn  Sn8  1  0.250000  0.178981  0.913551  1
  Sn  Sn9  1  0.250000  0.685154  0.583054  1
  Sn  Sn10  1  0.750000  0.818713  0.086712  1
  Sn  Sn11  1  0.750000  0.316393  0.412041  1
