# generated using pymatgen
data_Ce(MnAl5)2
_symmetry_space_group_name_H-M   'P 1'
_cell_length_a   6.89039065
_cell_length_b   6.89039046
_cell_length_c   9.17839000
_cell_angle_alpha   90.00000000
_cell_angle_beta   90.00000000
_cell_angle_gamma   97.32585987
_symmetry_Int_Tables_number   1
_chemical_formula_structural   Ce(MnAl5)2
_chemical_formula_sum   'Ce2 Mn4 Al20'
_cell_volume   432.20967745
_cell_formula_units_Z   2
loop_
 _symmetry_equiv_pos_site_id
 _symmetry_equiv_pos_as_xyz
  1  'x, y, z'
loop_
 _atom_site_type_symbol
 _atom_site_label
 _atom_site_symmetry_multiplicity
 _atom_site_fract_x
 _atom_site_fract_y
 _atom_site_fract_z
 _atom_site_occupancy
  Ce  Ce0  1  0.875672  0.124328  0.750000  1
  Ce  Ce1  1  0.124328  0.875672  0.250000  1
  Mn  Mn2  1  0.500000  0.000000  0.000000  1
  Mn  Mn3  1  0.000000  0.500000  0.000000  1
  Mn  Mn4  1  0.500000  0.000000  0.500000  1
  Mn  Mn5  1  0.000000  0.500000  0.500000  1
  Al  Al6  1  0.410349  0.129452  0.750000  1
  Al  Al7  1  0.129452  0.410349  0.250000  1
  Al  Al8  1  0.589651  0.870548  0.250000  1
  Al  Al9  1  0.870548  0.589651  0.750000  1
  Al  Al10  1  0.524601  0.781229  0.750000  1
  Al  Al11  1  0.781229  0.524601  0.250000  1
  Al  Al12  1  0.475399  0.218771  0.250000  1
  Al  Al13  1  0.218771  0.475399  0.750000  1
  Al  Al14  1  0.838761  0.161239  0.402901  1
  Al  Al15  1  0.161239  0.838761  0.597099  1
  Al  Al16  1  0.838761  0.161239  0.097099  1
  Al  Al17  1  0.161239  0.838761  0.902901  1
  Al  Al18  1  0.624682  0.375318  0.951413  1
  Al  Al19  1  0.375318  0.624682  0.048587  1
  Al  Al20  1  0.624682  0.375318  0.548587  1
  Al  Al21  1  0.375318  0.624682  0.451413  1
  Al  Al22  1  0.770864  0.770864  0.000000  1
  Al  Al23  1  0.770864  0.770864  0.500000  1
  Al  Al24  1  0.229136  0.229136  0.000000  1
  Al  Al25  1  0.229136  0.229136  0.500000  1
