# generated using pymatgen
data_Er3In4PdRu
_symmetry_space_group_name_H-M   'P 1'
_cell_length_a   7.99100800
_cell_length_b   7.99100719
_cell_length_c   3.69033800
_cell_angle_alpha   90.00000000
_cell_angle_beta   90.00000000
_cell_angle_gamma   120.00000333
_symmetry_Int_Tables_number   1
_chemical_formula_structural   Er3In4PdRu
_chemical_formula_sum   'Er3 In4 Pd1 Ru1'
_cell_volume   204.07971988
_cell_formula_units_Z   1
loop_
 _symmetry_equiv_pos_site_id
 _symmetry_equiv_pos_as_xyz
  1  'x, y, z'
loop_
 _atom_site_type_symbol
 _atom_site_label
 _atom_site_symmetry_multiplicity
 _atom_site_fract_x
 _atom_site_fract_y
 _atom_site_fract_z
 _atom_site_occupancy
  Er  Er0  1  0.708180  0.954509  0.500000  1
  Er  Er1  1  0.246329  0.291820  0.500000  1
  Er  Er2  1  0.045491  0.753671  0.500000  1
  In  In3  1  0.929598  0.333992  0.000000  1
  In  In4  1  0.404394  0.070402  0.000000  1
  In  In5  1  0.666008  0.595606  0.000000  1
  In  In6  1  0.333333  0.666667  0.000000  1
  Pd  Pd7  1  0.666667  0.333333  0.500000  1
  Ru  Ru8  1  0.000000  0.000000  0.000000  1
