# generated using pymatgen
data_CaTh(NiH4)2
_symmetry_space_group_name_H-M   'P 1'
_cell_length_a   6.18073001
_cell_length_b   6.18073100
_cell_length_c   4.82274100
_cell_angle_alpha   90.00000000
_cell_angle_beta   90.00000000
_cell_angle_gamma   144.09463090
_symmetry_Int_Tables_number   1
_chemical_formula_structural   CaTh(NiH4)2
_chemical_formula_sum   'Ca1 Th1 Ni2 H8'
_cell_volume   108.04464794
_cell_formula_units_Z   1
loop_
 _symmetry_equiv_pos_site_id
 _symmetry_equiv_pos_as_xyz
  1  'x, y, z'
loop_
 _atom_site_type_symbol
 _atom_site_label
 _atom_site_symmetry_multiplicity
 _atom_site_fract_x
 _atom_site_fract_y
 _atom_site_fract_z
 _atom_site_occupancy
  Ca  Ca0  1  0.865961  0.134039  0.750000  1
  Th  Th1  1  0.129542  0.870458  0.250000  1
  Ni  Ni2  1  0.596744  0.403256  0.750000  1
  Ni  Ni3  1  0.404656  0.595344  0.250000  1
  H  H4  1  0.089491  0.910509  0.750000  1
  H  H5  1  0.917080  0.082920  0.250000  1
  H  H6  1  0.690145  0.309855  0.497906  1
  H  H7  1  0.307149  0.692851  0.490504  1
  H  H8  1  0.690145  0.309855  0.002094  1
  H  H9  1  0.307149  0.692851  0.009496  1
  H  H10  1  0.500968  0.499032  0.005327  1
  H  H11  1  0.500968  0.499032  0.494673  1
