# generated using pymatgen
data_LaEuNi4SbAs3
_symmetry_space_group_name_H-M   'P 1'
_cell_length_a   4.28403800
_cell_length_b   4.28403800
_cell_length_c   9.79997500
_cell_angle_alpha   90.00000000
_cell_angle_beta   90.00000000
_cell_angle_gamma   90.00000000
_symmetry_Int_Tables_number   1
_chemical_formula_structural   LaEuNi4SbAs3
_chemical_formula_sum   'La1 Eu1 Ni4 Sb1 As3'
_cell_volume   179.85876071
_cell_formula_units_Z   1
loop_
 _symmetry_equiv_pos_site_id
 _symmetry_equiv_pos_as_xyz
  1  'x, y, z'
loop_
 _atom_site_type_symbol
 _atom_site_label
 _atom_site_symmetry_multiplicity
 _atom_site_fract_x
 _atom_site_fract_y
 _atom_site_fract_z
 _atom_site_occupancy
  La  La0  1  0.500000  0.000000  0.246803  1
  Eu  Eu1  1  0.000000  0.500000  0.761495  1
  Ni  Ni2  1  0.000000  0.500000  0.117875  1
  Ni  Ni3  1  0.000000  0.000000  0.487445  1
  Ni  Ni4  1  0.500000  0.000000  0.894390  1
  Ni  Ni5  1  0.500000  0.500000  0.487445  1
  Sb  Sb6  1  0.500000  0.000000  0.632757  1
  As  As7  1  0.000000  0.500000  0.366403  1
  As  As8  1  0.000000  0.000000  0.002694  1
  As  As9  1  0.500000  0.500000  0.002694  1
