# generated using pymatgen
data_Lu2MgAlAu2
_symmetry_space_group_name_H-M   'P 1'
_cell_length_a   7.33290800
_cell_length_b   7.33290970
_cell_length_c   8.15633200
_cell_angle_alpha   90.00000000
_cell_angle_beta   90.00000000
_cell_angle_gamma   120.00000134
_symmetry_Int_Tables_number   1
_chemical_formula_structural   Lu2MgAlAu2
_chemical_formula_sum   'Lu6 Mg3 Al3 Au6'
_cell_volume   379.82023178
_cell_formula_units_Z   3
loop_
 _symmetry_equiv_pos_site_id
 _symmetry_equiv_pos_as_xyz
  1  'x, y, z'
loop_
 _atom_site_type_symbol
 _atom_site_label
 _atom_site_symmetry_multiplicity
 _atom_site_fract_x
 _atom_site_fract_y
 _atom_site_fract_z
 _atom_site_occupancy
  Lu  Lu0  1  0.588858  0.998037  0.737682  1
  Lu  Lu1  1  0.001963  0.590821  0.737682  1
  Lu  Lu2  1  0.409179  0.411142  0.737682  1
  Lu  Lu3  1  0.998037  0.588858  0.262318  1
  Lu  Lu4  1  0.590821  0.001963  0.262318  1
  Lu  Lu5  1  0.411142  0.409179  0.262318  1
  Mg  Mg6  1  0.754865  0.754865  0.000000  1
  Mg  Mg7  1  0.245135  0.000000  0.000000  1
  Mg  Mg8  1  0.000000  0.245135  0.000000  1
  Al  Al9  1  0.747305  0.747305  0.500000  1
  Al  Al10  1  0.252695  0.000000  0.500000  1
  Al  Al11  1  0.000000  0.252695  0.500000  1
  Au  Au12  1  0.000000  0.000000  0.736308  1
  Au  Au13  1  0.000000  0.000000  0.263692  1
  Au  Au14  1  0.666667  0.333333  0.998424  1
  Au  Au15  1  0.666667  0.333333  0.502384  1
  Au  Au16  1  0.333333  0.666667  0.497616  1
  Au  Au17  1  0.333333  0.666667  0.001576  1
