# generated using pymatgen
data_Ta2BeGeRu4
_symmetry_space_group_name_H-M   'P 1'
_cell_length_a   4.32162800
_cell_length_b   6.09553200
_cell_length_c   12.88558500
_cell_angle_alpha   89.99998120
_cell_angle_beta   90.00095457
_cell_angle_gamma   90.00018799
_symmetry_Int_Tables_number   1
_chemical_formula_structural   Ta2BeGeRu4
_chemical_formula_sum   'Ta6 Be3 Ge3 Ru12'
_cell_volume   339.44009189
_cell_formula_units_Z   3
loop_
 _symmetry_equiv_pos_site_id
 _symmetry_equiv_pos_as_xyz
  1  'x, y, z'
loop_
 _atom_site_type_symbol
 _atom_site_label
 _atom_site_symmetry_multiplicity
 _atom_site_fract_x
 _atom_site_fract_y
 _atom_site_fract_z
 _atom_site_occupancy
  Ta  Ta0  1  0.000002  0.499993  0.991754  1
  Ta  Ta1  1  0.499872  0.999981  0.166668  1
  Ta  Ta2  1  0.999911  0.500005  0.341602  1
  Ta  Ta3  1  0.500013  0.000051  0.507802  1
  Ta  Ta4  1  0.000094  0.500024  0.666682  1
  Ta  Ta5  1  0.500150  0.000007  0.825527  1
  Be  Be6  1  0.499975  0.500151  0.503872  1
  Be  Be7  1  0.000170  0.999976  0.666668  1
  Be  Be8  1  0.500100  0.499972  0.829440  1
  Ge  Ge9  1  0.000013  0.999978  0.995244  1
  Ge  Ge10  1  0.499845  0.499973  0.166663  1
  Ge  Ge11  1  0.999901  0.999984  0.338097  1
  Ru  Ru12  1  0.499970  0.252248  0.999108  1
  Ru  Ru13  1  0.500017  0.747669  0.999116  1
  Ru  Ru14  1  0.999939  0.248822  0.166637  1
  Ru  Ru15  1  0.999909  0.751041  0.166668  1
  Ru  Ru16  1  0.499894  0.252315  0.334225  1
  Ru  Ru17  1  0.499918  0.747661  0.334241  1
  Ru  Ru18  1  0.999991  0.250859  0.501892  1
  Ru  Ru19  1  0.999980  0.749241  0.501896  1
  Ru  Ru20  1  0.500148  0.252419  0.666652  1
  Ru  Ru21  1  0.500005  0.747624  0.666661  1
  Ru  Ru22  1  0.000116  0.250785  0.831461  1
  Ru  Ru23  1  0.000076  0.749207  0.831422  1
