# generated using pymatgen
data_Pd2PtF18
_symmetry_space_group_name_H-M   'P 1'
_cell_length_a   5.16880475
_cell_length_b   8.41842970
_cell_length_c   8.46242383
_cell_angle_alpha   62.38459774
_cell_angle_beta   84.41993175
_cell_angle_gamma   84.72471379
_symmetry_Int_Tables_number   1
_chemical_formula_structural   Pd2PtF18
_chemical_formula_sum   'Pd2 Pt1 F18'
_cell_volume   324.27341338
_cell_formula_units_Z   1
loop_
 _symmetry_equiv_pos_site_id
 _symmetry_equiv_pos_as_xyz
  1  'x, y, z'
loop_
 _atom_site_type_symbol
 _atom_site_label
 _atom_site_symmetry_multiplicity
 _atom_site_fract_x
 _atom_site_fract_y
 _atom_site_fract_z
 _atom_site_occupancy
  Pd  Pd0  1  0.561193  0.335264  0.335456  1
  Pd  Pd1  1  0.438959  0.664030  0.664808  1
  Pt  Pt2  1  0.999888  0.000694  0.999732  1
  F  F3  1  0.870692  0.772225  0.073722  1
  F  F4  1  0.678447  0.076955  0.077837  1
  F  F5  1  0.742661  0.414957  0.108154  1
  F  F6  1  0.126560  0.920473  0.228080  1
  F  F7  1  0.380227  0.563040  0.255928  1
  F  F8  1  0.296063  0.252843  0.256402  1
  F  F9  1  0.826256  0.417814  0.414721  1
  F  F10  1  0.743227  0.107866  0.414727  1
  F  F11  1  0.619644  0.744549  0.437189  1
  F  F12  1  0.380592  0.255498  0.563030  1
  F  F13  1  0.256588  0.891302  0.586261  1
  F  F14  1  0.173939  0.581946  0.584977  1
  F  F15  1  0.704009  0.745921  0.744439  1
  F  F16  1  0.620023  0.436334  0.743572  1
  F  F17  1  0.873356  0.081064  0.771335  1
  F  F18  1  0.257220  0.583692  0.892120  1
  F  F19  1  0.321413  0.924388  0.921715  1
  F  F20  1  0.129045  0.229144  0.925803  1
