# generated using pymatgen
data_NaCe4EuSe8
_symmetry_space_group_name_H-M   'P 1'
_cell_length_a   7.77479855
_cell_length_b   7.77479795
_cell_length_c   7.77479800
_cell_angle_alpha   109.50390205
_cell_angle_beta   109.50390049
_cell_angle_gamma   109.40588141
_symmetry_Int_Tables_number   1
_chemical_formula_structural   NaCe4EuSe8
_chemical_formula_sum   'Na1 Ce4 Eu1 Se8'
_cell_volume   361.78040787
_cell_formula_units_Z   1
loop_
 _symmetry_equiv_pos_site_id
 _symmetry_equiv_pos_as_xyz
  1  'x, y, z'
loop_
 _atom_site_type_symbol
 _atom_site_label
 _atom_site_symmetry_multiplicity
 _atom_site_fract_x
 _atom_site_fract_y
 _atom_site_fract_z
 _atom_site_occupancy
  Na  Na0  1  0.750000  0.250000  0.500000  1
  Ce  Ce1  1  0.992426  0.369769  0.118870  1
  Ce  Ce2  1  0.250899  0.873555  0.881130  1
  Ce  Ce3  1  0.630231  0.749101  0.622656  1
  Ce  Ce4  1  0.126445  0.007574  0.377344  1
  Eu  Eu5  1  0.500000  0.500000  0.000000  1
  Se  Se6  1  0.514423  0.114531  0.751525  1
  Se  Se7  1  0.022011  0.121312  0.751198  1
  Se  Se8  1  0.370114  0.270812  0.248802  1
  Se  Se9  1  0.237101  0.485577  0.600107  1
  Se  Se10  1  0.363004  0.762899  0.248475  1
  Se  Se11  1  0.878688  0.629886  0.900699  1
  Se  Se12  1  0.885469  0.636996  0.399893  1
  Se  Se13  1  0.729188  0.977989  0.099301  1
