# generated using pymatgen
data_Rb4Li2ErTmAs4
_symmetry_space_group_name_H-M   'P 1'
_cell_length_a   10.59056049
_cell_length_b   10.59056165
_cell_length_c   6.81385100
_cell_angle_alpha   90.00000000
_cell_angle_beta   90.00000000
_cell_angle_gamma   99.86421800
_symmetry_Int_Tables_number   1
_chemical_formula_structural   Rb4Li2ErTmAs4
_chemical_formula_sum   'Rb8 Li4 Er2 Tm2 As8'
_cell_volume   752.94325956
_cell_formula_units_Z   2
loop_
 _symmetry_equiv_pos_site_id
 _symmetry_equiv_pos_as_xyz
  1  'x, y, z'
loop_
 _atom_site_type_symbol
 _atom_site_label
 _atom_site_symmetry_multiplicity
 _atom_site_fract_x
 _atom_site_fract_y
 _atom_site_fract_z
 _atom_site_occupancy
  Rb  Rb0  1  0.568699  0.931301  0.750000  1
  Rb  Rb1  1  0.931301  0.568699  0.250000  1
  Rb  Rb2  1  0.431203  0.068797  0.250000  1
  Rb  Rb3  1  0.068797  0.431203  0.750000  1
  Rb  Rb4  1  0.677201  0.322705  0.785713  1
  Rb  Rb5  1  0.822799  0.177295  0.285713  1
  Rb  Rb6  1  0.322705  0.677201  0.214287  1
  Rb  Rb7  1  0.177295  0.822799  0.714287  1
  Li  Li8  1  0.618674  0.618674  0.000000  1
  Li  Li9  1  0.881326  0.881326  0.500000  1
  Li  Li10  1  0.381245  0.381245  0.000000  1
  Li  Li11  1  0.118755  0.118755  0.500000  1
  Er  Er12  1  0.131496  0.131496  0.000000  1
  Er  Er13  1  0.368504  0.368504  0.500000  1
  Tm  Tm14  1  0.868504  0.868504  0.000000  1
  Tm  Tm15  1  0.631496  0.631496  0.500000  1
  As  As16  1  0.341974  0.158026  0.750000  1
  As  As17  1  0.158026  0.341974  0.250000  1
  As  As18  1  0.658561  0.841439  0.250000  1
  As  As19  1  0.841439  0.658561  0.750000  1
  As  As20  1  0.909343  0.089966  0.766542  1
  As  As21  1  0.590657  0.410034  0.266542  1
  As  As22  1  0.089966  0.909343  0.233458  1
  As  As23  1  0.410034  0.590657  0.733458  1
