# generated using pymatgen
data_Rb4NaAlSe4
_symmetry_space_group_name_H-M   'P 1'
_cell_length_a   8.56038094
_cell_length_b   8.56038075
_cell_length_c   8.56037722
_cell_angle_alpha   131.11219142
_cell_angle_beta   129.44301567
_cell_angle_gamma   72.97160614
_symmetry_Int_Tables_number   1
_chemical_formula_structural   Rb4NaAlSe4
_chemical_formula_sum   'Rb4 Na1 Al1 Se4'
_cell_volume   356.48132037
_cell_formula_units_Z   1
loop_
 _symmetry_equiv_pos_site_id
 _symmetry_equiv_pos_as_xyz
  1  'x, y, z'
loop_
 _atom_site_type_symbol
 _atom_site_label
 _atom_site_symmetry_multiplicity
 _atom_site_fract_x
 _atom_site_fract_y
 _atom_site_fract_z
 _atom_site_occupancy
  Rb  Rb0  1  0.810668  0.651072  0.170987  1
  Rb  Rb1  1  0.189333  0.360319  0.840405  1
  Rb  Rb2  1  0.519914  0.848928  0.659595  1
  Rb  Rb3  1  0.480084  0.139681  0.329013  1
  Na  Na4  1  0.000000  0.750000  0.750000  1
  Al  Al5  1  0.000000  0.250000  0.250000  1
  Se  Se6  1  0.290496  0.558149  0.644989  1
  Se  Se7  1  0.086840  0.941851  0.232346  1
  Se  Se8  1  0.913160  0.145507  0.855011  1
  Se  Se9  1  0.709505  0.354494  0.267654  1
