# generated using pymatgen
data_La8Al8Pd7Rh
_symmetry_space_group_name_H-M   'P 1'
_cell_length_a   4.31466400
_cell_length_b   7.31966972
_cell_length_c   16.63778200
_cell_angle_alpha   89.78253183
_cell_angle_beta   90.00000000
_cell_angle_gamma   90.00000000
_symmetry_Int_Tables_number   1
_chemical_formula_structural   La8Al8Pd7Rh
_chemical_formula_sum   'La8 Al8 Pd7 Rh1'
_cell_volume   525.44923953
_cell_formula_units_Z   1
loop_
 _symmetry_equiv_pos_site_id
 _symmetry_equiv_pos_as_xyz
  1  'x, y, z'
loop_
 _atom_site_type_symbol
 _atom_site_label
 _atom_site_symmetry_multiplicity
 _atom_site_fract_x
 _atom_site_fract_y
 _atom_site_fract_z
 _atom_site_occupancy
  La  La0  1  0.250000  0.511572  0.776250  1
  La  La1  1  0.750000  0.490191  0.223664  1
  La  La2  1  0.750000  0.989827  0.277527  1
  La  La3  1  0.250000  0.017642  0.718293  1
  La  La4  1  0.250000  0.644268  0.559272  1
  La  La5  1  0.750000  0.345018  0.444504  1
  La  La6  1  0.750000  0.853488  0.058209  1
  La  La7  1  0.250000  0.146426  0.940773  1
  Al  Al8  1  0.250000  0.662332  0.355028  1
  Al  Al9  1  0.750000  0.337596  0.644792  1
  Al  Al10  1  0.750000  0.837045  0.852125  1
  Al  Al11  1  0.250000  0.164498  0.146352  1
  Al  Al12  1  0.250000  0.507320  0.061806  1
  Al  Al13  1  0.750000  0.492748  0.937999  1
  Al  Al14  1  0.750000  0.993993  0.561445  1
  Al  Al15  1  0.250000  0.007295  0.440593  1
  Pd  Pd16  1  0.250000  0.775790  0.180392  1
  Pd  Pd17  1  0.750000  0.225900  0.819874  1
  Pd  Pd18  1  0.750000  0.726388  0.681137  1
  Pd  Pd19  1  0.250000  0.274424  0.318895  1
  Pd  Pd20  1  0.250000  0.705379  0.928823  1
  Pd  Pd21  1  0.750000  0.294124  0.070831  1
  Pd  Pd22  1  0.750000  0.791067  0.428626  1
  Rh  Rh23  1  0.250000  0.205668  0.572788  1
