# generated using pymatgen
data_Y10GaSi3Bi4
_symmetry_space_group_name_H-M   'P 1'
_cell_length_a   8.67864589
_cell_length_b   8.67864680
_cell_length_c   7.98592662
_cell_angle_alpha   89.77383386
_cell_angle_beta   89.77383032
_cell_angle_gamma   125.25803581
_symmetry_Int_Tables_number   1
_chemical_formula_structural   Y10GaSi3Bi4
_chemical_formula_sum   'Y10 Ga1 Si3 Bi4'
_cell_volume   491.13593476
_cell_formula_units_Z   1
loop_
 _symmetry_equiv_pos_site_id
 _symmetry_equiv_pos_as_xyz
  1  'x, y, z'
loop_
 _atom_site_type_symbol
 _atom_site_label
 _atom_site_symmetry_multiplicity
 _atom_site_fract_x
 _atom_site_fract_y
 _atom_site_fract_z
 _atom_site_occupancy
  Y  Y0  1  0.039811  0.286375  0.336648  1
  Y  Y1  1  0.957508  0.713534  0.664565  1
  Y  Y2  1  0.457741  0.211318  0.833147  1
  Y  Y3  1  0.789898  0.544046  0.164727  1
  Y  Y4  1  0.544046  0.789898  0.164727  1
  Y  Y5  1  0.211318  0.457741  0.833147  1
  Y  Y6  1  0.713534  0.957508  0.664565  1
  Y  Y7  1  0.286375  0.039811  0.336648  1
  Y  Y8  1  0.998435  0.998435  0.999082  1
  Y  Y9  1  0.501157  0.501157  0.502187  1
  Ga  Ga10  1  0.366523  0.366523  0.132842  1
  Si  Si11  1  0.632766  0.632766  0.868211  1
  Si  Si12  1  0.135554  0.135554  0.633717  1
  Si  Si13  1  0.865470  0.865470  0.365128  1
  Bi  Bi14  1  0.792140  0.206606  0.999997  1
  Bi  Bi15  1  0.206606  0.792140  0.999997  1
  Bi  Bi16  1  0.707808  0.293310  0.500332  1
  Bi  Bi17  1  0.293310  0.707808  0.500332  1
