# generated using pymatgen
data_Ba6ScMn3NiO15
_symmetry_space_group_name_H-M   'P 1'
_cell_length_a   7.39633491
_cell_length_b   7.33717365
_cell_length_c   7.27787498
_cell_angle_alpha   88.62557234
_cell_angle_beta   88.78191608
_cell_angle_gamma   87.89098568
_symmetry_Int_Tables_number   1
_chemical_formula_structural   Ba6ScMn3NiO15
_chemical_formula_sum   'Ba6 Sc1 Mn3 Ni1 O15'
_cell_volume   394.49396529
_cell_formula_units_Z   1
loop_
 _symmetry_equiv_pos_site_id
 _symmetry_equiv_pos_as_xyz
  1  'x, y, z'
loop_
 _atom_site_type_symbol
 _atom_site_label
 _atom_site_symmetry_multiplicity
 _atom_site_fract_x
 _atom_site_fract_y
 _atom_site_fract_z
 _atom_site_occupancy
  Ba  Ba0  1  0.322058  0.673846  0.998527  1
  Ba  Ba1  1  0.001132  0.327014  0.673482  1
  Ba  Ba2  1  0.672804  0.993930  0.323189  1
  Ba  Ba3  1  0.142133  0.857915  0.505781  1
  Ba  Ba4  1  0.503791  0.140570  0.857384  1
  Ba  Ba5  1  0.851541  0.502922  0.139580  1
  Sc  Sc6  1  0.502892  0.500738  0.500260  1
  Mn  Mn7  1  0.293250  0.294102  0.294706  1
  Mn  Mn8  1  0.704600  0.708296  0.712910  1
  Mn  Mn9  1  0.099028  0.094692  0.090887  1
  Ni  Ni10  1  0.902761  0.904606  0.902176  1
  O  O11  1  0.163264  0.008468  0.853532  1
  O  O12  1  0.859494  0.146831  0.998013  1
  O  O13  1  0.003913  0.856589  0.144143  1
  O  O14  1  0.041811  0.199684  0.334312  1
  O  O15  1  0.333420  0.039534  0.201321  1
  O  O16  1  0.196579  0.334245  0.039622  1
  O  O17  1  0.796916  0.959476  0.666541  1
  O  O18  1  0.650311  0.792661  0.964185  1
  O  O19  1  0.957000  0.665872  0.802090  1
  O  O20  1  0.374139  0.242786  0.537092  1
  O  O21  1  0.534241  0.369318  0.239196  1
  O  O22  1  0.241833  0.537162  0.373573  1
  O  O23  1  0.756945  0.628307  0.462681  1
  O  O24  1  0.463089  0.758211  0.626106  1
  O  O25  1  0.631052  0.462224  0.758711  1
