# generated using pymatgen
data_Tb2TmHf(Al3Ir)6
_symmetry_space_group_name_H-M   'P 1'
_cell_length_a   7.54382801
_cell_length_b   7.53544498
_cell_length_c   9.41184000
_cell_angle_alpha   90.00000000
_cell_angle_beta   90.00000000
_cell_angle_gamma   119.58208145
_symmetry_Int_Tables_number   1
_chemical_formula_structural   Tb2TmHf(Al3Ir)6
_chemical_formula_sum   'Tb2 Tm1 Hf1 Al18 Ir6'
_cell_volume   465.28537261
_cell_formula_units_Z   1
loop_
 _symmetry_equiv_pos_site_id
 _symmetry_equiv_pos_as_xyz
  1  'x, y, z'
loop_
 _atom_site_type_symbol
 _atom_site_label
 _atom_site_symmetry_multiplicity
 _atom_site_fract_x
 _atom_site_fract_y
 _atom_site_fract_z
 _atom_site_occupancy
  Tb  Tb0  1  0.005468  0.327642  0.750000  1
  Tb  Tb1  1  0.329218  0.006289  0.750000  1
  Tm  Tm2  1  0.671238  0.995805  0.250000  1
  Hf  Hf3  1  0.997465  0.673249  0.250000  1
  Al  Al4  1  0.125790  0.123473  0.250000  1
  Al  Al5  1  0.870647  0.869263  0.750000  1
  Al  Al6  1  0.999877  0.337710  0.079612  1
  Al  Al7  1  0.999022  0.664909  0.929597  1
  Al  Al8  1  0.999022  0.664909  0.570403  1
  Al  Al9  1  0.332856  0.998188  0.420270  1
  Al  Al10  1  0.999877  0.337710  0.420388  1
  Al  Al11  1  0.664610  0.998010  0.573918  1
  Al  Al12  1  0.664610  0.998010  0.926082  1
  Al  Al13  1  0.332856  0.998188  0.079730  1
  Al  Al14  1  0.333777  0.333880  0.549966  1
  Al  Al15  1  0.668914  0.667069  0.442964  1
  Al  Al16  1  0.668914  0.667069  0.057036  1
  Al  Al17  1  0.333777  0.333880  0.950034  1
  Al  Al18  1  0.336208  0.549483  0.250000  1
  Al  Al19  1  0.660850  0.452672  0.750000  1
  Al  Al20  1  0.555080  0.344468  0.250000  1
  Al  Al21  1  0.451266  0.659526  0.750000  1
  Ir  Ir22  1  0.672757  0.328399  0.001529  1
  Ir  Ir23  1  0.327713  0.672481  0.002285  1
  Ir  Ir24  1  0.327713  0.672481  0.497715  1
  Ir  Ir25  1  0.672757  0.328399  0.498471  1
  Ir  Ir26  1  0.998859  0.998417  0.001856  1
  Ir  Ir27  1  0.998859  0.998417  0.498144  1
