# generated using pymatgen
data_Y3Er5(Ge4Mo3)4
_symmetry_space_group_name_H-M   'P 1'
_cell_length_a   6.93025106
_cell_length_b   7.04569871
_cell_length_c   13.12682402
_cell_angle_alpha   89.97134641
_cell_angle_beta   90.00417567
_cell_angle_gamma   90.00315498
_symmetry_Int_Tables_number   1
_chemical_formula_structural   Y3Er5(Ge4Mo3)4
_chemical_formula_sum   'Y3 Er5 Ge16 Mo12'
_cell_volume   640.96253125
_cell_formula_units_Z   1
loop_
 _symmetry_equiv_pos_site_id
 _symmetry_equiv_pos_as_xyz
  1  'x, y, z'
loop_
 _atom_site_type_symbol
 _atom_site_label
 _atom_site_symmetry_multiplicity
 _atom_site_fract_x
 _atom_site_fract_y
 _atom_site_fract_z
 _atom_site_occupancy
  Y  Y0  1  0.010398  0.830612  0.591965  1
  Y  Y1  1  0.489685  0.330542  0.408354  1
  Y  Y2  1  0.989899  0.169459  0.091304  1
  Er  Er3  1  0.488985  0.329843  0.091876  1
  Er  Er4  1  0.988798  0.170374  0.407578  1
  Er  Er5  1  0.510975  0.670388  0.592282  1
  Er  Er6  1  0.011210  0.829476  0.907614  1
  Er  Er7  1  0.511163  0.669885  0.908098  1
  Ge  Ge8  1  0.669272  0.047093  0.548375  1
  Ge  Ge9  1  0.170783  0.453868  0.951471  1
  Ge  Ge10  1  0.330972  0.952527  0.047798  1
  Ge  Ge11  1  0.830622  0.547028  0.451811  1
  Ge  Ge12  1  0.329696  0.952633  0.451719  1
  Ge  Ge13  1  0.829196  0.547313  0.047941  1
  Ge  Ge14  1  0.669965  0.046392  0.951574  1
  Ge  Ge15  1  0.170071  0.452444  0.548501  1
  Ge  Ge16  1  0.529112  0.367810  0.749990  1
  Ge  Ge17  1  0.029118  0.133161  0.750597  1
  Ge  Ge18  1  0.470429  0.632515  0.249701  1
  Ge  Ge19  1  0.970449  0.867484  0.250217  1
  Ge  Ge20  1  0.809992  0.645675  0.750490  1
  Ge  Ge21  1  0.311423  0.853466  0.750442  1
  Ge  Ge22  1  0.189527  0.353962  0.249951  1
  Ge  Ge23  1  0.689483  0.146046  0.249568  1
  Mo  Mo24  1  0.829401  0.346199  0.627234  1
  Mo  Mo25  1  0.329489  0.153887  0.873104  1
  Mo  Mo26  1  0.170259  0.653942  0.126645  1
  Mo  Mo27  1  0.670232  0.846207  0.373095  1
  Mo  Mo28  1  0.170261  0.653927  0.372687  1
  Mo  Mo29  1  0.670253  0.845522  0.127007  1
  Mo  Mo30  1  0.829145  0.346490  0.873059  1
  Mo  Mo31  1  0.329783  0.153829  0.627610  1
  Mo  Mo32  1  0.665943  0.005623  0.750297  1
  Mo  Mo33  1  0.166221  0.494499  0.750251  1
  Mo  Mo34  1  0.333869  0.993993  0.249832  1
  Mo  Mo35  1  0.833921  0.505889  0.249967  1
