# generated using pymatgen
data_Yb2SmSi6(Pd3Pt)5
_symmetry_space_group_name_H-M   'P 1'
_cell_length_a   8.73177054
_cell_length_b   8.74398974
_cell_length_c   8.75689100
_cell_angle_alpha   59.95124508
_cell_angle_beta   59.90485153
_cell_angle_gamma   59.56293360
_symmetry_Int_Tables_number   1
_chemical_formula_structural   Yb2SmSi6(Pd3Pt)5
_chemical_formula_sum   'Yb2 Sm1 Si6 Pd15 Pt5'
_cell_volume   470.67549920
_cell_formula_units_Z   1
loop_
 _symmetry_equiv_pos_site_id
 _symmetry_equiv_pos_as_xyz
  1  'x, y, z'
loop_
 _atom_site_type_symbol
 _atom_site_label
 _atom_site_symmetry_multiplicity
 _atom_site_fract_x
 _atom_site_fract_y
 _atom_site_fract_z
 _atom_site_occupancy
  Yb  Yb0  1  0.749631  0.751065  0.749651  1
  Yb  Yb1  1  0.999943  0.000077  0.999989  1
  Sm  Sm2  1  0.249986  0.250661  0.249677  1
  Si  Si3  1  0.730980  0.268848  0.268114  1
  Si  Si4  1  0.269885  0.730302  0.731100  1
  Si  Si5  1  0.269885  0.730302  0.268713  1
  Si  Si6  1  0.730981  0.268847  0.732059  1
  Si  Si7  1  0.268821  0.268187  0.731496  1
  Si  Si8  1  0.730465  0.730922  0.269306  1
  Pd  Pd9  1  0.619505  0.148444  0.616026  1
  Pd  Pd10  1  0.847971  0.381817  0.385106  1
  Pd  Pd11  1  0.147399  0.617804  0.617399  1
  Pd  Pd12  1  0.343811  0.000283  0.000154  1
  Pd  Pd13  1  0.655538  0.000814  0.000049  1
  Pd  Pd14  1  0.999264  0.345110  0.656100  1
  Pd  Pd15  1  0.999676  0.656654  0.344247  1
  Pd  Pd16  1  0.999264  0.345109  0.999527  1
  Pd  Pd17  1  0.655538  0.000814  0.343598  1
  Pd  Pd18  1  0.999676  0.656654  0.999422  1
  Pd  Pd19  1  0.343811  0.000284  0.655752  1
  Pd  Pd20  1  0.000087  0.000868  0.344032  1
  Pd  Pd21  1  0.000087  0.000867  0.655014  1
  Pd  Pd22  1  0.656236  0.344912  0.999427  1
  Pd  Pd23  1  0.344152  0.657828  0.999011  1
  Pt  Pt24  1  0.383513  0.383451  0.387429  1
  Pt  Pt25  1  0.618998  0.615010  0.614101  1
  Pt  Pt26  1  0.383513  0.383451  0.845608  1
  Pt  Pt27  1  0.382385  0.845607  0.386005  1
  Pt  Pt28  1  0.618999  0.615010  0.151890  1
