# generated using pymatgen
data_Gd8VSi16Tc11
_symmetry_space_group_name_H-M   'P 1'
_cell_length_a   6.77937133
_cell_length_b   6.77923785
_cell_length_c   12.56778900
_cell_angle_alpha   90.03907200
_cell_angle_beta   89.85292703
_cell_angle_gamma   90.07155882
_symmetry_Int_Tables_number   1
_chemical_formula_structural   Gd8VSi16Tc11
_chemical_formula_sum   'Gd8 V1 Si16 Tc11'
_cell_volume   577.60016051
_cell_formula_units_Z   1
loop_
 _symmetry_equiv_pos_site_id
 _symmetry_equiv_pos_as_xyz
  1  'x, y, z'
loop_
 _atom_site_type_symbol
 _atom_site_label
 _atom_site_symmetry_multiplicity
 _atom_site_fract_x
 _atom_site_fract_y
 _atom_site_fract_z
 _atom_site_occupancy
  Gd  Gd0  1  0.000465  0.665048  0.029877  1
  Gd  Gd1  1  0.833656  0.497353  0.279281  1
  Gd  Gd2  1  0.164251  0.498650  0.779694  1
  Gd  Gd3  1  0.500045  0.836237  0.719610  1
  Gd  Gd4  1  0.497402  0.163433  0.220053  1
  Gd  Gd5  1  0.997276  0.334560  0.530068  1
  Gd  Gd6  1  0.663750  0.001744  0.970511  1
  Gd  Gd7  1  0.335189  0.999119  0.470526  1
  V  V8  1  0.827773  0.001793  0.378525  1
  Si  Si9  1  0.274813  0.976477  0.064685  1
  Si  Si10  1  0.527951  0.782589  0.314848  1
  Si  Si11  1  0.478099  0.224653  0.815002  1
  Si  Si12  1  0.776791  0.524904  0.685496  1
  Si  Si13  1  0.219768  0.473749  0.183974  1
  Si  Si14  1  0.720954  0.029911  0.566989  1
  Si  Si15  1  0.977035  0.276641  0.935576  1
  Si  Si16  1  0.033601  0.714016  0.433818  1
  Si  Si17  1  0.691334  0.385435  0.061197  1
  Si  Si18  1  0.115418  0.195560  0.313386  1
  Si  Si19  1  0.883240  0.808451  0.810937  1
  Si  Si20  1  0.193037  0.117099  0.688086  1
  Si  Si21  1  0.804890  0.884988  0.190108  1
  Si  Si22  1  0.309570  0.613238  0.559892  1
  Si  Si23  1  0.385214  0.692040  0.937889  1
  Si  Si24  1  0.616400  0.303812  0.437993  1
  Tc  Tc25  1  0.333556  0.332836  0.999096  1
  Tc  Tc26  1  0.162968  0.834246  0.251713  1
  Tc  Tc27  1  0.832838  0.167792  0.750891  1
  Tc  Tc28  1  0.665094  0.671416  0.497394  1
  Tc  Tc29  1  0.981388  0.180551  0.127303  1
  Tc  Tc30  1  0.322395  0.489395  0.372835  1
  Tc  Tc31  1  0.683149  0.519467  0.877018  1
  Tc  Tc32  1  0.484036  0.319674  0.625336  1
  Tc  Tc33  1  0.510854  0.677779  0.123915  1
  Tc  Tc34  1  0.017138  0.824784  0.624069  1
  Tc  Tc35  1  0.178659  0.980559  0.872409  1
