# generated using pymatgen
data_Y4Ga20Pd11
_symmetry_space_group_name_H-M   'P 1'
_cell_length_a   4.18007362
_cell_length_b   11.02993356
_cell_length_c   13.68763633
_cell_angle_alpha   81.79221553
_cell_angle_beta   81.21684495
_cell_angle_gamma   79.07710992
_symmetry_Int_Tables_number   1
_chemical_formula_structural   Y4Ga20Pd11
_chemical_formula_sum   'Y4 Ga20 Pd11'
_cell_volume   608.15364952
_cell_formula_units_Z   1
loop_
 _symmetry_equiv_pos_site_id
 _symmetry_equiv_pos_as_xyz
  1  'x, y, z'
loop_
 _atom_site_type_symbol
 _atom_site_label
 _atom_site_symmetry_multiplicity
 _atom_site_fract_x
 _atom_site_fract_y
 _atom_site_fract_z
 _atom_site_occupancy
  Y  Y0  1  0.877720  0.909348  0.335212  1
  Y  Y1  1  0.122280  0.090652  0.664788  1
  Y  Y2  1  0.226990  0.365691  0.180327  1
  Y  Y3  1  0.773010  0.634309  0.819673  1
  Ga  Ga4  1  0.995348  0.923050  0.086252  1
  Ga  Ga5  1  0.004652  0.076950  0.913748  1
  Ga  Ga6  1  0.932402  0.330022  0.805174  1
  Ga  Ga7  1  0.067598  0.669978  0.194826  1
  Ga  Ga8  1  0.897156  0.660699  0.544988  1
  Ga  Ga9  1  0.102844  0.339301  0.455012  1
  Ga  Ga10  1  0.797282  0.397423  0.008014  1
  Ga  Ga11  1  0.202718  0.602577  0.991986  1
  Ga  Ga12  1  0.744570  0.213052  0.297809  1
  Ga  Ga13  1  0.255430  0.786948  0.702191  1
  Ga  Ga14  1  0.698163  0.100649  0.503024  1
  Ga  Ga15  1  0.301837  0.899351  0.496976  1
  Ga  Ga16  1  0.613282  0.471989  0.301447  1
  Ga  Ga17  1  0.386718  0.528011  0.698553  1
  Ga  Ga18  1  0.604046  0.793235  0.998674  1
  Ga  Ga19  1  0.395954  0.206765  0.001326  1
  Ga  Ga20  1  0.457409  0.712651  0.372531  1
  Ga  Ga21  1  0.542591  0.287349  0.627469  1
  Ga  Ga22  1  0.366266  0.062357  0.205110  1
  Ga  Ga23  1  0.633734  0.937643  0.794890  1
  Pd  Pd24  1  0.500000  0.500000  0.500000  1
  Pd  Pd25  1  0.971427  0.429215  0.627932  1
  Pd  Pd26  1  0.028573  0.570785  0.372068  1
  Pd  Pd27  1  0.865159  0.160714  0.108969  1
  Pd  Pd28  1  0.134841  0.839286  0.891031  1
  Pd  Pd29  1  0.759025  0.873500  0.608452  1
  Pd  Pd30  1  0.240975  0.126500  0.391548  1
  Pd  Pd31  1  0.654148  0.582187  0.109519  1
  Pd  Pd32  1  0.345852  0.417813  0.890481  1
  Pd  Pd33  1  0.496119  0.825640  0.182123  1
  Pd  Pd34  1  0.503881  0.174360  0.817877  1
