# generated using pymatgen
data_NaLi3VNi9As7
_symmetry_space_group_name_H-M   'P 1'
_cell_length_a   9.46240298
_cell_length_b   9.43550727
_cell_length_c   3.76424800
_cell_angle_alpha   90.00000000
_cell_angle_beta   90.00000000
_cell_angle_gamma   120.22248798
_symmetry_Int_Tables_number   1
_chemical_formula_structural   NaLi3VNi9As7
_chemical_formula_sum   'Na1 Li3 V1 Ni9 As7'
_cell_volume   290.40060724
_cell_formula_units_Z   1
loop_
 _symmetry_equiv_pos_site_id
 _symmetry_equiv_pos_as_xyz
  1  'x, y, z'
loop_
 _atom_site_type_symbol
 _atom_site_label
 _atom_site_symmetry_multiplicity
 _atom_site_fract_x
 _atom_site_fract_y
 _atom_site_fract_z
 _atom_site_occupancy
  Na  Na0  1  0.335146  0.667313  0.000000  1
  Li  Li1  1  0.447136  0.217617  0.500000  1
  Li  Li2  1  0.782888  0.231682  0.500000  1
  Li  Li3  1  0.998209  0.999723  0.500000  1
  V  V4  1  0.761634  0.549128  0.500000  1
  Ni  Ni5  1  0.277749  0.375019  0.500000  1
  Ni  Ni6  1  0.626592  0.902904  0.500000  1
  Ni  Ni7  1  0.098881  0.722220  0.500000  1
  Ni  Ni8  1  0.499068  0.450777  0.000000  1
  Ni  Ni9  1  0.548491  0.048746  0.000000  1
  Ni  Ni10  1  0.954966  0.500936  0.000000  1
  Ni  Ni11  1  0.721302  0.761380  0.000000  1
  Ni  Ni12  1  0.236359  0.955608  0.000000  1
  Ni  Ni13  1  0.043463  0.282011  0.000000  1
  As  As14  1  0.960867  0.753600  0.000000  1
  As  As15  1  0.240685  0.206080  0.000000  1
  As  As16  1  0.792719  0.036360  0.000000  1
  As  As17  1  0.670693  0.339115  0.000000  1
  As  As18  1  0.544518  0.621082  0.500000  1
  As  As19  1  0.378119  0.920620  0.500000  1
  As  As20  1  0.080515  0.458078  0.500000  1
