# generated using pymatgen
data_Tb4YbU2O12
_symmetry_space_group_name_H-M   'P 1'
_cell_length_a   6.58027036
_cell_length_b   6.68404014
_cell_length_c   6.52494549
_cell_angle_alpha   100.03792770
_cell_angle_beta   98.45061405
_cell_angle_gamma   99.45824380
_symmetry_Int_Tables_number   1
_chemical_formula_structural   Tb4YbU2O12
_chemical_formula_sum   'Tb4 Yb1 U2 O12'
_cell_volume   274.15747799
_cell_formula_units_Z   1
loop_
 _symmetry_equiv_pos_site_id
 _symmetry_equiv_pos_as_xyz
  1  'x, y, z'
loop_
 _atom_site_type_symbol
 _atom_site_label
 _atom_site_symmetry_multiplicity
 _atom_site_fract_x
 _atom_site_fract_y
 _atom_site_fract_z
 _atom_site_occupancy
  Tb  Tb0  1  0.389532  0.854995  0.683537  1
  Tb  Tb1  1  0.307443  0.612445  0.148647  1
  Tb  Tb2  1  0.143143  0.312498  0.604776  1
  Tb  Tb3  1  0.609093  0.128727  0.309588  1
  Yb  Yb4  1  0.859038  0.692247  0.397334  1
  U  U5  1  0.690767  0.400800  0.864137  1
  U  U6  1  0.001164  0.002445  0.995909  1
  O  O7  1  0.439464  0.182895  0.604574  1
  O  O8  1  0.582364  0.415545  0.155785  1
  O  O9  1  0.176710  0.578687  0.437363  1
  O  O10  1  0.561872  0.821533  0.406852  1
  O  O11  1  0.438557  0.572178  0.823134  1
  O  O12  1  0.808894  0.411000  0.585731  1
  O  O13  1  0.069417  0.319810  0.941585  1
  O  O14  1  0.688909  0.057783  0.924769  1
  O  O15  1  0.057232  0.931578  0.686746  1
  O  O16  1  0.916104  0.679361  0.043925  1
  O  O17  1  0.311365  0.941984  0.073756  1
  O  O18  1  0.948929  0.083487  0.311852  1
