# generated using pymatgen
data_Er6Zn22AsPd
_symmetry_space_group_name_H-M   'P 1'
_cell_length_a   9.05499525
_cell_length_b   9.05499514
_cell_length_c   9.00976400
_cell_angle_alpha   60.16510141
_cell_angle_beta   60.16510182
_cell_angle_gamma   59.71476389
_symmetry_Int_Tables_number   1
_chemical_formula_structural   Er6Zn22AsPd
_chemical_formula_sum   'Er6 Zn22 As1 Pd1'
_cell_volume   522.52201373
_cell_formula_units_Z   1
loop_
 _symmetry_equiv_pos_site_id
 _symmetry_equiv_pos_as_xyz
  1  'x, y, z'
loop_
 _atom_site_type_symbol
 _atom_site_label
 _atom_site_symmetry_multiplicity
 _atom_site_fract_x
 _atom_site_fract_y
 _atom_site_fract_z
 _atom_site_occupancy
  Er  Er0  1  0.716917  0.283083  0.283389  1
  Er  Er1  1  0.716917  0.283083  0.716611  1
  Er  Er2  1  0.717155  0.717155  0.282845  1
  Er  Er3  1  0.283083  0.716917  0.716611  1
  Er  Er4  1  0.283083  0.716917  0.283389  1
  Er  Er5  1  0.282845  0.282845  0.717155  1
  Zn  Zn6  1  0.624112  0.124828  0.125531  1
  Zn  Zn7  1  0.124828  0.624112  0.125531  1
  Zn  Zn8  1  0.124527  0.124527  0.622894  1
  Zn  Zn9  1  0.124527  0.124527  0.128053  1
  Zn  Zn10  1  0.375888  0.875172  0.874469  1
  Zn  Zn11  1  0.875172  0.375888  0.874469  1
  Zn  Zn12  1  0.875473  0.875473  0.377106  1
  Zn  Zn13  1  0.875473  0.875473  0.871947  1
  Zn  Zn14  1  0.500000  0.000000  0.000000  1
  Zn  Zn15  1  0.500000  0.000000  0.500000  1
  Zn  Zn16  1  0.500000  0.500000  0.000000  1
  Zn  Zn17  1  0.000000  0.500000  0.500000  1
  Zn  Zn18  1  0.000000  0.500000  0.000000  1
  Zn  Zn19  1  0.000000  0.000000  0.000000  1
  Zn  Zn20  1  0.009070  0.330883  0.330022  1
  Zn  Zn21  1  0.330883  0.009070  0.330022  1
  Zn  Zn22  1  0.331540  0.331540  0.006897  1
  Zn  Zn23  1  0.331540  0.331540  0.330021  1
  Zn  Zn24  1  0.990930  0.669117  0.669978  1
  Zn  Zn25  1  0.669117  0.990930  0.669978  1
  Zn  Zn26  1  0.668460  0.668460  0.993103  1
  Zn  Zn27  1  0.668460  0.668460  0.669979  1
  As  As28  1  0.500000  0.500000  0.500000  1
  Pd  Pd29  1  0.000000  0.000000  0.500000  1
