# generated using pymatgen
data_Np(TlCl2)3
_symmetry_space_group_name_H-M   'P 1'
_cell_length_a   8.03218949
_cell_length_b   8.03218885
_cell_length_c   8.03219000
_cell_angle_alpha   62.94910670
_cell_angle_beta   62.94910103
_cell_angle_gamma   62.94910302
_symmetry_Int_Tables_number   1
_chemical_formula_structural   Np(TlCl2)3
_chemical_formula_sum   'Np1 Tl3 Cl6'
_cell_volume   390.42645032
_cell_formula_units_Z   1
loop_
 _symmetry_equiv_pos_site_id
 _symmetry_equiv_pos_as_xyz
  1  'x, y, z'
loop_
 _atom_site_type_symbol
 _atom_site_label
 _atom_site_symmetry_multiplicity
 _atom_site_fract_x
 _atom_site_fract_y
 _atom_site_fract_z
 _atom_site_occupancy
  Np  Np0  1  0.000000  0.000000  0.000000  1
  Tl  Tl1  1  0.216181  0.216181  0.216181  1
  Tl  Tl2  1  0.500000  0.500000  0.500000  1
  Tl  Tl3  1  0.783819  0.783819  0.783819  1
  Cl  Cl4  1  0.816614  0.331868  0.117724  1
  Cl  Cl5  1  0.668132  0.882276  0.183385  1
  Cl  Cl6  1  0.117724  0.816615  0.331867  1
  Cl  Cl7  1  0.882276  0.183385  0.668133  1
  Cl  Cl8  1  0.331868  0.117724  0.816615  1
  Cl  Cl9  1  0.183386  0.668132  0.882276  1
