# generated using pymatgen
data_Li15Si2AgAs8
_symmetry_space_group_name_H-M   'P 1'
_cell_length_a   8.70905758
_cell_length_b   8.51463436
_cell_length_c   8.51461900
_cell_angle_alpha   59.75599962
_cell_angle_beta   59.24179278
_cell_angle_gamma   59.24162264
_symmetry_Int_Tables_number   1
_chemical_formula_structural   Li15Si2AgAs8
_chemical_formula_sum   'Li15 Si2 Ag1 As8'
_cell_volume   440.47878219
_cell_formula_units_Z   1
loop_
 _symmetry_equiv_pos_site_id
 _symmetry_equiv_pos_as_xyz
  1  'x, y, z'
loop_
 _atom_site_type_symbol
 _atom_site_label
 _atom_site_symmetry_multiplicity
 _atom_site_fract_x
 _atom_site_fract_y
 _atom_site_fract_z
 _atom_site_occupancy
  Li  Li0  1  0.626533  0.624846  0.122091  1
  Li  Li1  1  0.626530  0.122091  0.624846  1
  Li  Li2  1  0.130327  0.625257  0.625251  1
  Li  Li3  1  0.619164  0.625251  0.625257  1
  Li  Li4  1  0.022577  0.477423  0.477423  1
  Li  Li5  1  0.767557  0.232443  0.232443  1
  Li  Li6  1  0.481216  0.017324  0.482294  1
  Li  Li7  1  0.481219  0.482298  0.017319  1
  Li  Li8  1  0.019164  0.017319  0.482298  1
  Li  Li9  1  0.019167  0.482294  0.017324  1
  Li  Li10  1  0.476067  0.023933  0.023933  1
  Li  Li11  1  0.768121  0.231458  0.766715  1
  Li  Li12  1  0.233706  0.766715  0.231458  1
  Li  Li13  1  0.233707  0.231463  0.766711  1
  Li  Li14  1  0.768119  0.766711  0.231463  1
  Si  Si15  1  0.756787  0.743213  0.743213  1
  Si  Si16  1  0.501276  0.498724  0.498724  1
  Ag  Ag17  1  0.215044  0.784956  0.784956  1
  As  As18  1  0.867950  0.862290  0.401811  1
  As  As19  1  0.867949  0.401811  0.862290  1
  As  As20  1  0.387184  0.382917  0.842721  1
  As  As21  1  0.387178  0.842721  0.382917  1
  As  As22  1  0.839248  0.385739  0.385741  1
  As  As23  1  0.848180  0.867528  0.867533  1
  As  As24  1  0.416760  0.867533  0.867528  1
  As  As25  1  0.389270  0.385741  0.385739  1
