# generated using pymatgen
data_NdTh3Pd11Rh
_symmetry_space_group_name_H-M   'P 1'
_cell_length_a   5.95508397
_cell_length_b   5.90712909
_cell_length_c   9.76300550
_cell_angle_alpha   89.99999971
_cell_angle_beta   89.13379679
_cell_angle_gamma   119.73397904
_symmetry_Int_Tables_number   1
_chemical_formula_structural   NdTh3Pd11Rh
_chemical_formula_sum   'Nd1 Th3 Pd11 Rh1'
_cell_volume   298.17459055
_cell_formula_units_Z   1
loop_
 _symmetry_equiv_pos_site_id
 _symmetry_equiv_pos_as_xyz
  1  'x, y, z'
loop_
 _atom_site_type_symbol
 _atom_site_label
 _atom_site_symmetry_multiplicity
 _atom_site_fract_x
 _atom_site_fract_y
 _atom_site_fract_z
 _atom_site_occupancy
  Nd  Nd0  1  0.000000  0.000000  0.000000  1
  Th  Th1  1  0.000000  0.000000  0.500000  1
  Th  Th2  1  0.324272  0.662136  0.252826  1
  Th  Th3  1  0.675728  0.337864  0.747174  1
  Pd  Pd4  1  0.500000  0.500000  0.500000  1
  Pd  Pd5  1  0.500000  0.000000  0.500000  1
  Pd  Pd6  1  0.500000  0.500000  0.000000  1
  Pd  Pd7  1  0.500000  0.000000  0.000000  1
  Pd  Pd8  1  0.000000  0.500000  0.000000  1
  Pd  Pd9  1  0.821304  0.648785  0.251098  1
  Pd  Pd10  1  0.350096  0.175048  0.250068  1
  Pd  Pd11  1  0.821304  0.172518  0.251098  1
  Pd  Pd12  1  0.178696  0.351215  0.748902  1
  Pd  Pd13  1  0.649904  0.824952  0.749932  1
  Pd  Pd14  1  0.178696  0.827482  0.748902  1
  Rh  Rh15  1  0.000000  0.500000  0.500000  1
