# generated using pymatgen
data_Cu14MoWS16
_symmetry_space_group_name_H-M   'P 1'
_cell_length_a   7.51606000
_cell_length_b   7.51606046
_cell_length_c   12.35511100
_cell_angle_alpha   90.00000000
_cell_angle_beta   90.00000000
_cell_angle_gamma   119.99998919
_symmetry_Int_Tables_number   1
_chemical_formula_structural   Cu14MoWS16
_chemical_formula_sum   'Cu14 Mo1 W1 S16'
_cell_volume   604.44645326
_cell_formula_units_Z   1
loop_
 _symmetry_equiv_pos_site_id
 _symmetry_equiv_pos_as_xyz
  1  'x, y, z'
loop_
 _atom_site_type_symbol
 _atom_site_label
 _atom_site_symmetry_multiplicity
 _atom_site_fract_x
 _atom_site_fract_y
 _atom_site_fract_z
 _atom_site_occupancy
  Cu  Cu0  1  0.841077  0.682154  0.108984  1
  Cu  Cu1  1  0.506088  0.493912  0.349686  1
  Cu  Cu2  1  0.013915  0.506957  0.848917  1
  Cu  Cu3  1  0.841077  0.158923  0.108984  1
  Cu  Cu4  1  0.493043  0.506957  0.848917  1
  Cu  Cu5  1  0.159403  0.318804  0.607867  1
  Cu  Cu6  1  0.506088  0.012178  0.349686  1
  Cu  Cu7  1  0.987822  0.493912  0.349686  1
  Cu  Cu8  1  0.159403  0.840597  0.607867  1
  Cu  Cu9  1  0.493043  0.986085  0.848917  1
  Cu  Cu10  1  0.681196  0.840597  0.607867  1
  Cu  Cu11  1  0.317846  0.158923  0.108984  1
  Cu  Cu12  1  0.000000  0.000000  0.854333  1
  Cu  Cu13  1  0.000000  0.000000  0.354384  1
  Mo  Mo14  1  0.333333  0.666667  0.479907  1
  W  W15  1  0.666667  0.333333  0.979703  1
  S  S16  1  0.000000  0.000000  0.037642  1
  S  S17  1  0.329742  0.164871  0.291992  1
  S  S18  1  0.835129  0.164871  0.291992  1
  S  S19  1  0.005292  0.502646  0.539892  1
  S  S20  1  0.835129  0.670258  0.291992  1
  S  S21  1  0.666667  0.333333  0.796481  1
  S  S22  1  0.164706  0.329412  0.791161  1
  S  S23  1  0.497354  0.502646  0.539892  1
  S  S24  1  0.000000  0.000000  0.537709  1
  S  S25  1  0.333333  0.666667  0.296528  1
  S  S26  1  0.994789  0.497394  0.039942  1
  S  S27  1  0.497354  0.994708  0.539892  1
  S  S28  1  0.164706  0.835294  0.791161  1
  S  S29  1  0.670588  0.835294  0.791161  1
  S  S30  1  0.502606  0.005211  0.039942  1
  S  S31  1  0.502606  0.497394  0.039942  1
