# generated using pymatgen
data_Tb3YB8Os3Ru
_symmetry_space_group_name_H-M   'P 1'
_cell_length_a   5.33578600
_cell_length_b   5.92895152
_cell_length_c   6.38585099
_cell_angle_alpha   89.68464238
_cell_angle_beta   90.00000000
_cell_angle_gamma   90.00000000
_symmetry_Int_Tables_number   1
_chemical_formula_structural   Tb3YB8Os3Ru
_chemical_formula_sum   'Tb3 Y1 B8 Os3 Ru1'
_cell_volume   202.01727306
_cell_formula_units_Z   1
loop_
 _symmetry_equiv_pos_site_id
 _symmetry_equiv_pos_as_xyz
  1  'x, y, z'
loop_
 _atom_site_type_symbol
 _atom_site_label
 _atom_site_symmetry_multiplicity
 _atom_site_fract_x
 _atom_site_fract_y
 _atom_site_fract_z
 _atom_site_occupancy
  Tb  Tb0  1  0.750000  0.489146  0.163435  1
  Tb  Tb1  1  0.250000  0.510219  0.837642  1
  Tb  Tb2  1  0.250000  0.011015  0.662849  1
  Y  Y3  1  0.750000  0.987923  0.334284  1
  B  B4  1  0.916794  0.133402  0.959754  1
  B  B5  1  0.582278  0.634796  0.540190  1
  B  B6  1  0.417618  0.865237  0.040366  1
  B  B7  1  0.084122  0.367647  0.462455  1
  B  B8  1  0.082382  0.865237  0.040366  1
  B  B9  1  0.415878  0.367647  0.462455  1
  B  B10  1  0.583206  0.133402  0.959754  1
  B  B11  1  0.917722  0.634796  0.540190  1
  Os  Os12  1  0.750000  0.321228  0.681019  1
  Os  Os13  1  0.750000  0.821550  0.817048  1
  Os  Os14  1  0.250000  0.678864  0.317969  1
  Ru  Ru15  1  0.250000  0.177894  0.180224  1
