# generated using pymatgen
data_Dy2ErLu3Al13Ga5
_symmetry_space_group_name_H-M   'P 1'
_cell_length_a   14.37923524
_cell_length_b   14.38913050
_cell_length_c   14.37923634
_cell_angle_alpha   24.62306198
_cell_angle_beta   24.67576499
_cell_angle_gamma   24.62306945
_symmetry_Int_Tables_number   1
_chemical_formula_structural   Dy2ErLu3Al13Ga5
_chemical_formula_sum   'Dy2 Er1 Lu3 Al13 Ga5'
_cell_volume   454.76875863
_cell_formula_units_Z   1
loop_
 _symmetry_equiv_pos_site_id
 _symmetry_equiv_pos_as_xyz
  1  'x, y, z'
loop_
 _atom_site_type_symbol
 _atom_site_label
 _atom_site_symmetry_multiplicity
 _atom_site_fract_x
 _atom_site_fract_y
 _atom_site_fract_z
 _atom_site_occupancy
  Dy  Dy0  1  0.001838  0.000520  0.001838  1
  Dy  Dy1  1  0.502239  0.501639  0.502239  1
  Er  Er2  1  0.607928  0.607404  0.607928  1
  Lu  Lu3  1  0.108703  0.107634  0.108703  1
  Lu  Lu4  1  0.890580  0.890136  0.890580  1
  Lu  Lu5  1  0.389452  0.392664  0.389452  1
  Al  Al6  1  0.866505  0.433105  0.866505  1
  Al  Al7  1  0.580642  0.127136  0.127455  1
  Al  Al8  1  0.081269  0.625064  0.628799  1
  Al  Al9  1  0.127455  0.127136  0.580642  1
  Al  Al10  1  0.628799  0.625064  0.081269  1
  Al  Al11  1  0.127702  0.579875  0.127702  1
  Al  Al12  1  0.628345  0.078874  0.628345  1
  Al  Al13  1  0.500212  0.497599  0.001233  1
  Al  Al14  1  0.998800  0.997705  0.501928  1
  Al  Al15  1  0.499609  0.999439  0.499609  1
  Al  Al16  1  0.999064  0.500644  0.999064  1
  Al  Al17  1  0.001233  0.497599  0.500212  1
  Al  Al18  1  0.501928  0.997705  0.998800  1
  Ga  Ga19  1  0.926970  0.369198  0.369193  1
  Ga  Ga20  1  0.422527  0.874202  0.869520  1
  Ga  Ga21  1  0.369193  0.369198  0.926970  1
  Ga  Ga22  1  0.869520  0.874202  0.422527  1
  Ga  Ga23  1  0.369490  0.926261  0.369490  1
