# generated using pymatgen
data_Th14Re5Rh
_symmetry_space_group_name_H-M   'P 1'
_cell_length_a   10.03745393
_cell_length_b   10.03745505
_cell_length_c   6.32477751
_cell_angle_alpha   89.80764562
_cell_angle_beta   90.19235351
_cell_angle_gamma   119.39214841
_symmetry_Int_Tables_number   1
_chemical_formula_structural   Th14Re5Rh
_chemical_formula_sum   'Th14 Re5 Rh1'
_cell_volume   555.19740620
_cell_formula_units_Z   1
loop_
 _symmetry_equiv_pos_site_id
 _symmetry_equiv_pos_as_xyz
  1  'x, y, z'
loop_
 _atom_site_type_symbol
 _atom_site_label
 _atom_site_symmetry_multiplicity
 _atom_site_fract_x
 _atom_site_fract_y
 _atom_site_fract_z
 _atom_site_occupancy
  Th  Th0  1  0.666738  0.333262  0.526117  1
  Th  Th1  1  0.333417  0.666583  0.023548  1
  Th  Th2  1  0.872529  0.747573  0.760799  1
  Th  Th3  1  0.252427  0.127471  0.760799  1
  Th  Th4  1  0.873706  0.126294  0.759313  1
  Th  Th5  1  0.131513  0.256718  0.260408  1
  Th  Th6  1  0.743282  0.868487  0.260408  1
  Th  Th7  1  0.125427  0.874573  0.260617  1
  Th  Th8  1  0.455588  0.921079  0.545939  1
  Th  Th9  1  0.078921  0.544412  0.545939  1
  Th  Th10  1  0.461575  0.538425  0.548317  1
  Th  Th11  1  0.538140  0.074154  0.043666  1
  Th  Th12  1  0.925846  0.461860  0.043666  1
  Th  Th13  1  0.539649  0.460351  0.048323  1
  Re  Re14  1  0.180635  0.370208  0.797945  1
  Re  Re15  1  0.629792  0.819365  0.797945  1
  Re  Re16  1  0.185114  0.814886  0.802093  1
  Re  Re17  1  0.815368  0.624599  0.300119  1
  Re  Re18  1  0.375401  0.184632  0.300119  1
  Rh  Rh19  1  0.814932  0.185068  0.296424  1
