# generated using pymatgen
data_Nd7Sn23Ir6
_symmetry_space_group_name_H-M   'P 1'
_cell_length_a   10.00079500
_cell_length_b   10.00079529
_cell_length_c   10.23401500
_cell_angle_alpha   90.00000000
_cell_angle_beta   90.00000000
_cell_angle_gamma   120.00000895
_symmetry_Int_Tables_number   1
_chemical_formula_structural   Nd7Sn23Ir6
_chemical_formula_sum   'Nd7 Sn23 Ir6'
_cell_volume   886.43256921
_cell_formula_units_Z   1
loop_
 _symmetry_equiv_pos_site_id
 _symmetry_equiv_pos_as_xyz
  1  'x, y, z'
loop_
 _atom_site_type_symbol
 _atom_site_label
 _atom_site_symmetry_multiplicity
 _atom_site_fract_x
 _atom_site_fract_y
 _atom_site_fract_z
 _atom_site_occupancy
  Nd  Nd0  1  0.000000  0.000000  0.000000  1
  Nd  Nd1  1  0.478488  0.521512  0.306092  1
  Nd  Nd2  1  0.521512  0.478488  0.693908  1
  Nd  Nd3  1  0.478488  0.956976  0.306092  1
  Nd  Nd4  1  0.521512  0.043024  0.693908  1
  Nd  Nd5  1  0.043024  0.521512  0.306092  1
  Nd  Nd6  1  0.956976  0.478488  0.693908  1
  Sn  Sn7  1  0.352186  0.000000  0.000000  1
  Sn  Sn8  1  0.647814  0.000000  0.000000  1
  Sn  Sn9  1  0.000000  0.352186  0.000000  1
  Sn  Sn10  1  0.000000  0.647814  0.000000  1
  Sn  Sn11  1  0.647814  0.647814  0.000000  1
  Sn  Sn12  1  0.352186  0.352186  0.000000  1
  Sn  Sn13  1  0.333333  0.666667  0.824856  1
  Sn  Sn14  1  0.666667  0.333333  0.175144  1
  Sn  Sn15  1  0.000000  0.000000  0.500000  1
  Sn  Sn16  1  0.778794  0.221206  0.454035  1
  Sn  Sn17  1  0.221206  0.778794  0.545965  1
  Sn  Sn18  1  0.778794  0.557588  0.454035  1
  Sn  Sn19  1  0.221206  0.442412  0.545965  1
  Sn  Sn20  1  0.442412  0.221206  0.454035  1
  Sn  Sn21  1  0.557588  0.778794  0.545965  1
  Sn  Sn22  1  0.333333  0.666667  0.114918  1
  Sn  Sn23  1  0.666667  0.333333  0.885082  1
  Sn  Sn24  1  0.116886  0.883114  0.283228  1
  Sn  Sn25  1  0.883114  0.116886  0.716772  1
  Sn  Sn26  1  0.116886  0.233773  0.283228  1
  Sn  Sn27  1  0.883114  0.766227  0.716772  1
  Sn  Sn28  1  0.766227  0.883114  0.283228  1
  Sn  Sn29  1  0.233773  0.116886  0.716772  1
  Ir  Ir30  1  0.831973  0.168027  0.197287  1
  Ir  Ir31  1  0.168027  0.831973  0.802713  1
  Ir  Ir32  1  0.831973  0.663945  0.197287  1
  Ir  Ir33  1  0.168027  0.336055  0.802713  1
  Ir  Ir34  1  0.336055  0.168027  0.197287  1
  Ir  Ir35  1  0.663945  0.831973  0.802713  1
