# generated using pymatgen
data_Y3Ho6TmCd3Ru
_symmetry_space_group_name_H-M   'P 1'
_cell_length_a   9.56507661
_cell_length_b   9.57365520
_cell_length_c   9.81604600
_cell_angle_alpha   90.00000000
_cell_angle_beta   90.00000000
_cell_angle_gamma   120.01121580
_symmetry_Int_Tables_number   1
_chemical_formula_structural   Y3Ho6TmCd3Ru
_chemical_formula_sum   'Y6 Ho12 Tm2 Cd6 Ru2'
_cell_volume   778.36689653
_cell_formula_units_Z   2
loop_
 _symmetry_equiv_pos_site_id
 _symmetry_equiv_pos_as_xyz
  1  'x, y, z'
loop_
 _atom_site_type_symbol
 _atom_site_label
 _atom_site_symmetry_multiplicity
 _atom_site_fract_x
 _atom_site_fract_y
 _atom_site_fract_z
 _atom_site_occupancy
  Y  Y0  1  0.540385  0.459265  0.250000  1
  Y  Y1  1  0.540415  0.081062  0.250000  1
  Y  Y2  1  0.918784  0.459335  0.250000  1
  Y  Y3  1  0.459615  0.540735  0.750000  1
  Y  Y4  1  0.459585  0.918938  0.750000  1
  Y  Y5  1  0.081216  0.540665  0.750000  1
  Ho  Ho6  1  0.209682  0.790499  0.440037  1
  Ho  Ho7  1  0.209604  0.419082  0.439956  1
  Ho  Ho8  1  0.580581  0.790318  0.440206  1
  Ho  Ho9  1  0.790318  0.209501  0.559963  1
  Ho  Ho10  1  0.790396  0.580918  0.560044  1
  Ho  Ho11  1  0.419419  0.209682  0.559794  1
  Ho  Ho12  1  0.790318  0.209501  0.940037  1
  Ho  Ho13  1  0.790396  0.580918  0.939956  1
  Ho  Ho14  1  0.419419  0.209682  0.940206  1
  Ho  Ho15  1  0.209682  0.790499  0.059963  1
  Ho  Ho16  1  0.209604  0.419082  0.060044  1
  Ho  Ho17  1  0.580581  0.790318  0.059794  1
  Tm  Tm18  1  0.000000  0.000000  0.500000  1
  Tm  Tm19  1  0.000000  0.000000  0.000000  1
  Cd  Cd20  1  0.886880  0.113683  0.250000  1
  Cd  Cd21  1  0.886770  0.773155  0.250000  1
  Cd  Cd22  1  0.226714  0.113446  0.250000  1
  Cd  Cd23  1  0.113120  0.886317  0.750000  1
  Cd  Cd24  1  0.113230  0.226845  0.750000  1
  Cd  Cd25  1  0.773286  0.886554  0.750000  1
  Ru  Ru26  1  0.333491  0.666808  0.250000  1
  Ru  Ru27  1  0.666509  0.333192  0.750000  1
