# generated using pymatgen
data_Yb3Y15(ErIr6)2
_symmetry_space_group_name_H-M   'P 1'
_cell_length_a   10.91010366
_cell_length_b   10.95482553
_cell_length_c   6.36681702
_cell_angle_alpha   89.95779060
_cell_angle_beta   90.21790088
_cell_angle_gamma   90.00501140
_symmetry_Int_Tables_number   1
_chemical_formula_structural   Yb3Y15(ErIr6)2
_chemical_formula_sum   'Yb3 Y15 Er2 Ir12'
_cell_volume   760.94531988
_cell_formula_units_Z   1
loop_
 _symmetry_equiv_pos_site_id
 _symmetry_equiv_pos_as_xyz
  1  'x, y, z'
loop_
 _atom_site_type_symbol
 _atom_site_label
 _atom_site_symmetry_multiplicity
 _atom_site_fract_x
 _atom_site_fract_y
 _atom_site_fract_z
 _atom_site_occupancy
  Yb  Yb0  1  0.288321  0.086605  0.375758  1
  Yb  Yb1  1  0.290821  0.911542  0.876034  1
  Yb  Yb2  1  0.001831  0.999760  0.499149  1
  Y  Y3  1  0.708108  0.087683  0.879881  1
  Y  Y4  1  0.710491  0.914454  0.379502  1
  Y  Y5  1  0.587771  0.792021  0.878063  1
  Y  Y6  1  0.586350  0.207585  0.377572  1
  Y  Y7  1  0.411930  0.793033  0.378927  1
  Y  Y8  1  0.410738  0.207380  0.879706  1
  Y  Y9  1  0.209779  0.413318  0.623906  1
  Y  Y10  1  0.210279  0.588130  0.122913  1
  Y  Y11  1  0.790575  0.411156  0.120459  1
  Y  Y12  1  0.790966  0.587530  0.621086  1
  Y  Y13  1  0.911778  0.708820  0.122477  1
  Y  Y14  1  0.913456  0.289105  0.623082  1
  Y  Y15  1  0.086921  0.710652  0.621121  1
  Y  Y16  1  0.088954  0.291644  0.120778  1
  Y  Y17  1  0.001154  0.000404  0.999395  1
  Er  Er18  1  0.499998  0.499620  0.998642  1
  Er  Er19  1  0.499955  0.500343  0.498753  1
  Ir  Ir20  1  0.846708  0.156132  0.246926  1
  Ir  Ir21  1  0.846246  0.844464  0.753871  1
  Ir  Ir22  1  0.151417  0.160755  0.756017  1
  Ir  Ir23  1  0.150491  0.837913  0.248017  1
  Ir  Ir24  1  0.650474  0.347580  0.748756  1
  Ir  Ir25  1  0.650049  0.652820  0.251376  1
  Ir  Ir26  1  0.349288  0.352134  0.248527  1
  Ir  Ir27  1  0.348822  0.647636  0.745424  1
  Ir  Ir28  1  0.503175  0.000193  0.122976  1
  Ir  Ir29  1  0.503151  0.999661  0.622140  1
  Ir  Ir30  1  0.999994  0.500252  0.878854  1
  Ir  Ir31  1  0.000009  0.499674  0.379911  1
