# generated using pymatgen
data_Sc3Be8MoRu10
_symmetry_space_group_name_H-M   'P 1'
_cell_length_a   3.17916600
_cell_length_b   8.61030629
_cell_length_c   10.11531502
_cell_angle_alpha   90.01843936
_cell_angle_beta   90.00000000
_cell_angle_gamma   90.00000000
_symmetry_Int_Tables_number   1
_chemical_formula_structural   Sc3Be8MoRu10
_chemical_formula_sum   'Sc3 Be8 Mo1 Ru10'
_cell_volume   276.89250206
_cell_formula_units_Z   1
loop_
 _symmetry_equiv_pos_site_id
 _symmetry_equiv_pos_as_xyz
  1  'x, y, z'
loop_
 _atom_site_type_symbol
 _atom_site_label
 _atom_site_symmetry_multiplicity
 _atom_site_fract_x
 _atom_site_fract_y
 _atom_site_fract_z
 _atom_site_occupancy
  Sc  Sc0  1  0.500000  0.161349  0.816928  1
  Sc  Sc1  1  0.500000  0.662287  0.683339  1
  Sc  Sc2  1  0.500000  0.340652  0.317956  1
  Be  Be3  1  0.500000  0.962683  0.593518  1
  Be  Be4  1  0.500000  0.036224  0.405427  1
  Be  Be5  1  0.500000  0.840138  0.903670  1
  Be  Be6  1  0.500000  0.155111  0.095354  1
  Be  Be7  1  0.500000  0.658981  0.404701  1
  Be  Be8  1  0.500000  0.339282  0.594147  1
  Be  Be9  1  0.500000  0.463122  0.906494  1
  Be  Be10  1  0.500000  0.534721  0.097009  1
  Mo  Mo11  1  0.500000  0.843376  0.180910  1
  Ru  Ru12  1  0.000000  0.658902  0.960580  1
  Ru  Ru13  1  0.000000  0.340291  0.050405  1
  Ru  Ru14  1  0.000000  0.842820  0.447732  1
  Ru  Ru15  1  0.000000  0.157658  0.544233  1
  Ru  Ru16  1  0.000000  0.988597  0.007048  1
  Ru  Ru17  1  0.000000  0.407127  0.754367  1
  Ru  Ru18  1  0.000000  0.615220  0.240538  1
  Ru  Ru19  1  0.000000  0.498868  0.496181  1
  Ru  Ru20  1  0.000000  0.907845  0.744168  1
  Ru  Ru21  1  0.000000  0.084745  0.255294  1
