# generated using pymatgen
data_Nd3ThZnRu
_symmetry_space_group_name_H-M   'P 1'
_cell_length_a   9.81455665
_cell_length_b   9.81455690
_cell_length_c   9.81455600
_cell_angle_alpha   59.99999628
_cell_angle_beta   59.99999546
_cell_angle_gamma   59.99999974
_symmetry_Int_Tables_number   1
_chemical_formula_structural   Nd3ThZnRu
_chemical_formula_sum   'Nd12 Th4 Zn4 Ru4'
_cell_volume   668.49323227
_cell_formula_units_Z   4
loop_
 _symmetry_equiv_pos_site_id
 _symmetry_equiv_pos_as_xyz
  1  'x, y, z'
loop_
 _atom_site_type_symbol
 _atom_site_label
 _atom_site_symmetry_multiplicity
 _atom_site_fract_x
 _atom_site_fract_y
 _atom_site_fract_z
 _atom_site_occupancy
  Nd  Nd0  1  0.806938  0.193062  0.193062  1
  Nd  Nd1  1  0.193062  0.806938  0.806938  1
  Nd  Nd2  1  0.193062  0.806938  0.193062  1
  Nd  Nd3  1  0.806938  0.193062  0.806938  1
  Nd  Nd4  1  0.193062  0.193062  0.806938  1
  Nd  Nd5  1  0.806938  0.806938  0.193062  1
  Nd  Nd6  1  0.938546  0.561454  0.561454  1
  Nd  Nd7  1  0.561454  0.938546  0.938546  1
  Nd  Nd8  1  0.561454  0.938546  0.561454  1
  Nd  Nd9  1  0.938546  0.561454  0.938546  1
  Nd  Nd10  1  0.561454  0.561454  0.938546  1
  Nd  Nd11  1  0.938546  0.938546  0.561454  1
  Th  Th12  1  0.347926  0.347926  0.347926  1
  Th  Th13  1  0.347926  0.347926  0.956222  1
  Th  Th14  1  0.347926  0.956222  0.347926  1
  Th  Th15  1  0.956222  0.347926  0.347926  1
  Zn  Zn16  1  0.579061  0.579061  0.579061  1
  Zn  Zn17  1  0.579061  0.579061  0.262815  1
  Zn  Zn18  1  0.579061  0.262815  0.579061  1
  Zn  Zn19  1  0.262815  0.579061  0.579061  1
  Ru  Ru20  1  0.145188  0.145188  0.145188  1
  Ru  Ru21  1  0.145188  0.145188  0.564434  1
  Ru  Ru22  1  0.145188  0.564434  0.145188  1
  Ru  Ru23  1  0.564434  0.145188  0.145188  1
