# generated using pymatgen
data_Ta6MnAl4AuC2
_symmetry_space_group_name_H-M   'P 1'
_cell_length_a   8.31352101
_cell_length_b   8.26575091
_cell_length_c   8.31352100
_cell_angle_alpha   60.18989920
_cell_angle_beta   60.41587437
_cell_angle_gamma   60.18989524
_symmetry_Int_Tables_number   1
_chemical_formula_structural   Ta6MnAl4AuC2
_chemical_formula_sum   'Ta12 Mn2 Al8 Au2 C4'
_cell_volume   406.37985413
_cell_formula_units_Z   2
loop_
 _symmetry_equiv_pos_site_id
 _symmetry_equiv_pos_as_xyz
  1  'x, y, z'
loop_
 _atom_site_type_symbol
 _atom_site_label
 _atom_site_symmetry_multiplicity
 _atom_site_fract_x
 _atom_site_fract_y
 _atom_site_fract_z
 _atom_site_occupancy
  Ta  Ta0  1  0.558292  0.941708  0.558292  1
  Ta  Ta1  1  0.314244  0.694344  0.679147  1
  Ta  Ta2  1  0.679147  0.312264  0.314244  1
  Ta  Ta3  1  0.320476  0.679524  0.320476  1
  Ta  Ta4  1  0.679147  0.694344  0.314244  1
  Ta  Ta5  1  0.314244  0.312264  0.679147  1
  Ta  Ta6  1  0.570853  0.555656  0.935756  1
  Ta  Ta7  1  0.935756  0.555656  0.570853  1
  Ta  Ta8  1  0.570853  0.937736  0.935756  1
  Ta  Ta9  1  0.935756  0.937736  0.570853  1
  Ta  Ta10  1  0.691708  0.308292  0.691708  1
  Ta  Ta11  1  0.929524  0.570476  0.929524  1
  Mn  Mn12  1  0.625000  0.125000  0.125000  1
  Mn  Mn13  1  0.125000  0.125000  0.625000  1
  Al  Al14  1  0.913405  0.927766  0.913405  1
  Al  Al15  1  0.993669  0.329364  0.347603  1
  Al  Al16  1  0.336595  0.004574  0.336595  1
  Al  Al17  1  0.347603  0.329364  0.993669  1
  Al  Al18  1  0.913405  0.245426  0.913405  1
  Al  Al19  1  0.902397  0.920636  0.256331  1
  Al  Al20  1  0.256331  0.920636  0.902397  1
  Al  Al21  1  0.336595  0.322234  0.336595  1
  Au  Au22  1  0.125000  0.125000  0.125000  1
  Au  Au23  1  0.125000  0.625000  0.125000  1
  C  C24  1  0.625000  0.625000  0.625000  1
  C  C25  1  0.125000  0.625000  0.625000  1
  C  C26  1  0.625000  0.125000  0.625000  1
  C  C27  1  0.625000  0.625000  0.125000  1
