# generated using pymatgen
data_YEr5Co17P12Ru
_symmetry_space_group_name_H-M   'P 1'
_cell_length_a   3.68799000
_cell_length_b   10.48641700
_cell_length_c   12.19025200
_cell_angle_alpha   90.00000000
_cell_angle_beta   90.00000000
_cell_angle_gamma   90.00000000
_symmetry_Int_Tables_number   1
_chemical_formula_structural   YEr5Co17P12Ru
_chemical_formula_sum   'Y1 Er5 Co17 P12 Ru1'
_cell_volume   471.44338038
_cell_formula_units_Z   1
loop_
 _symmetry_equiv_pos_site_id
 _symmetry_equiv_pos_as_xyz
  1  'x, y, z'
loop_
 _atom_site_type_symbol
 _atom_site_label
 _atom_site_symmetry_multiplicity
 _atom_site_fract_x
 _atom_site_fract_y
 _atom_site_fract_z
 _atom_site_occupancy
  Y  Y0  1  0.250000  0.750000  0.521605  1
  Er  Er1  1  0.750000  0.250000  0.475502  1
  Er  Er2  1  0.250000  0.932271  0.793116  1
  Er  Er3  1  0.250000  0.567729  0.793116  1
  Er  Er4  1  0.750000  0.067331  0.206178  1
  Er  Er5  1  0.750000  0.432669  0.206178  1
  Co  Co6  1  0.750000  0.750000  0.159728  1
  Co  Co7  1  0.250000  0.250000  0.295967  1
  Co  Co8  1  0.750000  0.750000  0.705335  1
  Co  Co9  1  0.750000  0.250000  0.012872  1
  Co  Co10  1  0.250000  0.750000  0.986072  1
  Co  Co11  1  0.250000  0.417880  0.008818  1
  Co  Co12  1  0.250000  0.082120  0.008818  1
  Co  Co13  1  0.750000  0.583396  0.994565  1
  Co  Co14  1  0.750000  0.916604  0.994565  1
  Co  Co15  1  0.250000  0.452059  0.569620  1
  Co  Co16  1  0.250000  0.047941  0.569620  1
  Co  Co17  1  0.750000  0.546142  0.430957  1
  Co  Co18  1  0.750000  0.953858  0.430957  1
  Co  Co19  1  0.250000  0.871325  0.290467  1
  Co  Co20  1  0.250000  0.628675  0.290467  1
  Co  Co21  1  0.750000  0.129028  0.708372  1
  Co  Co22  1  0.750000  0.370972  0.708372  1
  P  P23  1  0.250000  0.250000  0.118398  1
  P  P24  1  0.750000  0.750000  0.883083  1
  P  P25  1  0.250000  0.250000  0.649084  1
  P  P26  1  0.750000  0.750000  0.343872  1
  P  P27  1  0.250000  0.438204  0.383211  1
  P  P28  1  0.250000  0.061796  0.383211  1
  P  P29  1  0.750000  0.561633  0.616532  1
  P  P30  1  0.750000  0.938367  0.616532  1
  P  P31  1  0.250000  0.901477  0.108248  1
  P  P32  1  0.250000  0.598523  0.108248  1
  P  P33  1  0.750000  0.094291  0.893906  1
  P  P34  1  0.750000  0.405709  0.893906  1
  Ru  Ru35  1  0.250000  0.250000  0.840501  1
