# generated using pymatgen
data_SrGa3NiRu
_symmetry_space_group_name_H-M   'P 1'
_cell_length_a   6.45875456
_cell_length_b   6.45875425
_cell_length_c   5.45626800
_cell_angle_alpha   90.00000000
_cell_angle_beta   90.00000000
_cell_angle_gamma   103.61894766
_symmetry_Int_Tables_number   1
_chemical_formula_structural   SrGa3NiRu
_chemical_formula_sum   'Sr2 Ga6 Ni2 Ru2'
_cell_volume   221.21129787
_cell_formula_units_Z   2
loop_
 _symmetry_equiv_pos_site_id
 _symmetry_equiv_pos_as_xyz
  1  'x, y, z'
loop_
 _atom_site_type_symbol
 _atom_site_label
 _atom_site_symmetry_multiplicity
 _atom_site_fract_x
 _atom_site_fract_y
 _atom_site_fract_z
 _atom_site_occupancy
  Sr  Sr0  1  0.342911  0.342911  0.250000  1
  Sr  Sr1  1  0.657089  0.657089  0.750000  1
  Ga  Ga2  1  0.919771  0.527551  0.246803  1
  Ga  Ga3  1  0.080229  0.472449  0.746803  1
  Ga  Ga4  1  0.053926  0.053926  0.750000  1
  Ga  Ga5  1  0.946074  0.946074  0.250000  1
  Ga  Ga6  1  0.472449  0.080229  0.753197  1
  Ga  Ga7  1  0.527551  0.919771  0.253197  1
  Ni  Ni8  1  0.796243  0.203757  0.000000  1
  Ni  Ni9  1  0.203757  0.796243  0.500000  1
  Ru  Ru10  1  0.202710  0.797290  0.000000  1
  Ru  Ru11  1  0.797290  0.202710  0.500000  1
