# generated using pymatgen
data_LaAl10IrOs
_symmetry_space_group_name_H-M   'P 1'
_cell_length_a   6.91140076
_cell_length_b   6.91139952
_cell_length_c   9.24711647
_cell_angle_alpha   89.99024591
_cell_angle_beta   90.00975227
_cell_angle_gamma   97.19640793
_symmetry_Int_Tables_number   1
_chemical_formula_structural   LaAl10IrOs
_chemical_formula_sum   'La2 Al20 Ir2 Os2'
_cell_volume   438.23162524
_cell_formula_units_Z   2
loop_
 _symmetry_equiv_pos_site_id
 _symmetry_equiv_pos_as_xyz
  1  'x, y, z'
loop_
 _atom_site_type_symbol
 _atom_site_label
 _atom_site_symmetry_multiplicity
 _atom_site_fract_x
 _atom_site_fract_y
 _atom_site_fract_z
 _atom_site_occupancy
  La  La0  1  0.625900  0.374100  0.749887  1
  La  La1  1  0.374100  0.625900  0.250113  1
  Al  Al2  1  0.277872  0.015889  0.747817  1
  Al  Al3  1  0.015889  0.277872  0.252183  1
  Al  Al4  1  0.722128  0.984111  0.252183  1
  Al  Al5  1  0.984111  0.722128  0.747817  1
  Al  Al6  1  0.878534  0.121466  0.950012  1
  Al  Al7  1  0.121466  0.878534  0.049988  1
  Al  Al8  1  0.877227  0.122773  0.546744  1
  Al  Al9  1  0.122773  0.877227  0.453256  1
  Al  Al10  1  0.645928  0.912214  0.749017  1
  Al  Al11  1  0.912214  0.645928  0.250983  1
  Al  Al12  1  0.354072  0.087786  0.250983  1
  Al  Al13  1  0.087786  0.354072  0.749017  1
  Al  Al14  1  0.339737  0.660263  0.894233  1
  Al  Al15  1  0.660263  0.339737  0.105767  1
  Al  Al16  1  0.340468  0.659532  0.602572  1
  Al  Al17  1  0.659532  0.340468  0.397428  1
  Al  Al18  1  0.725272  0.725272  0.000000  1
  Al  Al19  1  0.724160  0.724160  0.500000  1
  Al  Al20  1  0.274728  0.274728  0.000000  1
  Al  Al21  1  0.275840  0.275840  0.500000  1
  Ir  Ir22  1  0.500000  0.000000  0.000000  1
  Ir  Ir23  1  0.000000  0.500000  0.000000  1
  Os  Os24  1  0.500000  0.000000  0.500000  1
  Os  Os25  1  0.000000  0.500000  0.500000  1
