# generated using pymatgen
data_K9Rb3Al(GaTe4)3
_symmetry_space_group_name_H-M   'P 1'
_cell_length_a   14.42089642
_cell_length_b   8.81045172
_cell_length_c   11.30485418
_cell_angle_alpha   52.65283022
_cell_angle_beta   89.87142215
_cell_angle_gamma   89.68766516
_symmetry_Int_Tables_number   1
_chemical_formula_structural   K9Rb3Al(GaTe4)3
_chemical_formula_sum   'K9 Rb3 Al1 Ga3 Te12'
_cell_volume   1141.83054557
_cell_formula_units_Z   1
loop_
 _symmetry_equiv_pos_site_id
 _symmetry_equiv_pos_as_xyz
  1  'x, y, z'
loop_
 _atom_site_type_symbol
 _atom_site_label
 _atom_site_symmetry_multiplicity
 _atom_site_fract_x
 _atom_site_fract_y
 _atom_site_fract_z
 _atom_site_occupancy
  K  K0  1  0.894942  0.316219  0.403657  1
  K  K1  1  0.611802  0.359206  0.475385  1
  K  K2  1  0.112130  0.640313  0.025323  1
  K  K3  1  0.387528  0.641276  0.524996  1
  K  K4  1  0.888528  0.360215  0.974599  1
  K  K5  1  0.606269  0.315515  0.903966  1
  K  K6  1  0.106192  0.684224  0.596345  1
  K  K7  1  0.393570  0.684770  0.095698  1
  K  K8  1  0.189128  0.147225  0.573119  1
  Rb  Rb9  1  0.311457  0.149854  0.069583  1
  Rb  Rb10  1  0.687276  0.850803  0.930242  1
  Rb  Rb11  1  0.812833  0.850351  0.431070  1
  Al  Al12  1  0.934755  0.053526  0.840717  1
  Ga  Ga13  1  0.067061  0.943838  0.159879  1
  Ga  Ga14  1  0.565529  0.054081  0.340186  1
  Ga  Ga15  1  0.432808  0.948677  0.659078  1
  Te  Te16  1  0.400692  0.184197  0.360203  1
  Te  Te17  1  0.902175  0.819408  0.137311  1
  Te  Te18  1  0.597116  0.817268  0.639759  1
  Te  Te19  1  0.098846  0.179311  0.858825  1
  Te  Te20  1  0.692047  0.325967  0.197477  1
  Te  Te21  1  0.192155  0.666071  0.305918  1
  Te  Te22  1  0.305059  0.679979  0.799924  1
  Te  Te23  1  0.808190  0.324495  0.698215  1
  Te  Te24  1  0.552692  0.859462  0.234806  1
  Te  Te25  1  0.054627  0.140590  0.263802  1
  Te  Te26  1  0.446546  0.142126  0.765232  1
  Te  Te27  1  0.948044  0.861032  0.734685  1
