# generated using pymatgen
data_TbSm2(YC2)5
_symmetry_space_group_name_H-M   'P 1'
_cell_length_a   3.72444300
_cell_length_b   6.66708273
_cell_length_c   12.04769882
_cell_angle_alpha   90.26419948
_cell_angle_beta   90.00000000
_cell_angle_gamma   90.00000000
_symmetry_Int_Tables_number   1
_chemical_formula_structural   TbSm2(YC2)5
_chemical_formula_sum   'Tb1 Sm2 Y5 C10'
_cell_volume   299.15527244
_cell_formula_units_Z   1
loop_
 _symmetry_equiv_pos_site_id
 _symmetry_equiv_pos_as_xyz
  1  'x, y, z'
loop_
 _atom_site_type_symbol
 _atom_site_label
 _atom_site_symmetry_multiplicity
 _atom_site_fract_x
 _atom_site_fract_y
 _atom_site_fract_z
 _atom_site_occupancy
  Tb  Tb0  1  0.500000  0.396896  0.301726  1
  Sm  Sm1  1  0.000000  0.247337  0.542833  1
  Sm  Sm2  1  0.500000  0.107487  0.804138  1
  Y  Y3  1  0.000000  0.736495  0.456526  1
  Y  Y4  1  0.000000  0.764277  0.959545  1
  Y  Y5  1  0.000000  0.251104  0.046475  1
  Y  Y6  1  0.500000  0.892415  0.197806  1
  Y  Y7  1  0.500000  0.609059  0.694782  1
  C  C8  1  0.500000  0.489264  0.497214  1
  C  C9  1  0.500000  0.013961  0.001858  1
  C  C10  1  0.000000  0.363145  0.740380  1
  C  C11  1  0.000000  0.635225  0.262124  1
  C  C12  1  0.000000  0.860100  0.764097  1
  C  C13  1  0.000000  0.144799  0.239935  1
  C  C14  1  0.000000  0.430035  0.844307  1
  C  C15  1  0.000000  0.617530  0.151542  1
  C  C16  1  0.000000  0.065576  0.340741  1
  C  C17  1  0.000000  0.875296  0.653972  1
