# generated using pymatgen
data_CeNdFeCoSi2
_symmetry_space_group_name_H-M   'P 1'
_cell_length_a   3.99537900
_cell_length_b   4.02173600
_cell_length_c   7.05369300
_cell_angle_alpha   90.00000000
_cell_angle_beta   90.00000000
_cell_angle_gamma   90.00000000
_symmetry_Int_Tables_number   1
_chemical_formula_structural   CeNdFeCoSi2
_chemical_formula_sum   'Ce1 Nd1 Fe1 Co1 Si2'
_cell_volume   113.34127534
_cell_formula_units_Z   1
loop_
 _symmetry_equiv_pos_site_id
 _symmetry_equiv_pos_as_xyz
  1  'x, y, z'
loop_
 _atom_site_type_symbol
 _atom_site_label
 _atom_site_symmetry_multiplicity
 _atom_site_fract_x
 _atom_site_fract_y
 _atom_site_fract_z
 _atom_site_occupancy
  Ce  Ce0  1  0.500000  0.000000  0.693082  1
  Nd  Nd1  1  0.000000  0.500000  0.320656  1
  Fe  Fe2  1  0.000000  0.000000  0.993538  1
  Co  Co3  1  0.500000  0.500000  0.994786  1
  Si  Si4  1  0.000000  0.500000  0.828303  1
  Si  Si5  1  0.500000  0.000000  0.169636  1
