# generated using pymatgen
data_EuBe2(PO4)2
_symmetry_space_group_name_H-M   'P 1'
_cell_length_a   5.06180700
_cell_length_b   5.06180773
_cell_length_c   7.32710900
_cell_angle_alpha   90.00000000
_cell_angle_beta   90.00000000
_cell_angle_gamma   120.00000179
_symmetry_Int_Tables_number   1
_chemical_formula_structural   EuBe2(PO4)2
_chemical_formula_sum   'Eu1 Be2 P2 O8'
_cell_volume   162.58276398
_cell_formula_units_Z   1
loop_
 _symmetry_equiv_pos_site_id
 _symmetry_equiv_pos_as_xyz
  1  'x, y, z'
loop_
 _atom_site_type_symbol
 _atom_site_label
 _atom_site_symmetry_multiplicity
 _atom_site_fract_x
 _atom_site_fract_y
 _atom_site_fract_z
 _atom_site_occupancy
  Eu  Eu0  1  0.000000  0.000000  0.000000  1
  Be  Be1  1  0.666667  0.333333  0.294742  1
  Be  Be2  1  0.333333  0.666667  0.705258  1
  P  P3  1  0.333333  0.666667  0.285499  1
  P  P4  1  0.666667  0.333333  0.714501  1
  O  O5  1  0.666667  0.333333  0.508927  1
  O  O6  1  0.333333  0.666667  0.491073  1
  O  O7  1  0.496820  0.993640  0.203340  1
  O  O8  1  0.006360  0.503180  0.203340  1
  O  O9  1  0.496820  0.503180  0.203340  1
  O  O10  1  0.503180  0.006360  0.796660  1
  O  O11  1  0.993640  0.496820  0.796660  1
  O  O12  1  0.503180  0.496820  0.796660  1
