# generated using pymatgen
data_Sm7DySc11Si16Ag
_symmetry_space_group_name_H-M   'P 1'
_cell_length_a   7.11537939
_cell_length_b   7.46369181
_cell_length_c   14.14105227
_cell_angle_alpha   89.94031058
_cell_angle_beta   89.97410339
_cell_angle_gamma   89.86461630
_symmetry_Int_Tables_number   1
_chemical_formula_structural   Sm7DySc11Si16Ag
_chemical_formula_sum   'Sm7 Dy1 Sc11 Si16 Ag1'
_cell_volume   750.98626735
_cell_formula_units_Z   1
loop_
 _symmetry_equiv_pos_site_id
 _symmetry_equiv_pos_as_xyz
  1  'x, y, z'
loop_
 _atom_site_type_symbol
 _atom_site_label
 _atom_site_symmetry_multiplicity
 _atom_site_fract_x
 _atom_site_fract_y
 _atom_site_fract_z
 _atom_site_occupancy
  Sm  Sm0  1  0.990391  0.816866  0.900265  1
  Sm  Sm1  1  0.481332  0.672897  0.900114  1
  Sm  Sm2  1  0.990480  0.817059  0.600243  1
  Sm  Sm3  1  0.511740  0.324838  0.097322  1
  Sm  Sm4  1  0.011375  0.172442  0.403066  1
  Sm  Sm5  1  0.511797  0.325027  0.402383  1
  Sm  Sm6  1  0.481784  0.673158  0.600280  1
  Dy  Dy7  1  0.011822  0.174069  0.097822  1
  Sc  Sc8  1  0.839501  0.498668  0.249608  1
  Sc  Sc9  1  0.339958  0.001356  0.249635  1
  Sc  Sc10  1  0.658305  0.001140  0.750082  1
  Sc  Sc11  1  0.326586  0.183380  0.625887  1
  Sc  Sc12  1  0.671495  0.823314  0.375018  1
  Sc  Sc13  1  0.171367  0.678354  0.373713  1
  Sc  Sc14  1  0.671682  0.823764  0.124542  1
  Sc  Sc15  1  0.835426  0.327551  0.625972  1
  Sc  Sc16  1  0.326465  0.183444  0.874220  1
  Sc  Sc17  1  0.835663  0.326892  0.874227  1
  Sc  Sc18  1  0.171032  0.678447  0.125938  1
  Si  Si19  1  0.029976  0.108076  0.750113  1
  Si  Si20  1  0.968278  0.882969  0.249370  1
  Si  Si21  1  0.467429  0.621820  0.249838  1
  Si  Si22  1  0.540001  0.380129  0.750060  1
  Si  Si23  1  0.289625  0.894035  0.750077  1
  Si  Si24  1  0.713842  0.121999  0.248986  1
  Si  Si25  1  0.210986  0.376126  0.249255  1
  Si  Si26  1  0.776996  0.622901  0.750137  1
  Si  Si27  1  0.156828  0.459696  0.531669  1
  Si  Si28  1  0.846331  0.536125  0.461263  1
  Si  Si29  1  0.347700  0.964147  0.462341  1
  Si  Si30  1  0.846792  0.534466  0.039239  1
  Si  Si31  1  0.655346  0.034509  0.540455  1
  Si  Si32  1  0.156488  0.457633  0.969039  1
  Si  Si33  1  0.655670  0.034703  0.959633  1
  Si  Si34  1  0.345372  0.965337  0.038144  1
  Ag  Ag35  1  0.154136  0.502666  0.750043  1
