# generated using pymatgen
data_Ba3ScUSe6
_symmetry_space_group_name_H-M   'P 1'
_cell_length_a   8.77847767
_cell_length_b   8.77847669
_cell_length_c   8.77847715
_cell_angle_alpha   92.96276903
_cell_angle_beta   92.96276797
_cell_angle_gamma   92.96276408
_symmetry_Int_Tables_number   1
_chemical_formula_structural   Ba3ScUSe6
_chemical_formula_sum   'Ba6 Sc2 U2 Se12'
_cell_volume   673.67390061
_cell_formula_units_Z   2
loop_
 _symmetry_equiv_pos_site_id
 _symmetry_equiv_pos_as_xyz
  1  'x, y, z'
loop_
 _atom_site_type_symbol
 _atom_site_label
 _atom_site_symmetry_multiplicity
 _atom_site_fract_x
 _atom_site_fract_y
 _atom_site_fract_z
 _atom_site_occupancy
  Ba  Ba0  1  0.368179  0.750000  0.131821  1
  Ba  Ba1  1  0.131821  0.368179  0.750000  1
  Ba  Ba2  1  0.750000  0.131821  0.368179  1
  Ba  Ba3  1  0.631821  0.250000  0.868179  1
  Ba  Ba4  1  0.868179  0.631821  0.250000  1
  Ba  Ba5  1  0.250000  0.868179  0.631821  1
  Sc  Sc6  1  0.500000  0.500000  0.500000  1
  Sc  Sc7  1  0.000000  0.000000  0.000000  1
  U  U8  1  0.250000  0.250000  0.250000  1
  U  U9  1  0.750000  0.750000  0.750000  1
  Se  Se10  1  0.540207  0.411780  0.200375  1
  Se  Se11  1  0.200375  0.540207  0.411780  1
  Se  Se12  1  0.411780  0.200375  0.540207  1
  Se  Se13  1  0.959793  0.299625  0.088220  1
  Se  Se14  1  0.088220  0.959793  0.299625  1
  Se  Se15  1  0.299625  0.088220  0.959793  1
  Se  Se16  1  0.459793  0.588220  0.799625  1
  Se  Se17  1  0.799625  0.459793  0.588220  1
  Se  Se18  1  0.588220  0.799625  0.459793  1
  Se  Se19  1  0.040207  0.700375  0.911780  1
  Se  Se20  1  0.700375  0.911780  0.040207  1
  Se  Se21  1  0.911780  0.040207  0.700375  1
