# generated using pymatgen
data_DyHo15In2(AgRh2)2
_symmetry_space_group_name_H-M   'P 1'
_cell_length_a   9.56234281
_cell_length_b   9.56234230
_cell_length_c   9.57066100
_cell_angle_alpha   59.97122869
_cell_angle_beta   59.97123045
_cell_angle_gamma   60.06489542
_symmetry_Int_Tables_number   1
_chemical_formula_structural   DyHo15In2(AgRh2)2
_chemical_formula_sum   'Dy1 Ho15 In2 Ag2 Rh4'
_cell_volume   618.84073632
_cell_formula_units_Z   1
loop_
 _symmetry_equiv_pos_site_id
 _symmetry_equiv_pos_as_xyz
  1  'x, y, z'
loop_
 _atom_site_type_symbol
 _atom_site_label
 _atom_site_symmetry_multiplicity
 _atom_site_fract_x
 _atom_site_fract_y
 _atom_site_fract_z
 _atom_site_occupancy
  Dy  Dy0  1  0.185845  0.185845  0.814155  1
  Ho  Ho1  1  0.600449  0.600449  0.198603  1
  Ho  Ho2  1  0.438993  0.060144  0.440331  1
  Ho  Ho3  1  0.441216  0.441216  0.058784  1
  Ho  Ho4  1  0.812353  0.182940  0.814467  1
  Ho  Ho5  1  0.182940  0.812353  0.190240  1
  Ho  Ho6  1  0.438993  0.060144  0.060532  1
  Ho  Ho7  1  0.182940  0.812353  0.814467  1
  Ho  Ho8  1  0.060144  0.438993  0.060532  1
  Ho  Ho9  1  0.811194  0.811194  0.188806  1
  Ho  Ho10  1  0.197829  0.601846  0.600163  1
  Ho  Ho11  1  0.060144  0.438993  0.440331  1
  Ho  Ho12  1  0.061609  0.061609  0.438391  1
  Ho  Ho13  1  0.812353  0.182940  0.190240  1
  Ho  Ho14  1  0.601846  0.197829  0.600163  1
  Ho  Ho15  1  0.600449  0.600449  0.600498  1
  In  In16  1  0.507433  0.833097  0.829735  1
  In  In17  1  0.833097  0.507433  0.829735  1
  Ag  Ag18  1  0.834073  0.834073  0.831728  1
  Ag  Ag19  1  0.834073  0.834073  0.500129  1
  Rh  Rh20  1  0.393659  0.822072  0.392134  1
  Rh  Rh21  1  0.393147  0.393147  0.391169  1
  Rh  Rh22  1  0.822072  0.393659  0.392134  1
  Rh  Rh23  1  0.393147  0.393147  0.822536  1
