# generated using pymatgen
data_U3Ga3Fe2Ni
_symmetry_space_group_name_H-M   'P 1'
_cell_length_a   6.61253400
_cell_length_b   6.61253450
_cell_length_c   3.92232000
_cell_angle_alpha   90.00000000
_cell_angle_beta   90.00000000
_cell_angle_gamma   119.99999752
_symmetry_Int_Tables_number   1
_chemical_formula_structural   U3Ga3Fe2Ni
_chemical_formula_sum   'U3 Ga3 Fe2 Ni1'
_cell_volume   148.52841060
_cell_formula_units_Z   1
loop_
 _symmetry_equiv_pos_site_id
 _symmetry_equiv_pos_as_xyz
  1  'x, y, z'
loop_
 _atom_site_type_symbol
 _atom_site_label
 _atom_site_symmetry_multiplicity
 _atom_site_fract_x
 _atom_site_fract_y
 _atom_site_fract_z
 _atom_site_occupancy
  U  U0  1  0.430787  0.000000  0.500000  1
  U  U1  1  0.000000  0.430787  0.500000  1
  U  U2  1  0.569213  0.569213  0.500000  1
  Ga  Ga3  1  0.761329  0.000000  0.000000  1
  Ga  Ga4  1  0.000000  0.761329  0.000000  1
  Ga  Ga5  1  0.238671  0.238671  0.000000  1
  Fe  Fe6  1  0.333333  0.666667  0.000000  1
  Fe  Fe7  1  0.666667  0.333333  0.000000  1
  Ni  Ni8  1  0.000000  0.000000  0.500000  1
