# generated using pymatgen
data_TbHo9Ir3Os
_symmetry_space_group_name_H-M   'P 1'
_cell_length_a   6.45977309
_cell_length_b   7.22962367
_cell_length_c   8.42416500
_cell_angle_alpha   96.48736046
_cell_angle_beta   112.28199091
_cell_angle_gamma   89.95171476
_symmetry_Int_Tables_number   1
_chemical_formula_structural   TbHo9Ir3Os
_chemical_formula_sum   'Tb1 Ho9 Ir3 Os1'
_cell_volume   361.33713492
_cell_formula_units_Z   1
loop_
 _symmetry_equiv_pos_site_id
 _symmetry_equiv_pos_as_xyz
  1  'x, y, z'
loop_
 _atom_site_type_symbol
 _atom_site_label
 _atom_site_symmetry_multiplicity
 _atom_site_fract_x
 _atom_site_fract_y
 _atom_site_fract_z
 _atom_site_occupancy
  Tb  Tb0  1  0.972051  0.917104  0.183934  1
  Ho  Ho1  1  0.790696  0.582700  0.821148  1
  Ho  Ho2  1  0.027423  0.082895  0.817476  1
  Ho  Ho3  1  0.210426  0.417684  0.183652  1
  Ho  Ho4  1  0.655494  0.816799  0.439760  1
  Ho  Ho5  1  0.211082  0.681182  0.557582  1
  Ho  Ho6  1  0.346581  0.182056  0.559962  1
  Ho  Ho7  1  0.786035  0.319402  0.439573  1
  Ho  Ho8  1  0.426443  0.749467  0.000165  1
  Ho  Ho9  1  0.574562  0.251306  0.000387  1
  Ir  Ir10  1  0.605140  0.926649  0.778961  1
  Ir  Ir11  1  0.173556  0.425462  0.780301  1
  Ir  Ir12  1  0.394982  0.074384  0.220021  1
  Os  Os13  1  0.825529  0.572909  0.217077  1
