# generated using pymatgen
data_Tm8Mg2Sc10Si15Pt
_symmetry_space_group_name_H-M   'P 1'
_cell_length_a   6.98845653
_cell_length_b   7.31996452
_cell_length_c   14.03166645
_cell_angle_alpha   89.89157407
_cell_angle_beta   89.77635635
_cell_angle_gamma   90.15052204
_symmetry_Int_Tables_number   1
_chemical_formula_structural   Tm8Mg2Sc10Si15Pt
_chemical_formula_sum   'Tm8 Mg2 Sc10 Si15 Pt1'
_cell_volume   717.78421477
_cell_formula_units_Z   1
loop_
 _symmetry_equiv_pos_site_id
 _symmetry_equiv_pos_as_xyz
  1  'x, y, z'
loop_
 _atom_site_type_symbol
 _atom_site_label
 _atom_site_symmetry_multiplicity
 _atom_site_fract_x
 _atom_site_fract_y
 _atom_site_fract_z
 _atom_site_occupancy
  Tm  Tm0  1  0.011501  0.181512  0.096500  1
  Tm  Tm1  1  0.989217  0.819238  0.903070  1
  Tm  Tm2  1  0.486785  0.675384  0.904114  1
  Tm  Tm3  1  0.991124  0.818042  0.597490  1
  Tm  Tm4  1  0.511460  0.325191  0.095291  1
  Tm  Tm5  1  0.011152  0.184973  0.402365  1
  Tm  Tm6  1  0.508075  0.325824  0.404206  1
  Tm  Tm7  1  0.485010  0.669416  0.598055  1
  Mg  Mg8  1  0.160585  0.506600  0.747523  1
  Mg  Mg9  1  0.838351  0.495063  0.250676  1
  Sc  Sc10  1  0.341075  0.001442  0.249991  1
  Sc  Sc11  1  0.660415  0.996688  0.750093  1
  Sc  Sc12  1  0.329829  0.187281  0.622523  1
  Sc  Sc13  1  0.670801  0.820200  0.373902  1
  Sc  Sc14  1  0.167010  0.667050  0.375854  1
  Sc  Sc15  1  0.673513  0.821317  0.125736  1
  Sc  Sc16  1  0.837803  0.327996  0.624595  1
  Sc  Sc17  1  0.326357  0.179145  0.875843  1
  Sc  Sc18  1  0.832633  0.321430  0.875627  1
  Sc  Sc19  1  0.167796  0.675665  0.124990  1
  Si  Si20  1  0.030792  0.102760  0.749656  1
  Si  Si21  1  0.971275  0.898148  0.250213  1
  Si  Si22  1  0.462217  0.615038  0.248674  1
  Si  Si23  1  0.540699  0.383147  0.752504  1
  Si  Si24  1  0.287678  0.878507  0.751088  1
  Si  Si25  1  0.712375  0.124236  0.249763  1
  Si  Si26  1  0.224528  0.366877  0.247602  1
  Si  Si27  1  0.777229  0.630665  0.752378  1
  Si  Si28  1  0.831038  0.538856  0.465163  1
  Si  Si29  1  0.341565  0.963550  0.461421  1
  Si  Si30  1  0.838980  0.539165  0.033167  1
  Si  Si31  1  0.656931  0.032417  0.537703  1
  Si  Si32  1  0.160383  0.461969  0.966154  1
  Si  Si33  1  0.657999  0.031461  0.961603  1
  Si  Si34  1  0.343489  0.967150  0.039353  1
  Pt  Pt35  1  0.162329  0.466599  0.535112  1
