# generated using pymatgen
data_Dy16Hf4Ir7Rh5
_symmetry_space_group_name_H-M   'P 1'
_cell_length_a   10.83842627
_cell_length_b   10.83842627
_cell_length_c   6.24221023
_cell_angle_alpha   90.02209285
_cell_angle_beta   90.02209285
_cell_angle_gamma   89.98744807
_symmetry_Int_Tables_number   1
_chemical_formula_structural   Dy16Hf4Ir7Rh5
_chemical_formula_sum   'Dy16 Hf4 Ir7 Rh5'
_cell_volume   733.28157237
_cell_formula_units_Z   1
loop_
 _symmetry_equiv_pos_site_id
 _symmetry_equiv_pos_as_xyz
  1  'x, y, z'
loop_
 _atom_site_type_symbol
 _atom_site_label
 _atom_site_symmetry_multiplicity
 _atom_site_fract_x
 _atom_site_fract_y
 _atom_site_fract_z
 _atom_site_occupancy
  Dy  Dy0  1  0.288143  0.086123  0.376255  1
  Dy  Dy1  1  0.288396  0.913657  0.875531  1
  Dy  Dy2  1  0.711312  0.086077  0.875244  1
  Dy  Dy3  1  0.711398  0.912400  0.376104  1
  Dy  Dy4  1  0.586140  0.788236  0.876098  1
  Dy  Dy5  1  0.584740  0.212165  0.376343  1
  Dy  Dy6  1  0.413628  0.788241  0.376086  1
  Dy  Dy7  1  0.413715  0.211757  0.875993  1
  Dy  Dy8  1  0.211764  0.413860  0.623902  1
  Dy  Dy9  1  0.211759  0.586372  0.123914  1
  Dy  Dy10  1  0.787835  0.415260  0.123657  1
  Dy  Dy11  1  0.788243  0.586285  0.624007  1
  Dy  Dy12  1  0.913877  0.711857  0.123745  1
  Dy  Dy13  1  0.913923  0.288688  0.624756  1
  Dy  Dy14  1  0.086343  0.711604  0.624469  1
  Dy  Dy15  1  0.087600  0.288602  0.123896  1
  Hf  Hf16  1  0.000362  0.999585  0.500295  1
  Hf  Hf17  1  0.000415  0.999638  0.999705  1
  Hf  Hf18  1  0.500009  0.500055  0.999833  1
  Hf  Hf19  1  0.499945  0.499991  0.500167  1
  Ir  Ir20  1  0.856557  0.857439  0.749851  1
  Ir  Ir21  1  0.142561  0.143443  0.750149  1
  Ir  Ir22  1  0.143378  0.856622  0.250000  1
  Ir  Ir23  1  0.643830  0.356170  0.750000  1
  Ir  Ir24  1  0.643627  0.643388  0.249975  1
  Ir  Ir25  1  0.356612  0.356373  0.250025  1
  Ir  Ir26  1  0.356547  0.643453  0.750000  1
  Rh  Rh27  1  0.856619  0.143381  0.250000  1
  Rh  Rh28  1  0.500754  0.000237  0.121108  1
  Rh  Rh29  1  0.500401  0.000198  0.620515  1
  Rh  Rh30  1  0.999802  0.499599  0.879485  1
  Rh  Rh31  1  0.999763  0.499246  0.378892  1
