# generated using pymatgen
data_Tb3Tm(TiAl3)2
_symmetry_space_group_name_H-M   'P 1'
_cell_length_a   9.52923647
_cell_length_b   9.52923734
_cell_length_c   9.52923806
_cell_angle_alpha   34.82219033
_cell_angle_beta   34.82218135
_cell_angle_gamma   34.82218735
_symmetry_Int_Tables_number   1
_chemical_formula_structural   Tb3Tm(TiAl3)2
_chemical_formula_sum   'Tb3 Tm1 Ti2 Al6'
_cell_volume   251.85833830
_cell_formula_units_Z   1
loop_
 _symmetry_equiv_pos_site_id
 _symmetry_equiv_pos_as_xyz
  1  'x, y, z'
loop_
 _atom_site_type_symbol
 _atom_site_label
 _atom_site_symmetry_multiplicity
 _atom_site_fract_x
 _atom_site_fract_y
 _atom_site_fract_z
 _atom_site_occupancy
  Tb  Tb0  1  0.186865  0.186865  0.186865  1
  Tb  Tb1  1  0.813014  0.813014  0.813014  1
  Tb  Tb2  1  0.313252  0.313252  0.313252  1
  Tm  Tm3  1  0.686533  0.686533  0.686533  1
  Ti  Ti4  1  0.000130  0.000130  0.000130  1
  Ti  Ti5  1  0.500105  0.500105  0.500105  1
  Al  Al6  1  0.749490  0.250039  0.250039  1
  Al  Al7  1  0.250594  0.749968  0.749968  1
  Al  Al8  1  0.250039  0.749490  0.250039  1
  Al  Al9  1  0.749968  0.250594  0.749968  1
  Al  Al10  1  0.250039  0.250039  0.749490  1
  Al  Al11  1  0.749968  0.749968  0.250594  1
