# generated using pymatgen
data_Rb4PaCrTe6
_symmetry_space_group_name_H-M   'P 1'
_cell_length_a   14.75705700
_cell_length_b   6.93851273
_cell_length_c   9.97274000
_cell_angle_alpha   72.27508880
_cell_angle_beta   90.00000000
_cell_angle_gamma   90.00000000
_symmetry_Int_Tables_number   1
_chemical_formula_structural   Rb4PaCrTe6
_chemical_formula_sum   'Rb8 Pa2 Cr2 Te12'
_cell_volume   972.65526085
_cell_formula_units_Z   2
loop_
 _symmetry_equiv_pos_site_id
 _symmetry_equiv_pos_as_xyz
  1  'x, y, z'
loop_
 _atom_site_type_symbol
 _atom_site_label
 _atom_site_symmetry_multiplicity
 _atom_site_fract_x
 _atom_site_fract_y
 _atom_site_fract_z
 _atom_site_occupancy
  Rb  Rb0  1  0.954780  0.674559  0.653116  1
  Rb  Rb1  1  0.454780  0.825441  0.346884  1
  Rb  Rb2  1  0.045801  0.326888  0.346554  1
  Rb  Rb3  1  0.545801  0.173112  0.653446  1
  Rb  Rb4  1  0.867469  0.083307  0.903230  1
  Rb  Rb5  1  0.367469  0.416693  0.096770  1
  Rb  Rb6  1  0.131817  0.922437  0.098402  1
  Rb  Rb7  1  0.631817  0.577563  0.901598  1
  Pa  Pa8  1  0.749505  0.652674  0.297001  1
  Pa  Pa9  1  0.249505  0.847326  0.702999  1
  Cr  Cr10  1  0.250771  0.345558  0.704180  1
  Cr  Cr11  1  0.750771  0.154442  0.295820  1
  Te  Te12  1  0.907700  0.929876  0.281688  1
  Te  Te13  1  0.407700  0.570124  0.718312  1
  Te  Te14  1  0.091934  0.114271  0.719499  1
  Te  Te15  1  0.591934  0.385729  0.280501  1
  Te  Te16  1  0.816223  0.283682  0.518561  1
  Te  Te17  1  0.316223  0.216318  0.481439  1
  Te  Te18  1  0.184088  0.673308  0.481252  1
  Te  Te19  1  0.684088  0.826692  0.518748  1
  Te  Te20  1  0.842686  0.476824  0.091278  1
  Te  Te21  1  0.342686  0.023176  0.908722  1
  Te  Te22  1  0.157225  0.487219  0.906641  1
  Te  Te23  1  0.657225  0.012781  0.093359  1
