# generated using pymatgen
data_NdSm11(GeI3)4
_symmetry_space_group_name_H-M   'P 1'
_cell_length_a   10.74719657
_cell_length_b   10.74719591
_cell_length_c   10.72895594
_cell_angle_alpha   109.45522570
_cell_angle_beta   109.45522783
_cell_angle_gamma   109.51897640
_symmetry_Int_Tables_number   1
_chemical_formula_structural   NdSm11(GeI3)4
_chemical_formula_sum   'Nd1 Sm11 Ge4 I12'
_cell_volume   953.76471804
_cell_formula_units_Z   1
loop_
 _symmetry_equiv_pos_site_id
 _symmetry_equiv_pos_as_xyz
  1  'x, y, z'
loop_
 _atom_site_type_symbol
 _atom_site_label
 _atom_site_symmetry_multiplicity
 _atom_site_fract_x
 _atom_site_fract_y
 _atom_site_fract_z
 _atom_site_occupancy
  Nd  Nd0  1  0.234749  0.265251  0.750000  1
  Sm  Sm1  1  0.464659  0.482870  0.232754  1
  Sm  Sm2  1  0.750239  0.232423  0.268140  1
  Sm  Sm3  1  0.749525  0.017478  0.481749  1
  Sm  Sm4  1  0.232074  0.464653  0.481596  1
  Sm  Sm5  1  0.267577  0.749761  0.231860  1
  Sm  Sm6  1  0.035347  0.267926  0.018404  1
  Sm  Sm7  1  0.017130  0.035341  0.267246  1
  Sm  Sm8  1  0.482522  0.750475  0.018251  1
  Sm  Sm9  1  0.481926  0.232747  0.464772  1
  Sm  Sm10  1  0.018006  0.481994  0.750000  1
  Sm  Sm11  1  0.267253  0.018074  0.035228  1
  Ge  Ge12  1  0.249923  0.250077  0.250000  1
  Ge  Ge13  1  0.499587  0.000413  0.250000  1
  Ge  Ge14  1  0.999837  0.249995  0.499668  1
  Ge  Ge15  1  0.250005  0.500163  0.000332  1
  I  I16  1  0.250271  0.756558  0.744284  1
  I  I17  1  0.515605  0.511394  0.755192  1
  I  I18  1  0.987620  0.743568  0.993985  1
  I  I19  1  0.743442  0.249729  0.755716  1
  I  I20  1  0.988606  0.984395  0.744808  1
  I  I21  1  0.248836  0.989853  0.502400  1
  I  I22  1  0.756432  0.512380  0.506015  1
  I  I23  1  0.510147  0.251164  0.997600  1
  I  I24  1  0.756068  0.743932  0.250000  1
  I  I25  1  0.743396  0.994368  0.987828  1
  I  I26  1  0.993584  0.506416  0.250000  1
  I  I27  1  0.505632  0.756604  0.512172  1
