# generated using pymatgen
data_Cs3ScS3
_symmetry_space_group_name_H-M   'P 1'
_cell_length_a   14.09955200
_cell_length_b   8.56189638
_cell_length_c   11.15729239
_cell_angle_alpha   52.51853371
_cell_angle_beta   90.00000000
_cell_angle_gamma   90.00000000
_symmetry_Int_Tables_number   1
_chemical_formula_structural   Cs3ScS3
_chemical_formula_sum   'Cs12 Sc4 S12'
_cell_volume   1068.82969331
_cell_formula_units_Z   4
loop_
 _symmetry_equiv_pos_site_id
 _symmetry_equiv_pos_as_xyz
  1  'x, y, z'
loop_
 _atom_site_type_symbol
 _atom_site_label
 _atom_site_symmetry_multiplicity
 _atom_site_fract_x
 _atom_site_fract_y
 _atom_site_fract_z
 _atom_site_occupancy
  Cs  Cs0  1  0.921021  0.353938  0.385183  1
  Cs  Cs1  1  0.421021  0.646062  0.114817  1
  Cs  Cs2  1  0.078979  0.646062  0.614817  1
  Cs  Cs3  1  0.578979  0.353938  0.885183  1
  Cs  Cs4  1  0.190524  0.139166  0.578350  1
  Cs  Cs5  1  0.690524  0.860834  0.921650  1
  Cs  Cs6  1  0.809476  0.860834  0.421650  1
  Cs  Cs7  1  0.309476  0.139166  0.078350  1
  Cs  Cs8  1  0.632829  0.389649  0.480646  1
  Cs  Cs9  1  0.132829  0.610351  0.019354  1
  Cs  Cs10  1  0.367171  0.610351  0.519354  1
  Cs  Cs11  1  0.867171  0.389649  0.980646  1
  Sc  Sc12  1  0.941586  0.065745  0.840652  1
  Sc  Sc13  1  0.441586  0.934255  0.659348  1
  Sc  Sc14  1  0.058414  0.934255  0.159348  1
  Sc  Sc15  1  0.558414  0.065745  0.340652  1
  S  S16  1  0.396766  0.137957  0.386203  1
  S  S17  1  0.896766  0.862043  0.113797  1
  S  S18  1  0.603234  0.862043  0.613797  1
  S  S19  1  0.103234  0.137957  0.886203  1
  S  S20  1  0.662113  0.350338  0.189887  1
  S  S21  1  0.162113  0.649662  0.310113  1
  S  S22  1  0.337887  0.649662  0.810113  1
  S  S23  1  0.837887  0.350338  0.689887  1
  S  S24  1  0.548696  0.882444  0.241403  1
  S  S25  1  0.048696  0.117556  0.258597  1
  S  S26  1  0.451304  0.117556  0.758597  1
  S  S27  1  0.951304  0.882444  0.741403  1
