# generated using pymatgen
data_Nd10AgSn6Br
_symmetry_space_group_name_H-M   'P 1'
_cell_length_a   9.55010208
_cell_length_b   9.54506347
_cell_length_c   6.80026802
_cell_angle_alpha   90.00108413
_cell_angle_beta   89.99659605
_cell_angle_gamma   120.01481066
_symmetry_Int_Tables_number   1
_chemical_formula_structural   Nd10AgSn6Br
_chemical_formula_sum   'Nd10 Ag1 Sn6 Br1'
_cell_volume   536.75816644
_cell_formula_units_Z   1
loop_
 _symmetry_equiv_pos_site_id
 _symmetry_equiv_pos_as_xyz
  1  'x, y, z'
loop_
 _atom_site_type_symbol
 _atom_site_label
 _atom_site_symmetry_multiplicity
 _atom_site_fract_x
 _atom_site_fract_y
 _atom_site_fract_z
 _atom_site_occupancy
  Nd  Nd0  1  0.268724  0.999978  0.749444  1
  Nd  Nd1  1  0.731276  0.000022  0.250556  1
  Nd  Nd2  1  0.000277  0.269197  0.749687  1
  Nd  Nd3  1  0.999723  0.730803  0.250313  1
  Nd  Nd4  1  0.731121  0.730817  0.749659  1
  Nd  Nd5  1  0.268879  0.269183  0.250341  1
  Nd  Nd6  1  0.333349  0.666690  0.500001  1
  Nd  Nd7  1  0.666651  0.333310  0.499999  1
  Nd  Nd8  1  0.666851  0.333679  0.999998  1
  Nd  Nd9  1  0.333149  0.666321  0.000002  1
  Ag  Ag10  1  0.000000  0.000000  0.000000  1
  Sn  Sn11  1  0.616549  0.999973  0.750837  1
  Sn  Sn12  1  0.383451  0.000027  0.249163  1
  Sn  Sn13  1  0.000336  0.616852  0.750755  1
  Sn  Sn14  1  0.999664  0.383148  0.249245  1
  Sn  Sn15  1  0.383492  0.383131  0.750750  1
  Sn  Sn16  1  0.616508  0.616869  0.249250  1
  Br  Br17  1  0.000000  0.000000  0.500000  1
