# generated using pymatgen
data_TbEr2Tm17(CoSb2)4
_symmetry_space_group_name_H-M   'P 1'
_cell_length_a   7.77775658
_cell_length_b   8.71968200
_cell_length_c   12.05695186
_cell_angle_alpha   90.00000000
_cell_angle_beta   90.04388894
_cell_angle_gamma   90.00000000
_symmetry_Int_Tables_number   1
_chemical_formula_structural   TbEr2Tm17(CoSb2)4
_chemical_formula_sum   'Tb1 Er2 Tm17 Co4 Sb8'
_cell_volume   817.69697969
_cell_formula_units_Z   1
loop_
 _symmetry_equiv_pos_site_id
 _symmetry_equiv_pos_as_xyz
  1  'x, y, z'
loop_
 _atom_site_type_symbol
 _atom_site_label
 _atom_site_symmetry_multiplicity
 _atom_site_fract_x
 _atom_site_fract_y
 _atom_site_fract_z
 _atom_site_occupancy
  Tb  Tb0  1  0.122931  0.250000  0.192126  1
  Er  Er1  1  0.377840  0.250000  0.691474  1
  Er  Er2  1  0.877715  0.750000  0.808446  1
  Tm  Tm3  1  0.157446  0.750000  0.204192  1
  Tm  Tm4  1  0.657174  0.250000  0.295916  1
  Tm  Tm5  1  0.842735  0.250000  0.795929  1
  Tm  Tm6  1  0.342621  0.750000  0.704046  1
  Tm  Tm7  1  0.449882  0.750000  0.998031  1
  Tm  Tm8  1  0.949397  0.250000  0.501990  1
  Tm  Tm9  1  0.550304  0.250000  0.001955  1
  Tm  Tm10  1  0.050168  0.750000  0.498071  1
  Tm  Tm11  1  0.621816  0.750000  0.308948  1
  Tm  Tm12  1  0.823493  0.962226  0.065539  1
  Tm  Tm13  1  0.324204  0.036831  0.434383  1
  Tm  Tm14  1  0.176217  0.462947  0.934168  1
  Tm  Tm15  1  0.676170  0.537489  0.565369  1
  Tm  Tm16  1  0.176217  0.037053  0.934168  1
  Tm  Tm17  1  0.676170  0.962511  0.565369  1
  Tm  Tm18  1  0.823493  0.537774  0.065539  1
  Tm  Tm19  1  0.324204  0.463169  0.434383  1
  Co  Co20  1  0.431726  0.750000  0.490944  1
  Co  Co21  1  0.931132  0.250000  0.008504  1
  Co  Co22  1  0.568314  0.250000  0.508822  1
  Co  Co23  1  0.068380  0.750000  0.991040  1
  Sb  Sb24  1  0.930464  0.990799  0.327870  1
  Sb  Sb25  1  0.432216  0.007795  0.172402  1
  Sb  Sb26  1  0.068718  0.491467  0.672333  1
  Sb  Sb27  1  0.568729  0.508450  0.827718  1
  Sb  Sb28  1  0.068718  0.008533  0.672333  1
  Sb  Sb29  1  0.568729  0.991550  0.827718  1
  Sb  Sb30  1  0.930464  0.509201  0.327870  1
  Sb  Sb31  1  0.432216  0.492205  0.172402  1
