# generated using pymatgen
data_Ce3Th(Si5Os3)2
_symmetry_space_group_name_H-M   'P 1'
_cell_length_a   8.19685403
_cell_length_b   8.19262959
_cell_length_c   5.85343177
_cell_angle_alpha   70.42056571
_cell_angle_beta   70.47420826
_cell_angle_gamma   93.53779604
_symmetry_Int_Tables_number   1
_chemical_formula_structural   Ce3Th(Si5Os3)2
_chemical_formula_sum   'Ce3 Th1 Si10 Os6'
_cell_volume   342.30886964
_cell_formula_units_Z   1
loop_
 _symmetry_equiv_pos_site_id
 _symmetry_equiv_pos_as_xyz
  1  'x, y, z'
loop_
 _atom_site_type_symbol
 _atom_site_label
 _atom_site_symmetry_multiplicity
 _atom_site_fract_x
 _atom_site_fract_y
 _atom_site_fract_z
 _atom_site_occupancy
  Ce  Ce0  1  0.867388  0.600495  0.759087  1
  Ce  Ce1  1  0.397960  0.133473  0.741751  1
  Ce  Ce2  1  0.132646  0.400203  0.240721  1
  Th  Th3  1  0.601162  0.866700  0.258546  1
  Si  Si4  1  0.061050  0.261969  0.835516  1
  Si  Si5  1  0.740448  0.939361  0.662303  1
  Si  Si6  1  0.941593  0.736563  0.163208  1
  Si  Si7  1  0.259823  0.061807  0.337356  1
  Si  Si8  1  0.206628  0.791761  0.752979  1
  Si  Si9  1  0.794758  0.210022  0.247193  1
  Si  Si10  1  0.512781  0.485507  0.752640  1
  Si  Si11  1  0.485482  0.510759  0.250079  1
  Si  Si12  1  0.774003  0.228456  0.748165  1
  Si  Si13  1  0.223961  0.773238  0.249761  1
  Os  Os14  1  0.255820  0.542804  0.633643  1
  Os  Os15  1  0.459100  0.745306  0.865827  1
  Os  Os16  1  0.743673  0.457510  0.365907  1
  Os  Os17  1  0.542104  0.254151  0.135108  1
  Os  Os18  1  0.002375  0.997776  0.750137  1
  Os  Os19  1  0.997246  0.002140  0.250072  1
