# generated using pymatgen
data_Y3Er7(InBi)3
_symmetry_space_group_name_H-M   'P 1'
_cell_length_a   9.01778800
_cell_length_b   9.01778980
_cell_length_c   6.54355300
_cell_angle_alpha   90.00000000
_cell_angle_beta   90.00000000
_cell_angle_gamma   120.00000072
_symmetry_Int_Tables_number   1
_chemical_formula_structural   Y3Er7(InBi)3
_chemical_formula_sum   'Y3 Er7 In3 Bi3'
_cell_volume   460.83386070
_cell_formula_units_Z   1
loop_
 _symmetry_equiv_pos_site_id
 _symmetry_equiv_pos_as_xyz
  1  'x, y, z'
loop_
 _atom_site_type_symbol
 _atom_site_label
 _atom_site_symmetry_multiplicity
 _atom_site_fract_x
 _atom_site_fract_y
 _atom_site_fract_z
 _atom_site_occupancy
  Y  Y0  1  0.763263  0.763263  0.750000  1
  Y  Y1  1  0.236737  0.000000  0.750000  1
  Y  Y2  1  0.000000  0.236737  0.750000  1
  Er  Er3  1  0.666667  0.333333  0.007448  1
  Er  Er4  1  0.333333  0.666667  0.007448  1
  Er  Er5  1  0.333333  0.666667  0.492552  1
  Er  Er6  1  0.666667  0.333333  0.492552  1
  Er  Er7  1  0.238207  0.238207  0.250000  1
  Er  Er8  1  0.761793  0.000000  0.250000  1
  Er  Er9  1  0.000000  0.761793  0.250000  1
  In  In10  1  0.606633  0.606633  0.250000  1
  In  In11  1  0.393367  0.000000  0.250000  1
  In  In12  1  0.000000  0.393367  0.250000  1
  Bi  Bi13  1  0.396457  0.396457  0.750000  1
  Bi  Bi14  1  0.603543  0.000000  0.750000  1
  Bi  Bi15  1  0.000000  0.603543  0.750000  1
