# generated using pymatgen
data_Ho7Er(Re3Si4)4
_symmetry_space_group_name_H-M   'P 1'
_cell_length_a   6.76896806
_cell_length_b   6.76831202
_cell_length_c   12.74334008
_cell_angle_alpha   90.00421701
_cell_angle_beta   89.98804855
_cell_angle_gamma   90.00880370
_symmetry_Int_Tables_number   1
_chemical_formula_structural   Ho7Er(Re3Si4)4
_chemical_formula_sum   'Ho7 Er1 Re12 Si16'
_cell_volume   583.82957854
_cell_formula_units_Z   1
loop_
 _symmetry_equiv_pos_site_id
 _symmetry_equiv_pos_as_xyz
  1  'x, y, z'
loop_
 _atom_site_type_symbol
 _atom_site_label
 _atom_site_symmetry_multiplicity
 _atom_site_fract_x
 _atom_site_fract_y
 _atom_site_fract_z
 _atom_site_occupancy
  Ho  Ho0  1  0.007176  0.661737  0.031163  1
  Ho  Ho1  1  0.992798  0.338302  0.531162  1
  Ho  Ho2  1  0.338306  0.992804  0.468833  1
  Ho  Ho3  1  0.161700  0.492798  0.781202  1
  Ho  Ho4  1  0.838298  0.507206  0.281147  1
  Ho  Ho5  1  0.492806  0.161677  0.218786  1
  Ho  Ho6  1  0.507225  0.838347  0.718886  1
  Er  Er7  1  0.661388  0.007417  0.968878  1
  Re  Re8  1  0.665207  0.665221  0.499985  1
  Re  Re9  1  0.165227  0.834782  0.249999  1
  Re  Re10  1  0.334868  0.334649  0.999983  1
  Re  Re11  1  0.019297  0.813786  0.631200  1
  Re  Re12  1  0.980573  0.186147  0.131139  1
  Re  Re13  1  0.813776  0.019314  0.368778  1
  Re  Re14  1  0.313801  0.480681  0.381197  1
  Re  Re15  1  0.686243  0.519482  0.881219  1
  Re  Re16  1  0.480695  0.313761  0.618821  1
  Re  Re17  1  0.519471  0.686387  0.118697  1
  Re  Re18  1  0.186289  0.980650  0.868800  1
  Re  Re19  1  0.834717  0.165161  0.750128  1
  Si  Si20  1  0.020274  0.726660  0.438290  1
  Si  Si21  1  0.614921  0.304539  0.434192  1
  Si  Si22  1  0.385246  0.695673  0.934197  1
  Si  Si23  1  0.195462  0.114919  0.684198  1
  Si  Si24  1  0.304540  0.614924  0.565807  1
  Si  Si25  1  0.695385  0.384716  0.065708  1
  Si  Si26  1  0.804469  0.885129  0.184051  1
  Si  Si27  1  0.114936  0.195439  0.315787  1
  Si  Si28  1  0.979425  0.273090  0.938312  1
  Si  Si29  1  0.726660  0.020276  0.561699  1
  Si  Si30  1  0.226695  0.479736  0.188284  1
  Si  Si31  1  0.773308  0.520271  0.688308  1
  Si  Si32  1  0.479889  0.226466  0.811896  1
  Si  Si33  1  0.520268  0.773335  0.311674  1
  Si  Si34  1  0.273757  0.979738  0.061620  1
  Si  Si35  1  0.884901  0.804782  0.815976  1
