# generated using pymatgen
data_Hf8Al14Co7S
_symmetry_space_group_name_H-M   'P 1'
_cell_length_a   8.63188313
_cell_length_b   8.63199061
_cell_length_c   8.63188300
_cell_angle_alpha   120.07483093
_cell_angle_beta   119.89493198
_cell_angle_gamma   90.02292371
_symmetry_Int_Tables_number   1
_chemical_formula_structural   Hf8Al14Co7S
_chemical_formula_sum   'Hf8 Al14 Co7 S1'
_cell_volume   454.90168665
_cell_formula_units_Z   1
loop_
 _symmetry_equiv_pos_site_id
 _symmetry_equiv_pos_as_xyz
  1  'x, y, z'
loop_
 _atom_site_type_symbol
 _atom_site_label
 _atom_site_symmetry_multiplicity
 _atom_site_fract_x
 _atom_site_fract_y
 _atom_site_fract_z
 _atom_site_occupancy
  Hf  Hf0  1  0.804658  0.299285  0.094567  1
  Hf  Hf1  1  0.204665  0.299357  0.494629  1
  Hf  Hf2  1  0.196737  0.696742  0.499958  1
  Hf  Hf3  1  0.204703  0.710074  0.905441  1
  Hf  Hf4  1  0.804732  0.710041  0.505372  1
  Hf  Hf5  1  0.791849  0.291857  0.500009  1
  Hf  Hf6  1  0.380896  0.119009  0.738038  1
  Hf  Hf7  1  0.381026  0.642867  0.262002  1
  Al  Al8  1  0.165160  0.327749  0.162645  1
  Al  Al9  1  0.165213  0.002518  0.837430  1
  Al  Al10  1  0.158391  0.332269  0.826055  1
  Al  Al11  1  0.506223  0.332230  0.173922  1
  Al  Al12  1  0.832820  0.666416  0.833494  1
  Al  Al13  1  0.832783  0.999325  0.166408  1
  Al  Al14  1  0.833148  0.667551  0.165599  1
  Al  Al15  1  0.501922  0.667649  0.834410  1
  Al  Al16  1  0.381602  0.117790  0.263856  1
  Al  Al17  1  0.853924  0.117703  0.736126  1
  Al  Al18  1  0.620421  0.880728  0.260269  1
  Al  Al19  1  0.620373  0.360126  0.739662  1
  Al  Al20  1  0.623039  0.881436  0.741566  1
  Al  Al21  1  0.139894  0.881523  0.258464  1
  Co  Co22  1  0.000157  0.999833  0.501033  1
  Co  Co23  1  0.498873  0.999870  0.999733  1
  Co  Co24  1  0.499585  0.499588  0.999992  1
  Co  Co25  1  0.498789  0.499100  0.498957  1
  Co  Co26  1  0.000238  0.499186  0.000358  1
  Co  Co27  1  0.000701  0.000710  0.000008  1
  Co  Co28  1  0.503297  0.003287  0.500004  1
  S  S29  1  0.994171  0.494181  0.499994  1
