# generated using pymatgen
data_Ce6Al24Co2Os5Pd
_symmetry_space_group_name_H-M   'P 1'
_cell_length_a   8.89913000
_cell_length_b   8.86453048
_cell_length_c   9.46343108
_cell_angle_alpha   90.15160308
_cell_angle_beta   90.00000000
_cell_angle_gamma   120.12920657
_symmetry_Int_Tables_number   1
_chemical_formula_structural   Ce6Al24Co2Os5Pd
_chemical_formula_sum   'Ce6 Al24 Co2 Os5 Pd1'
_cell_volume   645.67444675
_cell_formula_units_Z   1
loop_
 _symmetry_equiv_pos_site_id
 _symmetry_equiv_pos_as_xyz
  1  'x, y, z'
loop_
 _atom_site_type_symbol
 _atom_site_label
 _atom_site_symmetry_multiplicity
 _atom_site_fract_x
 _atom_site_fract_y
 _atom_site_fract_z
 _atom_site_occupancy
  Ce  Ce0  1  0.195096  0.390190  0.252662  1
  Ce  Ce1  1  0.804904  0.609810  0.747338  1
  Ce  Ce2  1  0.612132  0.801652  0.252705  1
  Ce  Ce3  1  0.387868  0.198348  0.747295  1
  Ce  Ce4  1  0.189523  0.801652  0.252705  1
  Ce  Ce5  1  0.810477  0.198348  0.747295  1
  Al  Al6  1  0.331854  0.663709  0.023150  1
  Al  Al7  1  0.668146  0.336291  0.976850  1
  Al  Al8  1  0.666418  0.332834  0.517680  1
  Al  Al9  1  0.333582  0.667166  0.482320  1
  Al  Al10  1  0.161218  0.322435  0.576630  1
  Al  Al11  1  0.838782  0.677565  0.423370  1
  Al  Al12  1  0.678943  0.840030  0.577351  1
  Al  Al13  1  0.838245  0.676491  0.076536  1
  Al  Al14  1  0.321057  0.159970  0.422649  1
  Al  Al15  1  0.161755  0.323509  0.923464  1
  Al  Al16  1  0.161089  0.840030  0.577351  1
  Al  Al17  1  0.318493  0.163465  0.077307  1
  Al  Al18  1  0.838911  0.159970  0.422649  1
  Al  Al19  1  0.681507  0.836535  0.922693  1
  Al  Al20  1  0.844971  0.163465  0.077307  1
  Al  Al21  1  0.155029  0.836535  0.922693  1
  Al  Al22  1  0.561685  0.123369  0.251564  1
  Al  Al23  1  0.438315  0.876631  0.748436  1
  Al  Al24  1  0.873654  0.435498  0.249203  1
  Al  Al25  1  0.126346  0.564502  0.750797  1
  Al  Al26  1  0.561846  0.435498  0.249203  1
  Al  Al27  1  0.438154  0.564502  0.750797  1
  Al  Al28  1  0.999282  0.998565  0.250270  1
  Al  Al29  1  0.000718  0.001435  0.749730  1
  Co  Co30  1  0.000000  0.000000  0.000000  1
  Co  Co31  1  0.000000  0.000000  0.500000  1
  Os  Os32  1  0.000000  0.500000  0.000000  1
  Os  Os33  1  0.500000  0.000000  0.500000  1
  Os  Os34  1  0.500000  0.500000  0.000000  1
  Os  Os35  1  0.000000  0.500000  0.500000  1
  Os  Os36  1  0.500000  0.500000  0.500000  1
  Pd  Pd37  1  0.500000  0.000000  0.000000  1
