# generated using pymatgen
data_Ho4HfIr3
_symmetry_space_group_name_H-M   'P 1'
_cell_length_a   10.79935700
_cell_length_b   10.79935700
_cell_length_c   6.23507900
_cell_angle_alpha   90.00000000
_cell_angle_beta   90.00000000
_cell_angle_gamma   90.00000000
_symmetry_Int_Tables_number   1
_chemical_formula_structural   Ho4HfIr3
_chemical_formula_sum   'Ho16 Hf4 Ir12'
_cell_volume   727.17301937
_cell_formula_units_Z   4
loop_
 _symmetry_equiv_pos_site_id
 _symmetry_equiv_pos_as_xyz
  1  'x, y, z'
loop_
 _atom_site_type_symbol
 _atom_site_label
 _atom_site_symmetry_multiplicity
 _atom_site_fract_x
 _atom_site_fract_y
 _atom_site_fract_z
 _atom_site_occupancy
  Ho  Ho0  1  0.289601  0.086102  0.375044  1
  Ho  Ho1  1  0.289601  0.913898  0.875044  1
  Ho  Ho2  1  0.710399  0.086102  0.875044  1
  Ho  Ho3  1  0.710399  0.913898  0.375044  1
  Ho  Ho4  1  0.586102  0.789601  0.875044  1
  Ho  Ho5  1  0.586102  0.210399  0.375044  1
  Ho  Ho6  1  0.413898  0.789601  0.375044  1
  Ho  Ho7  1  0.413898  0.210399  0.875044  1
  Ho  Ho8  1  0.210399  0.413898  0.624956  1
  Ho  Ho9  1  0.210399  0.586102  0.124956  1
  Ho  Ho10  1  0.789601  0.413898  0.124956  1
  Ho  Ho11  1  0.789601  0.586102  0.624956  1
  Ho  Ho12  1  0.913898  0.710399  0.124956  1
  Ho  Ho13  1  0.913898  0.289601  0.624956  1
  Ho  Ho14  1  0.086102  0.710399  0.624956  1
  Ho  Ho15  1  0.086102  0.289601  0.124956  1
  Hf  Hf16  1  0.000000  0.000000  0.500000  1
  Hf  Hf17  1  0.000000  0.000000  0.000000  1
  Hf  Hf18  1  0.500000  0.500000  0.000000  1
  Hf  Hf19  1  0.500000  0.500000  0.500000  1
  Ir  Ir20  1  0.856520  0.143480  0.250000  1
  Ir  Ir21  1  0.856520  0.856520  0.750000  1
  Ir  Ir22  1  0.143480  0.143480  0.750000  1
  Ir  Ir23  1  0.143480  0.856520  0.250000  1
  Ir  Ir24  1  0.643480  0.356520  0.750000  1
  Ir  Ir25  1  0.643480  0.643480  0.250000  1
  Ir  Ir26  1  0.356520  0.356520  0.250000  1
  Ir  Ir27  1  0.356520  0.643480  0.750000  1
  Ir  Ir28  1  0.500000  0.000000  0.122813  1
  Ir  Ir29  1  0.500000  0.000000  0.622813  1
  Ir  Ir30  1  0.000000  0.500000  0.877187  1
  Ir  Ir31  1  0.000000  0.500000  0.377187  1
