# generated using pymatgen
data_PaTa3(CoH6)2
_symmetry_space_group_name_H-M   'P 1'
_cell_length_a   5.99713400
_cell_length_b   5.99713229
_cell_length_c   4.55701500
_cell_angle_alpha   90.00000000
_cell_angle_beta   90.00000000
_cell_angle_gamma   119.99999838
_symmetry_Int_Tables_number   1
_chemical_formula_structural   PaTa3(CoH6)2
_chemical_formula_sum   'Pa1 Ta3 Co2 H12'
_cell_volume   141.93793381
_cell_formula_units_Z   1
loop_
 _symmetry_equiv_pos_site_id
 _symmetry_equiv_pos_as_xyz
  1  'x, y, z'
loop_
 _atom_site_type_symbol
 _atom_site_label
 _atom_site_symmetry_multiplicity
 _atom_site_fract_x
 _atom_site_fract_y
 _atom_site_fract_z
 _atom_site_occupancy
  Pa  Pa0  1  0.000000  0.000000  0.000000  1
  Ta  Ta1  1  0.500000  0.000000  0.500000  1
  Ta  Ta2  1  0.000000  0.500000  0.500000  1
  Ta  Ta3  1  0.500000  0.500000  0.500000  1
  Co  Co4  1  0.666667  0.333333  0.000000  1
  Co  Co5  1  0.333333  0.666667  0.000000  1
  H  H6  1  0.796913  0.593825  0.766898  1
  H  H7  1  0.203087  0.406175  0.233102  1
  H  H8  1  0.203087  0.796913  0.233102  1
  H  H9  1  0.796913  0.203087  0.233102  1
  H  H10  1  0.593825  0.796913  0.233102  1
  H  H11  1  0.406175  0.203087  0.233102  1
  H  H12  1  0.406175  0.203087  0.766898  1
  H  H13  1  0.203087  0.406175  0.766898  1
  H  H14  1  0.796913  0.203087  0.766898  1
  H  H15  1  0.593825  0.796913  0.766898  1
  H  H16  1  0.796913  0.593825  0.233102  1
  H  H17  1  0.203087  0.796913  0.766898  1
