# generated using pymatgen
data_Y3ThCdOs
_symmetry_space_group_name_H-M   'P 1'
_cell_length_a   9.76759303
_cell_length_b   9.76759245
_cell_length_c   9.76759300
_cell_angle_alpha   60.00000152
_cell_angle_beta   60.00000350
_cell_angle_gamma   60.00000231
_symmetry_Int_Tables_number   1
_chemical_formula_structural   Y3ThCdOs
_chemical_formula_sum   'Y12 Th4 Cd4 Os4'
_cell_volume   658.94272595
_cell_formula_units_Z   4
loop_
 _symmetry_equiv_pos_site_id
 _symmetry_equiv_pos_as_xyz
  1  'x, y, z'
loop_
 _atom_site_type_symbol
 _atom_site_label
 _atom_site_symmetry_multiplicity
 _atom_site_fract_x
 _atom_site_fract_y
 _atom_site_fract_z
 _atom_site_occupancy
  Y  Y0  1  0.810967  0.189033  0.189033  1
  Y  Y1  1  0.189033  0.810967  0.810967  1
  Y  Y2  1  0.189033  0.810967  0.189033  1
  Y  Y3  1  0.810967  0.189033  0.810967  1
  Y  Y4  1  0.189033  0.189033  0.810967  1
  Y  Y5  1  0.810967  0.810967  0.189033  1
  Y  Y6  1  0.938335  0.561665  0.561665  1
  Y  Y7  1  0.561665  0.938335  0.938335  1
  Y  Y8  1  0.561665  0.938335  0.561665  1
  Y  Y9  1  0.938335  0.561665  0.938335  1
  Y  Y10  1  0.561665  0.561665  0.938335  1
  Y  Y11  1  0.938335  0.938335  0.561665  1
  Th  Th12  1  0.347232  0.347232  0.347232  1
  Th  Th13  1  0.347232  0.347232  0.958304  1
  Th  Th14  1  0.347232  0.958304  0.347232  1
  Th  Th15  1  0.958304  0.347232  0.347232  1
  Cd  Cd16  1  0.580789  0.580789  0.580789  1
  Cd  Cd17  1  0.580789  0.580789  0.257632  1
  Cd  Cd18  1  0.580789  0.257632  0.580789  1
  Cd  Cd19  1  0.257632  0.580789  0.580789  1
  Os  Os20  1  0.142848  0.142848  0.142848  1
  Os  Os21  1  0.142848  0.142848  0.571454  1
  Os  Os22  1  0.142848  0.571454  0.142848  1
  Os  Os23  1  0.571454  0.142848  0.142848  1
