# generated using pymatgen
data_Nb4CrFe5Ir2
_symmetry_space_group_name_H-M   'P 1'
_cell_length_a   4.85980400
_cell_length_b   4.82272832
_cell_length_c   8.22438400
_cell_angle_alpha   90.00000000
_cell_angle_beta   90.00000000
_cell_angle_gamma   120.25462079
_symmetry_Int_Tables_number   1
_chemical_formula_structural   Nb4CrFe5Ir2
_chemical_formula_sum   'Nb4 Cr1 Fe5 Ir2'
_cell_volume   166.50433822
_cell_formula_units_Z   1
loop_
 _symmetry_equiv_pos_site_id
 _symmetry_equiv_pos_as_xyz
  1  'x, y, z'
loop_
 _atom_site_type_symbol
 _atom_site_label
 _atom_site_symmetry_multiplicity
 _atom_site_fract_x
 _atom_site_fract_y
 _atom_site_fract_z
 _atom_site_occupancy
  Nb  Nb0  1  0.667429  0.334859  0.068978  1
  Nb  Nb1  1  0.667429  0.334859  0.431022  1
  Nb  Nb2  1  0.334687  0.669373  0.571669  1
  Nb  Nb3  1  0.334687  0.669373  0.928331  1
  Cr  Cr4  1  0.178188  0.356376  0.250001  1
  Fe  Fe5  1  0.168304  0.817038  0.250001  1
  Fe  Fe6  1  0.648735  0.817038  0.250001  1
  Fe  Fe7  1  0.344991  0.172927  0.750000  1
  Fe  Fe8  1  0.827934  0.172927  0.750000  1
  Fe  Fe9  1  0.827125  0.654251  0.750000  1
  Ir  Ir10  1  0.000245  0.000490  0.002401  1
  Ir  Ir11  1  0.000245  0.000490  0.497599  1
