# generated using pymatgen
data_Er2Sn(PRh2)6
_symmetry_space_group_name_H-M   'P 1'
_cell_length_a   9.75642100
_cell_length_b   9.75642037
_cell_length_c   3.86451400
_cell_angle_alpha   90.00000000
_cell_angle_beta   90.00000000
_cell_angle_gamma   119.99999874
_symmetry_Int_Tables_number   1
_chemical_formula_structural   Er2Sn(PRh2)6
_chemical_formula_sum   'Er2 Sn1 P6 Rh12'
_cell_volume   318.57123480
_cell_formula_units_Z   1
loop_
 _symmetry_equiv_pos_site_id
 _symmetry_equiv_pos_as_xyz
  1  'x, y, z'
loop_
 _atom_site_type_symbol
 _atom_site_label
 _atom_site_symmetry_multiplicity
 _atom_site_fract_x
 _atom_site_fract_y
 _atom_site_fract_z
 _atom_site_occupancy
  Er  Er0  1  0.333333  0.666667  0.750800  1
  Er  Er1  1  0.666667  0.333333  0.249200  1
  Sn  Sn2  1  0.000000  0.000000  0.500000  1
  P  P3  1  0.406491  0.287689  0.746967  1
  P  P4  1  0.712311  0.118803  0.746967  1
  P  P5  1  0.881197  0.593509  0.746967  1
  P  P6  1  0.593509  0.712311  0.253033  1
  P  P7  1  0.287689  0.881197  0.253033  1
  P  P8  1  0.118803  0.406491  0.253033  1
  Rh  Rh9  1  0.454568  0.068320  0.747627  1
  Rh  Rh10  1  0.931680  0.386247  0.747627  1
  Rh  Rh11  1  0.613753  0.545432  0.747627  1
  Rh  Rh12  1  0.545432  0.931680  0.252373  1
  Rh  Rh13  1  0.068320  0.613753  0.252373  1
  Rh  Rh14  1  0.386247  0.454568  0.252373  1
  Rh  Rh15  1  0.161859  0.287620  0.758529  1
  Rh  Rh16  1  0.712380  0.874239  0.758529  1
  Rh  Rh17  1  0.125761  0.838141  0.758529  1
  Rh  Rh18  1  0.838141  0.712380  0.241471  1
  Rh  Rh19  1  0.287620  0.125761  0.241471  1
  Rh  Rh20  1  0.874239  0.161859  0.241471  1
