# generated using pymatgen
data_Cs2NaGa6F21
_symmetry_space_group_name_H-M   'P 1'
_cell_length_a   7.41416452
_cell_length_b   7.41416509
_cell_length_c   10.80388364
_cell_angle_alpha   69.95873755
_cell_angle_beta   69.95873532
_cell_angle_gamma   60.08967872
_symmetry_Int_Tables_number   1
_chemical_formula_structural   Cs2NaGa6F21
_chemical_formula_sum   'Cs2 Na1 Ga6 F21'
_cell_volume   472.72668270
_cell_formula_units_Z   1
loop_
 _symmetry_equiv_pos_site_id
 _symmetry_equiv_pos_as_xyz
  1  'x, y, z'
loop_
 _atom_site_type_symbol
 _atom_site_label
 _atom_site_symmetry_multiplicity
 _atom_site_fract_x
 _atom_site_fract_y
 _atom_site_fract_z
 _atom_site_occupancy
  Cs  Cs0  1  0.133713  0.135866  0.596616  1
  Cs  Cs1  1  0.864134  0.866287  0.403384  1
  Na  Na2  1  0.515659  0.484341  0.500000  1
  Ga  Ga3  1  0.457039  0.914270  0.193129  1
  Ga  Ga4  1  0.085730  0.542961  0.806871  1
  Ga  Ga5  1  0.957769  0.415552  0.190725  1
  Ga  Ga6  1  0.460305  0.412292  0.191513  1
  Ga  Ga7  1  0.587708  0.539695  0.808487  1
  Ga  Ga8  1  0.584448  0.042231  0.809275  1
  F  F9  1  0.676028  0.566305  0.622933  1
  F  F10  1  0.433695  0.323972  0.377067  1
  F  F11  1  0.162944  0.492571  0.206024  1
  F  F12  1  0.507429  0.837056  0.793976  1
  F  F13  1  0.871197  0.452309  0.828896  1
  F  F14  1  0.513373  0.955091  0.000759  1
  F  F15  1  0.758609  0.339105  0.167260  1
  F  F16  1  0.144104  0.592456  0.619938  1
  F  F17  1  0.877956  0.834243  0.810919  1
  F  F18  1  0.753188  0.710630  0.186025  1
  F  F19  1  0.660895  0.241391  0.832740  1
  F  F20  1  0.489105  0.510895  0.000000  1
  F  F21  1  0.872419  0.351730  0.376385  1
  F  F22  1  0.299811  0.630299  0.793686  1
  F  F23  1  0.407544  0.855896  0.380062  1
  F  F24  1  0.289370  0.246812  0.813975  1
  F  F25  1  0.547691  0.128803  0.171104  1
  F  F26  1  0.369701  0.700189  0.206314  1
  F  F27  1  0.165757  0.122044  0.189081  1
  F  F28  1  0.044909  0.486627  0.999241  1
  F  F29  1  0.648270  0.127581  0.623615  1
