# generated using pymatgen
data_Tb8Tm12Ga13Sn3
_symmetry_space_group_name_H-M   'P 1'
_cell_length_a   7.48898562
_cell_length_b   7.92896783
_cell_length_c   15.17224735
_cell_angle_alpha   90.14251816
_cell_angle_beta   89.85175498
_cell_angle_gamma   90.04148745
_symmetry_Int_Tables_number   1
_chemical_formula_structural   Tb8Tm12Ga13Sn3
_chemical_formula_sum   'Tb8 Tm12 Ga13 Sn3'
_cell_volume   900.92089124
_cell_formula_units_Z   1
loop_
 _symmetry_equiv_pos_site_id
 _symmetry_equiv_pos_as_xyz
  1  'x, y, z'
loop_
 _atom_site_type_symbol
 _atom_site_label
 _atom_site_symmetry_multiplicity
 _atom_site_fract_x
 _atom_site_fract_y
 _atom_site_fract_z
 _atom_site_occupancy
  Tb  Tb0  1  0.489635  0.318150  0.905849  1
  Tb  Tb1  1  0.988354  0.178385  0.595430  1
  Tb  Tb2  1  0.511690  0.677596  0.404770  1
  Tb  Tb3  1  0.010836  0.825739  0.093377  1
  Tb  Tb4  1  0.498634  0.687506  0.095068  1
  Tb  Tb5  1  0.995349  0.815855  0.401400  1
  Tb  Tb6  1  0.504320  0.316352  0.598798  1
  Tb  Tb7  1  0.996070  0.177815  0.904823  1
  Tm  Tm8  1  0.334389  0.825447  0.875763  1
  Tm  Tm9  1  0.827546  0.675897  0.625939  1
  Tm  Tm10  1  0.672415  0.176188  0.375227  1
  Tm  Tm11  1  0.175034  0.321722  0.123577  1
  Tm  Tm12  1  0.659135  0.164167  0.125699  1
  Tm  Tm13  1  0.155180  0.328787  0.369147  1
  Tm  Tm14  1  0.345928  0.827941  0.631332  1
  Tm  Tm15  1  0.837198  0.683704  0.873266  1
  Tm  Tm16  1  0.173831  0.483986  0.752204  1
  Tm  Tm17  1  0.677623  0.017828  0.753058  1
  Tm  Tm18  1  0.823299  0.514525  0.249020  1
  Tm  Tm19  1  0.323524  0.983369  0.249038  1
  Ga  Ga20  1  0.337413  0.031047  0.037683  1
  Ga  Ga21  1  0.829567  0.467411  0.460618  1
  Ga  Ga22  1  0.670789  0.966704  0.540078  1
  Ga  Ga23  1  0.169156  0.532534  0.959412  1
  Ga  Ga24  1  0.662193  0.971359  0.959969  1
  Ga  Ga25  1  0.540616  0.605863  0.754034  1
  Ga  Ga26  1  0.042192  0.892179  0.747694  1
  Ga  Ga27  1  0.459982  0.388794  0.251981  1
  Ga  Ga28  1  0.958733  0.108527  0.246180  1
  Ga  Ga29  1  0.288770  0.127867  0.749938  1
  Ga  Ga30  1  0.789670  0.374566  0.751282  1
  Ga  Ga31  1  0.710799  0.871521  0.250428  1
  Ga  Ga32  1  0.210992  0.626576  0.248988  1
  Sn  Sn33  1  0.171339  0.533526  0.538560  1
  Sn  Sn34  1  0.328154  0.033358  0.462390  1
  Sn  Sn35  1  0.829644  0.467209  0.037977  1
