# generated using pymatgen
data_Er3Tm2Ir2Ru
_symmetry_space_group_name_H-M   'P 1'
_cell_length_a   10.71385500
_cell_length_b   10.71291800
_cell_length_c   6.37036300
_cell_angle_alpha   90.00000000
_cell_angle_beta   90.00000000
_cell_angle_gamma   89.99872716
_symmetry_Int_Tables_number   1
_chemical_formula_structural   Er3Tm2Ir2Ru
_chemical_formula_sum   'Er12 Tm8 Ir8 Ru4'
_cell_volume   731.16892484
_cell_formula_units_Z   4
loop_
 _symmetry_equiv_pos_site_id
 _symmetry_equiv_pos_as_xyz
  1  'x, y, z'
loop_
 _atom_site_type_symbol
 _atom_site_label
 _atom_site_symmetry_multiplicity
 _atom_site_fract_x
 _atom_site_fract_y
 _atom_site_fract_z
 _atom_site_occupancy
  Er  Er0  1  0.293186  0.086518  0.376669  1
  Er  Er1  1  0.293190  0.913479  0.876644  1
  Er  Er2  1  0.706810  0.086521  0.876644  1
  Er  Er3  1  0.706814  0.913482  0.376669  1
  Er  Er4  1  0.586496  0.793223  0.876707  1
  Er  Er5  1  0.586497  0.206775  0.376733  1
  Er  Er6  1  0.413503  0.793225  0.376733  1
  Er  Er7  1  0.413504  0.206777  0.876707  1
  Er  Er8  1  0.206480  0.413615  0.623330  1
  Er  Er9  1  0.206481  0.586376  0.123310  1
  Er  Er10  1  0.793519  0.413624  0.123310  1
  Er  Er11  1  0.793520  0.586385  0.623330  1
  Tm  Tm12  1  0.913702  0.706515  0.123134  1
  Tm  Tm13  1  0.913698  0.293486  0.623139  1
  Tm  Tm14  1  0.086302  0.706514  0.623139  1
  Tm  Tm15  1  0.086298  0.293485  0.123134  1
  Tm  Tm16  1  0.000000  0.000000  0.500087  1
  Tm  Tm17  1  0.000000  0.000000  0.000056  1
  Tm  Tm18  1  0.500000  0.500000  0.000007  1
  Tm  Tm19  1  0.500000  0.500000  0.500027  1
  Ir  Ir20  1  0.847708  0.152634  0.250232  1
  Ir  Ir21  1  0.847707  0.847363  0.750234  1
  Ir  Ir22  1  0.152293  0.152637  0.750234  1
  Ir  Ir23  1  0.152292  0.847366  0.250232  1
  Ir  Ir24  1  0.652654  0.347453  0.749908  1
  Ir  Ir25  1  0.652648  0.652552  0.249929  1
  Ir  Ir26  1  0.347352  0.347448  0.249929  1
  Ir  Ir27  1  0.347346  0.652547  0.749908  1
  Ru  Ru28  1  0.500000  0.000000  0.122209  1
  Ru  Ru29  1  0.500000  0.000000  0.622222  1
  Ru  Ru30  1  0.000000  0.500000  0.877731  1
  Ru  Ru31  1  0.000000  0.500000  0.377724  1
