# generated using pymatgen
data_Hf9Re3SiW
_symmetry_space_group_name_H-M   'P 1'
_cell_length_a   8.61837500
_cell_length_b   8.61837502
_cell_length_c   8.61917800
_cell_angle_alpha   90.00000000
_cell_angle_beta   90.00000000
_cell_angle_gamma   119.99999609
_symmetry_Int_Tables_number   1
_chemical_formula_structural   Hf9Re3SiW
_chemical_formula_sum   'Hf18 Re6 Si2 W2'
_cell_volume   554.43070445
_cell_formula_units_Z   2
loop_
 _symmetry_equiv_pos_site_id
 _symmetry_equiv_pos_as_xyz
  1  'x, y, z'
loop_
 _atom_site_type_symbol
 _atom_site_label
 _atom_site_symmetry_multiplicity
 _atom_site_fract_x
 _atom_site_fract_y
 _atom_site_fract_z
 _atom_site_occupancy
  Hf  Hf0  1  0.195939  0.804061  0.452289  1
  Hf  Hf1  1  0.195939  0.391876  0.452289  1
  Hf  Hf2  1  0.608124  0.804061  0.452289  1
  Hf  Hf3  1  0.804061  0.195939  0.547711  1
  Hf  Hf4  1  0.804061  0.608124  0.547711  1
  Hf  Hf5  1  0.391876  0.195939  0.547711  1
  Hf  Hf6  1  0.804061  0.195939  0.952289  1
  Hf  Hf7  1  0.804061  0.608124  0.952289  1
  Hf  Hf8  1  0.391876  0.195939  0.952289  1
  Hf  Hf9  1  0.195939  0.804061  0.047711  1
  Hf  Hf10  1  0.195939  0.391876  0.047711  1
  Hf  Hf11  1  0.608124  0.804061  0.047711  1
  Hf  Hf12  1  0.538968  0.461032  0.250000  1
  Hf  Hf13  1  0.538968  0.077936  0.250000  1
  Hf  Hf14  1  0.922064  0.461032  0.250000  1
  Hf  Hf15  1  0.461032  0.538968  0.750000  1
  Hf  Hf16  1  0.461032  0.922064  0.750000  1
  Hf  Hf17  1  0.077936  0.538968  0.750000  1
  Re  Re18  1  0.889630  0.110370  0.250000  1
  Re  Re19  1  0.889630  0.779261  0.250000  1
  Re  Re20  1  0.220739  0.110370  0.250000  1
  Re  Re21  1  0.110370  0.889630  0.750000  1
  Re  Re22  1  0.110370  0.220739  0.750000  1
  Re  Re23  1  0.779261  0.889630  0.750000  1
  Si  Si24  1  0.333333  0.666667  0.250000  1
  Si  Si25  1  0.666667  0.333333  0.750000  1
  W  W26  1  0.000000  0.000000  0.500000  1
  W  W27  1  0.000000  0.000000  0.000000  1
