# generated using pymatgen
data_Y3ScTi2(Be2Ir5)2
_symmetry_space_group_name_H-M   'P 1'
_cell_length_a   9.67701684
_cell_length_b   9.67701684
_cell_length_c   3.20500600
_cell_angle_alpha   90.00000000
_cell_angle_beta   90.00000000
_cell_angle_gamma   89.71541005
_symmetry_Int_Tables_number   1
_chemical_formula_structural   Y3ScTi2(Be2Ir5)2
_chemical_formula_sum   'Y3 Sc1 Ti2 Be4 Ir10'
_cell_volume   300.12797876
_cell_formula_units_Z   1
loop_
 _symmetry_equiv_pos_site_id
 _symmetry_equiv_pos_as_xyz
  1  'x, y, z'
loop_
 _atom_site_type_symbol
 _atom_site_label
 _atom_site_symmetry_multiplicity
 _atom_site_fract_x
 _atom_site_fract_y
 _atom_site_fract_z
 _atom_site_occupancy
  Y  Y0  1  0.676629  0.175952  0.000000  1
  Y  Y1  1  0.324048  0.823371  0.000000  1
  Y  Y2  1  0.174797  0.325203  0.000000  1
  Sc  Sc3  1  0.823710  0.676290  0.000000  1
  Ti  Ti4  1  0.998967  0.998281  0.000000  1
  Ti  Ti5  1  0.501719  0.501033  0.000000  1
  Be  Be6  1  0.120106  0.622602  0.000000  1
  Be  Be7  1  0.877398  0.379894  0.000000  1
  Be  Be8  1  0.624579  0.875421  0.000000  1
  Be  Be9  1  0.378249  0.121751  0.000000  1
  Ir  Ir10  1  0.211385  0.066431  0.500000  1
  Ir  Ir11  1  0.790491  0.926114  0.500000  1
  Ir  Ir12  1  0.062566  0.787278  0.500000  1
  Ir  Ir13  1  0.712722  0.437434  0.500000  1
  Ir  Ir14  1  0.932577  0.212592  0.500000  1
  Ir  Ir15  1  0.287408  0.567423  0.500000  1
  Ir  Ir16  1  0.573886  0.709509  0.500000  1
  Ir  Ir17  1  0.433569  0.288615  0.500000  1
  Ir  Ir18  1  0.501457  0.998543  0.500000  1
  Ir  Ir19  1  0.993735  0.506265  0.500000  1
