# generated using pymatgen
data_TbY7C10
_symmetry_space_group_name_H-M   'P 1'
_cell_length_a   3.68995200
_cell_length_b   6.60641355
_cell_length_c   11.97891719
_cell_angle_alpha   90.80485129
_cell_angle_beta   90.00000000
_cell_angle_gamma   90.00000000
_symmetry_Int_Tables_number   1
_chemical_formula_structural   TbY7C10
_chemical_formula_sum   'Tb1 Y7 C10'
_cell_volume   291.98543326
_cell_formula_units_Z   1
loop_
 _symmetry_equiv_pos_site_id
 _symmetry_equiv_pos_as_xyz
  1  'x, y, z'
loop_
 _atom_site_type_symbol
 _atom_site_label
 _atom_site_symmetry_multiplicity
 _atom_site_fract_x
 _atom_site_fract_y
 _atom_site_fract_z
 _atom_site_occupancy
  Tb  Tb0  1  0.500000  0.395867  0.302885  1
  Y  Y1  1  0.000000  0.254800  0.542561  1
  Y  Y2  1  0.000000  0.743662  0.457763  1
  Y  Y3  1  0.000000  0.757145  0.957166  1
  Y  Y4  1  0.000000  0.245226  0.043302  1
  Y  Y5  1  0.500000  0.108319  0.804205  1
  Y  Y6  1  0.500000  0.891183  0.195777  1
  Y  Y7  1  0.500000  0.604723  0.696776  1
  C  C8  1  0.500000  0.498273  0.499754  1
  C  C9  1  0.500000  0.002156  0.000002  1
  C  C10  1  0.000000  0.361805  0.735367  1
  C  C11  1  0.000000  0.637730  0.264429  1
  C  C12  1  0.000000  0.858220  0.763107  1
  C  C13  1  0.000000  0.142816  0.238123  1
  C  C14  1  0.000000  0.396335  0.845381  1
  C  C15  1  0.000000  0.609692  0.153772  1
  C  C16  1  0.000000  0.080766  0.343104  1
  C  C17  1  0.000000  0.911282  0.656527  1
