# generated using pymatgen
data_HoEr3Pd2(PbAu)2
_symmetry_space_group_name_H-M   'P 1'
_cell_length_a   8.00848764
_cell_length_b   8.01985255
_cell_length_c   3.61810400
_cell_angle_alpha   90.00000000
_cell_angle_beta   90.00000000
_cell_angle_gamma   89.86455588
_symmetry_Int_Tables_number   1
_chemical_formula_structural   HoEr3Pd2(PbAu)2
_chemical_formula_sum   'Ho1 Er3 Pd2 Pb2 Au2'
_cell_volume   232.37891858
_cell_formula_units_Z   1
loop_
 _symmetry_equiv_pos_site_id
 _symmetry_equiv_pos_as_xyz
  1  'x, y, z'
loop_
 _atom_site_type_symbol
 _atom_site_label
 _atom_site_symmetry_multiplicity
 _atom_site_fract_x
 _atom_site_fract_y
 _atom_site_fract_z
 _atom_site_occupancy
  Ho  Ho0  1  0.341523  0.829781  0.500000  1
  Er  Er1  1  0.675218  0.168492  0.500000  1
  Er  Er2  1  0.157718  0.328688  0.500000  1
  Er  Er3  1  0.824788  0.667754  0.500000  1
  Pd  Pd4  1  0.629885  0.875740  0.000000  1
  Pd  Pd5  1  0.870814  0.374735  0.000000  1
  Pb  Pb6  1  0.994971  0.000775  0.000000  1
  Pb  Pb7  1  0.505007  0.501617  0.000000  1
  Au  Au8  1  0.377205  0.127299  0.000000  1
  Au  Au9  1  0.122870  0.625119  0.000000  1
