# generated using pymatgen
data_La5Mg2Os3
_symmetry_space_group_name_H-M   'P 1'
_cell_length_a   8.76927312
_cell_length_b   8.76927350
_cell_length_c   8.76927400
_cell_angle_alpha   109.47121947
_cell_angle_beta   109.47122036
_cell_angle_gamma   109.47122003
_symmetry_Int_Tables_number   1
_chemical_formula_structural   La5Mg2Os3
_chemical_formula_sum   'La10 Mg4 Os6'
_cell_volume   519.12144739
_cell_formula_units_Z   2
loop_
 _symmetry_equiv_pos_site_id
 _symmetry_equiv_pos_as_xyz
  1  'x, y, z'
loop_
 _atom_site_type_symbol
 _atom_site_label
 _atom_site_symmetry_multiplicity
 _atom_site_fract_x
 _atom_site_fract_y
 _atom_site_fract_z
 _atom_site_occupancy
  La  La0  1  0.790269  0.000000  0.000000  1
  La  La1  1  0.250000  0.317720  0.067720  1
  La  La2  1  0.709733  0.709733  0.209733  1
  La  La3  1  0.182280  0.932280  0.250000  1
  La  La4  1  0.000000  0.500001  0.290268  1
  La  La5  1  0.750000  0.182280  0.432280  1
  La  La6  1  0.500001  0.790269  0.500001  1
  La  La7  1  0.932280  0.750000  0.682280  1
  La  La8  1  0.317720  0.567720  0.750000  1
  La  La9  1  0.567720  0.250000  0.817719  1
  Mg  Mg10  1  0.410516  0.000000  0.000000  1
  Mg  Mg11  1  0.500000  0.410516  0.500000  1
  Mg  Mg12  1  0.089484  0.089484  0.589484  1
  Mg  Mg13  1  0.000000  0.500000  0.910516  1
  Os  Os14  1  0.380039  0.750000  0.130039  1
  Os  Os15  1  0.630039  0.380039  0.250000  1
  Os  Os16  1  0.119961  0.250000  0.369961  1
  Os  Os17  1  0.250000  0.869961  0.619962  1
  Os  Os18  1  0.869960  0.119961  0.750000  1
  Os  Os19  1  0.750000  0.630039  0.880039  1
