# generated using pymatgen
data_Sc2Ta(SnRu2)3
_symmetry_space_group_name_H-M   'P 1'
_cell_length_a   4.52695000
_cell_length_b   6.41859200
_cell_length_c   13.60291600
_cell_angle_alpha   90.00000000
_cell_angle_beta   90.00000000
_cell_angle_gamma   90.00000000
_symmetry_Int_Tables_number   1
_chemical_formula_structural   Sc2Ta(SnRu2)3
_chemical_formula_sum   'Sc4 Ta2 Sn6 Ru12'
_cell_volume   395.25510192
_cell_formula_units_Z   2
loop_
 _symmetry_equiv_pos_site_id
 _symmetry_equiv_pos_as_xyz
  1  'x, y, z'
loop_
 _atom_site_type_symbol
 _atom_site_label
 _atom_site_symmetry_multiplicity
 _atom_site_fract_x
 _atom_site_fract_y
 _atom_site_fract_z
 _atom_site_occupancy
  Sc  Sc0  1  0.000003  0.000000  0.001059  1
  Sc  Sc1  1  0.499958  0.500001  0.167299  1
  Sc  Sc2  1  0.999958  0.000000  0.332701  1
  Sc  Sc3  1  0.500003  0.500001  0.498941  1
  Ta  Ta4  1  0.000014  0.000000  0.664971  1
  Ta  Ta5  1  0.500014  0.500001  0.835029  1
  Sn  Sn6  1  0.000008  0.500001  0.003002  1
  Sn  Sn7  1  0.500004  0.000000  0.166828  1
  Sn  Sn8  1  0.000004  0.500001  0.333172  1
  Sn  Sn9  1  0.500008  0.000000  0.496998  1
  Sn  Sn10  1  0.000008  0.500001  0.663887  1
  Sn  Sn11  1  0.500008  0.000000  0.836113  1
  Ru  Ru12  1  0.500005  0.255540  0.994710  1
  Ru  Ru13  1  0.500005  0.744460  0.994710  1
  Ru  Ru14  1  0.999982  0.248132  0.166063  1
  Ru  Ru15  1  0.999982  0.751869  0.166063  1
  Ru  Ru16  1  0.499982  0.251869  0.333937  1
  Ru  Ru17  1  0.499982  0.748131  0.333937  1
  Ru  Ru18  1  0.000005  0.244461  0.505290  1
  Ru  Ru19  1  0.000005  0.755540  0.505290  1
  Ru  Ru20  1  0.500015  0.244000  0.670826  1
  Ru  Ru21  1  0.500015  0.756000  0.670826  1
  Ru  Ru22  1  0.000017  0.256001  0.829174  1
  Ru  Ru23  1  0.000017  0.744000  0.829174  1
