# generated using pymatgen
data_La6Tb2DyRh6
_symmetry_space_group_name_H-M   'P 1'
_cell_length_a   7.64530989
_cell_length_b   7.64531068
_cell_length_c   7.64531087
_cell_angle_alpha   70.85909807
_cell_angle_beta   70.85910209
_cell_angle_gamma   70.85909531
_symmetry_Int_Tables_number   1
_chemical_formula_structural   La6Tb2DyRh6
_chemical_formula_sum   'La6 Tb2 Dy1 Rh6'
_cell_volume   386.47921274
_cell_formula_units_Z   1
loop_
 _symmetry_equiv_pos_site_id
 _symmetry_equiv_pos_as_xyz
  1  'x, y, z'
loop_
 _atom_site_type_symbol
 _atom_site_label
 _atom_site_symmetry_multiplicity
 _atom_site_fract_x
 _atom_site_fract_y
 _atom_site_fract_z
 _atom_site_occupancy
  La  La0  1  0.160180  0.389211  0.670846  1
  La  La1  1  0.670846  0.160180  0.389211  1
  La  La2  1  0.389211  0.670846  0.160180  1
  La  La3  1  0.839820  0.610789  0.329154  1
  La  La4  1  0.329154  0.839820  0.610789  1
  La  La5  1  0.610789  0.329154  0.839820  1
  Tb  Tb6  1  0.802093  0.802093  0.802093  1
  Tb  Tb7  1  0.197907  0.197907  0.197907  1
  Dy  Dy8  1  0.000000  0.000000  0.000000  1
  Rh  Rh9  1  0.958285  0.160587  0.593105  1
  Rh  Rh10  1  0.593105  0.958285  0.160587  1
  Rh  Rh11  1  0.160587  0.593105  0.958285  1
  Rh  Rh12  1  0.041715  0.839413  0.406895  1
  Rh  Rh13  1  0.406895  0.041715  0.839413  1
  Rh  Rh14  1  0.839413  0.406895  0.041715  1
