# generated using pymatgen
data_Sc12Co3Si12Tc
_symmetry_space_group_name_H-M   'P 1'
_cell_length_a   4.00192600
_cell_length_b   10.10968537
_cell_length_c   11.67507464
_cell_angle_alpha   89.72327791
_cell_angle_beta   90.00000000
_cell_angle_gamma   90.00000000
_symmetry_Int_Tables_number   1
_chemical_formula_structural   Sc12Co3Si12Tc
_chemical_formula_sum   'Sc12 Co3 Si12 Tc1'
_cell_volume   472.34714442
_cell_formula_units_Z   1
loop_
 _symmetry_equiv_pos_site_id
 _symmetry_equiv_pos_as_xyz
  1  'x, y, z'
loop_
 _atom_site_type_symbol
 _atom_site_label
 _atom_site_symmetry_multiplicity
 _atom_site_fract_x
 _atom_site_fract_y
 _atom_site_fract_z
 _atom_site_occupancy
  Sc  Sc0  1  0.250000  0.880333  0.022170  1
  Sc  Sc1  1  0.250000  0.616461  0.522244  1
  Sc  Sc2  1  0.750000  0.122920  0.977182  1
  Sc  Sc3  1  0.750000  0.379464  0.474440  1
  Sc  Sc4  1  0.250000  0.918836  0.603157  1
  Sc  Sc5  1  0.250000  0.578823  0.102038  1
  Sc  Sc6  1  0.750000  0.079200  0.399835  1
  Sc  Sc7  1  0.750000  0.421823  0.903259  1
  Sc  Sc8  1  0.250000  0.651558  0.799081  1
  Sc  Sc9  1  0.250000  0.842396  0.300227  1
  Sc  Sc10  1  0.750000  0.342248  0.199985  1
  Sc  Sc11  1  0.750000  0.169578  0.699971  1
  Co  Co12  1  0.250000  0.387462  0.674847  1
  Co  Co13  1  0.250000  0.111336  0.177975  1
  Co  Co14  1  0.750000  0.609915  0.323092  1
  Si  Si15  1  0.250000  0.018633  0.820405  1
  Si  Si16  1  0.250000  0.493230  0.321074  1
  Si  Si17  1  0.750000  0.994060  0.179155  1
  Si  Si18  1  0.750000  0.501399  0.678324  1
  Si  Si19  1  0.250000  0.259376  0.839426  1
  Si  Si20  1  0.250000  0.247395  0.337058  1
  Si  Si21  1  0.750000  0.747171  0.163447  1
  Si  Si22  1  0.750000  0.744955  0.656831  1
  Si  Si23  1  0.250000  0.197511  0.544141  1
  Si  Si24  1  0.250000  0.300779  0.047327  1
  Si  Si25  1  0.750000  0.798323  0.452871  1
  Si  Si26  1  0.750000  0.693795  0.958092  1
  Tc  Tc27  1  0.750000  0.891019  0.822350  1
