# generated using pymatgen
data_ZnInGa(Ni10B3)2
_symmetry_space_group_name_H-M   'P 1'
_cell_length_a   7.46367152
_cell_length_b   7.46367130
_cell_length_c   7.46367100
_cell_angle_alpha   59.99999691
_cell_angle_beta   59.99999786
_cell_angle_gamma   60.00000019
_symmetry_Int_Tables_number   1
_chemical_formula_structural   ZnInGa(Ni10B3)2
_chemical_formula_sum   'Zn1 In1 Ga1 Ni20 B6'
_cell_volume   293.99672700
_cell_formula_units_Z   1
loop_
 _symmetry_equiv_pos_site_id
 _symmetry_equiv_pos_as_xyz
  1  'x, y, z'
loop_
 _atom_site_type_symbol
 _atom_site_label
 _atom_site_symmetry_multiplicity
 _atom_site_fract_x
 _atom_site_fract_y
 _atom_site_fract_z
 _atom_site_occupancy
  Zn  Zn0  1  0.000000  0.000000  0.000000  1
  In  In1  1  0.750000  0.750000  0.750000  1
  Ga  Ga2  1  0.250000  0.250000  0.250000  1
  Ni  Ni3  1  0.611755  0.611755  0.164733  1
  Ni  Ni4  1  0.611755  0.164733  0.611755  1
  Ni  Ni5  1  0.164733  0.611755  0.611755  1
  Ni  Ni6  1  0.611755  0.611755  0.611755  1
  Ni  Ni7  1  0.381081  0.381081  0.856758  1
  Ni  Ni8  1  0.381081  0.856758  0.381081  1
  Ni  Ni9  1  0.856758  0.381081  0.381081  1
  Ni  Ni10  1  0.381081  0.381081  0.381081  1
  Ni  Ni11  1  0.000830  0.000830  0.336864  1
  Ni  Ni12  1  0.661475  0.000830  0.336864  1
  Ni  Ni13  1  0.000830  0.661475  0.336864  1
  Ni  Ni14  1  0.661475  0.336864  0.000830  1
  Ni  Ni15  1  0.000830  0.336864  0.000830  1
  Ni  Ni16  1  0.000830  0.336864  0.661475  1
  Ni  Ni17  1  0.336864  0.661475  0.000830  1
  Ni  Ni18  1  0.336864  0.000830  0.661475  1
  Ni  Ni19  1  0.336864  0.000830  0.000830  1
  Ni  Ni20  1  0.000830  0.000830  0.661475  1
  Ni  Ni21  1  0.000830  0.661475  0.000830  1
  Ni  Ni22  1  0.661475  0.000830  0.000830  1
  B  B23  1  0.726595  0.726595  0.273405  1
  B  B24  1  0.273405  0.726595  0.273405  1
  B  B25  1  0.726595  0.273405  0.273405  1
  B  B26  1  0.273405  0.273405  0.726595  1
  B  B27  1  0.726595  0.273405  0.726595  1
  B  B28  1  0.273405  0.726595  0.726595  1
