# generated using pymatgen
data_HoPu7(Si3Ni)4
_symmetry_space_group_name_H-M   'P 1'
_cell_length_a   7.82473400
_cell_length_b   7.81065503
_cell_length_c   8.23982100
_cell_angle_alpha   90.00000000
_cell_angle_beta   90.00000000
_cell_angle_gamma   119.94050880
_symmetry_Int_Tables_number   1
_chemical_formula_structural   HoPu7(Si3Ni)4
_chemical_formula_sum   'Ho1 Pu7 Si12 Ni4'
_cell_volume   436.38064959
_cell_formula_units_Z   1
loop_
 _symmetry_equiv_pos_site_id
 _symmetry_equiv_pos_as_xyz
  1  'x, y, z'
loop_
 _atom_site_type_symbol
 _atom_site_label
 _atom_site_symmetry_multiplicity
 _atom_site_fract_x
 _atom_site_fract_y
 _atom_site_fract_z
 _atom_site_occupancy
  Ho  Ho0  1  0.999960  0.499984  0.750000  1
  Pu  Pu1  1  0.999999  0.000002  0.250000  1
  Pu  Pu2  1  0.000000  0.000004  0.750000  1
  Pu  Pu3  1  0.499986  0.500013  0.250000  1
  Pu  Pu4  1  0.499985  0.999977  0.250000  1
  Pu  Pu5  1  0.000021  0.500014  0.250000  1
  Pu  Pu6  1  0.500006  0.499996  0.750000  1
  Pu  Pu7  1  0.500005  0.000014  0.750000  1
  Si  Si8  1  0.170540  0.830585  0.498308  1
  Si  Si9  1  0.170323  0.339587  0.498353  1
  Si  Si10  1  0.659041  0.829575  0.498430  1
  Si  Si11  1  0.829461  0.169417  0.498308  1
  Si  Si12  1  0.829674  0.660416  0.498352  1
  Si  Si13  1  0.340965  0.170434  0.498434  1
  Si  Si14  1  0.829461  0.169417  0.001692  1
  Si  Si15  1  0.829674  0.660416  0.001648  1
  Si  Si16  1  0.340965  0.170434  0.001566  1
  Si  Si17  1  0.170540  0.830585  0.001692  1
  Si  Si18  1  0.170323  0.339587  0.001647  1
  Si  Si19  1  0.659041  0.829575  0.001570  1
  Ni  Ni20  1  0.332106  0.665794  0.505799  1
  Ni  Ni21  1  0.667905  0.334191  0.505701  1
  Ni  Ni22  1  0.667905  0.334191  0.994299  1
  Ni  Ni23  1  0.332106  0.665794  0.994201  1
