# generated using pymatgen
data_Ce3PrAl17SiIr6
_symmetry_space_group_name_H-M   'P 1'
_cell_length_a   7.62983739
_cell_length_b   7.62098586
_cell_length_c   9.49280120
_cell_angle_alpha   89.97604940
_cell_angle_beta   89.93278204
_cell_angle_gamma   119.62658610
_symmetry_Int_Tables_number   1
_chemical_formula_structural   Ce3PrAl17SiIr6
_chemical_formula_sum   'Ce3 Pr1 Al17 Si1 Ir6'
_cell_volume   479.81381889
_cell_formula_units_Z   1
loop_
 _symmetry_equiv_pos_site_id
 _symmetry_equiv_pos_as_xyz
  1  'x, y, z'
loop_
 _atom_site_type_symbol
 _atom_site_label
 _atom_site_symmetry_multiplicity
 _atom_site_fract_x
 _atom_site_fract_y
 _atom_site_fract_z
 _atom_site_occupancy
  Ce  Ce0  1  0.002914  0.328575  0.753706  1
  Ce  Ce1  1  0.676179  0.002689  0.248026  1
  Ce  Ce2  1  0.328662  0.003647  0.749088  1
  Pr  Pr3  1  0.993804  0.665604  0.248368  1
  Al  Al4  1  0.130659  0.132067  0.250026  1
  Al  Al5  1  0.869608  0.870857  0.749402  1
  Al  Al6  1  0.996609  0.668800  0.922569  1
  Al  Al7  1  0.997578  0.664893  0.575529  1
  Al  Al8  1  0.334947  0.001476  0.425745  1
  Al  Al9  1  0.004068  0.335975  0.432065  1
  Al  Al10  1  0.664014  0.997480  0.574554  1
  Al  Al11  1  0.658534  0.991670  0.922897  1
  Al  Al12  1  0.334281  0.001282  0.074064  1
  Al  Al13  1  0.335711  0.334892  0.551812  1
  Al  Al14  1  0.666402  0.667070  0.449107  1
  Al  Al15  1  0.665335  0.666035  0.052241  1
  Al  Al16  1  0.338296  0.334446  0.948308  1
  Al  Al17  1  0.344592  0.550441  0.250466  1
  Al  Al18  1  0.659610  0.451505  0.750290  1
  Al  Al19  1  0.544974  0.339422  0.250180  1
  Al  Al20  1  0.450378  0.655888  0.749561  1
  Si  Si21  1  0.003617  0.334946  0.071716  1
  Ir  Ir22  1  0.678887  0.326972  0.000663  1
  Ir  Ir23  1  0.319982  0.663243  0.998472  1
  Ir  Ir24  1  0.328399  0.671432  0.501231  1
  Ir  Ir25  1  0.671853  0.327596  0.500329  1
  Ir  Ir26  1  0.999370  0.008562  0.998579  1
  Ir  Ir27  1  0.000742  0.002536  0.501006  1
