# generated using pymatgen
data_TaMo(IrRh)3
_symmetry_space_group_name_H-M   'P 1'
_cell_length_a   5.55174600
_cell_length_b   5.55999947
_cell_length_c   4.42930800
_cell_angle_alpha   90.00000000
_cell_angle_beta   90.00000000
_cell_angle_gamma   119.95090735
_symmetry_Int_Tables_number   1
_chemical_formula_structural   TaMo(IrRh)3
_chemical_formula_sum   'Ta1 Mo1 Ir3 Rh3'
_cell_volume   118.46375092
_cell_formula_units_Z   1
loop_
 _symmetry_equiv_pos_site_id
 _symmetry_equiv_pos_as_xyz
  1  'x, y, z'
loop_
 _atom_site_type_symbol
 _atom_site_label
 _atom_site_symmetry_multiplicity
 _atom_site_fract_x
 _atom_site_fract_y
 _atom_site_fract_z
 _atom_site_occupancy
  Ta  Ta0  1  0.665893  0.331786  0.750000  1
  Mo  Mo1  1  0.333127  0.666256  0.250000  1
  Ir  Ir2  1  0.836512  0.673023  0.250000  1
  Ir  Ir3  1  0.166806  0.832728  0.750000  1
  Ir  Ir4  1  0.665922  0.832728  0.750000  1
  Rh  Rh5  1  0.328890  0.164601  0.250000  1
  Rh  Rh6  1  0.835711  0.164601  0.250000  1
  Rh  Rh7  1  0.167138  0.334275  0.750000  1
