# generated using pymatgen
data_Eu2Zn2PPt6
_symmetry_space_group_name_H-M   'P 1'
_cell_length_a   9.33819465
_cell_length_b   9.33819411
_cell_length_c   4.10252500
_cell_angle_alpha   90.00000000
_cell_angle_beta   90.00000000
_cell_angle_gamma   145.57866859
_symmetry_Int_Tables_number   1
_chemical_formula_structural   Eu2Zn2PPt6
_chemical_formula_sum   'Eu2 Zn2 P1 Pt6'
_cell_volume   202.22562512
_cell_formula_units_Z   1
loop_
 _symmetry_equiv_pos_site_id
 _symmetry_equiv_pos_as_xyz
  1  'x, y, z'
loop_
 _atom_site_type_symbol
 _atom_site_label
 _atom_site_symmetry_multiplicity
 _atom_site_fract_x
 _atom_site_fract_y
 _atom_site_fract_z
 _atom_site_occupancy
  Eu  Eu0  1  0.612242  0.378335  0.500000  1
  Eu  Eu1  1  0.378335  0.612242  0.500000  1
  Zn  Zn2  1  0.193982  0.791394  0.500000  1
  Zn  Zn3  1  0.791394  0.193982  0.500000  1
  P  P4  1  0.225590  0.225590  0.000000  1
  Pt  Pt5  1  0.109977  0.884126  0.000000  1
  Pt  Pt6  1  0.884126  0.109977  0.000000  1
  Pt  Pt7  1  0.491454  0.988033  0.000000  1
  Pt  Pt8  1  0.988033  0.491454  0.000000  1
  Pt  Pt9  1  0.002178  0.002178  0.500000  1
  Pt  Pt10  1  0.636288  0.636288  0.000000  1
