# generated using pymatgen
data_Ti5HS5
_symmetry_space_group_name_H-M   'P 1'
_cell_length_a   4.60174928
_cell_length_b   4.60154474
_cell_length_c   7.32761185
_cell_angle_alpha   90.85134605
_cell_angle_beta   90.86152033
_cell_angle_gamma   76.57607361
_symmetry_Int_Tables_number   1
_chemical_formula_structural   Ti5HS5
_chemical_formula_sum   'Ti5 H1 S5'
_cell_volume   150.89673410
_cell_formula_units_Z   1
loop_
 _symmetry_equiv_pos_site_id
 _symmetry_equiv_pos_as_xyz
  1  'x, y, z'
loop_
 _atom_site_type_symbol
 _atom_site_label
 _atom_site_symmetry_multiplicity
 _atom_site_fract_x
 _atom_site_fract_y
 _atom_site_fract_z
 _atom_site_occupancy
  Ti  Ti0  1  0.536238  0.511529  0.269959  1
  Ti  Ti1  1  0.336638  0.310645  0.669026  1
  Ti  Ti2  1  0.133991  0.115404  0.070111  1
  Ti  Ti3  1  0.732202  0.714001  0.868478  1
  Ti  Ti4  1  0.939047  0.908267  0.469207  1
  H  H5  1  0.268599  0.573700  0.468579  1
  S  S6  1  0.997150  0.647942  0.164037  1
  S  S7  1  0.199903  0.849812  0.774499  1
  S  S8  1  0.600444  0.247778  0.969523  1
  S  S9  1  0.805953  0.437558  0.573800  1
  S  S10  1  0.409449  0.041568  0.364962  1
