# generated using pymatgen
data_HoEr3C2Cl3
_symmetry_space_group_name_H-M   'P 1'
_cell_length_a   3.61990200
_cell_length_b   10.38812400
_cell_length_c   19.53125200
_cell_angle_alpha   90.00000000
_cell_angle_beta   90.00000000
_cell_angle_gamma   90.00000000
_symmetry_Int_Tables_number   1
_chemical_formula_structural   HoEr3C2Cl3
_chemical_formula_sum   'Ho4 Er12 C8 Cl12'
_cell_volume   734.45302138
_cell_formula_units_Z   4
loop_
 _symmetry_equiv_pos_site_id
 _symmetry_equiv_pos_as_xyz
  1  'x, y, z'
loop_
 _atom_site_type_symbol
 _atom_site_label
 _atom_site_symmetry_multiplicity
 _atom_site_fract_x
 _atom_site_fract_y
 _atom_site_fract_z
 _atom_site_occupancy
  Ho  Ho0  1  0.250000  0.138316  0.573729  1
  Ho  Ho1  1  0.250000  0.638316  0.926271  1
  Ho  Ho2  1  0.750000  0.861684  0.426271  1
  Ho  Ho3  1  0.750000  0.361684  0.073729  1
  Er  Er4  1  0.250000  0.637075  0.756381  1
  Er  Er5  1  0.250000  0.137075  0.743619  1
  Er  Er6  1  0.750000  0.362925  0.243619  1
  Er  Er7  1  0.750000  0.862925  0.256381  1
  Er  Er8  1  0.250000  0.100514  0.331288  1
  Er  Er9  1  0.250000  0.600514  0.168712  1
  Er  Er10  1  0.750000  0.899486  0.668712  1
  Er  Er11  1  0.750000  0.399486  0.831288  1
  Er  Er12  1  0.250000  0.125392  0.165233  1
  Er  Er13  1  0.250000  0.625392  0.334767  1
  Er  Er14  1  0.750000  0.874608  0.834767  1
  Er  Er15  1  0.750000  0.374608  0.665233  1
  C  C16  1  0.250000  0.864382  0.347325  1
  C  C17  1  0.250000  0.364382  0.152675  1
  C  C18  1  0.750000  0.135618  0.652675  1
  C  C19  1  0.750000  0.635618  0.847325  1
  C  C20  1  0.250000  0.387499  0.750046  1
  C  C21  1  0.250000  0.887499  0.749954  1
  C  C22  1  0.750000  0.612501  0.249954  1
  C  C23  1  0.750000  0.112501  0.250046  1
  Cl  Cl24  1  0.250000  0.376432  0.952213  1
  Cl  Cl25  1  0.250000  0.876432  0.547787  1
  Cl  Cl26  1  0.750000  0.623568  0.047787  1
  Cl  Cl27  1  0.750000  0.123568  0.452213  1
  Cl  Cl28  1  0.250000  0.888459  0.944249  1
  Cl  Cl29  1  0.250000  0.388459  0.555751  1
  Cl  Cl30  1  0.750000  0.111541  0.055751  1
  Cl  Cl31  1  0.750000  0.611541  0.444249  1
  Cl  Cl32  1  0.250000  0.361102  0.353761  1
  Cl  Cl33  1  0.250000  0.861102  0.146239  1
  Cl  Cl34  1  0.750000  0.638898  0.646239  1
  Cl  Cl35  1  0.750000  0.138898  0.853761  1
