# generated using pymatgen
data_Dy5Sc3Tc2(B12Ir)2
_symmetry_space_group_name_H-M   'P 1'
_cell_length_a   3.60173300
_cell_length_b   9.02693223
_cell_length_c   11.41747758
_cell_angle_alpha   90.11168530
_cell_angle_beta   90.00000000
_cell_angle_gamma   90.00000000
_symmetry_Int_Tables_number   1
_chemical_formula_structural   Dy5Sc3Tc2(B12Ir)2
_chemical_formula_sum   'Dy5 Sc3 Tc2 B24 Ir2'
_cell_volume   371.21117278
_cell_formula_units_Z   1
loop_
 _symmetry_equiv_pos_site_id
 _symmetry_equiv_pos_as_xyz
  1  'x, y, z'
loop_
 _atom_site_type_symbol
 _atom_site_label
 _atom_site_symmetry_multiplicity
 _atom_site_fract_x
 _atom_site_fract_y
 _atom_site_fract_z
 _atom_site_occupancy
  Dy  Dy0  1  0.500000  0.315105  0.412357  1
  Dy  Dy1  1  0.500000  0.684246  0.589144  1
  Dy  Dy2  1  0.500000  0.174817  0.915563  1
  Dy  Dy3  1  0.500000  0.825018  0.082416  1
  Dy  Dy4  1  0.500000  0.441977  0.124999  1
  Sc  Sc5  1  0.500000  0.560561  0.872420  1
  Sc  Sc6  1  0.500000  0.051413  0.627205  1
  Sc  Sc7  1  0.500000  0.948601  0.373842  1
  Tc  Tc8  1  0.500000  0.135704  0.182871  1
  Tc  Tc9  1  0.500000  0.860417  0.816879  1
  B  B10  1  0.000000  0.098912  0.474078  1
  B  B11  1  0.000000  0.900938  0.527009  1
  B  B12  1  0.000000  0.399373  0.968348  1
  B  B13  1  0.000000  0.604262  0.025064  1
  B  B14  1  0.000000  0.127673  0.317985  1
  B  B15  1  0.000000  0.871270  0.682739  1
  B  B16  1  0.000000  0.370992  0.816871  1
  B  B17  1  0.000000  0.632935  0.183777  1
  B  B18  1  0.000000  0.051969  0.067510  1
  B  B19  1  0.000000  0.945365  0.931712  1
  B  B20  1  0.000000  0.444746  0.566570  1
  B  B21  1  0.000000  0.555888  0.434684  1
  B  B22  1  0.000000  0.483030  0.288295  1
  B  B23  1  0.000000  0.518618  0.713890  1
  B  B24  1  0.000000  0.018691  0.784669  1
  B  B25  1  0.000000  0.980462  0.215616  1
  B  B26  1  0.000000  0.246993  0.081333  1
  B  B27  1  0.000000  0.748844  0.917536  1
  B  B28  1  0.000000  0.245900  0.580079  1
  B  B29  1  0.000000  0.755001  0.420933  1
  B  B30  1  0.000000  0.290572  0.236289  1
  B  B31  1  0.000000  0.706256  0.764592  1
  B  B32  1  0.000000  0.206593  0.734179  1
  B  B33  1  0.000000  0.794593  0.266594  1
  Ir  Ir34  1  0.500000  0.360857  0.679579  1
  Ir  Ir35  1  0.500000  0.641408  0.322371  1
