# generated using pymatgen
data_Er8Hf12Si15Ir
_symmetry_space_group_name_H-M   'P 1'
_cell_length_a   7.27018720
_cell_length_b   7.26547169
_cell_length_c   13.36652593
_cell_angle_alpha   90.07589467
_cell_angle_beta   89.93669468
_cell_angle_gamma   89.98252767
_symmetry_Int_Tables_number   1
_chemical_formula_structural   Er8Hf12Si15Ir
_chemical_formula_sum   'Er8 Hf12 Si15 Ir1'
_cell_volume   706.03671822
_cell_formula_units_Z   1
loop_
 _symmetry_equiv_pos_site_id
 _symmetry_equiv_pos_as_xyz
  1  'x, y, z'
loop_
 _atom_site_type_symbol
 _atom_site_label
 _atom_site_symmetry_multiplicity
 _atom_site_fract_x
 _atom_site_fract_y
 _atom_site_fract_z
 _atom_site_occupancy
  Er  Er0  1  0.496052  0.154481  0.534997  1
  Er  Er1  1  0.501262  0.843908  0.034658  1
  Er  Er2  1  0.655333  0.004977  0.284384  1
  Er  Er3  1  0.345026  0.995531  0.784241  1
  Er  Er4  1  0.847944  0.503715  0.965135  1
  Er  Er5  1  0.153314  0.495374  0.464777  1
  Er  Er6  1  0.004298  0.653676  0.715183  1
  Er  Er7  1  0.994058  0.343540  0.213321  1
  Hf  Hf8  1  0.676403  0.323796  0.748706  1
  Hf  Hf9  1  0.324753  0.674335  0.250216  1
  Hf  Hf10  1  0.824076  0.824351  0.500101  1
  Hf  Hf11  1  0.170583  0.175922  0.002220  1
  Hf  Hf12  1  0.505100  0.348910  0.123860  1
  Hf  Hf13  1  0.502796  0.647837  0.625482  1
  Hf  Hf14  1  0.849786  0.004997  0.877372  1
  Hf  Hf15  1  0.148509  0.997210  0.375717  1
  Hf  Hf16  1  0.646711  0.502742  0.375759  1
  Hf  Hf17  1  0.351651  0.500266  0.873953  1
  Hf  Hf18  1  0.001088  0.856351  0.127873  1
  Hf  Hf19  1  0.996830  0.146578  0.623626  1
  Si  Si20  1  0.204961  0.858801  0.569011  1
  Si  Si21  1  0.641151  0.703462  0.817255  1
  Si  Si22  1  0.359317  0.295521  0.317675  1
  Si  Si23  1  0.859100  0.203851  0.432635  1
  Si  Si24  1  0.141571  0.796419  0.931532  1
  Si  Si25  1  0.699746  0.642379  0.184873  1
  Si  Si26  1  0.295680  0.359203  0.681956  1
  Si  Si27  1  0.545877  0.207309  0.933540  1
  Si  Si28  1  0.450215  0.795817  0.435889  1
  Si  Si29  1  0.704011  0.950611  0.685572  1
  Si  Si30  1  0.298174  0.049717  0.188019  1
  Si  Si31  1  0.796415  0.451040  0.564333  1
  Si  Si32  1  0.208216  0.551976  0.063607  1
  Si  Si33  1  0.950126  0.703844  0.315650  1
  Si  Si34  1  0.051530  0.294998  0.811681  1
  Ir  Ir35  1  0.798337  0.136556  0.065188  1
