# generated using pymatgen
data_Ba2TmLu(Ge4N7)2
_symmetry_space_group_name_H-M   'P 1'
_cell_length_a   6.30729100
_cell_length_b   6.30728968
_cell_length_c   10.29810300
_cell_angle_alpha   90.00000000
_cell_angle_beta   90.00000000
_cell_angle_gamma   120.00000168
_symmetry_Int_Tables_number   1
_chemical_formula_structural   Ba2TmLu(Ge4N7)2
_chemical_formula_sum   'Ba2 Tm1 Lu1 Ge8 N14'
_cell_volume   354.79174120
_cell_formula_units_Z   1
loop_
 _symmetry_equiv_pos_site_id
 _symmetry_equiv_pos_as_xyz
  1  'x, y, z'
loop_
 _atom_site_type_symbol
 _atom_site_label
 _atom_site_symmetry_multiplicity
 _atom_site_fract_x
 _atom_site_fract_y
 _atom_site_fract_z
 _atom_site_occupancy
  Ba  Ba0  1  0.333333  0.666667  0.363418  1
  Ba  Ba1  1  0.666667  0.333333  0.863869  1
  Tm  Tm2  1  0.333333  0.666667  0.736746  1
  Lu  Lu3  1  0.666667  0.333333  0.236724  1
  Ge  Ge4  1  0.826152  0.652303  0.546506  1
  Ge  Ge5  1  0.173719  0.826281  0.047346  1
  Ge  Ge6  1  0.652561  0.826281  0.047346  1
  Ge  Ge7  1  0.347697  0.173848  0.546506  1
  Ge  Ge8  1  0.826152  0.173848  0.546506  1
  Ge  Ge9  1  0.173719  0.347439  0.047346  1
  Ge  Ge10  1  0.000000  0.000000  0.812041  1
  Ge  Ge11  1  0.000000  0.000000  0.311779  1
  N  N12  1  0.000000  0.000000  0.619225  1
  N  N13  1  0.000000  0.000000  0.119602  1
  N  N14  1  0.160067  0.320134  0.868015  1
  N  N15  1  0.839525  0.160475  0.367011  1
  N  N16  1  0.320950  0.160475  0.367011  1
  N  N17  1  0.679866  0.839933  0.868015  1
  N  N18  1  0.160067  0.839933  0.868015  1
  N  N19  1  0.839525  0.679050  0.367011  1
  N  N20  1  0.989691  0.494846  0.605936  1
  N  N21  1  0.495424  0.990847  0.106651  1
  N  N22  1  0.495424  0.504576  0.106651  1
  N  N23  1  0.505154  0.494846  0.605936  1
  N  N24  1  0.009153  0.504576  0.106651  1
  N  N25  1  0.505154  0.010309  0.605936  1
