# generated using pymatgen
data_Gd2Y3Er3(WO6)4
_symmetry_space_group_name_H-M   'P 1'
_cell_length_a   5.41708674
_cell_length_b   7.73200841
_cell_length_c   11.46948555
_cell_angle_alpha   75.54453448
_cell_angle_beta   90.00269162
_cell_angle_gamma   89.94275361
_symmetry_Int_Tables_number   1
_chemical_formula_structural   Gd2Y3Er3(WO6)4
_chemical_formula_sum   'Gd2 Y3 Er3 W4 O24'
_cell_volume   465.19020415
_cell_formula_units_Z   1
loop_
 _symmetry_equiv_pos_site_id
 _symmetry_equiv_pos_as_xyz
  1  'x, y, z'
loop_
 _atom_site_type_symbol
 _atom_site_label
 _atom_site_symmetry_multiplicity
 _atom_site_fract_x
 _atom_site_fract_y
 _atom_site_fract_z
 _atom_site_occupancy
  Gd  Gd0  1  0.684379  0.500439  0.249159  1
  Gd  Gd1  1  0.316508  0.500362  0.750359  1
  Y  Y2  1  0.183405  0.205332  0.422371  1
  Y  Y3  1  0.742182  0.999530  0.248947  1
  Y  Y4  1  0.257760  0.999786  0.750815  1
  Er  Er5  1  0.182999  0.793628  0.078065  1
  Er  Er6  1  0.816457  0.793538  0.578195  1
  Er  Er7  1  0.817741  0.206475  0.921971  1
  W  W8  1  0.256537  0.274758  0.114343  1
  W  W9  1  0.255669  0.725565  0.385042  1
  W  W10  1  0.744159  0.725479  0.884834  1
  W  W11  1  0.744299  0.274769  0.615975  1
  O  O12  1  0.456751  0.207301  0.272198  1
  O  O13  1  0.454436  0.793334  0.226060  1
  O  O14  1  0.545099  0.792997  0.726361  1
  O  O15  1  0.545754  0.207433  0.774561  1
  O  O16  1  0.048236  0.059168  0.102901  1
  O  O17  1  0.043824  0.938671  0.396531  1
  O  O18  1  0.952008  0.940828  0.896791  1
  O  O19  1  0.951564  0.058596  0.604594  1
  O  O20  1  0.982037  0.286177  0.227658  1
  O  O21  1  0.983102  0.713430  0.270125  1
  O  O22  1  0.017408  0.714499  0.770668  1
  O  O23  1  0.018329  0.285783  0.729675  1
  O  O24  1  0.848102  0.363485  0.452963  1
  O  O25  1  0.851094  0.637397  0.047606  1
  O  O26  1  0.148671  0.636823  0.547594  1
  O  O27  1  0.149366  0.363495  0.951883  1
  O  O28  1  0.645459  0.509354  0.614903  1
  O  O29  1  0.646174  0.491048  0.886076  1
  O  O30  1  0.356967  0.492029  0.385888  1
  O  O31  1  0.354647  0.509301  0.113802  1
  O  O32  1  0.463871  0.155604  0.570491  1
  O  O33  1  0.461877  0.842436  0.931670  1
  O  O34  1  0.535627  0.844497  0.431568  1
  O  O35  1  0.537507  0.156652  0.067360  1
