# generated using pymatgen
data_YHo3V4F28
_symmetry_space_group_name_H-M   'P 1'
_cell_length_a   5.52679602
_cell_length_b   8.81095880
_cell_length_c   11.77633735
_cell_angle_alpha   63.69838137
_cell_angle_beta   89.99929968
_cell_angle_gamma   90.00838579
_symmetry_Int_Tables_number   1
_chemical_formula_structural   YHo3V4F28
_chemical_formula_sum   'Y1 Ho3 V4 F28'
_cell_volume   514.09631975
_cell_formula_units_Z   1
loop_
 _symmetry_equiv_pos_site_id
 _symmetry_equiv_pos_as_xyz
  1  'x, y, z'
loop_
 _atom_site_type_symbol
 _atom_site_label
 _atom_site_symmetry_multiplicity
 _atom_site_fract_x
 _atom_site_fract_y
 _atom_site_fract_z
 _atom_site_occupancy
  Y  Y0  1  0.757398  0.807199  0.772138  1
  Ho  Ho1  1  0.257780  0.194619  0.727282  1
  Ho  Ho2  1  0.242570  0.193635  0.227441  1
  Ho  Ho3  1  0.742509  0.807038  0.272295  1
  V  V4  1  0.752989  0.272760  0.953744  1
  V  V5  1  0.252559  0.726321  0.545697  1
  V  V6  1  0.246800  0.726521  0.047357  1
  V  V7  1  0.746824  0.273987  0.453119  1
  F  F8  1  0.455735  0.704833  0.927774  1
  F  F9  1  0.957333  0.294658  0.572598  1
  F  F10  1  0.542718  0.294526  0.072875  1
  F  F11  1  0.042958  0.704998  0.426224  1
  F  F12  1  0.468460  0.287380  0.545523  1
  F  F13  1  0.968134  0.712576  0.955763  1
  F  F14  1  0.531971  0.712917  0.453914  1
  F  F15  1  0.031629  0.286618  0.045908  1
  F  F16  1  0.764724  0.504956  0.861123  1
  F  F17  1  0.263680  0.493797  0.638484  1
  F  F18  1  0.236426  0.493955  0.139655  1
  F  F19  1  0.736315  0.506200  0.360761  1
  F  F20  1  0.755388  0.043684  0.044195  1
  F  F21  1  0.255484  0.955395  0.455674  1
  F  F22  1  0.244322  0.955497  0.956909  1
  F  F23  1  0.743848  0.044735  0.543545  1
  F  F24  1  0.981233  0.732124  0.642685  1
  F  F25  1  0.482034  0.267434  0.855985  1
  F  F26  1  0.017020  0.266866  0.355499  1
  F  F27  1  0.517846  0.732871  0.144779  1
  F  F28  1  0.039114  0.748132  0.169761  1
  F  F29  1  0.538087  0.251982  0.331063  1
  F  F30  1  0.961129  0.251000  0.831329  1
  F  F31  1  0.458717  0.747461  0.668703  1
  F  F32  1  0.431362  0.976322  0.233928  1
  F  F33  1  0.931394  0.024122  0.266065  1
  F  F34  1  0.570151  0.026697  0.766778  1
  F  F35  1  0.073359  0.976184  0.733428  1
