# generated using pymatgen
data_Tb4Dy5ErRu4
_symmetry_space_group_name_H-M   'P 1'
_cell_length_a   6.37526490
_cell_length_b   7.27187312
_cell_length_c   8.51085566
_cell_angle_alpha   96.63840165
_cell_angle_beta   111.99570970
_cell_angle_gamma   89.99999521
_symmetry_Int_Tables_number   1
_chemical_formula_structural   Tb4Dy5ErRu4
_chemical_formula_sum   'Tb4 Dy5 Er1 Ru4'
_cell_volume   362.99009593
_cell_formula_units_Z   1
loop_
 _symmetry_equiv_pos_site_id
 _symmetry_equiv_pos_as_xyz
  1  'x, y, z'
loop_
 _atom_site_type_symbol
 _atom_site_label
 _atom_site_symmetry_multiplicity
 _atom_site_fract_x
 _atom_site_fract_y
 _atom_site_fract_z
 _atom_site_occupancy
  Tb  Tb0  1  0.791066  0.583760  0.813146  1
  Tb  Tb1  1  0.977920  0.916240  0.186854  1
  Tb  Tb2  1  0.208351  0.415057  0.186662  1
  Tb  Tb3  1  0.021689  0.084943  0.813338  1
  Dy  Dy4  1  0.205977  0.685137  0.566318  1
  Dy  Dy5  1  0.639658  0.814863  0.433682  1
  Dy  Dy6  1  0.793733  0.314501  0.433134  1
  Dy  Dy7  1  0.360600  0.185499  0.566866  1
  Dy  Dy8  1  0.421312  0.750000  0.000000  1
  Er  Er9  1  0.578470  0.250000  0.000000  1
  Ru  Ru10  1  0.602928  0.924995  0.779493  1
  Ru  Ru11  1  0.823435  0.575005  0.220507  1
  Ru  Ru12  1  0.397772  0.076440  0.220685  1
  Ru  Ru13  1  0.177088  0.423560  0.779315  1
