# generated using pymatgen
data_Lu10Tl3In5(NiRu)2
_symmetry_space_group_name_H-M   'P 1'
_cell_length_a   3.53067200
_cell_length_b   7.92685191
_cell_length_c   17.98585077
_cell_angle_alpha   89.81086841
_cell_angle_beta   90.00000000
_cell_angle_gamma   90.00000000
_symmetry_Int_Tables_number   1
_chemical_formula_structural   Lu10Tl3In5(NiRu)2
_chemical_formula_sum   'Lu10 Tl3 In5 Ni2 Ru2'
_cell_volume   503.36931479
_cell_formula_units_Z   1
loop_
 _symmetry_equiv_pos_site_id
 _symmetry_equiv_pos_as_xyz
  1  'x, y, z'
loop_
 _atom_site_type_symbol
 _atom_site_label
 _atom_site_symmetry_multiplicity
 _atom_site_fract_x
 _atom_site_fract_y
 _atom_site_fract_z
 _atom_site_occupancy
  Lu  Lu0  1  0.000000  0.882565  0.087600  1
  Lu  Lu1  1  0.000000  0.756602  0.279421  1
  Lu  Lu2  1  0.000000  0.746936  0.778986  1
  Lu  Lu3  1  0.000000  0.383894  0.411465  1
  Lu  Lu4  1  0.000000  0.117060  0.912169  1
  Lu  Lu5  1  0.000000  0.243636  0.720602  1
  Lu  Lu6  1  0.000000  0.500299  0.999979  1
  Lu  Lu7  1  0.000000  0.253029  0.221045  1
  Lu  Lu8  1  0.000000  0.616093  0.588555  1
  Lu  Lu9  1  0.000000  0.000019  0.499996  1
  Tl  Tl10  1  0.500000  0.206999  0.066786  1
  Tl  Tl11  1  0.500000  0.426082  0.848993  1
  Tl  Tl12  1  0.500000  0.574972  0.151207  1
  In  In13  1  0.500000  0.073291  0.349997  1
  In  In14  1  0.500000  0.926616  0.649977  1
  In  In15  1  0.500000  0.793412  0.932522  1
  In  In16  1  0.500000  0.706060  0.432947  1
  In  In17  1  0.500000  0.293946  0.567077  1
  Ni  Ni18  1  0.500000  0.524779  0.695052  1
  Ni  Ni19  1  0.500000  0.475158  0.304943  1
  Ru  Ru20  1  0.500000  0.975166  0.197148  1
  Ru  Ru21  1  0.500000  0.023388  0.803533  1
