# generated using pymatgen
data_Dy9Tm7(Ga3Co)2
_symmetry_space_group_name_H-M   'P 1'
_cell_length_a   9.93255000
_cell_length_b   9.93255069
_cell_length_c   6.93674100
_cell_angle_alpha   90.00000000
_cell_angle_beta   90.00000000
_cell_angle_gamma   119.99999104
_symmetry_Int_Tables_number   1
_chemical_formula_structural   Dy9Tm7(Ga3Co)2
_chemical_formula_sum   'Dy9 Tm7 Ga6 Co2'
_cell_volume   592.66284358
_cell_formula_units_Z   1
loop_
 _symmetry_equiv_pos_site_id
 _symmetry_equiv_pos_as_xyz
  1  'x, y, z'
loop_
 _atom_site_type_symbol
 _atom_site_label
 _atom_site_symmetry_multiplicity
 _atom_site_fract_x
 _atom_site_fract_y
 _atom_site_fract_z
 _atom_site_occupancy
  Dy  Dy0  1  0.666667  0.333333  0.327044  1
  Dy  Dy1  1  0.463341  0.536659  0.207555  1
  Dy  Dy2  1  0.073317  0.536659  0.207555  1
  Dy  Dy3  1  0.463341  0.926683  0.207555  1
  Dy  Dy4  1  0.536195  0.463805  0.708225  1
  Dy  Dy5  1  0.927610  0.463805  0.708225  1
  Dy  Dy6  1  0.536195  0.072390  0.708225  1
  Dy  Dy7  1  0.000000  0.000000  0.231953  1
  Dy  Dy8  1  0.000000  0.000000  0.731224  1
  Tm  Tm9  1  0.173509  0.826491  0.512133  1
  Tm  Tm10  1  0.652981  0.826491  0.512133  1
  Tm  Tm11  1  0.173509  0.347019  0.512133  1
  Tm  Tm12  1  0.827031  0.172969  0.010968  1
  Tm  Tm13  1  0.345938  0.172969  0.010968  1
  Tm  Tm14  1  0.827031  0.654062  0.010968  1
  Tm  Tm15  1  0.333333  0.666667  0.825001  1
  Ga  Ga16  1  0.163593  0.836407  0.958064  1
  Ga  Ga17  1  0.672815  0.836407  0.958064  1
  Ga  Ga18  1  0.163593  0.327185  0.958064  1
  Ga  Ga19  1  0.837159  0.162841  0.458880  1
  Ga  Ga20  1  0.325681  0.162841  0.458880  1
  Ga  Ga21  1  0.837159  0.674319  0.458880  1
  Co  Co22  1  0.333333  0.666667  0.445681  1
  Co  Co23  1  0.666667  0.333333  0.946459  1
