# generated using pymatgen
data_Y3Tm17Cd6TcRu
_symmetry_space_group_name_H-M   'P 1'
_cell_length_a   9.45424673
_cell_length_b   9.44498970
_cell_length_c   9.79546700
_cell_angle_alpha   90.00000000
_cell_angle_beta   90.00000000
_cell_angle_gamma   119.91773390
_symmetry_Int_Tables_number   1
_chemical_formula_structural   Y3Tm17Cd6TcRu
_chemical_formula_sum   'Y3 Tm17 Cd6 Tc1 Ru1'
_cell_volume   758.12988732
_cell_formula_units_Z   1
loop_
 _symmetry_equiv_pos_site_id
 _symmetry_equiv_pos_as_xyz
  1  'x, y, z'
loop_
 _atom_site_type_symbol
 _atom_site_label
 _atom_site_symmetry_multiplicity
 _atom_site_fract_x
 _atom_site_fract_y
 _atom_site_fract_z
 _atom_site_occupancy
  Y  Y0  1  0.538718  0.078015  0.250000  1
  Y  Y1  1  0.922586  0.461790  0.250000  1
  Y  Y2  1  0.081728  0.541049  0.750000  1
  Tm  Tm3  1  0.999876  0.999766  0.500161  1
  Tm  Tm4  1  0.999876  0.999766  0.999839  1
  Tm  Tm5  1  0.211194  0.790479  0.442667  1
  Tm  Tm6  1  0.212157  0.420372  0.442322  1
  Tm  Tm7  1  0.579159  0.788458  0.442969  1
  Tm  Tm8  1  0.788637  0.209028  0.559160  1
  Tm  Tm9  1  0.787671  0.579237  0.558558  1
  Tm  Tm10  1  0.420561  0.211104  0.558951  1
  Tm  Tm11  1  0.788637  0.209028  0.940840  1
  Tm  Tm12  1  0.787671  0.579237  0.941442  1
  Tm  Tm13  1  0.420561  0.211104  0.941049  1
  Tm  Tm14  1  0.211194  0.790479  0.057333  1
  Tm  Tm15  1  0.212157  0.420372  0.057678  1
  Tm  Tm16  1  0.579159  0.788458  0.057031  1
  Tm  Tm17  1  0.537645  0.462710  0.250000  1
  Tm  Tm18  1  0.460754  0.540247  0.750000  1
  Tm  Tm19  1  0.460787  0.920942  0.750000  1
  Cd  Cd20  1  0.886592  0.112812  0.250000  1
  Cd  Cd21  1  0.884700  0.772327  0.250000  1
  Cd  Cd22  1  0.227670  0.115020  0.250000  1
  Cd  Cd23  1  0.114723  0.887588  0.750000  1
  Cd  Cd24  1  0.114987  0.227093  0.750000  1
  Cd  Cd25  1  0.771420  0.885448  0.750000  1
  Tc  Tc26  1  0.333490  0.665566  0.250000  1
  Ru  Ru27  1  0.665696  0.332503  0.750000  1
