# generated using pymatgen
data_Ho9Tm(In3Br)2
_symmetry_space_group_name_H-M   'P 1'
_cell_length_a   9.14273300
_cell_length_b   9.14273358
_cell_length_c   6.72518100
_cell_angle_alpha   90.00000000
_cell_angle_beta   90.00000000
_cell_angle_gamma   119.99999427
_symmetry_Int_Tables_number   1
_chemical_formula_structural   Ho9Tm(In3Br)2
_chemical_formula_sum   'Ho9 Tm1 In6 Br2'
_cell_volume   486.84054042
_cell_formula_units_Z   1
loop_
 _symmetry_equiv_pos_site_id
 _symmetry_equiv_pos_as_xyz
  1  'x, y, z'
loop_
 _atom_site_type_symbol
 _atom_site_label
 _atom_site_symmetry_multiplicity
 _atom_site_fract_x
 _atom_site_fract_y
 _atom_site_fract_z
 _atom_site_occupancy
  Ho  Ho0  1  0.733574  0.733767  0.250128  1
  Ho  Ho1  1  0.000194  0.733767  0.749872  1
  Ho  Ho2  1  0.733574  0.999806  0.749872  1
  Ho  Ho3  1  0.266233  0.266426  0.749872  1
  Ho  Ho4  1  0.000194  0.266426  0.250128  1
  Ho  Ho5  1  0.666667  0.333333  0.500000  1
  Ho  Ho6  1  0.266233  0.999806  0.250128  1
  Ho  Ho7  1  0.333333  0.666667  0.000000  1
  Ho  Ho8  1  0.666667  0.333333  0.000000  1
  Tm  Tm9  1  0.333333  0.666667  0.500000  1
  In  In10  1  0.392798  0.999746  0.749842  1
  In  In11  1  0.000254  0.607202  0.250158  1
  In  In12  1  0.606948  0.999746  0.250158  1
  In  In13  1  0.000254  0.393052  0.749842  1
  In  In14  1  0.392798  0.393052  0.250158  1
  In  In15  1  0.606948  0.607202  0.749842  1
  Br  Br16  1  0.000000  0.000000  0.500000  1
  Br  Br17  1  0.000000  0.000000  0.000000  1
