# generated using pymatgen
data_Zr3Sc(MnRe3)2
_symmetry_space_group_name_H-M   'P 1'
_cell_length_a   5.25676571
_cell_length_b   5.21475134
_cell_length_c   8.57513039
_cell_angle_alpha   90.00000177
_cell_angle_beta   90.03022788
_cell_angle_gamma   119.73594998
_symmetry_Int_Tables_number   1
_chemical_formula_structural   Zr3Sc(MnRe3)2
_chemical_formula_sum   'Zr3 Sc1 Mn2 Re6'
_cell_volume   204.11405797
_cell_formula_units_Z   1
loop_
 _symmetry_equiv_pos_site_id
 _symmetry_equiv_pos_as_xyz
  1  'x, y, z'
loop_
 _atom_site_type_symbol
 _atom_site_label
 _atom_site_symmetry_multiplicity
 _atom_site_fract_x
 _atom_site_fract_y
 _atom_site_fract_z
 _atom_site_occupancy
  Zr  Zr0  1  0.668129  0.334064  0.939143  1
  Zr  Zr1  1  0.669019  0.334509  0.559417  1
  Zr  Zr2  1  0.331793  0.665897  0.062923  1
  Sc  Sc3  1  0.332075  0.666038  0.438139  1
  Mn  Mn4  1  0.658032  0.829015  0.750294  1
  Mn  Mn5  1  0.340889  0.170445  0.250083  1
  Re  Re6  1  0.829173  0.171240  0.250411  1
  Re  Re7  1  0.170926  0.342818  0.749690  1
  Re  Re8  1  0.170926  0.828106  0.749690  1
  Re  Re9  1  0.829173  0.657933  0.250411  1
  Re  Re10  1  0.999476  0.999738  0.499990  1
  Re  Re11  1  0.000391  0.000195  0.999809  1
