# generated using pymatgen
data_Sc22Ir5Os2Pt
_symmetry_space_group_name_H-M   'P 1'
_cell_length_a   9.48747097
_cell_length_b   9.51096836
_cell_length_c   9.48747069
_cell_angle_alpha   59.91803001
_cell_angle_beta   59.72045117
_cell_angle_gamma   59.91803668
_symmetry_Int_Tables_number   1
_chemical_formula_structural   Sc22Ir5Os2Pt
_chemical_formula_sum   'Sc22 Ir5 Os2 Pt1'
_cell_volume   603.32011767
_cell_formula_units_Z   1
loop_
 _symmetry_equiv_pos_site_id
 _symmetry_equiv_pos_as_xyz
  1  'x, y, z'
loop_
 _atom_site_type_symbol
 _atom_site_label
 _atom_site_symmetry_multiplicity
 _atom_site_fract_x
 _atom_site_fract_y
 _atom_site_fract_z
 _atom_site_occupancy
  Sc  Sc0  1  0.842912  0.843902  0.842912  1
  Sc  Sc1  1  0.528952  0.158367  0.154313  1
  Sc  Sc2  1  0.154313  0.158367  0.528952  1
  Sc  Sc3  1  0.157088  0.529725  0.157088  1
  Sc  Sc4  1  0.845687  0.841633  0.471048  1
  Sc  Sc5  1  0.842912  0.470275  0.842912  1
  Sc  Sc6  1  0.471048  0.841633  0.845687  1
  Sc  Sc7  1  0.157088  0.156098  0.157088  1
  Sc  Sc8  1  0.196383  0.803617  0.196383  1
  Sc  Sc9  1  0.196269  0.802951  0.803731  1
  Sc  Sc10  1  0.803731  0.197049  0.196269  1
  Sc  Sc11  1  0.803731  0.802951  0.196269  1
  Sc  Sc12  1  0.196269  0.197049  0.803731  1
  Sc  Sc13  1  0.803617  0.196383  0.803617  1
  Sc  Sc14  1  0.381720  0.387280  0.381720  1
  Sc  Sc15  1  0.149001  0.616327  0.618346  1
  Sc  Sc16  1  0.618280  0.150721  0.618280  1
  Sc  Sc17  1  0.618346  0.616327  0.149001  1
  Sc  Sc18  1  0.381720  0.849279  0.381720  1
  Sc  Sc19  1  0.381654  0.383673  0.850999  1
  Sc  Sc20  1  0.850999  0.383673  0.381654  1
  Sc  Sc21  1  0.618280  0.612720  0.618280  1
  Ir  Ir22  1  0.500000  0.500000  0.000000  1
  Ir  Ir23  1  0.000000  0.000000  0.500000  1
  Ir  Ir24  1  0.000000  0.500000  0.500000  1
  Ir  Ir25  1  0.500000  0.000000  0.000000  1
  Ir  Ir26  1  0.000000  0.500000  0.000000  1
  Os  Os27  1  0.500000  0.500000  0.500000  1
  Os  Os28  1  0.000000  0.000000  0.000000  1
  Pt  Pt29  1  0.500000  0.000000  0.500000  1
