# generated using pymatgen
data_Sc8Cu3IrO2
_symmetry_space_group_name_H-M   'P 1'
_cell_length_a   8.66840663
_cell_length_b   8.67493649
_cell_length_c   8.67493608
_cell_angle_alpha   60.11833122
_cell_angle_beta   60.02489938
_cell_angle_gamma   60.02489041
_symmetry_Int_Tables_number   1
_chemical_formula_structural   Sc8Cu3IrO2
_chemical_formula_sum   'Sc16 Cu6 Ir2 O4'
_cell_volume   461.85681314
_cell_formula_units_Z   2
loop_
 _symmetry_equiv_pos_site_id
 _symmetry_equiv_pos_as_xyz
  1  'x, y, z'
loop_
 _atom_site_type_symbol
 _atom_site_label
 _atom_site_symmetry_multiplicity
 _atom_site_fract_x
 _atom_site_fract_y
 _atom_site_fract_z
 _atom_site_occupancy
  Sc  Sc0  1  0.818029  0.180741  0.818969  1
  Sc  Sc1  1  0.179323  0.817093  0.188889  1
  Sc  Sc2  1  0.435305  0.061111  0.432907  1
  Sc  Sc3  1  0.431564  0.061033  0.075837  1
  Sc  Sc4  1  0.066668  0.435207  0.431456  1
  Sc  Sc5  1  0.067741  0.431031  0.069259  1
  Sc  Sc6  1  0.182259  0.180741  0.818969  1
  Sc  Sc7  1  0.431971  0.431031  0.069259  1
  Sc  Sc8  1  0.125000  0.623202  0.626798  1
  Sc  Sc9  1  0.627221  0.625653  0.119906  1
  Sc  Sc10  1  0.625000  0.623202  0.626798  1
  Sc  Sc11  1  0.622779  0.130094  0.624347  1
  Sc  Sc12  1  0.183332  0.818544  0.814793  1
  Sc  Sc13  1  0.818436  0.174163  0.188967  1
  Sc  Sc14  1  0.070677  0.061111  0.432907  1
  Sc  Sc15  1  0.814695  0.817093  0.188889  1
  Cu  Cu16  1  0.833097  0.839003  0.830629  1
  Cu  Cu17  1  0.497271  0.839003  0.830629  1
  Cu  Cu18  1  0.416903  0.419371  0.410997  1
  Cu  Cu19  1  0.412371  0.417397  0.757861  1
  Cu  Cu20  1  0.837629  0.492139  0.832603  1
  Cu  Cu21  1  0.752729  0.419371  0.410997  1
  Ir  Ir22  1  0.413639  0.760860  0.411863  1
  Ir  Ir23  1  0.836361  0.838137  0.489140  1
  O  O24  1  0.124288  0.126470  0.624953  1
  O  O25  1  0.625000  0.126074  0.123926  1
  O  O26  1  0.125000  0.126074  0.123926  1
  O  O27  1  0.125712  0.625047  0.123530  1
