# generated using pymatgen
data_Dy4ErIn4CuPt
_symmetry_space_group_name_H-M   'P 1'
_cell_length_a   3.63738700
_cell_length_b   8.10612427
_cell_length_c   18.16017123
_cell_angle_alpha   90.06757586
_cell_angle_beta   90.00000000
_cell_angle_gamma   90.00000000
_symmetry_Int_Tables_number   1
_chemical_formula_structural   Dy4ErIn4CuPt
_chemical_formula_sum   'Dy8 Er2 In8 Cu2 Pt2'
_cell_volume   535.45429272
_cell_formula_units_Z   2
loop_
 _symmetry_equiv_pos_site_id
 _symmetry_equiv_pos_as_xyz
  1  'x, y, z'
loop_
 _atom_site_type_symbol
 _atom_site_label
 _atom_site_symmetry_multiplicity
 _atom_site_fract_x
 _atom_site_fract_y
 _atom_site_fract_z
 _atom_site_occupancy
  Dy  Dy0  1  0.000000  0.116458  0.416229  1
  Dy  Dy1  1  0.000000  0.883542  0.583771  1
  Dy  Dy2  1  0.000000  0.381974  0.915875  1
  Dy  Dy3  1  0.000000  0.618026  0.084125  1
  Dy  Dy4  1  0.000000  0.248159  0.219561  1
  Dy  Dy5  1  0.000000  0.751841  0.780439  1
  Dy  Dy6  1  0.000000  0.000000  0.000000  1
  Dy  Dy7  1  0.000000  0.500000  0.500000  1
  Er  Er8  1  0.000000  0.262462  0.720019  1
  Er  Er9  1  0.000000  0.737538  0.279981  1
  In  In10  1  0.500000  0.420267  0.352250  1
  In  In11  1  0.500000  0.579733  0.647750  1
  In  In12  1  0.500000  0.074114  0.848416  1
  In  In13  1  0.500000  0.925886  0.151584  1
  In  In14  1  0.500000  0.291753  0.067176  1
  In  In15  1  0.500000  0.708247  0.932824  1
  In  In16  1  0.500000  0.208620  0.569542  1
  In  In17  1  0.500000  0.791380  0.430458  1
  Cu  Cu18  1  0.500000  0.025233  0.302389  1
  Cu  Cu19  1  0.500000  0.974767  0.697611  1
  Pt  Pt20  1  0.500000  0.470124  0.802267  1
  Pt  Pt21  1  0.500000  0.529876  0.197733  1
