# generated using pymatgen
data_CsCl23
_symmetry_space_group_name_H-M   'P 1'
_cell_length_a   6.12547855
_cell_length_b   10.34559965
_cell_length_c   16.90424100
_cell_angle_alpha   90.01344670
_cell_angle_beta   82.19265319
_cell_angle_gamma   92.58161465
_symmetry_Int_Tables_number   1
_chemical_formula_structural   CsCl23
_chemical_formula_sum   'Cs1 Cl23'
_cell_volume   1060.22537652
_cell_formula_units_Z   1
loop_
 _symmetry_equiv_pos_site_id
 _symmetry_equiv_pos_as_xyz
  1  'x, y, z'
loop_
 _atom_site_type_symbol
 _atom_site_label
 _atom_site_symmetry_multiplicity
 _atom_site_fract_x
 _atom_site_fract_y
 _atom_site_fract_z
 _atom_site_occupancy
  Cs  Cs0  1  0.429673  0.145053  0.443617  1
  Cl  Cl1  1  0.400129  0.788773  0.401293  1
  Cl  Cl2  1  0.151325  0.363961  0.111828  1
  Cl  Cl3  1  0.925524  0.270733  0.484120  1
  Cl  Cl4  1  0.139178  0.840972  0.480474  1
  Cl  Cl5  1  0.330746  0.287443  0.015929  1
  Cl  Cl6  1  0.721370  0.640600  0.006950  1
  Cl  Cl7  1  0.099140  0.376078  0.377639  1
  Cl  Cl8  1  0.702330  0.554535  0.292671  1
  Cl  Cl9  1  0.682154  0.126636  0.227850  1
  Cl  Cl10  1  0.293408  0.818265  0.167052  1
  Cl  Cl11  1  0.714253  0.687766  0.619764  1
  Cl  Cl12  1  0.156472  0.373162  0.666033  1
  Cl  Cl13  1  0.337404  0.906528  0.812216  1
  Cl  Cl14  1  0.625809  0.181615  0.874392  1
  Cl  Cl15  1  0.064490  0.736890  0.105352  1
  Cl  Cl16  1  0.748950  0.884832  0.600291  1
  Cl  Cl17  1  0.742195  0.149836  0.597586  1
  Cl  Cl18  1  0.905624  0.672142  0.901519  1
  Cl  Cl19  1  0.894990  0.291574  0.887250  1
  Cl  Cl20  1  0.496237  0.487650  0.217669  1
  Cl  Cl21  1  0.946649  0.017038  0.223839  1
  Cl  Cl22  1  0.402521  0.430578  0.726121  1
  Cl  Cl23  1  0.089429  0.967339  0.758549  1
