# generated using pymatgen
data_Sm6RhAu7
_symmetry_space_group_name_H-M   'P 1'
_cell_length_a   8.26164541
_cell_length_b   8.26164526
_cell_length_c   8.26164560
_cell_angle_alpha   114.47695077
_cell_angle_beta   114.47694550
_cell_angle_gamma   114.47696057
_symmetry_Int_Tables_number   1
_chemical_formula_structural   Sm6RhAu7
_chemical_formula_sum   'Sm6 Rh1 Au7'
_cell_volume   330.13083912
_cell_formula_units_Z   1
loop_
 _symmetry_equiv_pos_site_id
 _symmetry_equiv_pos_as_xyz
  1  'x, y, z'
loop_
 _atom_site_type_symbol
 _atom_site_label
 _atom_site_symmetry_multiplicity
 _atom_site_fract_x
 _atom_site_fract_y
 _atom_site_fract_z
 _atom_site_occupancy
  Sm  Sm0  1  0.735913  0.615839  0.985722  1
  Sm  Sm1  1  0.985722  0.735913  0.615839  1
  Sm  Sm2  1  0.615839  0.985722  0.735913  1
  Sm  Sm3  1  0.264087  0.384161  0.014278  1
  Sm  Sm4  1  0.014278  0.264087  0.384161  1
  Sm  Sm5  1  0.384161  0.014278  0.264087  1
  Rh  Rh6  1  0.000000  0.000000  0.000000  1
  Au  Au7  1  0.568391  0.234382  0.070954  1
  Au  Au8  1  0.070954  0.568391  0.234382  1
  Au  Au9  1  0.234382  0.070954  0.568391  1
  Au  Au10  1  0.431609  0.765618  0.929046  1
  Au  Au11  1  0.929046  0.431609  0.765618  1
  Au  Au12  1  0.765618  0.929046  0.431609  1
  Au  Au13  1  0.500000  0.500000  0.500000  1
