# generated using pymatgen
data_TiAl2Fe4W
_symmetry_space_group_name_H-M   'P 1'
_cell_length_a   4.11669600
_cell_length_b   5.82024800
_cell_length_c   12.33108100
_cell_angle_alpha   90.00000000
_cell_angle_beta   90.00005569
_cell_angle_gamma   90.00000000
_symmetry_Int_Tables_number   1
_chemical_formula_structural   TiAl2Fe4W
_chemical_formula_sum   'Ti3 Al6 Fe12 W3'
_cell_volume   295.45506414
_cell_formula_units_Z   3
loop_
 _symmetry_equiv_pos_site_id
 _symmetry_equiv_pos_as_xyz
  1  'x, y, z'
loop_
 _atom_site_type_symbol
 _atom_site_label
 _atom_site_symmetry_multiplicity
 _atom_site_fract_x
 _atom_site_fract_y
 _atom_site_fract_z
 _atom_site_occupancy
  Ti  Ti0  1  0.499999  0.000000  0.504336  1
  Ti  Ti1  1  0.999994  0.500000  0.666733  1
  Ti  Ti2  1  0.499994  0.000000  0.829033  1
  Al  Al3  1  0.000000  0.000000  0.997442  1
  Al  Al4  1  0.500005  0.500000  0.166628  1
  Al  Al5  1  0.000005  0.000000  0.335861  1
  Al  Al6  1  0.499999  0.500000  0.503695  1
  Al  Al7  1  0.999994  0.000000  0.666708  1
  Al  Al8  1  0.499995  0.500000  0.829669  1
  Fe  Fe9  1  0.499999  0.252192  0.003014  1
  Fe  Fe10  1  0.499999  0.747809  0.003014  1
  Fe  Fe11  1  0.000006  0.248824  0.166592  1
  Fe  Fe12  1  0.000006  0.751175  0.166592  1
  Fe  Fe13  1  0.500005  0.252243  0.330210  1
  Fe  Fe14  1  0.500005  0.747756  0.330210  1
  Fe  Fe15  1  0.999999  0.251789  0.496942  1
  Fe  Fe16  1  0.999999  0.748210  0.496942  1
  Fe  Fe17  1  0.499995  0.248355  0.666753  1
  Fe  Fe18  1  0.499995  0.751644  0.666753  1
  Fe  Fe19  1  0.999994  0.251827  0.836407  1
  Fe  Fe20  1  0.999994  0.748172  0.836407  1
  W  W21  1  0.000000  0.500000  0.995105  1
  W  W22  1  0.500010  0.000000  0.166721  1
  W  W23  1  0.000005  0.500000  0.338232  1
