# generated using pymatgen
data_K3Bi(AsO4)2
_symmetry_space_group_name_H-M   'P 1'
_cell_length_a   5.76355365
_cell_length_b   5.76355295
_cell_length_c   8.14709540
_cell_angle_alpha   89.89582644
_cell_angle_beta   89.89584029
_cell_angle_gamma   62.92146308
_symmetry_Int_Tables_number   1
_chemical_formula_structural   K3Bi(AsO4)2
_chemical_formula_sum   'K3 Bi1 As2 O8'
_cell_volume   240.96806612
_cell_formula_units_Z   1
loop_
 _symmetry_equiv_pos_site_id
 _symmetry_equiv_pos_as_xyz
  1  'x, y, z'
loop_
 _atom_site_type_symbol
 _atom_site_label
 _atom_site_symmetry_multiplicity
 _atom_site_fract_x
 _atom_site_fract_y
 _atom_site_fract_z
 _atom_site_occupancy
  K  K0  1  0.688577  0.688577  0.208844  1
  K  K1  1  0.000000  0.000000  0.000000  1
  K  K2  1  0.311424  0.311423  0.791156  1
  Bi  Bi3  1  0.000000  0.000000  0.500000  1
  As  As4  1  0.656628  0.656628  0.709118  1
  As  As5  1  0.343372  0.343372  0.290882  1
  O  O6  1  0.248924  0.248924  0.116685  1
  O  O7  1  0.240138  0.240138  0.461931  1
  O  O8  1  0.316358  0.783858  0.711100  1
  O  O9  1  0.783858  0.316358  0.711100  1
  O  O10  1  0.216142  0.683642  0.288900  1
  O  O11  1  0.683642  0.216142  0.288900  1
  O  O12  1  0.759862  0.759862  0.538069  1
  O  O13  1  0.751076  0.751076  0.883315  1
