# generated using pymatgen
data_Dy2Ho2AlOs7
_symmetry_space_group_name_H-M   'P 1'
_cell_length_a   5.36369200
_cell_length_b   5.36369204
_cell_length_c   8.69048500
_cell_angle_alpha   90.00000000
_cell_angle_beta   90.00000000
_cell_angle_gamma   120.00001208
_symmetry_Int_Tables_number   1
_chemical_formula_structural   Dy2Ho2AlOs7
_chemical_formula_sum   'Dy2 Ho2 Al1 Os7'
_cell_volume   216.52211424
_cell_formula_units_Z   1
loop_
 _symmetry_equiv_pos_site_id
 _symmetry_equiv_pos_as_xyz
  1  'x, y, z'
loop_
 _atom_site_type_symbol
 _atom_site_label
 _atom_site_symmetry_multiplicity
 _atom_site_fract_x
 _atom_site_fract_y
 _atom_site_fract_z
 _atom_site_occupancy
  Dy  Dy0  1  0.333333  0.666667  0.428984  1
  Dy  Dy1  1  0.666667  0.333333  0.571016  1
  Ho  Ho2  1  0.666667  0.333333  0.935271  1
  Ho  Ho3  1  0.333333  0.666667  0.064729  1
  Al  Al4  1  0.000000  0.000000  0.500000  1
  Os  Os5  1  0.000000  0.000000  0.000000  1
  Os  Os6  1  0.828757  0.171243  0.250249  1
  Os  Os7  1  0.828757  0.657515  0.250249  1
  Os  Os8  1  0.342485  0.171243  0.250249  1
  Os  Os9  1  0.171243  0.828757  0.749751  1
  Os  Os10  1  0.171243  0.342485  0.749751  1
  Os  Os11  1  0.657515  0.828757  0.749751  1
