# generated using pymatgen
data_Er3TiMn7CoP6
_symmetry_space_group_name_H-M   'P 1'
_cell_length_a   3.65950900
_cell_length_b   10.81985300
_cell_length_c   12.74133800
_cell_angle_alpha   90.00000000
_cell_angle_beta   90.00000000
_cell_angle_gamma   90.00000000
_symmetry_Int_Tables_number   1
_chemical_formula_structural   Er3TiMn7CoP6
_chemical_formula_sum   'Er6 Ti2 Mn14 Co2 P12'
_cell_volume   504.49773034
_cell_formula_units_Z   2
loop_
 _symmetry_equiv_pos_site_id
 _symmetry_equiv_pos_as_xyz
  1  'x, y, z'
loop_
 _atom_site_type_symbol
 _atom_site_label
 _atom_site_symmetry_multiplicity
 _atom_site_fract_x
 _atom_site_fract_y
 _atom_site_fract_z
 _atom_site_occupancy
  Er  Er0  1  0.750000  0.250000  0.466097  1
  Er  Er1  1  0.250000  0.750000  0.533903  1
  Er  Er2  1  0.250000  0.925677  0.793651  1
  Er  Er3  1  0.250000  0.574323  0.793651  1
  Er  Er4  1  0.750000  0.074323  0.206349  1
  Er  Er5  1  0.750000  0.425677  0.206349  1
  Ti  Ti6  1  0.250000  0.250000  0.836291  1
  Ti  Ti7  1  0.750000  0.750000  0.163709  1
  Mn  Mn8  1  0.750000  0.250000  0.009298  1
  Mn  Mn9  1  0.250000  0.750000  0.990702  1
  Mn  Mn10  1  0.250000  0.417556  0.003547  1
  Mn  Mn11  1  0.250000  0.082444  0.003547  1
  Mn  Mn12  1  0.750000  0.582444  0.996453  1
  Mn  Mn13  1  0.750000  0.917556  0.996453  1
  Mn  Mn14  1  0.250000  0.453891  0.565399  1
  Mn  Mn15  1  0.250000  0.046109  0.565399  1
  Mn  Mn16  1  0.750000  0.546109  0.434601  1
  Mn  Mn17  1  0.750000  0.953891  0.434601  1
  Mn  Mn18  1  0.250000  0.870400  0.302460  1
  Mn  Mn19  1  0.250000  0.629600  0.302460  1
  Mn  Mn20  1  0.750000  0.129600  0.697540  1
  Mn  Mn21  1  0.750000  0.370400  0.697540  1
  Co  Co22  1  0.250000  0.250000  0.294400  1
  Co  Co23  1  0.750000  0.750000  0.705600  1
  P  P24  1  0.250000  0.250000  0.120504  1
  P  P25  1  0.750000  0.750000  0.879496  1
  P  P26  1  0.250000  0.250000  0.635656  1
  P  P27  1  0.750000  0.750000  0.364344  1
  P  P28  1  0.250000  0.430619  0.381608  1
  P  P29  1  0.250000  0.069381  0.381608  1
  P  P30  1  0.750000  0.569381  0.618392  1
  P  P31  1  0.750000  0.930619  0.618392  1
  P  P32  1  0.250000  0.908174  0.114567  1
  P  P33  1  0.250000  0.591826  0.114567  1
  P  P34  1  0.750000  0.091826  0.885433  1
  P  P35  1  0.750000  0.408174  0.885433  1
