# generated using pymatgen
data_Tb3Er2Sn3P
_symmetry_space_group_name_H-M   'P 1'
_cell_length_a   9.08672400
_cell_length_b   9.08672502
_cell_length_c   6.67635800
_cell_angle_alpha   90.00000000
_cell_angle_beta   90.00000000
_cell_angle_gamma   119.99999628
_symmetry_Int_Tables_number   1
_chemical_formula_structural   Tb3Er2Sn3P
_chemical_formula_sum   'Tb6 Er4 Sn6 P2'
_cell_volume   477.40282781
_cell_formula_units_Z   2
loop_
 _symmetry_equiv_pos_site_id
 _symmetry_equiv_pos_as_xyz
  1  'x, y, z'
loop_
 _atom_site_type_symbol
 _atom_site_label
 _atom_site_symmetry_multiplicity
 _atom_site_fract_x
 _atom_site_fract_y
 _atom_site_fract_z
 _atom_site_occupancy
  Tb  Tb0  1  0.757691  0.757691  0.750000  1
  Tb  Tb1  1  0.242309  0.000000  0.750000  1
  Tb  Tb2  1  0.000000  0.242309  0.750000  1
  Tb  Tb3  1  0.242309  0.242309  0.250000  1
  Tb  Tb4  1  0.757691  0.000000  0.250000  1
  Tb  Tb5  1  0.000000  0.757691  0.250000  1
  Er  Er6  1  0.666667  0.333333  0.000000  1
  Er  Er7  1  0.333333  0.666667  0.000000  1
  Er  Er8  1  0.333333  0.666667  0.500000  1
  Er  Er9  1  0.666667  0.333333  0.500000  1
  Sn  Sn10  1  0.399352  0.399352  0.750000  1
  Sn  Sn11  1  0.600648  0.000000  0.750000  1
  Sn  Sn12  1  0.000000  0.600648  0.750000  1
  Sn  Sn13  1  0.600648  0.600648  0.250000  1
  Sn  Sn14  1  0.399352  0.000000  0.250000  1
  Sn  Sn15  1  0.000000  0.399352  0.250000  1
  P  P16  1  0.000000  0.000000  0.000000  1
  P  P17  1  0.000000  0.000000  0.500000  1
