# generated using pymatgen
data_Tb5Y7(OsRu)2
_symmetry_space_group_name_H-M   'P 1'
_cell_length_a   6.37374346
_cell_length_b   7.34938179
_cell_length_c   9.21553938
_cell_angle_alpha   89.98910095
_cell_angle_beta   89.96883807
_cell_angle_gamma   90.13801966
_symmetry_Int_Tables_number   1
_chemical_formula_structural   Tb5Y7(OsRu)2
_chemical_formula_sum   'Tb5 Y7 Os2 Ru2'
_cell_volume   431.68287025
_cell_formula_units_Z   1
loop_
 _symmetry_equiv_pos_site_id
 _symmetry_equiv_pos_as_xyz
  1  'x, y, z'
loop_
 _atom_site_type_symbol
 _atom_site_label
 _atom_site_symmetry_multiplicity
 _atom_site_fract_x
 _atom_site_fract_y
 _atom_site_fract_z
 _atom_site_occupancy
  Tb  Tb0  1  0.635976  0.040168  0.250108  1
  Tb  Tb1  1  0.364621  0.959045  0.750060  1
  Tb  Tb2  1  0.133596  0.456998  0.750047  1
  Tb  Tb3  1  0.866087  0.542881  0.250051  1
  Tb  Tb4  1  0.171918  0.175864  0.066298  1
  Y  Y5  1  0.828372  0.823533  0.933931  1
  Y  Y6  1  0.669398  0.325129  0.936215  1
  Y  Y7  1  0.828350  0.823975  0.565959  1
  Y  Y8  1  0.330489  0.675097  0.063675  1
  Y  Y9  1  0.171780  0.175895  0.434447  1
  Y  Y10  1  0.330296  0.674901  0.436415  1
  Y  Y11  1  0.669645  0.325255  0.563673  1
  Os  Os12  1  0.461868  0.383695  0.249675  1
  Os  Os13  1  0.537110  0.616246  0.750104  1
  Ru  Ru14  1  0.964365  0.115848  0.750143  1
  Ru  Ru15  1  0.036128  0.885470  0.249199  1
