# generated using pymatgen
data_Er4Zn4Ir2PtRh
_symmetry_space_group_name_H-M   'P 1'
_cell_length_a   4.03192300
_cell_length_b   6.97112639
_cell_length_c   8.12023624
_cell_angle_alpha   89.91994634
_cell_angle_beta   90.00000000
_cell_angle_gamma   90.00000000
_symmetry_Int_Tables_number   1
_chemical_formula_structural   Er4Zn4Ir2PtRh
_chemical_formula_sum   'Er4 Zn4 Ir2 Pt1 Rh1'
_cell_volume   228.23562111
_cell_formula_units_Z   1
loop_
 _symmetry_equiv_pos_site_id
 _symmetry_equiv_pos_as_xyz
  1  'x, y, z'
loop_
 _atom_site_type_symbol
 _atom_site_label
 _atom_site_symmetry_multiplicity
 _atom_site_fract_x
 _atom_site_fract_y
 _atom_site_fract_z
 _atom_site_occupancy
  Er  Er0  1  0.250000  0.534682  0.178873  1
  Er  Er1  1  0.750000  0.462772  0.818828  1
  Er  Er2  1  0.750000  0.961428  0.686477  1
  Er  Er3  1  0.250000  0.043761  0.315231  1
  Zn  Zn4  1  0.250000  0.633766  0.567274  1
  Zn  Zn5  1  0.750000  0.360815  0.435849  1
  Zn  Zn6  1  0.750000  0.863707  0.063101  1
  Zn  Zn7  1  0.250000  0.137881  0.935052  1
  Ir  Ir8  1  0.250000  0.755329  0.876567  1
  Ir  Ir9  1  0.750000  0.246634  0.123214  1
  Pt  Pt10  1  0.750000  0.746303  0.379290  1
  Rh  Rh11  1  0.250000  0.252922  0.620243  1
