# generated using pymatgen
data_Zr4TaSi4W3
_symmetry_space_group_name_H-M   'P 1'
_cell_length_a   3.57087000
_cell_length_b   6.99325888
_cell_length_c   8.32022017
_cell_angle_alpha   90.06895026
_cell_angle_beta   90.00000000
_cell_angle_gamma   90.00000000
_symmetry_Int_Tables_number   1
_chemical_formula_structural   Zr4TaSi4W3
_chemical_formula_sum   'Zr4 Ta1 Si4 W3'
_cell_volume   207.77254015
_cell_formula_units_Z   1
loop_
 _symmetry_equiv_pos_site_id
 _symmetry_equiv_pos_as_xyz
  1  'x, y, z'
loop_
 _atom_site_type_symbol
 _atom_site_label
 _atom_site_symmetry_multiplicity
 _atom_site_fract_x
 _atom_site_fract_y
 _atom_site_fract_z
 _atom_site_occupancy
  Zr  Zr0  1  0.250000  0.541790  0.165474  1
  Zr  Zr1  1  0.250000  0.041706  0.332692  1
  Zr  Zr2  1  0.750000  0.457233  0.833953  1
  Zr  Zr3  1  0.750000  0.961492  0.670378  1
  Ta  Ta4  1  0.250000  0.630642  0.559884  1
  Si  Si5  1  0.250000  0.758569  0.862543  1
  Si  Si6  1  0.250000  0.255873  0.639728  1
  Si  Si7  1  0.750000  0.242478  0.139590  1
  Si  Si8  1  0.750000  0.742432  0.355793  1
  W  W9  1  0.250000  0.132026  0.940795  1
  W  W10  1  0.750000  0.365023  0.439389  1
  W  W11  1  0.750000  0.870735  0.059780  1
