# generated using pymatgen
data_LuSc(Al2Co)2
_symmetry_space_group_name_H-M   'P 1'
_cell_length_a   5.22261500
_cell_length_b   5.22261404
_cell_length_c   6.88444600
_cell_angle_alpha   90.00000000
_cell_angle_beta   90.00000000
_cell_angle_gamma   136.32121301
_symmetry_Int_Tables_number   1
_chemical_formula_structural   LuSc(Al2Co)2
_chemical_formula_sum   'Lu1 Sc1 Al4 Co2'
_cell_volume   129.68231549
_cell_formula_units_Z   1
loop_
 _symmetry_equiv_pos_site_id
 _symmetry_equiv_pos_as_xyz
  1  'x, y, z'
loop_
 _atom_site_type_symbol
 _atom_site_label
 _atom_site_symmetry_multiplicity
 _atom_site_fract_x
 _atom_site_fract_y
 _atom_site_fract_z
 _atom_site_occupancy
  Lu  Lu0  1  0.936961  0.063039  0.750000  1
  Sc  Sc1  1  0.061682  0.938318  0.250000  1
  Al  Al2  1  0.652293  0.347707  0.950298  1
  Al  Al3  1  0.346992  0.653008  0.056408  1
  Al  Al4  1  0.346992  0.653008  0.443592  1
  Al  Al5  1  0.652293  0.347707  0.549702  1
  Co  Co6  1  0.216950  0.783050  0.750000  1
  Co  Co7  1  0.785837  0.214163  0.250000  1
