# generated using pymatgen
data_NdDy4(SnSb)2
_symmetry_space_group_name_H-M   'P 1'
_cell_length_a   8.99336582
_cell_length_b   8.52675997
_cell_length_c   8.19657546
_cell_angle_alpha   89.17752901
_cell_angle_beta   90.17445723
_cell_angle_gamma   124.64804044
_symmetry_Int_Tables_number   1
_chemical_formula_structural   NdDy4(SnSb)2
_chemical_formula_sum   'Nd2 Dy8 Sn4 Sb4'
_cell_volume   517.01834426
_cell_formula_units_Z   2
loop_
 _symmetry_equiv_pos_site_id
 _symmetry_equiv_pos_as_xyz
  1  'x, y, z'
loop_
 _atom_site_type_symbol
 _atom_site_label
 _atom_site_symmetry_multiplicity
 _atom_site_fract_x
 _atom_site_fract_y
 _atom_site_fract_z
 _atom_site_occupancy
  Nd  Nd0  1  0.045499  0.336635  0.325351  1
  Nd  Nd1  1  0.954501  0.663365  0.674649  1
  Dy  Dy2  1  0.453556  0.174649  0.831952  1
  Dy  Dy3  1  0.782372  0.520467  0.163240  1
  Dy  Dy4  1  0.546444  0.825351  0.168048  1
  Dy  Dy5  1  0.217628  0.479533  0.836760  1
  Dy  Dy6  1  0.716773  0.982045  0.661114  1
  Dy  Dy7  1  0.283227  0.017955  0.338886  1
  Dy  Dy8  1  0.000000  0.000000  0.000000  1
  Dy  Dy9  1  0.500000  0.500000  0.500000  1
  Sn  Sn10  1  0.366141  0.365165  0.133934  1
  Sn  Sn11  1  0.633859  0.634835  0.866066  1
  Sn  Sn12  1  0.136125  0.132257  0.635688  1
  Sn  Sn13  1  0.863875  0.867743  0.364312  1
  Sb  Sb14  1  0.808129  0.220723  0.974103  1
  Sb  Sb15  1  0.191871  0.779277  0.025897  1
  Sb  Sb16  1  0.680179  0.277013  0.481249  1
  Sb  Sb17  1  0.319821  0.722987  0.518751  1
