# generated using pymatgen
data_Zr9Re4Ni
_symmetry_space_group_name_H-M   'P 1'
_cell_length_a   8.67053100
_cell_length_b   8.67053015
_cell_length_c   8.60505200
_cell_angle_alpha   90.00000000
_cell_angle_beta   90.00000000
_cell_angle_gamma   119.99999178
_symmetry_Int_Tables_number   1
_chemical_formula_structural   Zr9Re4Ni
_chemical_formula_sum   'Zr18 Re8 Ni2'
_cell_volume   560.24180821
_cell_formula_units_Z   2
loop_
 _symmetry_equiv_pos_site_id
 _symmetry_equiv_pos_as_xyz
  1  'x, y, z'
loop_
 _atom_site_type_symbol
 _atom_site_label
 _atom_site_symmetry_multiplicity
 _atom_site_fract_x
 _atom_site_fract_y
 _atom_site_fract_z
 _atom_site_occupancy
  Zr  Zr0  1  0.197370  0.802630  0.442835  1
  Zr  Zr1  1  0.197370  0.394740  0.442835  1
  Zr  Zr2  1  0.605260  0.802630  0.442835  1
  Zr  Zr3  1  0.802630  0.197370  0.557165  1
  Zr  Zr4  1  0.802630  0.605260  0.557165  1
  Zr  Zr5  1  0.394740  0.197370  0.557165  1
  Zr  Zr6  1  0.802630  0.197370  0.942835  1
  Zr  Zr7  1  0.802630  0.605260  0.942835  1
  Zr  Zr8  1  0.394740  0.197370  0.942835  1
  Zr  Zr9  1  0.197370  0.802630  0.057165  1
  Zr  Zr10  1  0.197370  0.394740  0.057165  1
  Zr  Zr11  1  0.605260  0.802630  0.057165  1
  Zr  Zr12  1  0.542400  0.457600  0.250000  1
  Zr  Zr13  1  0.542400  0.084801  0.250000  1
  Zr  Zr14  1  0.915199  0.457600  0.250000  1
  Zr  Zr15  1  0.457600  0.542400  0.750000  1
  Zr  Zr16  1  0.457600  0.915199  0.750000  1
  Zr  Zr17  1  0.084801  0.542400  0.750000  1
  Re  Re18  1  0.891714  0.108286  0.250000  1
  Re  Re19  1  0.891714  0.783427  0.250000  1
  Re  Re20  1  0.216573  0.108286  0.250000  1
  Re  Re21  1  0.108286  0.891714  0.750000  1
  Re  Re22  1  0.108286  0.216573  0.750000  1
  Re  Re23  1  0.783427  0.891714  0.750000  1
  Re  Re24  1  0.000000  0.000000  0.500000  1
  Re  Re25  1  0.000000  0.000000  0.000000  1
  Ni  Ni26  1  0.333333  0.666667  0.250000  1
  Ni  Ni27  1  0.666667  0.333333  0.750000  1
