# generated using pymatgen
data_La4SiOs3I2
_symmetry_space_group_name_H-M   'P 1'
_cell_length_a   4.30238800
_cell_length_b   4.30238824
_cell_length_c   18.09693100
_cell_angle_alpha   90.00000000
_cell_angle_beta   90.00000000
_cell_angle_gamma   120.00001356
_symmetry_Int_Tables_number   1
_chemical_formula_structural   La4SiOs3I2
_chemical_formula_sum   'La4 Si1 Os3 I2'
_cell_volume   290.10463916
_cell_formula_units_Z   1
loop_
 _symmetry_equiv_pos_site_id
 _symmetry_equiv_pos_as_xyz
  1  'x, y, z'
loop_
 _atom_site_type_symbol
 _atom_site_label
 _atom_site_symmetry_multiplicity
 _atom_site_fract_x
 _atom_site_fract_y
 _atom_site_fract_z
 _atom_site_occupancy
  La  La0  1  0.000000  0.000000  0.109294  1
  La  La1  1  0.000000  0.000000  0.889697  1
  La  La2  1  0.000000  0.000000  0.604628  1
  La  La3  1  0.000000  0.000000  0.398207  1
  Si  Si4  1  0.333333  0.666667  0.501714  1
  Os  Os5  1  0.666667  0.333333  0.498952  1
  Os  Os6  1  0.666667  0.333333  0.009385  1
  Os  Os7  1  0.333333  0.666667  0.989875  1
  I  I8  1  0.333333  0.666667  0.250399  1
  I  I9  1  0.666667  0.333333  0.747849  1
