# generated using pymatgen
data_Eu4Ga18Ir2PdPt3
_symmetry_space_group_name_H-M   'P 1'
_cell_length_a   7.69734861
_cell_length_b   7.69734850
_cell_length_c   9.66000578
_cell_angle_alpha   90.01541494
_cell_angle_beta   90.01542578
_cell_angle_gamma   119.66929234
_symmetry_Int_Tables_number   1
_chemical_formula_structural   Eu4Ga18Ir2PdPt3
_chemical_formula_sum   'Eu4 Ga18 Ir2 Pd1 Pt3'
_cell_volume   497.31080219
_cell_formula_units_Z   1
loop_
 _symmetry_equiv_pos_site_id
 _symmetry_equiv_pos_as_xyz
  1  'x, y, z'
loop_
 _atom_site_type_symbol
 _atom_site_label
 _atom_site_symmetry_multiplicity
 _atom_site_fract_x
 _atom_site_fract_y
 _atom_site_fract_z
 _atom_site_occupancy
  Eu  Eu0  1  0.002138  0.330057  0.750187  1
  Eu  Eu1  1  0.997738  0.669939  0.249398  1
  Eu  Eu2  1  0.330061  0.002262  0.750602  1
  Eu  Eu3  1  0.669943  0.997862  0.249813  1
  Ga  Ga4  1  0.664299  0.667553  0.436051  1
  Ga  Ga5  1  0.335663  0.332400  0.937167  1
  Ga  Ga6  1  0.667600  0.664337  0.062833  1
  Ga  Ga7  1  0.332447  0.335701  0.563949  1
  Ga  Ga8  1  0.004257  0.337971  0.421394  1
  Ga  Ga9  1  0.996425  0.661609  0.921448  1
  Ga  Ga10  1  0.338391  0.003575  0.078552  1
  Ga  Ga11  1  0.662029  0.995743  0.578606  1
  Ga  Ga12  1  0.003142  0.665825  0.578866  1
  Ga  Ga13  1  0.996123  0.334446  0.078754  1
  Ga  Ga14  1  0.665554  0.003877  0.921246  1
  Ga  Ga15  1  0.334175  0.996858  0.421134  1
  Ga  Ga16  1  0.131398  0.131417  0.250750  1
  Ga  Ga17  1  0.868583  0.868602  0.749250  1
  Ga  Ga18  1  0.661245  0.455516  0.752465  1
  Ga  Ga19  1  0.338823  0.544497  0.252131  1
  Ga  Ga20  1  0.455503  0.661177  0.747869  1
  Ga  Ga21  1  0.544484  0.338755  0.247535  1
  Ir  Ir22  1  0.330295  0.669705  0.500000  1
  Ir  Ir23  1  0.669435  0.330565  0.000000  1
  Pd  Pd24  1  0.000219  0.999781  0.500000  1
  Pt  Pt25  1  0.999724  0.000276  0.000000  1
  Pt  Pt26  1  0.670004  0.329996  0.500000  1
  Pt  Pt27  1  0.330301  0.669699  0.000000  1
