# generated using pymatgen
data_Zr6CoS2
_symmetry_space_group_name_H-M   'P 1'
_cell_length_a   3.45505400
_cell_length_b   12.75867800
_cell_length_c   15.63205700
_cell_angle_alpha   90.00000000
_cell_angle_beta   90.00000000
_cell_angle_gamma   90.00000000
_symmetry_Int_Tables_number   1
_chemical_formula_structural   Zr6CoS2
_chemical_formula_sum   'Zr24 Co4 S8'
_cell_volume   689.09110891
_cell_formula_units_Z   4
loop_
 _symmetry_equiv_pos_site_id
 _symmetry_equiv_pos_as_xyz
  1  'x, y, z'
loop_
 _atom_site_type_symbol
 _atom_site_label
 _atom_site_symmetry_multiplicity
 _atom_site_fract_x
 _atom_site_fract_y
 _atom_site_fract_z
 _atom_site_occupancy
  Zr  Zr0  1  0.000000  0.024056  0.103995  1
  Zr  Zr1  1  0.000000  0.975944  0.896005  1
  Zr  Zr2  1  0.500000  0.475944  0.603995  1
  Zr  Zr3  1  0.500000  0.524056  0.396005  1
  Zr  Zr4  1  0.000000  0.416963  0.251047  1
  Zr  Zr5  1  0.000000  0.583037  0.748953  1
  Zr  Zr6  1  0.500000  0.083037  0.751047  1
  Zr  Zr7  1  0.500000  0.916963  0.248953  1
  Zr  Zr8  1  0.000000  0.088066  0.580572  1
  Zr  Zr9  1  0.000000  0.911934  0.419428  1
  Zr  Zr10  1  0.500000  0.411934  0.080572  1
  Zr  Zr11  1  0.500000  0.588066  0.919428  1
  Zr  Zr12  1  0.000000  0.331372  0.483934  1
  Zr  Zr13  1  0.000000  0.668628  0.516066  1
  Zr  Zr14  1  0.500000  0.168628  0.983934  1
  Zr  Zr15  1  0.500000  0.831372  0.016066  1
  Zr  Zr16  1  0.000000  0.697999  0.295736  1
  Zr  Zr17  1  0.000000  0.302001  0.704264  1
  Zr  Zr18  1  0.500000  0.802001  0.795736  1
  Zr  Zr19  1  0.500000  0.197999  0.204264  1
  Zr  Zr20  1  0.000000  0.620243  0.085708  1
  Zr  Zr21  1  0.000000  0.379757  0.914292  1
  Zr  Zr22  1  0.500000  0.879757  0.585708  1
  Zr  Zr23  1  0.500000  0.120243  0.414292  1
  Co  Co24  1  0.000000  0.259722  0.089514  1
  Co  Co25  1  0.000000  0.740278  0.910486  1
  Co  Co26  1  0.500000  0.240278  0.589514  1
  Co  Co27  1  0.500000  0.759722  0.410486  1
  S  S28  1  0.000000  0.067590  0.288446  1
  S  S29  1  0.000000  0.932410  0.711554  1
  S  S30  1  0.500000  0.432410  0.788446  1
  S  S31  1  0.500000  0.567590  0.211554  1
  S  S32  1  0.000000  0.812997  0.151844  1
  S  S33  1  0.000000  0.187003  0.848156  1
  S  S34  1  0.500000  0.687003  0.651844  1
  S  S35  1  0.500000  0.312997  0.348156  1
