# generated using pymatgen
data_KRb2Sm(AsS2)6
_symmetry_space_group_name_H-M   'P 1'
_cell_length_a   9.42644100
_cell_length_b   9.42644093
_cell_length_c   7.78786100
_cell_angle_alpha   90.00000000
_cell_angle_beta   90.00000000
_cell_angle_gamma   120.00000377
_symmetry_Int_Tables_number   1
_chemical_formula_structural   KRb2Sm(AsS2)6
_chemical_formula_sum   'K1 Rb2 Sm1 As6 S12'
_cell_volume   599.30004540
_cell_formula_units_Z   1
loop_
 _symmetry_equiv_pos_site_id
 _symmetry_equiv_pos_as_xyz
  1  'x, y, z'
loop_
 _atom_site_type_symbol
 _atom_site_label
 _atom_site_symmetry_multiplicity
 _atom_site_fract_x
 _atom_site_fract_y
 _atom_site_fract_z
 _atom_site_occupancy
  K  K0  1  0.000000  0.000000  0.000000  1
  Rb  Rb1  1  0.333333  0.666667  0.846733  1
  Rb  Rb2  1  0.666667  0.333333  0.153267  1
  Sm  Sm3  1  0.000000  0.000000  0.500000  1
  As  As4  1  0.292737  0.839973  0.381044  1
  As  As5  1  0.160027  0.452764  0.381044  1
  As  As6  1  0.547236  0.707263  0.381044  1
  As  As7  1  0.707263  0.160027  0.618956  1
  As  As8  1  0.839973  0.547236  0.618956  1
  As  As9  1  0.452764  0.292737  0.618956  1
  S  S10  1  0.261911  0.046214  0.289866  1
  S  S11  1  0.953786  0.215697  0.289866  1
  S  S12  1  0.784303  0.738089  0.289866  1
  S  S13  1  0.738089  0.953786  0.710134  1
  S  S14  1  0.046214  0.784303  0.710134  1
  S  S15  1  0.215697  0.261911  0.710134  1
  S  S16  1  0.526523  0.902836  0.220631  1
  S  S17  1  0.097164  0.623686  0.220631  1
  S  S18  1  0.376314  0.473477  0.220631  1
  S  S19  1  0.473477  0.097164  0.779369  1
  S  S20  1  0.902836  0.376314  0.779369  1
  S  S21  1  0.623686  0.526523  0.779369  1
