# generated using pymatgen
data_Pr5SnWO12
_symmetry_space_group_name_H-M   'P 1'
_cell_length_a   7.18788692
_cell_length_b   7.18788691
_cell_length_c   7.70941810
_cell_angle_alpha   74.48901557
_cell_angle_beta   74.48902442
_cell_angle_gamma   51.43362668
_symmetry_Int_Tables_number   1
_chemical_formula_structural   Pr5SnWO12
_chemical_formula_sum   'Pr5 Sn1 W1 O12'
_cell_volume   297.39960796
_cell_formula_units_Z   1
loop_
 _symmetry_equiv_pos_site_id
 _symmetry_equiv_pos_as_xyz
  1  'x, y, z'
loop_
 _atom_site_type_symbol
 _atom_site_label
 _atom_site_symmetry_multiplicity
 _atom_site_fract_x
 _atom_site_fract_y
 _atom_site_fract_z
 _atom_site_occupancy
  Pr  Pr0  1  0.305695  0.299712  0.361461  1
  Pr  Pr1  1  0.700288  0.694305  0.638539  1
  Pr  Pr2  1  0.694224  0.695464  0.168794  1
  Pr  Pr3  1  0.304536  0.305776  0.831206  1
  Pr  Pr4  1  0.003079  0.996921  0.500000  1
  Sn  Sn5  1  0.757388  0.242612  0.000000  1
  W  W6  1  0.245079  0.754921  0.000000  1
  O  O7  1  0.094961  0.597391  0.575465  1
  O  O8  1  0.007238  0.990941  0.181269  1
  O  O9  1  0.402609  0.905039  0.424535  1
  O  O10  1  0.494675  0.507178  0.180138  1
  O  O11  1  0.104825  0.581679  0.079090  1
  O  O12  1  0.905438  0.405563  0.421737  1
  O  O13  1  0.009059  0.992762  0.818731  1
  O  O14  1  0.594437  0.094561  0.578263  1
  O  O15  1  0.492822  0.505325  0.819862  1
  O  O16  1  0.567017  0.101690  0.081633  1
  O  O17  1  0.418321  0.895175  0.920910  1
  O  O18  1  0.898310  0.432983  0.918367  1
