# generated using pymatgen
data_Dy4ErSi10P2Ir19
_symmetry_space_group_name_H-M   'P 1'
_cell_length_a   12.84228811
_cell_length_b   12.84201346
_cell_length_c   3.95949300
_cell_angle_alpha   90.00000000
_cell_angle_beta   90.00000000
_cell_angle_gamma   120.14438078
_symmetry_Int_Tables_number   1
_chemical_formula_structural   Dy4ErSi10P2Ir19
_chemical_formula_sum   'Dy4 Er1 Si10 P2 Ir19'
_cell_volume   564.69254690
_cell_formula_units_Z   1
loop_
 _symmetry_equiv_pos_site_id
 _symmetry_equiv_pos_as_xyz
  1  'x, y, z'
loop_
 _atom_site_type_symbol
 _atom_site_label
 _atom_site_symmetry_multiplicity
 _atom_site_fract_x
 _atom_site_fract_y
 _atom_site_fract_z
 _atom_site_occupancy
  Dy  Dy0  1  0.666575  0.333635  0.000000  1
  Dy  Dy1  1  0.333655  0.666567  0.000000  1
  Dy  Dy2  1  0.812804  0.812825  0.500000  1
  Dy  Dy3  1  0.186174  0.001090  0.500000  1
  Er  Er4  1  0.001229  0.186397  0.500000  1
  Si  Si5  1  0.686311  0.167471  0.500000  1
  Si  Si6  1  0.832158  0.518461  0.500000  1
  Si  Si7  1  0.480812  0.312692  0.500000  1
  Si  Si8  1  0.167482  0.686249  0.500000  1
  Si  Si9  1  0.518612  0.832243  0.500000  1
  Si  Si10  1  0.312688  0.480905  0.500000  1
  Si  Si11  1  0.632995  0.632996  0.000000  1
  Si  Si12  1  0.367362  0.000181  0.000000  1
  Si  Si13  1  0.000178  0.367071  0.000000  1
  Si  Si14  1  0.178606  0.178916  0.000000  1
  P  P15  1  0.820943  0.001120  0.000000  1
  P  P16  1  0.000878  0.820828  0.000000  1
  Ir  Ir17  1  0.806989  0.180009  0.000000  1
  Ir  Ir18  1  0.820523  0.626979  0.000000  1
  Ir  Ir19  1  0.375625  0.194004  0.000000  1
  Ir  Ir20  1  0.179937  0.806425  0.000000  1
  Ir  Ir21  1  0.626998  0.820574  0.000000  1
  Ir  Ir22  1  0.193471  0.375267  0.000000  1
  Ir  Ir23  1  0.447779  0.447789  0.000000  1
  Ir  Ir24  1  0.552570  0.999033  0.000000  1
  Ir  Ir25  1  0.999014  0.552411  0.000000  1
  Ir  Ir26  1  0.281497  0.281691  0.500000  1
  Ir  Ir27  1  0.721262  0.000419  0.500000  1
  Ir  Ir28  1  0.000212  0.720947  0.500000  1
  Ir  Ir29  1  0.872462  0.359522  0.500000  1
  Ir  Ir30  1  0.640322  0.512926  0.500000  1
  Ir  Ir31  1  0.487104  0.126046  0.500000  1
  Ir  Ir32  1  0.359639  0.872445  0.500000  1
  Ir  Ir33  1  0.512961  0.640348  0.500000  1
  Ir  Ir34  1  0.126036  0.487028  0.500000  1
  Ir  Ir35  1  0.996137  0.996489  0.000000  1
