# generated using pymatgen
data_NaTb2Dy4FeCl12
_symmetry_space_group_name_H-M   'P 1'
_cell_length_a   8.82865327
_cell_length_b   8.82433415
_cell_length_c   8.81746679
_cell_angle_alpha   106.80988479
_cell_angle_beta   106.74819330
_cell_angle_gamma   106.84551303
_symmetry_Int_Tables_number   1
_chemical_formula_structural   NaTb2Dy4FeCl12
_chemical_formula_sum   'Na1 Tb2 Dy4 Fe1 Cl12'
_cell_volume   575.16608624
_cell_formula_units_Z   1
loop_
 _symmetry_equiv_pos_site_id
 _symmetry_equiv_pos_as_xyz
  1  'x, y, z'
loop_
 _atom_site_type_symbol
 _atom_site_label
 _atom_site_symmetry_multiplicity
 _atom_site_fract_x
 _atom_site_fract_y
 _atom_site_fract_z
 _atom_site_occupancy
  Na  Na0  1  0.499938  0.499908  0.499987  1
  Tb  Tb1  1  0.318362  0.110714  0.027953  1
  Tb  Tb2  1  0.028311  0.318630  0.110906  1
  Dy  Dy3  1  0.110369  0.028450  0.317834  1
  Dy  Dy4  1  0.889185  0.971561  0.682044  1
  Dy  Dy5  1  0.971712  0.682327  0.889393  1
  Dy  Dy6  1  0.682326  0.888959  0.971726  1
  Fe  Fe7  1  0.000240  0.000452  0.999933  1
  Cl  Cl8  1  0.682550  0.213254  0.072332  1
  Cl  Cl9  1  0.366074  0.447816  0.149628  1
  Cl  Cl10  1  0.072556  0.684584  0.214406  1
  Cl  Cl11  1  0.785752  0.927567  0.316898  1
  Cl  Cl12  1  0.445465  0.148650  0.366146  1
  Cl  Cl13  1  0.149400  0.363973  0.447515  1
  Cl  Cl14  1  0.851480  0.635716  0.554621  1
  Cl  Cl15  1  0.554517  0.851342  0.635928  1
  Cl  Cl16  1  0.212792  0.071754  0.680878  1
  Cl  Cl17  1  0.926786  0.316480  0.783626  1
  Cl  Cl18  1  0.635809  0.554384  0.851553  1
  Cl  Cl19  1  0.316377  0.783482  0.926689  1
