# generated using pymatgen
data_AcFe4(As5O11)2
_symmetry_space_group_name_H-M   'P 1'
_cell_length_a   10.07676586
_cell_length_b   10.58216815
_cell_length_c   12.17739500
_cell_angle_alpha   82.50380698
_cell_angle_beta   66.03920488
_cell_angle_gamma   80.21942980
_symmetry_Int_Tables_number   1
_chemical_formula_structural   AcFe4(As5O11)2
_chemical_formula_sum   'Ac2 Fe8 As20 O44'
_cell_volume   1166.64799551
_cell_formula_units_Z   2
loop_
 _symmetry_equiv_pos_site_id
 _symmetry_equiv_pos_as_xyz
  1  'x, y, z'
loop_
 _atom_site_type_symbol
 _atom_site_label
 _atom_site_symmetry_multiplicity
 _atom_site_fract_x
 _atom_site_fract_y
 _atom_site_fract_z
 _atom_site_occupancy
  Ac  Ac0  1  0.974711  0.243791  0.528476  1
  Ac  Ac1  1  0.025289  0.756209  0.471524  1
  Fe  Fe2  1  0.216535  0.486044  0.260214  1
  Fe  Fe3  1  0.783465  0.513956  0.739786  1
  Fe  Fe4  1  0.665516  0.251415  0.840041  1
  Fe  Fe5  1  0.334484  0.748585  0.159959  1
  Fe  Fe6  1  0.243339  0.017533  0.270199  1
  Fe  Fe7  1  0.756661  0.982467  0.729801  1
  Fe  Fe8  1  0.398445  0.252328  0.094350  1
  Fe  Fe9  1  0.601555  0.747672  0.905650  1
  As  As10  1  0.462783  0.169214  0.695297  1
  As  As11  1  0.537217  0.830786  0.304703  1
  As  As12  1  0.367952  0.239191  0.378593  1
  As  As13  1  0.632048  0.760809  0.621407  1
  As  As14  1  0.591821  0.438068  0.596264  1
  As  As15  1  0.408179  0.561932  0.403736  1
  As  As16  1  0.600614  0.488617  0.120527  1
  As  As17  1  0.399386  0.511383  0.879473  1
  As  As18  1  0.713463  0.035723  0.471864  1
  As  As19  1  0.286537  0.964277  0.528136  1
  As  As20  1  0.137742  0.456444  0.675607  1
  As  As21  1  0.862258  0.543556  0.324393  1
  As  As22  1  0.999005  0.056168  0.823273  1
  As  As23  1  0.000995  0.943832  0.176727  1
  As  As24  1  0.928637  0.335742  0.927290  1
  As  As25  1  0.071363  0.664258  0.072710  1
  As  As26  1  0.317250  0.004442  0.963164  1
  As  As27  1  0.682750  0.995558  0.036836  1
  As  As28  1  0.030601  0.268752  0.213845  1
  As  As29  1  0.969399  0.731248  0.786155  1
  O  O30  1  0.588236  0.127405  0.768925  1
  O  O31  1  0.411764  0.872595  0.231075  1
  O  O32  1  0.190908  0.350138  0.168346  1
  O  O33  1  0.809092  0.649862  0.831654  1
  O  O34  1  0.592626  0.150904  0.010765  1
  O  O35  1  0.407374  0.849096  0.989235  1
  O  O36  1  0.785886  0.373367  0.870329  1
  O  O37  1  0.214114  0.626633  0.129671  1
  O  O38  1  0.875576  0.115790  0.745855  1
  O  O39  1  0.124424  0.884210  0.254145  1
  O  O40  1  0.294277  0.091211  0.091988  1
  O  O41  1  0.705723  0.908789  0.908012  1
  O  O42  1  0.434515  0.410221  0.168095  1
  O  O43  1  0.565485  0.589779  0.831905  1
  O  O44  1  0.454780  0.353561  0.933029  1
  O  O45  1  0.545220  0.646439  0.066971  1
  O  O46  1  0.723546  0.379370  0.664743  1
  O  O47  1  0.276454  0.620630  0.335257  1
  O  O48  1  0.052098  0.209630  0.826536  1
  O  O49  1  0.947902  0.790370  0.173464  1
  O  O50  1  0.062372  0.148000  0.321725  1
  O  O51  1  0.937628  0.852000  0.678275  1
  O  O52  1  0.988678  0.430994  0.641517  1
  O  O53  1  0.011322  0.569006  0.358483  1
  O  O54  1  0.563769  0.282635  0.569975  1
  O  O55  1  0.436231  0.717365  0.430025  1
  O  O56  1  0.898600  0.365310  0.345159  1
  O  O57  1  0.101400  0.634690  0.654841  1
  O  O58  1  0.819551  0.055609  0.554467  1
  O  O59  1  0.180449  0.944391  0.445533  1
  O  O60  1  0.528827  0.039758  0.594057  1
  O  O61  1  0.471173  0.960242  0.405943  1
  O  O62  1  0.048125  0.456404  0.841430  1
  O  O63  1  0.951875  0.543596  0.158570  1
  O  O64  1  0.424690  0.468522  0.729602  1
  O  O65  1  0.575310  0.531478  0.270398  1
  O  O66  1  0.369516  0.153822  0.258522  1
  O  O67  1  0.630484  0.846178  0.741478  1
  O  O68  1  0.247380  0.142042  0.515083  1
  O  O69  1  0.752620  0.857958  0.484917  1
  O  O70  1  0.209344  0.355780  0.398072  1
  O  O71  1  0.790656  0.644220  0.601928  1
  O  O72  1  0.865076  0.046817  0.978190  1
  O  O73  1  0.134924  0.953183  0.021810  1
