# generated using pymatgen
data_Dy2Y2ReB12Os
_symmetry_space_group_name_H-M   'P 1'
_cell_length_a   3.67219500
_cell_length_b   9.17471902
_cell_length_c   11.56638500
_cell_angle_alpha   90.14032981
_cell_angle_beta   90.00000000
_cell_angle_gamma   90.00000000
_symmetry_Int_Tables_number   1
_chemical_formula_structural   Dy2Y2ReB12Os
_chemical_formula_sum   'Dy4 Y4 Re2 B24 Os2'
_cell_volume   389.68604118
_cell_formula_units_Z   2
loop_
 _symmetry_equiv_pos_site_id
 _symmetry_equiv_pos_as_xyz
  1  'x, y, z'
loop_
 _atom_site_type_symbol
 _atom_site_label
 _atom_site_symmetry_multiplicity
 _atom_site_fract_x
 _atom_site_fract_y
 _atom_site_fract_z
 _atom_site_occupancy
  Dy  Dy0  1  0.000000  0.943436  0.370715  1
  Dy  Dy1  1  0.000000  0.056564  0.629285  1
  Dy  Dy2  1  0.000000  0.442619  0.128874  1
  Dy  Dy3  1  0.000000  0.557381  0.871126  1
  Y  Y4  1  0.000000  0.320817  0.412468  1
  Y  Y5  1  0.000000  0.679183  0.587532  1
  Y  Y6  1  0.000000  0.824722  0.084744  1
  Y  Y7  1  0.000000  0.175278  0.915256  1
  Re  Re8  1  0.000000  0.138231  0.179477  1
  Re  Re9  1  0.000000  0.861769  0.820523  1
  B  B10  1  0.500000  0.553821  0.432869  1
  B  B11  1  0.500000  0.446179  0.567131  1
  B  B12  1  0.500000  0.053180  0.067062  1
  B  B13  1  0.500000  0.946820  0.932938  1
  B  B14  1  0.500000  0.748315  0.418621  1
  B  B15  1  0.500000  0.251685  0.581379  1
  B  B16  1  0.500000  0.248295  0.081291  1
  B  B17  1  0.500000  0.751705  0.918709  1
  B  B18  1  0.500000  0.790427  0.266179  1
  B  B19  1  0.500000  0.209573  0.733821  1
  B  B20  1  0.500000  0.291392  0.234261  1
  B  B21  1  0.500000  0.708608  0.765739  1
  B  B22  1  0.500000  0.631023  0.186374  1
  B  B23  1  0.500000  0.368977  0.813626  1
  B  B24  1  0.500000  0.131451  0.314393  1
  B  B25  1  0.500000  0.868549  0.685607  1
  B  B26  1  0.500000  0.983102  0.212532  1
  B  B27  1  0.500000  0.016898  0.787468  1
  B  B28  1  0.500000  0.483344  0.287840  1
  B  B29  1  0.500000  0.516656  0.712160  1
  B  B30  1  0.500000  0.603851  0.029015  1
  B  B31  1  0.500000  0.396149  0.970985  1
  B  B32  1  0.500000  0.104363  0.471206  1
  B  B33  1  0.500000  0.895637  0.528794  1
  Os  Os34  1  0.000000  0.637412  0.321932  1
  Os  Os35  1  0.000000  0.362588  0.678068  1
