# generated using pymatgen
data_Tm4Lu2Al24Ru7Pt
_symmetry_space_group_name_H-M   'P 1'
_cell_length_a   8.76182228
_cell_length_b   8.76182038
_cell_length_c   9.55444900
_cell_angle_alpha   89.87410956
_cell_angle_beta   90.12589010
_cell_angle_gamma   119.91052981
_symmetry_Int_Tables_number   1
_chemical_formula_structural   Tm4Lu2Al24Ru7Pt
_chemical_formula_sum   'Tm4 Lu2 Al24 Ru7 Pt1'
_cell_volume   635.79118515
_cell_formula_units_Z   1
loop_
 _symmetry_equiv_pos_site_id
 _symmetry_equiv_pos_as_xyz
  1  'x, y, z'
loop_
 _atom_site_type_symbol
 _atom_site_label
 _atom_site_symmetry_multiplicity
 _atom_site_fract_x
 _atom_site_fract_y
 _atom_site_fract_z
 _atom_site_occupancy
  Tm  Tm0  1  0.386976  0.191330  0.748927  1
  Tm  Tm1  1  0.613024  0.808670  0.251073  1
  Tm  Tm2  1  0.808670  0.613024  0.748927  1
  Tm  Tm3  1  0.191330  0.386976  0.251073  1
  Lu  Lu4  1  0.805152  0.194848  0.748199  1
  Lu  Lu5  1  0.194848  0.805152  0.251801  1
  Al  Al6  1  0.669387  0.330613  0.977732  1
  Al  Al7  1  0.330613  0.669387  0.022268  1
  Al  Al8  1  0.333419  0.666581  0.478781  1
  Al  Al9  1  0.666581  0.333419  0.521219  1
  Al  Al10  1  0.836788  0.163212  0.422338  1
  Al  Al11  1  0.163212  0.836788  0.577662  1
  Al  Al12  1  0.325434  0.163306  0.422242  1
  Al  Al13  1  0.162695  0.837305  0.921267  1
  Al  Al14  1  0.674566  0.836694  0.577758  1
  Al  Al15  1  0.837305  0.162695  0.078733  1
  Al  Al16  1  0.836694  0.674566  0.422242  1
  Al  Al17  1  0.675958  0.842289  0.920849  1
  Al  Al18  1  0.163306  0.325434  0.577758  1
  Al  Al19  1  0.324042  0.157711  0.079151  1
  Al  Al20  1  0.157711  0.324042  0.920849  1
  Al  Al21  1  0.842289  0.675958  0.079151  1
  Al  Al22  1  0.437566  0.562434  0.746751  1
  Al  Al23  1  0.562434  0.437566  0.253249  1
  Al  Al24  1  0.122737  0.560733  0.750245  1
  Al  Al25  1  0.877263  0.439267  0.249755  1
  Al  Al26  1  0.439267  0.877263  0.750245  1
  Al  Al27  1  0.560733  0.122737  0.249755  1
  Al  Al28  1  0.000192  0.999808  0.749822  1
  Al  Al29  1  0.999808  0.000192  0.250178  1
  Ru  Ru30  1  0.000000  0.500000  0.000000  1
  Ru  Ru31  1  0.500000  0.500000  0.500000  1
  Ru  Ru32  1  0.500000  0.000000  0.000000  1
  Ru  Ru33  1  0.000000  0.500000  0.500000  1
  Ru  Ru34  1  0.500000  0.000000  0.500000  1
  Ru  Ru35  1  0.000000  0.000000  0.000000  1
  Ru  Ru36  1  0.000000  0.000000  0.500000  1
  Pt  Pt37  1  0.500000  0.500000  0.000000  1
