# generated using pymatgen
data_Y2Al6Si4Pt
_symmetry_space_group_name_H-M   'P 1'
_cell_length_a   16.69902210
_cell_length_b   16.69766386
_cell_length_c   16.70185582
_cell_angle_alpha   14.50542743
_cell_angle_beta   14.49867798
_cell_angle_gamma   14.50633509
_symmetry_Int_Tables_number   1
_chemical_formula_structural   Y2Al6Si4Pt
_chemical_formula_sum   'Y2 Al6 Si4 Pt1'
_cell_volume   254.30679682
_cell_formula_units_Z   1
loop_
 _symmetry_equiv_pos_site_id
 _symmetry_equiv_pos_as_xyz
  1  'x, y, z'
loop_
 _atom_site_type_symbol
 _atom_site_label
 _atom_site_symmetry_multiplicity
 _atom_site_fract_x
 _atom_site_fract_y
 _atom_site_fract_z
 _atom_site_occupancy
  Y  Y0  1  0.434943  0.435095  0.434949  1
  Y  Y1  1  0.565083  0.564861  0.565069  1
  Al  Al2  1  0.683499  0.683543  0.683029  1
  Al  Al3  1  0.316573  0.316368  0.316997  1
  Al  Al4  1  0.051710  0.051907  0.052204  1
  Al  Al5  1  0.948277  0.948197  0.947716  1
  Al  Al6  1  0.814439  0.814558  0.814307  1
  Al  Al7  1  0.185510  0.185584  0.185586  1
  Si  Si8  1  0.734038  0.733852  0.734518  1
  Si  Si9  1  0.265966  0.266179  0.265447  1
  Si  Si10  1  0.135999  0.135816  0.136038  1
  Si  Si11  1  0.864136  0.863857  0.864142  1
  Pt  Pt12  1  0.000024  0.999988  0.999997  1
