# generated using pymatgen
data_ThCdCu5
_symmetry_space_group_name_H-M   'P 1'
_cell_length_a   5.09635600
_cell_length_b   8.33254800
_cell_length_c   10.56788400
_cell_angle_alpha   90.00000000
_cell_angle_beta   90.00000000
_cell_angle_gamma   90.00000000
_symmetry_Int_Tables_number   1
_chemical_formula_structural   ThCdCu5
_chemical_formula_sum   'Th4 Cd4 Cu20'
_cell_volume   448.77186234
_cell_formula_units_Z   4
loop_
 _symmetry_equiv_pos_site_id
 _symmetry_equiv_pos_as_xyz
  1  'x, y, z'
loop_
 _atom_site_type_symbol
 _atom_site_label
 _atom_site_symmetry_multiplicity
 _atom_site_fract_x
 _atom_site_fract_y
 _atom_site_fract_z
 _atom_site_occupancy
  Th  Th0  1  0.750000  0.246825  0.937717  1
  Th  Th1  1  0.250000  0.753175  0.062283  1
  Th  Th2  1  0.750000  0.746825  0.562283  1
  Th  Th3  1  0.250000  0.253175  0.437717  1
  Cd  Cd4  1  0.750000  0.362051  0.637015  1
  Cd  Cd5  1  0.250000  0.637949  0.362985  1
  Cd  Cd6  1  0.750000  0.862051  0.862985  1
  Cd  Cd7  1  0.250000  0.137949  0.137015  1
  Cu  Cu8  1  0.001235  0.431898  0.187215  1
  Cu  Cu9  1  0.501235  0.568102  0.812785  1
  Cu  Cu10  1  0.498765  0.931898  0.312785  1
  Cu  Cu11  1  0.998765  0.068102  0.687215  1
  Cu  Cu12  1  0.998765  0.568102  0.812785  1
  Cu  Cu13  1  0.498765  0.431898  0.187215  1
  Cu  Cu14  1  0.501235  0.068102  0.687215  1
  Cu  Cu15  1  0.001235  0.931898  0.312785  1
  Cu  Cu16  1  0.750000  0.442201  0.392335  1
  Cu  Cu17  1  0.250000  0.557799  0.607665  1
  Cu  Cu18  1  0.750000  0.942201  0.107665  1
  Cu  Cu19  1  0.250000  0.057799  0.892335  1
  Cu  Cu20  1  0.750000  0.182463  0.256402  1
  Cu  Cu21  1  0.250000  0.817537  0.743598  1
  Cu  Cu22  1  0.750000  0.682463  0.243598  1
  Cu  Cu23  1  0.250000  0.317537  0.756402  1
  Cu  Cu24  1  0.750000  0.084842  0.485064  1
  Cu  Cu25  1  0.250000  0.915158  0.514936  1
  Cu  Cu26  1  0.750000  0.584842  0.014936  1
  Cu  Cu27  1  0.250000  0.415158  0.985064  1
