# generated using pymatgen
data_Ca20Zn9CdGa2
_symmetry_space_group_name_H-M   'P 1'
_cell_length_a   7.97321100
_cell_length_b   7.97321100
_cell_length_c   14.98615200
_cell_angle_alpha   90.00000000
_cell_angle_beta   90.00000000
_cell_angle_gamma   90.00000000
_symmetry_Int_Tables_number   1
_chemical_formula_structural   Ca20Zn9CdGa2
_chemical_formula_sum   'Ca20 Zn9 Cd1 Ga2'
_cell_volume   952.70105840
_cell_formula_units_Z   1
loop_
 _symmetry_equiv_pos_site_id
 _symmetry_equiv_pos_as_xyz
  1  'x, y, z'
loop_
 _atom_site_type_symbol
 _atom_site_label
 _atom_site_symmetry_multiplicity
 _atom_site_fract_x
 _atom_site_fract_y
 _atom_site_fract_z
 _atom_site_occupancy
  Ca  Ca0  1  0.672921  0.164534  0.103385  1
  Ca  Ca1  1  0.172288  0.670712  0.600820  1
  Ca  Ca2  1  0.327079  0.835466  0.103385  1
  Ca  Ca3  1  0.827712  0.329288  0.600820  1
  Ca  Ca4  1  0.835466  0.672921  0.103385  1
  Ca  Ca5  1  0.329288  0.172288  0.600820  1
  Ca  Ca6  1  0.164534  0.327079  0.103385  1
  Ca  Ca7  1  0.670712  0.827712  0.600820  1
  Ca  Ca8  1  0.835466  0.327079  0.896615  1
  Ca  Ca9  1  0.329288  0.827712  0.399180  1
  Ca  Ca10  1  0.164534  0.672921  0.896615  1
  Ca  Ca11  1  0.670712  0.172288  0.399180  1
  Ca  Ca12  1  0.672921  0.835466  0.896615  1
  Ca  Ca13  1  0.172288  0.329288  0.399180  1
  Ca  Ca14  1  0.327079  0.164534  0.896615  1
  Ca  Ca15  1  0.827712  0.670712  0.399180  1
  Ca  Ca16  1  0.500000  0.500000  0.750053  1
  Ca  Ca17  1  0.000000  0.000000  0.255787  1
  Ca  Ca18  1  0.000000  0.000000  0.744213  1
  Ca  Ca19  1  0.500000  0.500000  0.249947  1
  Zn  Zn20  1  0.617373  0.117897  0.750997  1
  Zn  Zn21  1  0.117897  0.617373  0.249003  1
  Zn  Zn22  1  0.882103  0.382627  0.249003  1
  Zn  Zn23  1  0.382627  0.882103  0.750997  1
  Zn  Zn24  1  0.882103  0.617373  0.750997  1
  Zn  Zn25  1  0.382627  0.117897  0.249003  1
  Zn  Zn26  1  0.117897  0.382627  0.750997  1
  Zn  Zn27  1  0.617373  0.882103  0.249003  1
  Zn  Zn28  1  0.000000  0.000000  0.000000  1
  Cd  Cd29  1  0.500000  0.500000  0.000000  1
  Ga  Ga30  1  0.500000  0.500000  0.500000  1
  Ga  Ga31  1  0.000000  0.000000  0.500000  1
