# generated using pymatgen
data_Yb4AlZnPd10
_symmetry_space_group_name_H-M   'P 1'
_cell_length_a   4.16358700
_cell_length_b   5.69190261
_cell_length_c   11.27615300
_cell_angle_alpha   91.85585571
_cell_angle_beta   90.00000000
_cell_angle_gamma   90.00000000
_symmetry_Int_Tables_number   1
_chemical_formula_structural   Yb4AlZnPd10
_chemical_formula_sum   'Yb4 Al1 Zn1 Pd10'
_cell_volume   267.09035256
_cell_formula_units_Z   1
loop_
 _symmetry_equiv_pos_site_id
 _symmetry_equiv_pos_as_xyz
  1  'x, y, z'
loop_
 _atom_site_type_symbol
 _atom_site_label
 _atom_site_symmetry_multiplicity
 _atom_site_fract_x
 _atom_site_fract_y
 _atom_site_fract_z
 _atom_site_occupancy
  Yb  Yb0  1  0.000000  0.799508  0.636545  1
  Yb  Yb1  1  0.000000  0.313692  0.859434  1
  Yb  Yb2  1  0.000000  0.200492  0.363455  1
  Yb  Yb3  1  0.000000  0.686308  0.140566  1
  Al  Al4  1  0.500000  0.000000  0.000000  1
  Zn  Zn5  1  0.500000  0.500000  0.500000  1
  Pd  Pd6  1  0.000000  0.811883  0.895875  1
  Pd  Pd7  1  0.000000  0.704926  0.388979  1
  Pd  Pd8  1  0.000000  0.295074  0.611021  1
  Pd  Pd9  1  0.500000  0.950752  0.240186  1
  Pd  Pd10  1  0.500000  0.448886  0.255676  1
  Pd  Pd11  1  0.500000  0.551114  0.744324  1
  Pd  Pd12  1  0.500000  0.049248  0.759814  1
  Pd  Pd13  1  0.500000  0.500000  0.000000  1
  Pd  Pd14  1  0.500000  0.000000  0.500000  1
  Pd  Pd15  1  0.000000  0.188117  0.104125  1
