# generated using pymatgen
data_Yb3Ga6Ni7Rh2
_symmetry_space_group_name_H-M   'P 1'
_cell_length_a   9.13565294
_cell_length_b   9.13565217
_cell_length_c   3.85723500
_cell_angle_alpha   90.00000000
_cell_angle_beta   90.00000000
_cell_angle_gamma   121.00870217
_symmetry_Int_Tables_number   1
_chemical_formula_structural   Yb3Ga6Ni7Rh2
_chemical_formula_sum   'Yb3 Ga6 Ni7 Rh2'
_cell_volume   275.91874240
_cell_formula_units_Z   1
loop_
 _symmetry_equiv_pos_site_id
 _symmetry_equiv_pos_as_xyz
  1  'x, y, z'
loop_
 _atom_site_type_symbol
 _atom_site_label
 _atom_site_symmetry_multiplicity
 _atom_site_fract_x
 _atom_site_fract_y
 _atom_site_fract_z
 _atom_site_occupancy
  Yb  Yb0  1  0.000000  0.000000  0.000000  1
  Yb  Yb1  1  0.671935  0.328065  0.500000  1
  Yb  Yb2  1  0.328065  0.671935  0.500000  1
  Ga  Ga3  1  0.675038  0.675038  0.500000  1
  Ga  Ga4  1  0.314413  0.005150  0.500000  1
  Ga  Ga5  1  0.005150  0.314413  0.500000  1
  Ga  Ga6  1  0.324962  0.324962  0.500000  1
  Ga  Ga7  1  0.685587  0.994850  0.500000  1
  Ga  Ga8  1  0.994850  0.685587  0.500000  1
  Ni  Ni9  1  0.500000  0.500000  0.000000  1
  Ni  Ni10  1  0.830271  0.169729  0.000000  1
  Ni  Ni11  1  0.817771  0.647662  0.000000  1
  Ni  Ni12  1  0.352338  0.182229  0.000000  1
  Ni  Ni13  1  0.169729  0.830271  0.000000  1
  Ni  Ni14  1  0.647662  0.817771  0.000000  1
  Ni  Ni15  1  0.182229  0.352338  0.000000  1
  Rh  Rh16  1  0.500000  0.000000  0.000000  1
  Rh  Rh17  1  0.000000  0.500000  0.000000  1
