# generated using pymatgen
data_Ho12Cu2Tc2SnRu
_symmetry_space_group_name_H-M   'P 1'
_cell_length_a   8.36570948
_cell_length_b   8.36571038
_cell_length_c   8.36571100
_cell_angle_alpha   113.63217903
_cell_angle_beta   109.77147505
_cell_angle_gamma   105.12151206
_symmetry_Int_Tables_number   1
_chemical_formula_structural   Ho12Cu2Tc2SnRu
_chemical_formula_sum   'Ho12 Cu2 Tc2 Sn1 Ru1'
_cell_volume   448.21686542
_cell_formula_units_Z   1
loop_
 _symmetry_equiv_pos_site_id
 _symmetry_equiv_pos_as_xyz
  1  'x, y, z'
loop_
 _atom_site_type_symbol
 _atom_site_label
 _atom_site_symmetry_multiplicity
 _atom_site_fract_x
 _atom_site_fract_y
 _atom_site_fract_z
 _atom_site_occupancy
  Ho  Ho0  1  0.417807  0.230850  0.186954  1
  Ho  Ho1  1  0.582193  0.769150  0.813046  1
  Ho  Ho2  1  0.043895  0.230850  0.813046  1
  Ho  Ho3  1  0.956105  0.769150  0.186954  1
  Ho  Ho4  1  0.178170  0.266592  0.444761  1
  Ho  Ho5  1  0.821830  0.733408  0.555239  1
  Ho  Ho6  1  0.178170  0.733408  0.911579  1
  Ho  Ho7  1  0.821830  0.266592  0.088421  1
  Ho  Ho8  1  0.333957  0.644971  0.311014  1
  Ho  Ho9  1  0.666043  0.355029  0.688986  1
  Ho  Ho10  1  0.333957  0.022944  0.688986  1
  Ho  Ho11  1  0.666043  0.977056  0.311014  1
  Cu  Cu12  1  0.117989  0.617989  0.500000  1
  Cu  Cu13  1  0.882011  0.382011  0.500000  1
  Tc  Tc14  1  0.333722  0.000000  0.333722  1
  Tc  Tc15  1  0.666278  0.000000  0.666278  1
  Sn  Sn16  1  0.500000  0.500000  0.000000  1
  Ru  Ru17  1  0.000000  0.000000  0.000000  1
