# generated using pymatgen
data_NdEr(Ni3As2)2
_symmetry_space_group_name_H-M   'P 1'
_cell_length_a   3.94099000
_cell_length_b   10.88202207
_cell_length_c   12.80202305
_cell_angle_alpha   90.01146770
_cell_angle_beta   90.00000000
_cell_angle_gamma   90.00000000
_symmetry_Int_Tables_number   1
_chemical_formula_structural   NdEr(Ni3As2)2
_chemical_formula_sum   'Nd3 Er3 Ni18 As12'
_cell_volume   549.02678329
_cell_formula_units_Z   3
loop_
 _symmetry_equiv_pos_site_id
 _symmetry_equiv_pos_as_xyz
  1  'x, y, z'
loop_
 _atom_site_type_symbol
 _atom_site_label
 _atom_site_symmetry_multiplicity
 _atom_site_fract_x
 _atom_site_fract_y
 _atom_site_fract_z
 _atom_site_occupancy
  Nd  Nd0  1  0.000000  0.500995  0.520264  1
  Nd  Nd1  1  0.500000  0.000270  0.478110  1
  Nd  Nd2  1  0.000000  0.314768  0.794481  1
  Er  Er3  1  0.500000  0.815498  0.207423  1
  Er  Er4  1  0.500000  0.184086  0.205250  1
  Er  Er5  1  0.000000  0.685824  0.794027  1
  Ni  Ni6  1  0.500000  0.500297  0.152719  1
  Ni  Ni7  1  0.000000  0.999461  0.847178  1
  Ni  Ni8  1  0.500000  0.501728  0.699829  1
  Ni  Ni9  1  0.000000  0.999613  0.300018  1
  Ni  Ni10  1  0.000000  0.503033  0.982468  1
  Ni  Ni11  1  0.500000  0.996769  0.021676  1
  Ni  Ni12  1  0.500000  0.332897  0.998010  1
  Ni  Ni13  1  0.500000  0.668681  0.999104  1
  Ni  Ni14  1  0.000000  0.163776  0.005229  1
  Ni  Ni15  1  0.000000  0.833239  0.002774  1
  Ni  Ni16  1  0.500000  0.303211  0.420594  1
  Ni  Ni17  1  0.500000  0.697651  0.422867  1
  Ni  Ni18  1  0.000000  0.197142  0.573704  1
  Ni  Ni19  1  0.000000  0.803229  0.577151  1
  Ni  Ni20  1  0.500000  0.878359  0.711375  1
  Ni  Ni21  1  0.500000  0.117996  0.709629  1
  Ni  Ni22  1  0.000000  0.621297  0.289435  1
  Ni  Ni23  1  0.000000  0.379490  0.287493  1
  As  As24  1  0.500000  0.504063  0.877342  1
  As  As25  1  0.000000  0.998385  0.125469  1
  As  As26  1  0.500000  0.500614  0.338492  1
  As  As27  1  0.000000  0.000585  0.660310  1
  As  As28  1  0.500000  0.312091  0.610612  1
  As  As29  1  0.500000  0.688687  0.613962  1
  As  As30  1  0.000000  0.188046  0.383998  1
  As  As31  1  0.000000  0.812218  0.386398  1
  As  As32  1  0.500000  0.846752  0.892320  1
  As  As33  1  0.500000  0.148420  0.894633  1
  As  As34  1  0.000000  0.654421  0.109126  1
  As  As35  1  0.000000  0.346409  0.106529  1
