# generated using pymatgen
data_NdAl2NiIr2
_symmetry_space_group_name_H-M   'P 1'
_cell_length_a   5.42008177
_cell_length_b   5.67822707
_cell_length_c   3.84297200
_cell_angle_alpha   90.00000000
_cell_angle_beta   90.00000000
_cell_angle_gamma   121.58841913
_symmetry_Int_Tables_number   1
_chemical_formula_structural   NdAl2NiIr2
_chemical_formula_sum   'Nd1 Al2 Ni1 Ir2'
_cell_volume   100.74887077
_cell_formula_units_Z   1
loop_
 _symmetry_equiv_pos_site_id
 _symmetry_equiv_pos_as_xyz
  1  'x, y, z'
loop_
 _atom_site_type_symbol
 _atom_site_label
 _atom_site_symmetry_multiplicity
 _atom_site_fract_x
 _atom_site_fract_y
 _atom_site_fract_z
 _atom_site_occupancy
  Nd  Nd0  1  0.000000  0.000000  0.000000  1
  Al  Al1  1  0.319442  0.659721  0.000000  1
  Al  Al2  1  0.680558  0.340279  0.000000  1
  Ni  Ni3  1  0.000000  0.500000  0.500000  1
  Ir  Ir4  1  0.500000  0.000000  0.500000  1
  Ir  Ir5  1  0.500000  0.500000  0.500000  1
