# generated using pymatgen
data_Er8Ta3Ti8Si16Os
_symmetry_space_group_name_H-M   'P 1'
_cell_length_a   6.98693917
_cell_length_b   6.98693893
_cell_length_c   12.84961732
_cell_angle_alpha   90.13622931
_cell_angle_beta   89.86376835
_cell_angle_gamma   89.82637685
_symmetry_Int_Tables_number   1
_chemical_formula_structural   Er8Ta3Ti8Si16Os
_chemical_formula_sum   'Er8 Ta3 Ti8 Si16 Os1'
_cell_volume   627.27740813
_cell_formula_units_Z   1
loop_
 _symmetry_equiv_pos_site_id
 _symmetry_equiv_pos_as_xyz
  1  'x, y, z'
loop_
 _atom_site_type_symbol
 _atom_site_label
 _atom_site_symmetry_multiplicity
 _atom_site_fract_x
 _atom_site_fract_y
 _atom_site_fract_z
 _atom_site_occupancy
  Er  Er0  1  0.341496  0.002972  0.467646  1
  Er  Er1  1  0.497501  0.841309  0.718242  1
  Er  Er2  1  0.500591  0.159223  0.215603  1
  Er  Er3  1  0.841309  0.497501  0.281758  1
  Er  Er4  1  0.159223  0.500591  0.784397  1
  Er  Er5  1  0.658112  0.999435  0.969045  1
  Er  Er6  1  0.002972  0.341496  0.532354  1
  Er  Er7  1  0.999435  0.658112  0.030955  1
  Ta  Ta8  1  0.173673  0.827705  0.247942  1
  Ta  Ta9  1  0.827705  0.173673  0.752058  1
  Ta  Ta10  1  0.673510  0.673510  0.500000  1
  Ti  Ti11  1  0.149285  0.002896  0.874830  1
  Ti  Ti12  1  0.491700  0.656862  0.124771  1
  Ti  Ti13  1  0.508235  0.348626  0.627737  1
  Ti  Ti14  1  0.656862  0.491700  0.875229  1
  Ti  Ti15  1  0.348626  0.508235  0.372263  1
  Ti  Ti16  1  0.848036  0.993039  0.374490  1
  Ti  Ti17  1  0.002896  0.149285  0.125170  1
  Ti  Ti18  1  0.993039  0.848036  0.625510  1
  Si  Si19  1  0.203605  0.132418  0.684403  1
  Si  Si20  1  0.371492  0.699439  0.933176  1
  Si  Si21  1  0.631729  0.296574  0.434237  1
  Si  Si22  1  0.699439  0.371492  0.066824  1
  Si  Si23  1  0.296574  0.631729  0.565763  1
  Si  Si24  1  0.796333  0.867394  0.183514  1
  Si  Si25  1  0.132418  0.203605  0.315597  1
  Si  Si26  1  0.867394  0.796333  0.816486  1
  Si  Si27  1  0.289190  0.955870  0.062759  1
  Si  Si28  1  0.546884  0.794053  0.314585  1
  Si  Si29  1  0.450205  0.208186  0.818115  1
  Si  Si30  1  0.794053  0.546884  0.685415  1
  Si  Si31  1  0.208186  0.450205  0.181885  1
  Si  Si32  1  0.707026  0.047598  0.564865  1
  Si  Si33  1  0.955870  0.289190  0.937241  1
  Si  Si34  1  0.047598  0.707026  0.435135  1
  Os  Os35  1  0.327798  0.327798  0.000000  1
