# generated using pymatgen
data_Tm5Ni19
_symmetry_space_group_name_H-M   'P 1'
_cell_length_a   4.88186463
_cell_length_b   4.88186425
_cell_length_c   16.35646916
_cell_angle_alpha   81.41749247
_cell_angle_beta   81.41749295
_cell_angle_gamma   59.99999775
_symmetry_Int_Tables_number   1
_chemical_formula_structural   Tm5Ni19
_chemical_formula_sum   'Tm5 Ni19'
_cell_volume   332.54156269
_cell_formula_units_Z   1
loop_
 _symmetry_equiv_pos_site_id
 _symmetry_equiv_pos_as_xyz
  1  'x, y, z'
loop_
 _atom_site_type_symbol
 _atom_site_label
 _atom_site_symmetry_multiplicity
 _atom_site_fract_x
 _atom_site_fract_y
 _atom_site_fract_z
 _atom_site_occupancy
  Tm  Tm0  1  0.000000  0.000000  0.000000  1
  Tm  Tm1  1  0.921788  0.921788  0.234637  1
  Tm  Tm2  1  0.078212  0.078212  0.765363  1
  Tm  Tm3  1  0.848252  0.848252  0.455245  1
  Tm  Tm4  1  0.151748  0.151748  0.544755  1
  Ni  Ni5  1  0.500000  0.500000  0.500000  1
  Ni  Ni6  1  0.749504  0.749505  0.751487  1
  Ni  Ni7  1  0.250495  0.250495  0.248514  1
  Ni  Ni8  1  0.666742  0.666742  0.999776  1
  Ni  Ni9  1  0.333258  0.333258  0.000224  1
  Ni  Ni10  1  0.583939  0.583939  0.248184  1
  Ni  Ni11  1  0.416061  0.416061  0.751816  1
  Ni  Ni12  1  0.375443  0.375443  0.371933  1
  Ni  Ni13  1  0.877181  0.375443  0.371933  1
  Ni  Ni14  1  0.375443  0.877181  0.371933  1
  Ni  Ni15  1  0.624557  0.624557  0.628067  1
  Ni  Ni16  1  0.122819  0.624557  0.628067  1
  Ni  Ni17  1  0.624557  0.122819  0.628067  1
  Ni  Ni18  1  0.458977  0.458977  0.123107  1
  Ni  Ni19  1  0.958938  0.458977  0.123107  1
  Ni  Ni20  1  0.458977  0.958938  0.123107  1
  Ni  Ni21  1  0.541023  0.541023  0.876893  1
  Ni  Ni22  1  0.041062  0.541023  0.876893  1
  Ni  Ni23  1  0.541023  0.041062  0.876893  1
