# generated using pymatgen
data_TbY19(Bi2Rh)4
_symmetry_space_group_name_H-M   'P 1'
_cell_length_a   8.06638244
_cell_length_b   9.02208717
_cell_length_c   12.48286307
_cell_angle_alpha   89.95824271
_cell_angle_beta   90.01431692
_cell_angle_gamma   90.01667405
_symmetry_Int_Tables_number   1
_chemical_formula_structural   TbY19(Bi2Rh)4
_chemical_formula_sum   'Tb1 Y19 Bi8 Rh4'
_cell_volume   908.44760979
_cell_formula_units_Z   1
loop_
 _symmetry_equiv_pos_site_id
 _symmetry_equiv_pos_as_xyz
  1  'x, y, z'
loop_
 _atom_site_type_symbol
 _atom_site_label
 _atom_site_symmetry_multiplicity
 _atom_site_fract_x
 _atom_site_fract_y
 _atom_site_fract_z
 _atom_site_occupancy
  Tb  Tb0  1  0.176600  0.541897  0.934343  1
  Y  Y1  1  0.838911  0.749804  0.792141  1
  Y  Y2  1  0.161448  0.249801  0.207984  1
  Y  Y3  1  0.338859  0.250017  0.707530  1
  Y  Y4  1  0.660949  0.749875  0.292699  1
  Y  Y5  1  0.376358  0.749715  0.693375  1
  Y  Y6  1  0.623728  0.249894  0.306318  1
  Y  Y7  1  0.875681  0.249969  0.805706  1
  Y  Y8  1  0.123692  0.750413  0.193928  1
  Y  Y9  1  0.951181  0.750072  0.501318  1
  Y  Y10  1  0.049056  0.249844  0.498584  1
  Y  Y11  1  0.451390  0.250674  0.998514  1
  Y  Y12  1  0.549507  0.749450  0.001191  1
  Y  Y13  1  0.677852  0.042707  0.566556  1
  Y  Y14  1  0.322672  0.957483  0.433585  1
  Y  Y15  1  0.177353  0.958085  0.933712  1
  Y  Y16  1  0.322474  0.542606  0.433824  1
  Y  Y17  1  0.822189  0.043853  0.066554  1
  Y  Y18  1  0.677823  0.456961  0.566389  1
  Y  Y19  1  0.821447  0.456897  0.067145  1
  Bi  Bi20  1  0.568607  0.490887  0.826517  1
  Bi  Bi21  1  0.431567  0.509175  0.173253  1
  Bi  Bi22  1  0.068196  0.508936  0.672710  1
  Bi  Bi23  1  0.431878  0.990849  0.172511  1
  Bi  Bi24  1  0.931843  0.490912  0.327112  1
  Bi  Bi25  1  0.568287  0.008908  0.827205  1
  Bi  Bi26  1  0.931842  0.008975  0.327007  1
  Bi  Bi27  1  0.068245  0.990873  0.672955  1
  Rh  Rh28  1  0.572832  0.750004  0.510405  1
  Rh  Rh29  1  0.426916  0.250006  0.489531  1
  Rh  Rh30  1  0.072909  0.251153  0.989256  1
  Rh  Rh31  1  0.927711  0.749302  0.010140  1
