# generated using pymatgen
data_LaEr12Th7Sn16
_symmetry_space_group_name_H-M   'P 1'
_cell_length_a   8.11896162
_cell_length_b   8.20714961
_cell_length_c   15.50001992
_cell_angle_alpha   90.02739365
_cell_angle_beta   90.02834705
_cell_angle_gamma   89.96525995
_symmetry_Int_Tables_number   1
_chemical_formula_structural   LaEr12Th7Sn16
_chemical_formula_sum   'La1 Er12 Th7 Sn16'
_cell_volume   1032.82065009
_cell_formula_units_Z   1
loop_
 _symmetry_equiv_pos_site_id
 _symmetry_equiv_pos_as_xyz
  1  'x, y, z'
loop_
 _atom_site_type_symbol
 _atom_site_label
 _atom_site_symmetry_multiplicity
 _atom_site_fract_x
 _atom_site_fract_y
 _atom_site_fract_z
 _atom_site_occupancy
  La  La0  1  0.519610  0.320598  0.903392  1
  Er  Er1  1  0.362398  0.836584  0.875992  1
  Er  Er2  1  0.862647  0.663024  0.623826  1
  Er  Er3  1  0.637088  0.163252  0.376166  1
  Er  Er4  1  0.136776  0.336967  0.123904  1
  Er  Er5  1  0.637524  0.163135  0.124184  1
  Er  Er6  1  0.137438  0.336902  0.376196  1
  Er  Er7  1  0.362752  0.836755  0.623778  1
  Er  Er8  1  0.863559  0.663377  0.876014  1
  Er  Er9  1  0.191525  0.498978  0.749758  1
  Er  Er10  1  0.692440  0.000726  0.749636  1
  Er  Er11  1  0.808215  0.501489  0.250073  1
  Er  Er12  1  0.308147  0.998501  0.249975  1
  Th  Th13  1  0.019848  0.179421  0.596364  1
  Th  Th14  1  0.480232  0.679519  0.403367  1
  Th  Th15  1  0.980272  0.820400  0.096667  1
  Th  Th16  1  0.480465  0.680514  0.097064  1
  Th  Th17  1  0.980393  0.820415  0.403543  1
  Th  Th18  1  0.519483  0.320185  0.596414  1
  Th  Th19  1  0.019464  0.178574  0.903276  1
  Sn  Sn20  1  0.296482  0.037807  0.042944  1
  Sn  Sn21  1  0.797500  0.460797  0.457710  1
  Sn  Sn22  1  0.702448  0.961036  0.542222  1
  Sn  Sn23  1  0.201246  0.540497  0.958184  1
  Sn  Sn24  1  0.703316  0.959187  0.957934  1
  Sn  Sn25  1  0.202442  0.539459  0.542114  1
  Sn  Sn26  1  0.297299  0.039114  0.457674  1
  Sn  Sn27  1  0.799027  0.461698  0.043310  1
  Sn  Sn28  1  0.558710  0.624154  0.749223  1
  Sn  Sn29  1  0.058267  0.877025  0.749912  1
  Sn  Sn30  1  0.441442  0.376892  0.250007  1
  Sn  Sn31  1  0.941349  0.123101  0.249996  1
  Sn  Sn32  1  0.325223  0.142053  0.749491  1
  Sn  Sn33  1  0.826791  0.357715  0.749538  1
  Sn  Sn34  1  0.674307  0.857806  0.250108  1
  Sn  Sn35  1  0.173875  0.642343  0.250044  1
