# generated using pymatgen
data_Tb3CeHo4AlPd24
_symmetry_space_group_name_H-M   'P 1'
_cell_length_a   8.35998575
_cell_length_b   8.35980429
_cell_length_c   8.36057007
_cell_angle_alpha   89.91687499
_cell_angle_beta   90.07585495
_cell_angle_gamma   90.06615320
_symmetry_Int_Tables_number   1
_chemical_formula_structural   Tb3CeHo4AlPd24
_chemical_formula_sum   'Tb3 Ce1 Ho4 Al1 Pd24'
_cell_volume   584.30070732
_cell_formula_units_Z   1
loop_
 _symmetry_equiv_pos_site_id
 _symmetry_equiv_pos_as_xyz
  1  'x, y, z'
loop_
 _atom_site_type_symbol
 _atom_site_label
 _atom_site_symmetry_multiplicity
 _atom_site_fract_x
 _atom_site_fract_y
 _atom_site_fract_z
 _atom_site_occupancy
  Tb  Tb0  1  0.748021  0.251969  0.748703  1
  Tb  Tb1  1  0.252270  0.252142  0.747731  1
  Tb  Tb2  1  0.252281  0.747747  0.252136  1
  Ce  Ce3  1  0.745806  0.254197  0.254157  1
  Ho  Ho4  1  0.251318  0.251964  0.251991  1
  Ho  Ho5  1  0.747854  0.747765  0.747735  1
  Ho  Ho6  1  0.748011  0.748674  0.252012  1
  Ho  Ho7  1  0.252338  0.747662  0.747680  1
  Al  Al8  1  0.000546  0.999386  0.999446  1
  Pd  Pd9  1  0.259838  0.499835  0.999820  1
  Pd  Pd10  1  0.740274  0.499583  0.001864  1
  Pd  Pd11  1  0.998523  0.259695  0.498550  1
  Pd  Pd12  1  0.500787  0.259700  0.002210  1
  Pd  Pd13  1  0.999806  0.740160  0.500127  1
  Pd  Pd14  1  0.500545  0.740156  0.999450  1
  Pd  Pd15  1  0.501128  0.001789  0.259711  1
  Pd  Pd16  1  0.259825  0.999756  0.499791  1
  Pd  Pd17  1  0.500194  0.999015  0.740173  1
  Pd  Pd18  1  0.740290  0.001070  0.498867  1
  Pd  Pd19  1  0.998152  0.498922  0.259723  1
  Pd  Pd20  1  0.000179  0.500526  0.740163  1
  Pd  Pd21  1  0.252957  0.499895  0.499837  1
  Pd  Pd22  1  0.746769  0.499736  0.498910  1
  Pd  Pd23  1  0.500697  0.253229  0.498530  1
  Pd  Pd24  1  0.500557  0.747034  0.500241  1
  Pd  Pd25  1  0.501089  0.498959  0.253215  1
  Pd  Pd26  1  0.500164  0.500695  0.747030  1
  Pd  Pd27  1  0.289251  0.999796  0.999832  1
  Pd  Pd28  1  0.711151  0.999715  0.000485  1
  Pd  Pd29  1  0.999895  0.288915  0.000823  1
  Pd  Pd30  1  0.999808  0.710785  0.999488  1
  Pd  Pd31  1  0.999516  0.000432  0.288836  1
  Pd  Pd32  1  0.000163  0.999095  0.710733  1
