# generated using pymatgen
data_Ba3ErLuWO9
_symmetry_space_group_name_H-M   'P 1'
_cell_length_a   6.04000898
_cell_length_b   8.55572265
_cell_length_c   10.46576513
_cell_angle_alpha   65.87378839
_cell_angle_beta   73.22820732
_cell_angle_gamma   89.99999573
_symmetry_Int_Tables_number   1
_chemical_formula_structural   Ba3ErLuWO9
_chemical_formula_sum   'Ba6 Er2 Lu2 W2 O18'
_cell_volume   468.27054046
_cell_formula_units_Z   2
loop_
 _symmetry_equiv_pos_site_id
 _symmetry_equiv_pos_as_xyz
  1  'x, y, z'
loop_
 _atom_site_type_symbol
 _atom_site_label
 _atom_site_symmetry_multiplicity
 _atom_site_fract_x
 _atom_site_fract_y
 _atom_site_fract_z
 _atom_site_occupancy
  Ba  Ba0  1  0.499664  0.266103  0.000671  1
  Ba  Ba1  1  0.839444  0.579454  0.321112  1
  Ba  Ba2  1  0.160648  0.901334  0.678705  1
  Ba  Ba3  1  0.499664  0.733226  0.000671  1
  Ba  Ba4  1  0.839444  0.099433  0.321112  1
  Ba  Ba5  1  0.160648  0.419963  0.678705  1
  Er  Er6  1  0.000092  0.000092  0.999816  1
  Er  Er7  1  0.669561  0.669561  0.660877  1
  Lu  Lu8  1  0.330575  0.330575  0.338850  1
  Lu  Lu9  1  0.999393  0.499393  0.001215  1
  W  W10  1  0.334208  0.834208  0.331582  1
  W  W11  1  0.666478  0.166478  0.667043  1
  O  O12  1  0.999753  0.248403  0.000494  1
  O  O13  1  0.330995  0.599241  0.338009  1
  O  O14  1  0.669451  0.938938  0.661099  1
  O  O15  1  0.163235  0.411410  0.177179  1
  O  O16  1  0.490538  0.758882  0.482235  1
  O  O17  1  0.819026  0.089502  0.820995  1
  O  O18  1  0.336969  0.587192  0.825617  1
  O  O19  1  0.640399  0.911054  0.177893  1
  O  O20  1  0.975195  0.241851  0.516299  1
  O  O21  1  0.999753  0.751103  0.000494  1
  O  O22  1  0.330995  0.062748  0.338009  1
  O  O23  1  0.669451  0.399965  0.661099  1
  O  O24  1  0.837413  0.587192  0.825617  1
  O  O25  1  0.181708  0.911054  0.177893  1
  O  O26  1  0.508508  0.241851  0.516299  1
  O  O27  1  0.659587  0.411410  0.177179  1
  O  O28  1  0.027225  0.758882  0.482235  1
  O  O29  1  0.359978  0.089502  0.820995  1
