# generated using pymatgen
data_Tb2Dy3Rh2
_symmetry_space_group_name_H-M   'P 1'
_cell_length_a   6.45776557
_cell_length_b   7.18238274
_cell_length_c   8.66337700
_cell_angle_alpha   96.89256920
_cell_angle_beta   111.88253374
_cell_angle_gamma   89.99999938
_symmetry_Int_Tables_number   1
_chemical_formula_structural   Tb2Dy3Rh2
_chemical_formula_sum   'Tb4 Dy6 Rh4'
_cell_volume   369.74304917
_cell_formula_units_Z   2
loop_
 _symmetry_equiv_pos_site_id
 _symmetry_equiv_pos_as_xyz
  1  'x, y, z'
loop_
 _atom_site_type_symbol
 _atom_site_label
 _atom_site_symmetry_multiplicity
 _atom_site_fract_x
 _atom_site_fract_y
 _atom_site_fract_z
 _atom_site_occupancy
  Tb  Tb0  1  0.792014  0.082900  0.811259  1
  Tb  Tb1  1  0.980755  0.417100  0.188741  1
  Tb  Tb2  1  0.207986  0.917100  0.188741  1
  Tb  Tb3  1  0.019245  0.582900  0.811259  1
  Dy  Dy4  1  0.210971  0.185996  0.562186  1
  Dy  Dy5  1  0.648785  0.314004  0.437814  1
  Dy  Dy6  1  0.789029  0.814004  0.437814  1
  Dy  Dy7  1  0.351215  0.685996  0.562186  1
  Dy  Dy8  1  0.425068  0.250000  0.000000  1
  Dy  Dy9  1  0.574932  0.750000  0.000000  1
  Rh  Rh10  1  0.594928  0.427777  0.777571  1
  Rh  Rh11  1  0.817357  0.072223  0.222429  1
  Rh  Rh12  1  0.405072  0.572223  0.222429  1
  Rh  Rh13  1  0.182643  0.927777  0.777571  1
