# generated using pymatgen
data_Eu5PdRh
_symmetry_space_group_name_H-M   'P 1'
_cell_length_a   9.12016439
_cell_length_b   9.12016575
_cell_length_c   7.79951091
_cell_angle_alpha   83.40616608
_cell_angle_beta   83.40616757
_cell_angle_gamma   43.81281752
_symmetry_Int_Tables_number   1
_chemical_formula_structural   Eu5PdRh
_chemical_formula_sum   'Eu10 Pd2 Rh2'
_cell_volume   445.67466204
_cell_formula_units_Z   2
loop_
 _symmetry_equiv_pos_site_id
 _symmetry_equiv_pos_as_xyz
  1  'x, y, z'
loop_
 _atom_site_type_symbol
 _atom_site_label
 _atom_site_symmetry_multiplicity
 _atom_site_fract_x
 _atom_site_fract_y
 _atom_site_fract_z
 _atom_site_occupancy
  Eu  Eu0  1  0.024276  0.795164  0.914081  1
  Eu  Eu1  1  0.204836  0.975724  0.585919  1
  Eu  Eu2  1  0.988241  0.194782  0.077298  1
  Eu  Eu3  1  0.805218  0.011759  0.422702  1
  Eu  Eu4  1  0.360528  0.203627  0.814546  1
  Eu  Eu5  1  0.796373  0.639472  0.685454  1
  Eu  Eu6  1  0.632089  0.798920  0.175635  1
  Eu  Eu7  1  0.201080  0.367911  0.324365  1
  Eu  Eu8  1  0.571923  0.428077  0.750000  1
  Eu  Eu9  1  0.418956  0.581044  0.250000  1
  Pd  Pd10  1  0.818382  0.402807  0.419448  1
  Pd  Pd11  1  0.597193  0.181618  0.080552  1
  Rh  Rh12  1  0.179222  0.598317  0.581288  1
  Rh  Rh13  1  0.401683  0.820778  0.918712  1
