# generated using pymatgen
data_Cs3KCr3WN8
_symmetry_space_group_name_H-M   'P 1'
_cell_length_a   5.92057800
_cell_length_b   8.35775500
_cell_length_c   11.80172500
_cell_angle_alpha   90.00000000
_cell_angle_beta   90.00000000
_cell_angle_gamma   90.00000000
_symmetry_Int_Tables_number   1
_chemical_formula_structural   Cs3KCr3WN8
_chemical_formula_sum   'Cs6 K2 Cr6 W2 N16'
_cell_volume   583.98169424
_cell_formula_units_Z   2
loop_
 _symmetry_equiv_pos_site_id
 _symmetry_equiv_pos_as_xyz
  1  'x, y, z'
loop_
 _atom_site_type_symbol
 _atom_site_label
 _atom_site_symmetry_multiplicity
 _atom_site_fract_x
 _atom_site_fract_y
 _atom_site_fract_z
 _atom_site_occupancy
  Cs  Cs0  1  0.250000  0.875504  0.000000  1
  Cs  Cs1  1  0.750000  0.124496  0.500000  1
  Cs  Cs2  1  0.744601  0.366058  0.235777  1
  Cs  Cs3  1  0.244601  0.633942  0.264223  1
  Cs  Cs4  1  0.255399  0.633942  0.735777  1
  Cs  Cs5  1  0.755399  0.366058  0.764223  1
  K  K6  1  0.750000  0.091215  0.000000  1
  K  K7  1  0.250000  0.908785  0.500000  1
  Cr  Cr8  1  0.750000  0.642371  0.000000  1
  Cr  Cr9  1  0.250000  0.357629  0.500000  1
  Cr  Cr10  1  0.244875  0.118387  0.252640  1
  Cr  Cr11  1  0.744875  0.881613  0.247360  1
  Cr  Cr12  1  0.755125  0.881613  0.752640  1
  Cr  Cr13  1  0.255125  0.118387  0.747360  1
  W  W14  1  0.250000  0.379794  0.000000  1
  W  W15  1  0.750000  0.620206  0.500000  1
  N  N16  1  0.992662  0.002285  0.249771  1
  N  N17  1  0.492662  0.997715  0.250229  1
  N  N18  1  0.007338  0.997715  0.749771  1
  N  N19  1  0.507338  0.002285  0.750229  1
  N  N20  1  0.247873  0.234763  0.379032  1
  N  N21  1  0.747873  0.765237  0.120968  1
  N  N22  1  0.752127  0.765237  0.879032  1
  N  N23  1  0.252127  0.234763  0.620968  1
  N  N24  1  0.751501  0.751321  0.630349  1
  N  N25  1  0.251501  0.248679  0.869651  1
  N  N26  1  0.248499  0.248679  0.130349  1
  N  N27  1  0.748499  0.751321  0.369651  1
  N  N28  1  0.494383  0.486699  0.499826  1
  N  N29  1  0.994383  0.513301  0.000174  1
  N  N30  1  0.505617  0.513301  0.999826  1
  N  N31  1  0.005617  0.486699  0.500174  1
