# generated using pymatgen
data_Cs12P3W4S13
_symmetry_space_group_name_H-M   'P 1'
_cell_length_a   10.04339593
_cell_length_b   10.19539143
_cell_length_c   11.78954183
_cell_angle_alpha   89.85270832
_cell_angle_beta   89.85569671
_cell_angle_gamma   89.79046415
_symmetry_Int_Tables_number   1
_chemical_formula_structural   Cs12P3W4S13
_chemical_formula_sum   'Cs12 P3 W4 S13'
_cell_volume   1207.19022150
_cell_formula_units_Z   1
loop_
 _symmetry_equiv_pos_site_id
 _symmetry_equiv_pos_as_xyz
  1  'x, y, z'
loop_
 _atom_site_type_symbol
 _atom_site_label
 _atom_site_symmetry_multiplicity
 _atom_site_fract_x
 _atom_site_fract_y
 _atom_site_fract_z
 _atom_site_occupancy
  Cs  Cs0  1  0.949322  0.709580  0.957962  1
  Cs  Cs1  1  0.451144  0.790919  0.959225  1
  Cs  Cs2  1  0.550345  0.209389  0.458339  1
  Cs  Cs3  1  0.050630  0.290191  0.042703  1
  Cs  Cs4  1  0.144912  0.078618  0.751643  1
  Cs  Cs5  1  0.647493  0.419422  0.747784  1
  Cs  Cs6  1  0.353866  0.581019  0.248586  1
  Cs  Cs7  1  0.854074  0.919284  0.252934  1
  Cs  Cs8  1  0.048900  0.290873  0.458449  1
  Cs  Cs9  1  0.450946  0.791557  0.541238  1
  Cs  Cs10  1  0.549567  0.209286  0.041302  1
  Cs  Cs11  1  0.949141  0.709754  0.541251  1
  P  P12  1  0.671433  0.546191  0.404741  1
  P  P13  1  0.171894  0.953519  0.095375  1
  P  P14  1  0.828137  0.046337  0.595686  1
  W  W15  1  0.778777  0.484184  0.249302  1
  W  W16  1  0.279032  0.015843  0.250201  1
  W  W17  1  0.720698  0.984454  0.750980  1
  W  W18  1  0.223015  0.514723  0.750030  1
  S  S19  1  0.207241  0.735009  0.750391  1
  S  S20  1  0.706212  0.763397  0.749010  1
  S  S21  1  0.293434  0.236803  0.248843  1
  S  S22  1  0.793630  0.263115  0.250501  1
  S  S23  1  0.018049  0.425615  0.750191  1
  S  S24  1  0.514683  0.073932  0.748657  1
  S  S25  1  0.484963  0.926723  0.247706  1
  S  S26  1  0.984387  0.573059  0.251371  1
  S  S27  1  0.329327  0.454552  0.909324  1
  S  S28  1  0.328291  0.454007  0.590409  1
  S  S29  1  0.666600  0.548010  0.093057  1
  S  S30  1  0.167147  0.951623  0.406311  1
  S  S31  1  0.832706  0.049013  0.906496  1
