# generated using pymatgen
data_YbZrBr6
_symmetry_space_group_name_H-M   'P 1'
_cell_length_a   8.52182274
_cell_length_b   8.51668647
_cell_length_c   8.52498941
_cell_angle_alpha   49.90709709
_cell_angle_beta   49.92025785
_cell_angle_gamma   49.88890297
_symmetry_Int_Tables_number   1
_chemical_formula_structural   YbZrBr6
_chemical_formula_sum   'Yb1 Zr1 Br6'
_cell_volume   333.13640447
_cell_formula_units_Z   1
loop_
 _symmetry_equiv_pos_site_id
 _symmetry_equiv_pos_as_xyz
  1  'x, y, z'
loop_
 _atom_site_type_symbol
 _atom_site_label
 _atom_site_symmetry_multiplicity
 _atom_site_fract_x
 _atom_site_fract_y
 _atom_site_fract_z
 _atom_site_occupancy
  Yb  Yb0  1  0.333416  0.333598  0.333062  1
  Zr  Zr1  1  0.666720  0.666605  0.666838  1
  Br  Br2  1  0.045990  0.448376  0.716007  1
  Br  Br3  1  0.308774  0.905654  0.574988  1
  Br  Br4  1  0.448609  0.716504  0.045534  1
  Br  Br5  1  0.575223  0.308488  0.905621  1
  Br  Br6  1  0.715817  0.046072  0.448844  1
  Br  Br7  1  0.905451  0.574703  0.309107  1
