# generated using pymatgen
data_TbCe2Dy(ReB6)2
_symmetry_space_group_name_H-M   'P 1'
_cell_length_a   3.73653700
_cell_length_b   9.23583508
_cell_length_c   11.60927910
_cell_angle_alpha   89.98500922
_cell_angle_beta   90.00000000
_cell_angle_gamma   90.00000000
_symmetry_Int_Tables_number   1
_chemical_formula_structural   TbCe2Dy(ReB6)2
_chemical_formula_sum   'Tb2 Ce4 Dy2 Re4 B24'
_cell_volume   400.63666656
_cell_formula_units_Z   2
loop_
 _symmetry_equiv_pos_site_id
 _symmetry_equiv_pos_as_xyz
  1  'x, y, z'
loop_
 _atom_site_type_symbol
 _atom_site_label
 _atom_site_symmetry_multiplicity
 _atom_site_fract_x
 _atom_site_fract_y
 _atom_site_fract_z
 _atom_site_occupancy
  Tb  Tb0  1  0.000000  0.444545  0.126999  1
  Tb  Tb1  1  0.000000  0.555455  0.873001  1
  Ce  Ce2  1  0.000000  0.323113  0.413970  1
  Ce  Ce3  1  0.000000  0.676887  0.586030  1
  Ce  Ce4  1  0.000000  0.823357  0.086151  1
  Ce  Ce5  1  0.000000  0.176643  0.913849  1
  Dy  Dy6  1  0.000000  0.944560  0.373073  1
  Dy  Dy7  1  0.000000  0.055440  0.626927  1
  Re  Re8  1  0.000000  0.638832  0.321414  1
  Re  Re9  1  0.000000  0.361168  0.678586  1
  Re  Re10  1  0.000000  0.138247  0.178861  1
  Re  Re11  1  0.000000  0.861753  0.821139  1
  B  B12  1  0.500000  0.554320  0.431757  1
  B  B13  1  0.500000  0.445680  0.568243  1
  B  B14  1  0.500000  0.054249  0.068287  1
  B  B15  1  0.500000  0.945751  0.931713  1
  B  B16  1  0.500000  0.748167  0.418985  1
  B  B17  1  0.500000  0.251833  0.581015  1
  B  B18  1  0.500000  0.247766  0.081019  1
  B  B19  1  0.500000  0.752234  0.918981  1
  B  B20  1  0.500000  0.791682  0.266646  1
  B  B21  1  0.500000  0.208318  0.733354  1
  B  B22  1  0.500000  0.291288  0.233472  1
  B  B23  1  0.500000  0.708712  0.766528  1
  B  B24  1  0.500000  0.632553  0.186580  1
  B  B25  1  0.500000  0.367447  0.813420  1
  B  B26  1  0.500000  0.132163  0.313647  1
  B  B27  1  0.500000  0.867837  0.686353  1
  B  B28  1  0.500000  0.984160  0.213019  1
  B  B29  1  0.500000  0.015840  0.786981  1
  B  B30  1  0.500000  0.484373  0.287243  1
  B  B31  1  0.500000  0.515627  0.712757  1
  B  B32  1  0.500000  0.609573  0.030319  1
  B  B33  1  0.500000  0.390427  0.969681  1
  B  B34  1  0.500000  0.108877  0.469862  1
  B  B35  1  0.500000  0.891123  0.530138  1
