# generated using pymatgen
data_YSc6Fe6Sn23
_symmetry_space_group_name_H-M   'P 1'
_cell_length_a   9.57476400
_cell_length_b   9.57476412
_cell_length_c   9.79238700
_cell_angle_alpha   90.00000000
_cell_angle_beta   90.00000000
_cell_angle_gamma   119.99999958
_symmetry_Int_Tables_number   1
_chemical_formula_structural   YSc6Fe6Sn23
_chemical_formula_sum   'Y1 Sc6 Fe6 Sn23'
_cell_volume   777.45518482
_cell_formula_units_Z   1
loop_
 _symmetry_equiv_pos_site_id
 _symmetry_equiv_pos_as_xyz
  1  'x, y, z'
loop_
 _atom_site_type_symbol
 _atom_site_label
 _atom_site_symmetry_multiplicity
 _atom_site_fract_x
 _atom_site_fract_y
 _atom_site_fract_z
 _atom_site_occupancy
  Y  Y0  1  0.000000  0.000000  0.000000  1
  Sc  Sc1  1  0.511787  0.488213  0.698540  1
  Sc  Sc2  1  0.511787  0.023572  0.698540  1
  Sc  Sc3  1  0.976428  0.488213  0.698540  1
  Sc  Sc4  1  0.023572  0.511787  0.301460  1
  Sc  Sc5  1  0.488213  0.976428  0.301460  1
  Sc  Sc6  1  0.488213  0.511787  0.301460  1
  Fe  Fe7  1  0.170826  0.829174  0.796940  1
  Fe  Fe8  1  0.170826  0.341651  0.796940  1
  Fe  Fe9  1  0.658349  0.829174  0.796940  1
  Fe  Fe10  1  0.341651  0.170826  0.203060  1
  Fe  Fe11  1  0.829174  0.658349  0.203060  1
  Fe  Fe12  1  0.829174  0.170826  0.203060  1
  Sn  Sn13  1  0.666667  0.333333  0.176710  1
  Sn  Sn14  1  0.666667  0.333333  0.857116  1
  Sn  Sn15  1  0.333333  0.666667  0.142884  1
  Sn  Sn16  1  0.346613  0.346613  0.000000  1
  Sn  Sn17  1  0.000000  0.653387  0.000000  1
  Sn  Sn18  1  0.653387  0.000000  0.000000  1
  Sn  Sn19  1  0.653387  0.653387  0.000000  1
  Sn  Sn20  1  0.333333  0.666667  0.823290  1
  Sn  Sn21  1  0.440363  0.220182  0.460533  1
  Sn  Sn22  1  0.220182  0.779818  0.539467  1
  Sn  Sn23  1  0.220182  0.440363  0.539467  1
  Sn  Sn24  1  0.559637  0.779818  0.539467  1
  Sn  Sn25  1  0.121173  0.878827  0.272475  1
  Sn  Sn26  1  0.779818  0.559637  0.460533  1
  Sn  Sn27  1  0.779818  0.220182  0.460533  1
  Sn  Sn28  1  0.346613  0.000000  0.000000  1
  Sn  Sn29  1  0.121173  0.242346  0.272475  1
  Sn  Sn30  1  0.757654  0.878827  0.272475  1
  Sn  Sn31  1  0.242346  0.121173  0.727525  1
  Sn  Sn32  1  0.878827  0.757654  0.727525  1
  Sn  Sn33  1  0.878827  0.121173  0.727525  1
  Sn  Sn34  1  0.000000  0.000000  0.500000  1
  Sn  Sn35  1  0.000000  0.346613  0.000000  1
