# generated using pymatgen
data_TbHo3Re2(B8Mo)2
_symmetry_space_group_name_H-M   'P 1'
_cell_length_a   3.61595300
_cell_length_b   5.99796850
_cell_length_c   11.60378297
_cell_angle_alpha   89.98292130
_cell_angle_beta   90.00000000
_cell_angle_gamma   90.00000000
_symmetry_Int_Tables_number   1
_chemical_formula_structural   TbHo3Re2(B8Mo)2
_chemical_formula_sum   'Tb1 Ho3 Re2 B16 Mo2'
_cell_volume   251.66715259
_cell_formula_units_Z   1
loop_
 _symmetry_equiv_pos_site_id
 _symmetry_equiv_pos_as_xyz
  1  'x, y, z'
loop_
 _atom_site_type_symbol
 _atom_site_label
 _atom_site_symmetry_multiplicity
 _atom_site_fract_x
 _atom_site_fract_y
 _atom_site_fract_z
 _atom_site_occupancy
  Tb  Tb0  1  0.000000  0.627824  0.149480  1
  Ho  Ho1  1  0.000000  0.372111  0.850605  1
  Ho  Ho2  1  0.000000  0.126693  0.349408  1
  Ho  Ho3  1  0.000000  0.873310  0.650695  1
  Re  Re4  1  0.000000  0.134423  0.086780  1
  Re  Re5  1  0.000000  0.865612  0.912648  1
  B  B6  1  0.500000  0.977471  0.191599  1
  B  B7  1  0.500000  0.022956  0.808229  1
  B  B8  1  0.500000  0.475582  0.306102  1
  B  B9  1  0.500000  0.523885  0.694458  1
  B  B10  1  0.500000  0.789678  0.313797  1
  B  B11  1  0.500000  0.210510  0.686619  1
  B  B12  1  0.500000  0.285162  0.184561  1
  B  B13  1  0.500000  0.714165  0.815366  1
  B  B14  1  0.500000  0.867459  0.467758  1
  B  B15  1  0.500000  0.132637  0.532436  1
  B  B16  1  0.500000  0.363212  0.030504  1
  B  B17  1  0.500000  0.636711  0.968833  1
  B  B18  1  0.500000  0.887339  0.046943  1
  B  B19  1  0.500000  0.113532  0.952422  1
  B  B20  1  0.500000  0.384700  0.452453  1
  B  B21  1  0.500000  0.615126  0.547816  1
  Mo  Mo22  1  0.000000  0.629365  0.415545  1
  Mo  Mo23  1  0.000000  0.370537  0.584943  1
