# generated using pymatgen
data_ErLuB6Ru
_symmetry_space_group_name_H-M   'P 1'
_cell_length_a   3.60941700
_cell_length_b   9.04781900
_cell_length_c   11.42429700
_cell_angle_alpha   90.00000000
_cell_angle_beta   90.00000000
_cell_angle_gamma   90.00000000
_symmetry_Int_Tables_number   1
_chemical_formula_structural   ErLuB6Ru
_chemical_formula_sum   'Er4 Lu4 B24 Ru4'
_cell_volume   373.08728519
_cell_formula_units_Z   4
loop_
 _symmetry_equiv_pos_site_id
 _symmetry_equiv_pos_as_xyz
  1  'x, y, z'
loop_
 _atom_site_type_symbol
 _atom_site_label
 _atom_site_symmetry_multiplicity
 _atom_site_fract_x
 _atom_site_fract_y
 _atom_site_fract_z
 _atom_site_occupancy
  Er  Er0  1  0.000000  0.321680  0.414143  1
  Er  Er1  1  0.000000  0.678320  0.585857  1
  Er  Er2  1  0.000000  0.821680  0.085857  1
  Er  Er3  1  0.000000  0.178320  0.914143  1
  Lu  Lu4  1  0.000000  0.943852  0.372626  1
  Lu  Lu5  1  0.000000  0.056148  0.627374  1
  Lu  Lu6  1  0.000000  0.443852  0.127374  1
  Lu  Lu7  1  0.000000  0.556148  0.872626  1
  B  B8  1  0.500000  0.554159  0.433276  1
  B  B9  1  0.500000  0.445841  0.566724  1
  B  B10  1  0.500000  0.054159  0.066724  1
  B  B11  1  0.500000  0.945841  0.933276  1
  B  B12  1  0.500000  0.749601  0.419914  1
  B  B13  1  0.500000  0.250399  0.580086  1
  B  B14  1  0.500000  0.249601  0.080086  1
  B  B15  1  0.500000  0.750399  0.919914  1
  B  B16  1  0.500000  0.791970  0.265646  1
  B  B17  1  0.500000  0.208030  0.734354  1
  B  B18  1  0.500000  0.291970  0.234354  1
  B  B19  1  0.500000  0.708030  0.765646  1
  B  B20  1  0.500000  0.630995  0.184095  1
  B  B21  1  0.500000  0.369005  0.815905  1
  B  B22  1  0.500000  0.130995  0.315905  1
  B  B23  1  0.500000  0.869005  0.684095  1
  B  B24  1  0.500000  0.982460  0.213294  1
  B  B25  1  0.500000  0.017540  0.786706  1
  B  B26  1  0.500000  0.482460  0.286706  1
  B  B27  1  0.500000  0.517540  0.713294  1
  B  B28  1  0.500000  0.604630  0.028778  1
  B  B29  1  0.500000  0.395370  0.971222  1
  B  B30  1  0.500000  0.104630  0.471222  1
  B  B31  1  0.500000  0.895370  0.528778  1
  Ru  Ru32  1  0.000000  0.638358  0.320626  1
  Ru  Ru33  1  0.000000  0.361642  0.679374  1
  Ru  Ru34  1  0.000000  0.138358  0.179374  1
  Ru  Ru35  1  0.000000  0.861642  0.820626  1
