# generated using pymatgen
data_Ho4Co4P12Ir5Rh11
_symmetry_space_group_name_H-M   'P 1'
_cell_length_a   3.86305500
_cell_length_b   10.74253393
_cell_length_c   12.40229014
_cell_angle_alpha   90.06801766
_cell_angle_beta   90.00000000
_cell_angle_gamma   90.00000000
_symmetry_Int_Tables_number   1
_chemical_formula_structural   Ho4Co4P12Ir5Rh11
_chemical_formula_sum   'Ho4 Co4 P12 Ir5 Rh11'
_cell_volume   514.68226862
_cell_formula_units_Z   1
loop_
 _symmetry_equiv_pos_site_id
 _symmetry_equiv_pos_as_xyz
  1  'x, y, z'
loop_
 _atom_site_type_symbol
 _atom_site_label
 _atom_site_symmetry_multiplicity
 _atom_site_fract_x
 _atom_site_fract_y
 _atom_site_fract_z
 _atom_site_occupancy
  Ho  Ho0  1  0.250000  0.583360  0.708213  1
  Ho  Ho1  1  0.250000  0.916598  0.208036  1
  Ho  Ho2  1  0.750000  0.415906  0.291345  1
  Ho  Ho3  1  0.750000  0.083756  0.791765  1
  Co  Co4  1  0.250000  0.462004  0.933384  1
  Co  Co5  1  0.250000  0.038855  0.434294  1
  Co  Co6  1  0.750000  0.539856  0.065775  1
  Co  Co7  1  0.750000  0.961361  0.566457  1
  P  P8  1  0.250000  0.424355  0.105214  1
  P  P9  1  0.250000  0.074275  0.606864  1
  P  P10  1  0.750000  0.574522  0.893214  1
  P  P11  1  0.750000  0.925337  0.394280  1
  P  P12  1  0.250000  0.270163  0.871016  1
  P  P13  1  0.250000  0.230220  0.371839  1
  P  P14  1  0.750000  0.730797  0.127424  1
  P  P15  1  0.750000  0.770036  0.629570  1
  P  P16  1  0.250000  0.597641  0.388228  1
  P  P17  1  0.250000  0.901142  0.888054  1
  P  P18  1  0.750000  0.401163  0.611888  1
  P  P19  1  0.750000  0.099163  0.112191  1
  Ir  Ir20  1  0.750000  0.730815  0.319689  1
  Ir  Ir21  1  0.250000  0.884256  0.698349  1
  Ir  Ir22  1  0.250000  0.611723  0.199578  1
  Ir  Ir23  1  0.750000  0.113513  0.301365  1
  Ir  Ir24  1  0.750000  0.384419  0.801388  1
  Rh  Rh25  1  0.250000  0.714776  0.986105  1
  Rh  Rh26  1  0.250000  0.784902  0.482213  1
  Rh  Rh27  1  0.750000  0.286669  0.016977  1
  Rh  Rh28  1  0.750000  0.213825  0.515355  1
  Rh  Rh29  1  0.250000  0.408120  0.479792  1
  Rh  Rh30  1  0.250000  0.093141  0.979004  1
  Rh  Rh31  1  0.750000  0.593228  0.520787  1
  Rh  Rh32  1  0.750000  0.908869  0.020615  1
  Rh  Rh33  1  0.250000  0.229908  0.179594  1
  Rh  Rh34  1  0.250000  0.270537  0.677676  1
  Rh  Rh35  1  0.750000  0.770787  0.822461  1
