# generated using pymatgen
data_Y3(FeH6)2
_symmetry_space_group_name_H-M   'P 1'
_cell_length_a   4.62202000
_cell_length_b   4.62202023
_cell_length_c   7.85520000
_cell_angle_alpha   90.00000000
_cell_angle_beta   90.00000000
_cell_angle_gamma   119.99999837
_symmetry_Int_Tables_number   1
_chemical_formula_structural   Y3(FeH6)2
_chemical_formula_sum   'Y3 Fe2 H12'
_cell_volume   145.32875332
_cell_formula_units_Z   1
loop_
 _symmetry_equiv_pos_site_id
 _symmetry_equiv_pos_as_xyz
  1  'x, y, z'
loop_
 _atom_site_type_symbol
 _atom_site_label
 _atom_site_symmetry_multiplicity
 _atom_site_fract_x
 _atom_site_fract_y
 _atom_site_fract_z
 _atom_site_occupancy
  Y  Y0  1  0.000000  0.000000  0.000000  1
  Y  Y1  1  0.666667  0.333333  0.359489  1
  Y  Y2  1  0.333333  0.666667  0.640511  1
  Fe  Fe3  1  0.666667  0.333333  0.751016  1
  Fe  Fe4  1  0.333333  0.666667  0.248984  1
  H  H5  1  0.171777  0.828223  0.369614  1
  H  H6  1  0.656446  0.828223  0.369614  1
  H  H7  1  0.171777  0.343554  0.369614  1
  H  H8  1  0.828223  0.171777  0.630386  1
  H  H9  1  0.343554  0.171777  0.630386  1
  H  H10  1  0.828223  0.656446  0.630386  1
  H  H11  1  0.505248  0.010496  0.870770  1
  H  H12  1  0.505248  0.494752  0.870770  1
  H  H13  1  0.989504  0.494752  0.870770  1
  H  H14  1  0.494752  0.989504  0.129230  1
  H  H15  1  0.494752  0.505248  0.129230  1
  H  H16  1  0.010496  0.505248  0.129230  1
