# generated using pymatgen
data_Ca8YbPd6
_symmetry_space_group_name_H-M   'P 1'
_cell_length_a   7.67898699
_cell_length_b   7.67898694
_cell_length_c   7.67898703
_cell_angle_alpha   71.35238377
_cell_angle_beta   71.35238427
_cell_angle_gamma   71.35237444
_symmetry_Int_Tables_number   1
_chemical_formula_structural   Ca8YbPd6
_chemical_formula_sum   'Ca8 Yb1 Pd6'
_cell_volume   394.40027871
_cell_formula_units_Z   1
loop_
 _symmetry_equiv_pos_site_id
 _symmetry_equiv_pos_as_xyz
  1  'x, y, z'
loop_
 _atom_site_type_symbol
 _atom_site_label
 _atom_site_symmetry_multiplicity
 _atom_site_fract_x
 _atom_site_fract_y
 _atom_site_fract_z
 _atom_site_occupancy
  Ca  Ca0  1  0.000454  0.000454  0.000454  1
  Ca  Ca1  1  0.203685  0.203685  0.203685  1
  Ca  Ca2  1  0.333208  0.604044  0.841783  1
  Ca  Ca3  1  0.841783  0.333208  0.604044  1
  Ca  Ca4  1  0.604043  0.841783  0.333208  1
  Ca  Ca5  1  0.667725  0.395981  0.157408  1
  Ca  Ca6  1  0.157408  0.667725  0.395981  1
  Ca  Ca7  1  0.395981  0.157408  0.667725  1
  Yb  Yb8  1  0.798308  0.798308  0.798308  1
  Pd  Pd9  1  0.151306  0.954492  0.590619  1
  Pd  Pd10  1  0.590619  0.151306  0.954492  1
  Pd  Pd11  1  0.954492  0.590619  0.151306  1
  Pd  Pd12  1  0.841539  0.038956  0.420493  1
  Pd  Pd13  1  0.420493  0.841539  0.038956  1
  Pd  Pd14  1  0.038956  0.420493  0.841539  1
