# generated using pymatgen
data_Sm2Al16Pt9
_symmetry_space_group_name_H-M   'P 1'
_cell_length_a   11.16441875
_cell_length_b   11.16442041
_cell_length_c   11.16441959
_cell_angle_alpha   158.53215931
_cell_angle_beta   115.06739528
_cell_angle_gamma   69.24901565
_symmetry_Int_Tables_number   1
_chemical_formula_structural   Sm2Al16Pt9
_chemical_formula_sum   'Sm2 Al16 Pt9'
_cell_volume   457.95171817
_cell_formula_units_Z   1
loop_
 _symmetry_equiv_pos_site_id
 _symmetry_equiv_pos_as_xyz
  1  'x, y, z'
loop_
 _atom_site_type_symbol
 _atom_site_label
 _atom_site_symmetry_multiplicity
 _atom_site_fract_x
 _atom_site_fract_y
 _atom_site_fract_z
 _atom_site_occupancy
  Sm  Sm0  1  0.228468  0.228468  0.000000  1
  Sm  Sm1  1  0.771532  0.771532  0.000000  1
  Al  Al2  1  0.272611  0.391917  0.880693  1
  Al  Al3  1  0.092614  0.920597  0.172017  1
  Al  Al4  1  0.512327  0.204213  0.308114  1
  Al  Al5  1  0.251421  0.079403  0.172017  1
  Al  Al6  1  0.913381  0.413381  0.500000  1
  Al  Al7  1  0.727389  0.608083  0.119307  1
  Al  Al8  1  0.896099  0.204213  0.691886  1
  Al  Al9  1  0.487673  0.795787  0.691886  1
  Al  Al10  1  0.385880  0.000000  0.385880  1
  Al  Al11  1  0.614120  0.000000  0.614120  1
  Al  Al12  1  0.488776  0.608083  0.880693  1
  Al  Al13  1  0.103901  0.795787  0.308114  1
  Al  Al14  1  0.907386  0.079403  0.827983  1
  Al  Al15  1  0.748579  0.920597  0.827983  1
  Al  Al16  1  0.511224  0.391917  0.119307  1
  Al  Al17  1  0.086619  0.586619  0.500000  1
  Pt  Pt18  1  0.747991  0.500000  0.247991  1
  Pt  Pt19  1  0.024686  0.339515  0.685170  1
  Pt  Pt20  1  0.625354  0.125354  0.500000  1
  Pt  Pt21  1  0.252009  0.500000  0.752009  1
  Pt  Pt22  1  0.374646  0.874646  0.500000  1
  Pt  Pt23  1  0.000000  0.000000  0.000000  1
  Pt  Pt24  1  0.654345  0.339515  0.314830  1
  Pt  Pt25  1  0.345655  0.660485  0.685170  1
  Pt  Pt26  1  0.975314  0.660485  0.314830  1
