# generated using pymatgen
data_TbPa7(ZnRh)8
_symmetry_space_group_name_H-M   'P 1'
_cell_length_a   3.80963300
_cell_length_b   7.38450458
_cell_length_c   16.35592036
_cell_angle_alpha   90.25152701
_cell_angle_beta   90.00000000
_cell_angle_gamma   90.00000000
_symmetry_Int_Tables_number   1
_chemical_formula_structural   TbPa7(ZnRh)8
_chemical_formula_sum   'Tb1 Pa7 Zn8 Rh8'
_cell_volume   460.12444512
_cell_formula_units_Z   1
loop_
 _symmetry_equiv_pos_site_id
 _symmetry_equiv_pos_as_xyz
  1  'x, y, z'
loop_
 _atom_site_type_symbol
 _atom_site_label
 _atom_site_symmetry_multiplicity
 _atom_site_fract_x
 _atom_site_fract_y
 _atom_site_fract_z
 _atom_site_occupancy
  Tb  Tb0  1  0.250000  0.556737  0.786902  1
  Pa  Pa1  1  0.250000  0.168354  0.938818  1
  Pa  Pa2  1  0.250000  0.676293  0.561468  1
  Pa  Pa3  1  0.750000  0.336549  0.440003  1
  Pa  Pa4  1  0.750000  0.940732  0.285290  1
  Pa  Pa5  1  0.750000  0.828092  0.061107  1
  Pa  Pa6  1  0.750000  0.438957  0.215423  1
  Pa  Pa7  1  0.250000  0.055842  0.715174  1
  Zn  Zn8  1  0.750000  0.015036  0.557654  1
  Zn  Zn9  1  0.250000  0.611827  0.343855  1
  Zn  Zn10  1  0.750000  0.393660  0.659204  1
  Zn  Zn11  1  0.250000  0.491189  0.061715  1
  Zn  Zn12  1  0.750000  0.503507  0.937004  1
  Zn  Zn13  1  0.250000  0.997854  0.439083  1
  Zn  Zn14  1  0.250000  0.111806  0.155795  1
  Zn  Zn15  1  0.750000  0.873371  0.843787  1
  Rh  Rh16  1  0.750000  0.736646  0.441115  1
  Rh  Rh17  1  0.250000  0.239785  0.314338  1
  Rh  Rh18  1  0.750000  0.229372  0.815575  1
  Rh  Rh19  1  0.750000  0.778575  0.677315  1
  Rh  Rh20  1  0.250000  0.274276  0.558187  1
  Rh  Rh21  1  0.250000  0.740353  0.186883  1
  Rh  Rh22  1  0.750000  0.233331  0.057045  1
  Rh  Rh23  1  0.250000  0.767857  0.947257  1
