# generated using pymatgen
data_TaNb3V4(GeP)2
_symmetry_space_group_name_H-M   'P 1'
_cell_length_a   3.43607900
_cell_length_b   6.57091922
_cell_length_c   7.89032250
_cell_angle_alpha   89.72554675
_cell_angle_beta   90.00000000
_cell_angle_gamma   90.00000000
_symmetry_Int_Tables_number   1
_chemical_formula_structural   TaNb3V4(GeP)2
_chemical_formula_sum   'Ta1 Nb3 V4 Ge2 P2'
_cell_volume   178.14721636
_cell_formula_units_Z   1
loop_
 _symmetry_equiv_pos_site_id
 _symmetry_equiv_pos_as_xyz
  1  'x, y, z'
loop_
 _atom_site_type_symbol
 _atom_site_label
 _atom_site_symmetry_multiplicity
 _atom_site_fract_x
 _atom_site_fract_y
 _atom_site_fract_z
 _atom_site_occupancy
  Ta  Ta0  1  0.250000  0.028115  0.338343  1
  Nb  Nb1  1  0.250000  0.554288  0.173963  1
  Nb  Nb2  1  0.750000  0.445068  0.826354  1
  Nb  Nb3  1  0.750000  0.972278  0.660715  1
  V  V4  1  0.250000  0.628602  0.553065  1
  V  V5  1  0.750000  0.370721  0.446374  1
  V  V6  1  0.750000  0.867167  0.066080  1
  V  V7  1  0.250000  0.133211  0.935099  1
  Ge  Ge8  1  0.250000  0.753749  0.857322  1
  Ge  Ge9  1  0.750000  0.246333  0.142729  1
  P  P10  1  0.750000  0.741377  0.364496  1
  P  P11  1  0.250000  0.259089  0.635459  1
