# generated using pymatgen
data_BaTbSi2Ge2N7
_symmetry_space_group_name_H-M   'P 1'
_cell_length_a   6.26107695
_cell_length_b   6.23481950
_cell_length_c   10.10643285
_cell_angle_alpha   89.38243090
_cell_angle_beta   90.30748703
_cell_angle_gamma   119.86135694
_symmetry_Int_Tables_number   1
_chemical_formula_structural   BaTbSi2Ge2N7
_chemical_formula_sum   'Ba2 Tb2 Si4 Ge4 N14'
_cell_volume   342.12220816
_cell_formula_units_Z   2
loop_
 _symmetry_equiv_pos_site_id
 _symmetry_equiv_pos_as_xyz
  1  'x, y, z'
loop_
 _atom_site_type_symbol
 _atom_site_label
 _atom_site_symmetry_multiplicity
 _atom_site_fract_x
 _atom_site_fract_y
 _atom_site_fract_z
 _atom_site_occupancy
  Ba  Ba0  1  0.333241  0.665638  0.362695  1
  Ba  Ba1  1  0.666759  0.332396  0.862695  1
  Tb  Tb2  1  0.331056  0.665179  0.737655  1
  Tb  Tb3  1  0.668944  0.334122  0.237655  1
  Si  Si4  1  0.827496  0.172185  0.546517  1
  Si  Si5  1  0.172504  0.344691  0.046517  1
  Si  Si6  1  0.999417  0.004779  0.814683  1
  Si  Si7  1  0.000583  0.005362  0.314683  1
  Ge  Ge8  1  0.828280  0.655072  0.546674  1
  Ge  Ge9  1  0.171720  0.826794  0.046674  1
  Ge  Ge10  1  0.654129  0.825819  0.046760  1
  Ge  Ge11  1  0.345871  0.171688  0.546760  1
  N  N12  1  0.994940  0.008982  0.627848  1
  N  N13  1  0.005060  0.014042  0.127848  1
  N  N14  1  0.149937  0.301136  0.876935  1
  N  N15  1  0.850063  0.151200  0.376935  1
  N  N16  1  0.303373  0.151289  0.365964  1
  N  N17  1  0.696627  0.847915  0.865964  1
  N  N18  1  0.149551  0.848832  0.864860  1
  N  N19  1  0.850449  0.699282  0.364860  1
  N  N20  1  0.980504  0.477734  0.599834  1
  N  N21  1  0.494199  0.988746  0.103477  1
  N  N22  1  0.477592  0.496464  0.099996  1
  N  N23  1  0.505801  0.494549  0.603477  1
  N  N24  1  0.019496  0.497228  0.099834  1
  N  N25  1  0.522408  0.018874  0.599996  1
