# generated using pymatgen
data_Nb2Bi2MoS6
_symmetry_space_group_name_H-M   'P 1'
_cell_length_a   5.71582801
_cell_length_b   5.72172594
_cell_length_c   17.56204600
_cell_angle_alpha   90.00000000
_cell_angle_beta   90.00000000
_cell_angle_gamma   120.03414228
_symmetry_Int_Tables_number   1
_chemical_formula_structural   Nb2Bi2MoS6
_chemical_formula_sum   'Nb4 Bi4 Mo2 S12'
_cell_volume   497.23584550
_cell_formula_units_Z   2
loop_
 _symmetry_equiv_pos_site_id
 _symmetry_equiv_pos_as_xyz
  1  'x, y, z'
loop_
 _atom_site_type_symbol
 _atom_site_label
 _atom_site_symmetry_multiplicity
 _atom_site_fract_x
 _atom_site_fract_y
 _atom_site_fract_z
 _atom_site_occupancy
  Nb  Nb0  1  0.999828  0.325169  0.250000  1
  Nb  Nb1  1  0.999828  0.674659  0.750000  1
  Nb  Nb2  1  0.325351  0.999772  0.250000  1
  Nb  Nb3  1  0.325351  0.325580  0.750000  1
  Bi  Bi4  1  0.336283  0.668142  0.000000  1
  Bi  Bi5  1  0.667206  0.333602  0.500000  1
  Bi  Bi6  1  0.336283  0.668142  0.500000  1
  Bi  Bi7  1  0.667206  0.333602  0.000000  1
  Mo  Mo8  1  0.672414  0.999931  0.750000  1
  Mo  Mo9  1  0.672414  0.672483  0.250000  1
  S  S10  1  0.338736  0.672409  0.662254  1
  S  S11  1  0.666526  0.338986  0.162241  1
  S  S12  1  0.666526  0.327540  0.837759  1
  S  S13  1  0.338736  0.666328  0.337746  1
  S  S14  1  0.338736  0.666328  0.162254  1
  S  S15  1  0.666526  0.327540  0.662241  1
  S  S16  1  0.666526  0.338986  0.337759  1
  S  S17  1  0.338736  0.672409  0.837746  1
  S  S18  1  0.994197  0.994130  0.158842  1
  S  S19  1  0.994197  0.000067  0.658842  1
  S  S20  1  0.994197  0.000067  0.841158  1
  S  S21  1  0.994197  0.994130  0.341158  1
