# generated using pymatgen
data_Ce2CoSiRu2
_symmetry_space_group_name_H-M   'P 1'
_cell_length_a   4.67514811
_cell_length_b   5.48779368
_cell_length_c   5.48779419
_cell_angle_alpha   62.06942627
_cell_angle_beta   60.42552542
_cell_angle_gamma   60.42551756
_symmetry_Int_Tables_number   1
_chemical_formula_structural   Ce2CoSiRu2
_chemical_formula_sum   'Ce2 Co1 Si1 Ru2'
_cell_volume   101.68659725
_cell_formula_units_Z   1
loop_
 _symmetry_equiv_pos_site_id
 _symmetry_equiv_pos_as_xyz
  1  'x, y, z'
loop_
 _atom_site_type_symbol
 _atom_site_label
 _atom_site_symmetry_multiplicity
 _atom_site_fract_x
 _atom_site_fract_y
 _atom_site_fract_z
 _atom_site_occupancy
  Ce  Ce0  1  0.612036  0.630697  0.630697  1
  Ce  Ce1  1  0.387964  0.369303  0.369303  1
  Co  Co2  1  0.000000  0.000000  0.000000  1
  Si  Si3  1  0.500000  0.000000  0.000000  1
  Ru  Ru4  1  0.000000  0.500000  0.000000  1
  Ru  Ru5  1  0.000000  0.000000  0.500000  1
