# generated using pymatgen
data_LuZn3P7N12
_symmetry_space_group_name_H-M   'P 1'
_cell_length_a   7.23879068
_cell_length_b   7.24287828
_cell_length_c   7.23879114
_cell_angle_alpha   109.48266602
_cell_angle_beta   109.45977694
_cell_angle_gamma   109.48266480
_symmetry_Int_Tables_number   1
_chemical_formula_structural   LuZn3P7N12
_chemical_formula_sum   'Lu1 Zn3 P7 N12'
_cell_volume   292.11911828
_cell_formula_units_Z   1
loop_
 _symmetry_equiv_pos_site_id
 _symmetry_equiv_pos_as_xyz
  1  'x, y, z'
loop_
 _atom_site_type_symbol
 _atom_site_label
 _atom_site_symmetry_multiplicity
 _atom_site_fract_x
 _atom_site_fract_y
 _atom_site_fract_z
 _atom_site_occupancy
  Lu  Lu0  1  0.000000  0.331422  0.000000  1
  Zn  Zn1  1  0.672014  0.669010  0.672014  1
  Zn  Zn2  1  0.327986  0.996997  0.000000  1
  Zn  Zn3  1  0.000000  0.996997  0.327986  1
  P  P4  1  0.747072  0.251180  0.494639  1
  P  P5  1  0.252433  0.756541  0.505361  1
  P  P6  1  0.505361  0.756541  0.252433  1
  P  P7  1  0.494639  0.251180  0.747072  1
  P  P8  1  0.747567  0.504108  0.252928  1
  P  P9  1  0.252928  0.504108  0.747567  1
  P  P10  1  0.000000  0.968219  0.000000  1
  N  N11  1  0.567700  0.275164  0.000000  1
  N  N12  1  0.439722  0.441682  0.711026  1
  N  N13  1  0.000000  0.275164  0.567700  1
  N  N14  1  0.271305  0.001960  0.560278  1
  N  N15  1  0.711026  0.441682  0.439722  1
  N  N16  1  0.000000  0.564225  0.285367  1
  N  N17  1  0.560278  0.001960  0.271305  1
  N  N18  1  0.432300  0.707464  0.432300  1
  N  N19  1  0.285367  0.564225  0.000000  1
  N  N20  1  0.714633  0.278858  0.714633  1
  N  N21  1  0.728695  0.730656  0.288974  1
  N  N22  1  0.288974  0.730656  0.728695  1
