# generated using pymatgen
data_Y20Cd3Hg3IrRu
_symmetry_space_group_name_H-M   'P 1'
_cell_length_a   9.68702300
_cell_length_b   9.68702325
_cell_length_c   9.74193600
_cell_angle_alpha   90.00000000
_cell_angle_beta   90.00000000
_cell_angle_gamma   120.00000258
_symmetry_Int_Tables_number   1
_chemical_formula_structural   Y20Cd3Hg3IrRu
_chemical_formula_sum   'Y20 Cd3 Hg3 Ir1 Ru1'
_cell_volume   791.69256311
_cell_formula_units_Z   1
loop_
 _symmetry_equiv_pos_site_id
 _symmetry_equiv_pos_as_xyz
  1  'x, y, z'
loop_
 _atom_site_type_symbol
 _atom_site_label
 _atom_site_symmetry_multiplicity
 _atom_site_fract_x
 _atom_site_fract_y
 _atom_site_fract_z
 _atom_site_occupancy
  Y  Y0  1  0.000000  0.000000  0.489858  1
  Y  Y1  1  0.000000  0.000000  0.010142  1
  Y  Y2  1  0.209471  0.790529  0.438988  1
  Y  Y3  1  0.209471  0.418943  0.438988  1
  Y  Y4  1  0.581057  0.790529  0.438988  1
  Y  Y5  1  0.790903  0.209097  0.559360  1
  Y  Y6  1  0.790903  0.581806  0.559360  1
  Y  Y7  1  0.418194  0.209097  0.559360  1
  Y  Y8  1  0.790903  0.209097  0.940640  1
  Y  Y9  1  0.790903  0.581806  0.940640  1
  Y  Y10  1  0.418194  0.209097  0.940640  1
  Y  Y11  1  0.209471  0.790529  0.061012  1
  Y  Y12  1  0.209471  0.418943  0.061012  1
  Y  Y13  1  0.581057  0.790529  0.061012  1
  Y  Y14  1  0.541014  0.458986  0.250000  1
  Y  Y15  1  0.541014  0.082029  0.250000  1
  Y  Y16  1  0.917971  0.458986  0.250000  1
  Y  Y17  1  0.458660  0.541340  0.750000  1
  Y  Y18  1  0.458660  0.917320  0.750000  1
  Y  Y19  1  0.082680  0.541340  0.750000  1
  Cd  Cd20  1  0.113094  0.886906  0.750000  1
  Cd  Cd21  1  0.113094  0.226188  0.750000  1
  Cd  Cd22  1  0.773812  0.886906  0.750000  1
  Hg  Hg23  1  0.879007  0.120993  0.250000  1
  Hg  Hg24  1  0.879007  0.758014  0.250000  1
  Hg  Hg25  1  0.241986  0.120993  0.250000  1
  Ir  Ir26  1  0.666667  0.333333  0.750000  1
  Ru  Ru27  1  0.333333  0.666667  0.250000  1
