# generated using pymatgen
data_Y2NpAs3
_symmetry_space_group_name_H-M   'P 1'
_cell_length_a   4.11443600
_cell_length_b   4.11443678
_cell_length_c   10.18366400
_cell_angle_alpha   90.00000000
_cell_angle_beta   90.00000000
_cell_angle_gamma   119.99999372
_symmetry_Int_Tables_number   1
_chemical_formula_structural   Y2NpAs3
_chemical_formula_sum   'Y2 Np1 As3'
_cell_volume   149.29849364
_cell_formula_units_Z   1
loop_
 _symmetry_equiv_pos_site_id
 _symmetry_equiv_pos_as_xyz
  1  'x, y, z'
loop_
 _atom_site_type_symbol
 _atom_site_label
 _atom_site_symmetry_multiplicity
 _atom_site_fract_x
 _atom_site_fract_y
 _atom_site_fract_z
 _atom_site_occupancy
  Y  Y0  1  0.333333  0.666667  0.662178  1
  Y  Y1  1  0.666667  0.333333  0.337822  1
  Np  Np2  1  0.000000  0.000000  0.000000  1
  As  As3  1  0.333333  0.666667  0.165686  1
  As  As4  1  0.666667  0.333333  0.834314  1
  As  As5  1  0.000000  0.000000  0.500000  1
