# generated using pymatgen
data_Pr15Dy4TmSn16
_symmetry_space_group_name_H-M   'P 1'
_cell_length_a   8.27411259
_cell_length_b   8.43222792
_cell_length_c   16.00830157
_cell_angle_alpha   90.09118761
_cell_angle_beta   89.91351174
_cell_angle_gamma   90.12829352
_symmetry_Int_Tables_number   1
_chemical_formula_structural   Pr15Dy4TmSn16
_chemical_formula_sum   'Pr15 Dy4 Tm1 Sn16'
_cell_volume   1116.88096413
_cell_formula_units_Z   1
loop_
 _symmetry_equiv_pos_site_id
 _symmetry_equiv_pos_as_xyz
  1  'x, y, z'
loop_
 _atom_site_type_symbol
 _atom_site_label
 _atom_site_symmetry_multiplicity
 _atom_site_fract_x
 _atom_site_fract_y
 _atom_site_fract_z
 _atom_site_occupancy
  Pr  Pr0  1  0.866826  0.662035  0.621973  1
  Pr  Pr1  1  0.633002  0.162097  0.379085  1
  Pr  Pr2  1  0.135129  0.337163  0.118145  1
  Pr  Pr3  1  0.633566  0.163411  0.121305  1
  Pr  Pr4  1  0.132730  0.337448  0.379868  1
  Pr  Pr5  1  0.366634  0.837481  0.621689  1
  Pr  Pr6  1  0.867942  0.662043  0.879814  1
  Pr  Pr7  1  0.518216  0.318955  0.901304  1
  Pr  Pr8  1  0.019364  0.180722  0.599649  1
  Pr  Pr9  1  0.481611  0.681151  0.401971  1
  Pr  Pr10  1  0.981704  0.818455  0.098165  1
  Pr  Pr11  1  0.482194  0.681636  0.096381  1
  Pr  Pr12  1  0.981801  0.818956  0.401166  1
  Pr  Pr13  1  0.518612  0.319163  0.600164  1
  Pr  Pr14  1  0.017533  0.180270  0.901370  1
  Dy  Dy15  1  0.364124  0.838393  0.876401  1
  Dy  Dy16  1  0.697009  0.997764  0.750710  1
  Dy  Dy17  1  0.802485  0.497981  0.249963  1
  Dy  Dy18  1  0.301795  0.002046  0.249347  1
  Tm  Tm19  1  0.199627  0.502998  0.750942  1
  Sn  Sn20  1  0.295018  0.031180  0.040184  1
  Sn  Sn21  1  0.792284  0.465654  0.456378  1
  Sn  Sn22  1  0.708052  0.965421  0.544501  1
  Sn  Sn23  1  0.211531  0.539702  0.953743  1
  Sn  Sn24  1  0.697525  0.962959  0.955315  1
  Sn  Sn25  1  0.207757  0.533498  0.545722  1
  Sn  Sn26  1  0.292417  0.033969  0.455896  1
  Sn  Sn27  1  0.792978  0.465537  0.044310  1
  Sn  Sn28  1  0.560793  0.619842  0.751989  1
  Sn  Sn29  1  0.065505  0.883402  0.751931  1
  Sn  Sn30  1  0.435343  0.383946  0.249848  1
  Sn  Sn31  1  0.937347  0.117225  0.249188  1
  Sn  Sn32  1  0.324579  0.145584  0.751797  1
  Sn  Sn33  1  0.823946  0.353382  0.750814  1
  Sn  Sn34  1  0.676366  0.852827  0.249605  1
  Sn  Sn35  1  0.176653  0.645707  0.249371  1
