# generated using pymatgen
data_Nd2Ho4FeCl10
_symmetry_space_group_name_H-M   'P 1'
_cell_length_a   7.15205280
_cell_length_b   8.95769435
_cell_length_c   8.80770599
_cell_angle_alpha   108.37458410
_cell_angle_beta   95.11066698
_cell_angle_gamma   107.46931199
_symmetry_Int_Tables_number   1
_chemical_formula_structural   Nd2Ho4FeCl10
_chemical_formula_sum   'Nd2 Ho4 Fe1 Cl10'
_cell_volume   500.17688848
_cell_formula_units_Z   1
loop_
 _symmetry_equiv_pos_site_id
 _symmetry_equiv_pos_as_xyz
  1  'x, y, z'
loop_
 _atom_site_type_symbol
 _atom_site_label
 _atom_site_symmetry_multiplicity
 _atom_site_fract_x
 _atom_site_fract_y
 _atom_site_fract_z
 _atom_site_occupancy
  Nd  Nd0  1  0.628439  0.050836  0.767402  1
  Nd  Nd1  1  0.371561  0.949164  0.232598  1
  Ho  Ho2  1  0.869719  0.144919  0.188453  1
  Ho  Ho3  1  0.130281  0.855081  0.811547  1
  Ho  Ho4  1  0.522486  0.690834  0.895802  1
  Ho  Ho5  1  0.477514  0.309166  0.104198  1
  Fe  Fe6  1  0.500000  0.000000  0.000000  1
  Cl  Cl7  1  0.755407  0.085385  0.448330  1
  Cl  Cl8  1  0.244593  0.914615  0.551670  1
  Cl  Cl9  1  0.946158  0.827197  0.072518  1
  Cl  Cl10  1  0.053842  0.172803  0.927482  1
  Cl  Cl11  1  0.288031  0.260826  0.344380  1
  Cl  Cl12  1  0.711969  0.739174  0.655620  1
  Cl  Cl13  1  0.588255  0.377464  0.841736  1
  Cl  Cl14  1  0.411745  0.622536  0.158264  1
  Cl  Cl15  1  0.852150  0.451904  0.275032  1
  Cl  Cl16  1  0.147850  0.548096  0.724968  1
