# generated using pymatgen
data_Tm2B6(Ir2Rh)3
_symmetry_space_group_name_H-M   'P 1'
_cell_length_a   5.61077097
_cell_length_b   5.62163533
_cell_length_c   8.62975900
_cell_angle_alpha   90.00000000
_cell_angle_beta   90.00000000
_cell_angle_gamma   119.81830179
_symmetry_Int_Tables_number   1
_chemical_formula_structural   Tm2B6(Ir2Rh)3
_chemical_formula_sum   'Tm2 B6 Ir6 Rh3'
_cell_volume   236.16022695
_cell_formula_units_Z   1
loop_
 _symmetry_equiv_pos_site_id
 _symmetry_equiv_pos_as_xyz
  1  'x, y, z'
loop_
 _atom_site_type_symbol
 _atom_site_label
 _atom_site_symmetry_multiplicity
 _atom_site_fract_x
 _atom_site_fract_y
 _atom_site_fract_z
 _atom_site_occupancy
  Tm  Tm0  1  0.000000  0.000000  0.703024  1
  Tm  Tm1  1  0.000000  0.000000  0.297991  1
  B  B2  1  0.666956  0.331763  0.999913  1
  B  B3  1  0.333044  0.668237  0.999913  1
  B  B4  1  0.666467  0.332845  0.667995  1
  B  B5  1  0.333533  0.667155  0.667995  1
  B  B6  1  0.333663  0.667341  0.331648  1
  B  B7  1  0.666337  0.332659  0.331648  1
  Ir  Ir8  1  0.500000  0.000000  0.835527  1
  Ir  Ir9  1  0.000000  0.500000  0.835813  1
  Ir  Ir10  1  0.500000  0.000000  0.164659  1
  Ir  Ir11  1  0.500000  0.500000  0.499776  1
  Ir  Ir12  1  0.500000  0.000000  0.499958  1
  Ir  Ir13  1  0.000000  0.500000  0.499199  1
  Rh  Rh14  1  0.500000  0.500000  0.836337  1
  Rh  Rh15  1  0.500000  0.500000  0.164065  1
  Rh  Rh16  1  0.000000  0.500000  0.164540  1
