# generated using pymatgen
data_ErTh(BPt4)2
_symmetry_space_group_name_H-M   'P 1'
_cell_length_a   5.42439671
_cell_length_b   5.42416715
_cell_length_c   7.79158900
_cell_angle_alpha   90.00000000
_cell_angle_beta   90.00000000
_cell_angle_gamma   119.99860664
_symmetry_Int_Tables_number   1
_chemical_formula_structural   ErTh(BPt4)2
_chemical_formula_sum   'Er1 Th1 B2 Pt8'
_cell_volume   198.53965962
_cell_formula_units_Z   1
loop_
 _symmetry_equiv_pos_site_id
 _symmetry_equiv_pos_as_xyz
  1  'x, y, z'
loop_
 _atom_site_type_symbol
 _atom_site_label
 _atom_site_symmetry_multiplicity
 _atom_site_fract_x
 _atom_site_fract_y
 _atom_site_fract_z
 _atom_site_occupancy
  Er  Er0  1  0.000000  0.000000  0.500000  1
  Th  Th1  1  0.000000  0.000000  0.000000  1
  B  B2  1  0.666549  0.333274  0.500000  1
  B  B3  1  0.333451  0.666726  0.500000  1
  Pt  Pt4  1  0.666335  0.333167  0.000000  1
  Pt  Pt5  1  0.500000  0.500000  0.302002  1
  Pt  Pt6  1  0.500000  0.000000  0.302002  1
  Pt  Pt7  1  0.500000  0.000000  0.697998  1
  Pt  Pt8  1  0.500000  0.500000  0.697998  1
  Pt  Pt9  1  0.000000  0.500000  0.698005  1
  Pt  Pt10  1  0.333665  0.666833  0.000000  1
  Pt  Pt11  1  0.000000  0.500000  0.301995  1
