# generated using pymatgen
data_La13Pr3Cd4CoOs3
_symmetry_space_group_name_H-M   'P 1'
_cell_length_a   10.00394490
_cell_length_b   10.02091093
_cell_length_c   10.00394530
_cell_angle_alpha   60.49571350
_cell_angle_beta   60.47961081
_cell_angle_gamma   60.49571851
_symmetry_Int_Tables_number   1
_chemical_formula_structural   La13Pr3Cd4CoOs3
_chemical_formula_sum   'La13 Pr3 Cd4 Co1 Os3'
_cell_volume   717.00366420
_cell_formula_units_Z   1
loop_
 _symmetry_equiv_pos_site_id
 _symmetry_equiv_pos_as_xyz
  1  'x, y, z'
loop_
 _atom_site_type_symbol
 _atom_site_label
 _atom_site_symmetry_multiplicity
 _atom_site_fract_x
 _atom_site_fract_y
 _atom_site_fract_z
 _atom_site_occupancy
  La  La0  1  0.688359  0.690193  0.308901  1
  La  La1  1  0.156608  0.155960  0.538454  1
  La  La2  1  0.308901  0.690193  0.688359  1
  La  La3  1  0.155657  0.154737  0.155657  1
  La  La4  1  0.538454  0.155960  0.156608  1
  La  La5  1  0.309155  0.687202  0.309155  1
  La  La6  1  0.310609  0.308251  0.686514  1
  La  La7  1  0.688715  0.307821  0.688715  1
  La  La8  1  0.936473  0.559121  0.558112  1
  La  La9  1  0.558112  0.559121  0.936473  1
  La  La10  1  0.156621  0.538669  0.156621  1
  La  La11  1  0.686514  0.308251  0.310609  1
  La  La12  1  0.940823  0.558629  0.940823  1
  Pr  Pr13  1  0.938449  0.938679  0.560663  1
  Pr  Pr14  1  0.561032  0.935906  0.561032  1
  Pr  Pr15  1  0.560663  0.938679  0.938449  1
  Cd  Cd16  1  0.238478  0.921132  0.919879  1
  Cd  Cd17  1  0.920674  0.922035  0.920674  1
  Cd  Cd18  1  0.919879  0.921132  0.238478  1
  Cd  Cd19  1  0.920643  0.237035  0.920643  1
  Co  Co20  1  0.362448  0.364153  0.362448  1
  Os  Os21  1  0.914596  0.366204  0.364018  1
  Os  Os22  1  0.364018  0.366204  0.914596  1
  Os  Os23  1  0.364117  0.914732  0.364117  1
