# generated using pymatgen
data_Li6Tb11ZrOs6
_symmetry_space_group_name_H-M   'P 1'
_cell_length_a   4.96249700
_cell_length_b   6.83275100
_cell_length_c   14.61005200
_cell_angle_alpha   89.99930325
_cell_angle_beta   89.99959588
_cell_angle_gamma   90.00095973
_symmetry_Int_Tables_number   1
_chemical_formula_structural   Li6Tb11ZrOs6
_chemical_formula_sum   'Li6 Tb11 Zr1 Os6'
_cell_volume   495.39043075
_cell_formula_units_Z   1
loop_
 _symmetry_equiv_pos_site_id
 _symmetry_equiv_pos_as_xyz
  1  'x, y, z'
loop_
 _atom_site_type_symbol
 _atom_site_label
 _atom_site_symmetry_multiplicity
 _atom_site_fract_x
 _atom_site_fract_y
 _atom_site_fract_z
 _atom_site_occupancy
  Li  Li0  1  0.999998  0.989751  0.994798  1
  Li  Li1  1  0.499869  0.500631  0.166253  1
  Li  Li2  1  0.999930  0.002078  0.333546  1
  Li  Li3  1  0.499960  0.501017  0.500115  1
  Li  Li4  1  0.000249  0.989782  0.671847  1
  Li  Li5  1  0.500234  0.513315  0.833303  1
  Tb  Tb6  1  0.499994  0.246387  0.997739  1
  Tb  Tb7  1  0.499983  0.753114  0.998291  1
  Tb  Tb8  1  0.999852  0.253675  0.164273  1
  Tb  Tb9  1  0.999852  0.748636  0.165620  1
  Tb  Tb10  1  0.499862  0.248616  0.333318  1
  Tb  Tb11  1  0.499855  0.754382  0.333291  1
  Tb  Tb12  1  0.999969  0.253804  0.502459  1
  Tb  Tb13  1  0.999969  0.748672  0.501105  1
  Tb  Tb14  1  0.500142  0.246493  0.668896  1
  Tb  Tb15  1  0.500141  0.753176  0.668365  1
  Tb  Tb16  1  0.000120  0.251131  0.833347  1
  Zr  Zr17  1  0.000142  0.740357  0.833361  1
  Os  Os18  1  0.999993  0.509426  0.991425  1
  Os  Os19  1  0.499801  0.002907  0.165551  1
  Os  Os20  1  0.999788  0.501273  0.333399  1
  Os  Os21  1  0.499966  0.002951  0.501068  1
  Os  Os22  1  0.000173  0.509477  0.675277  1
  Os  Os23  1  0.500160  0.978951  0.833352  1
