# generated using pymatgen
data_Y3ErInRh
_symmetry_space_group_name_H-M   'P 1'
_cell_length_a   9.65982185
_cell_length_b   9.65982193
_cell_length_c   9.66051314
_cell_angle_alpha   60.09238528
_cell_angle_beta   60.09238760
_cell_angle_gamma   60.31223590
_symmetry_Int_Tables_number   1
_chemical_formula_structural   Y3ErInRh
_chemical_formula_sum   'Y12 Er4 In4 Rh4'
_cell_volume   639.80215448
_cell_formula_units_Z   4
loop_
 _symmetry_equiv_pos_site_id
 _symmetry_equiv_pos_as_xyz
  1  'x, y, z'
loop_
 _atom_site_type_symbol
 _atom_site_label
 _atom_site_symmetry_multiplicity
 _atom_site_fract_x
 _atom_site_fract_y
 _atom_site_fract_z
 _atom_site_occupancy
  Y  Y0  1  0.690822  0.309490  0.310003  1
  Y  Y1  1  0.689515  0.689515  0.310492  1
  Y  Y2  1  0.309490  0.690822  0.310003  1
  Y  Y3  1  0.936591  0.936591  0.562638  1
  Y  Y4  1  0.146493  0.146493  0.554923  1
  Y  Y5  1  0.559507  0.937470  0.559487  1
  Y  Y6  1  0.153495  0.153495  0.152555  1
  Y  Y7  1  0.311087  0.311087  0.689902  1
  Y  Y8  1  0.937470  0.559507  0.559487  1
  Y  Y9  1  0.558268  0.558268  0.938165  1
  Y  Y10  1  0.562795  0.936986  0.935928  1
  Y  Y11  1  0.936986  0.562795  0.935928  1
  Er  Er12  1  0.147310  0.551116  0.147525  1
  Er  Er13  1  0.310870  0.688987  0.689360  1
  Er  Er14  1  0.688987  0.310870  0.689360  1
  Er  Er15  1  0.551116  0.147310  0.147525  1
  In  In16  1  0.918346  0.918346  0.248396  1
  In  In17  1  0.248556  0.918449  0.918874  1
  In  In18  1  0.918449  0.248556  0.918874  1
  In  In19  1  0.916558  0.916558  0.917426  1
  Rh  Rh20  1  0.357305  0.357305  0.352168  1
  Rh  Rh21  1  0.926355  0.360346  0.362120  1
  Rh  Rh22  1  0.363281  0.363281  0.926737  1
  Rh  Rh23  1  0.360346  0.926355  0.362120  1
