# generated using pymatgen
data_Mg5Si5P7Ir19
_symmetry_space_group_name_H-M   'P 1'
_cell_length_a   12.71931651
_cell_length_b   12.72667190
_cell_length_c   3.87695700
_cell_angle_alpha   90.00000000
_cell_angle_beta   90.00000000
_cell_angle_gamma   119.83152589
_symmetry_Int_Tables_number   1
_chemical_formula_structural   Mg5Si5P7Ir19
_chemical_formula_sum   'Mg5 Si5 P7 Ir19'
_cell_volume   544.42119055
_cell_formula_units_Z   1
loop_
 _symmetry_equiv_pos_site_id
 _symmetry_equiv_pos_as_xyz
  1  'x, y, z'
loop_
 _atom_site_type_symbol
 _atom_site_label
 _atom_site_symmetry_multiplicity
 _atom_site_fract_x
 _atom_site_fract_y
 _atom_site_fract_z
 _atom_site_occupancy
  Mg  Mg0  1  0.327282  0.666112  0.500000  1
  Mg  Mg1  1  0.667408  0.331580  0.500000  1
  Mg  Mg2  1  0.176049  0.182382  0.000000  1
  Mg  Mg3  1  0.821191  0.994746  0.000000  1
  Mg  Mg4  1  0.006001  0.824324  0.000000  1
  Si  Si5  1  0.317958  0.837482  0.000000  1
  Si  Si6  1  0.162877  0.482879  0.000000  1
  Si  Si7  1  0.362641  0.362756  0.500000  1
  Si  Si8  1  0.637757  0.999470  0.500000  1
  Si  Si9  1  0.000523  0.637530  0.500000  1
  P  P10  1  0.517874  0.683238  0.000000  1
  P  P11  1  0.821370  0.305388  0.000000  1
  P  P12  1  0.485837  0.178008  0.000000  1
  P  P13  1  0.692927  0.513753  0.000000  1
  P  P14  1  0.825149  0.818658  0.500000  1
  P  P15  1  0.179943  0.006558  0.500000  1
  P  P16  1  0.997537  0.175777  0.500000  1
  Ir  Ir17  1  0.186756  0.825473  0.500000  1
  Ir  Ir18  1  0.178533  0.365109  0.500000  1
  Ir  Ir19  1  0.637434  0.812598  0.500000  1
  Ir  Ir20  1  0.816236  0.196920  0.500000  1
  Ir  Ir21  1  0.383495  0.185746  0.500000  1
  Ir  Ir22  1  0.802819  0.618798  0.500000  1
  Ir  Ir23  1  0.132328  0.648806  0.000000  1
  Ir  Ir24  1  0.355679  0.492886  0.000000  1
  Ir  Ir25  1  0.513527  0.863125  0.000000  1
  Ir  Ir26  1  0.632833  0.127914  0.000000  1
  Ir  Ir27  1  0.497177  0.367223  0.000000  1
  Ir  Ir28  1  0.868583  0.500995  0.000000  1
  Ir  Ir29  1  0.542322  0.552950  0.500000  1
  Ir  Ir30  1  0.444405  0.986074  0.500000  1
  Ir  Ir31  1  0.013369  0.457341  0.500000  1
  Ir  Ir32  1  0.715554  0.710732  0.000000  1
  Ir  Ir33  1  0.286580  0.009340  0.000000  1
  Ir  Ir34  1  0.993593  0.278746  0.000000  1
  Ir  Ir35  1  0.998451  0.998580  0.500000  1
