# generated using pymatgen
data_Dy3Er7(SiBi)4
_symmetry_space_group_name_H-M   'P 1'
_cell_length_a   8.63015470
_cell_length_b   8.60561559
_cell_length_c   7.88797777
_cell_angle_alpha   89.95480711
_cell_angle_beta   89.97595307
_cell_angle_gamma   125.64490059
_symmetry_Int_Tables_number   1
_chemical_formula_structural   Dy3Er7(SiBi)4
_chemical_formula_sum   'Dy3 Er7 Si4 Bi4'
_cell_volume   476.06507036
_cell_formula_units_Z   1
loop_
 _symmetry_equiv_pos_site_id
 _symmetry_equiv_pos_as_xyz
  1  'x, y, z'
loop_
 _atom_site_type_symbol
 _atom_site_label
 _atom_site_symmetry_multiplicity
 _atom_site_fract_x
 _atom_site_fract_y
 _atom_site_fract_z
 _atom_site_occupancy
  Dy  Dy0  1  0.042668  0.287146  0.335687  1
  Dy  Dy1  1  0.957360  0.713116  0.664245  1
  Dy  Dy2  1  0.457322  0.213136  0.835682  1
  Er  Er3  1  0.785015  0.542621  0.163785  1
  Er  Er4  1  0.543080  0.785851  0.163908  1
  Er  Er5  1  0.214935  0.457478  0.836346  1
  Er  Er6  1  0.714845  0.957511  0.663722  1
  Er  Er7  1  0.285158  0.042720  0.336146  1
  Er  Er8  1  0.999601  0.999760  0.000163  1
  Er  Er9  1  0.499987  0.500351  0.499687  1
  Si  Si10  1  0.365266  0.364843  0.134188  1
  Si  Si11  1  0.634972  0.636110  0.866376  1
  Si  Si12  1  0.135166  0.136035  0.634384  1
  Si  Si13  1  0.863953  0.863963  0.365163  1
  Bi  Bi14  1  0.793134  0.207672  0.998727  1
  Bi  Bi15  1  0.206660  0.790898  0.002608  1
  Bi  Bi16  1  0.705846  0.291280  0.498067  1
  Bi  Bi17  1  0.295035  0.709508  0.501115  1
