# generated using pymatgen
data_Dy5Y3(CdIr)2
_symmetry_space_group_name_H-M   'P 1'
_cell_length_a   9.65523270
_cell_length_b   9.65523224
_cell_length_c   9.65523300
_cell_angle_alpha   60.00000083
_cell_angle_beta   60.00000240
_cell_angle_gamma   59.99999805
_symmetry_Int_Tables_number   1
_chemical_formula_structural   Dy5Y3(CdIr)2
_chemical_formula_sum   'Dy10 Y6 Cd4 Ir4'
_cell_volume   636.46310725
_cell_formula_units_Z   2
loop_
 _symmetry_equiv_pos_site_id
 _symmetry_equiv_pos_as_xyz
  1  'x, y, z'
loop_
 _atom_site_type_symbol
 _atom_site_label
 _atom_site_symmetry_multiplicity
 _atom_site_fract_x
 _atom_site_fract_y
 _atom_site_fract_z
 _atom_site_occupancy
  Dy  Dy0  1  0.348598  0.348598  0.348598  1
  Dy  Dy1  1  0.348598  0.348598  0.954207  1
  Dy  Dy2  1  0.348598  0.954207  0.348598  1
  Dy  Dy3  1  0.954207  0.348598  0.348598  1
  Dy  Dy4  1  0.810234  0.189766  0.189766  1
  Dy  Dy5  1  0.189766  0.810234  0.810234  1
  Dy  Dy6  1  0.189766  0.810234  0.189766  1
  Dy  Dy7  1  0.810234  0.189766  0.810234  1
  Dy  Dy8  1  0.189766  0.189766  0.810234  1
  Dy  Dy9  1  0.810234  0.810234  0.189766  1
  Y  Y10  1  0.938461  0.561539  0.561539  1
  Y  Y11  1  0.561539  0.938461  0.938461  1
  Y  Y12  1  0.561539  0.938461  0.561539  1
  Y  Y13  1  0.938461  0.561539  0.938461  1
  Y  Y14  1  0.561539  0.561539  0.938461  1
  Y  Y15  1  0.938461  0.938461  0.561539  1
  Cd  Cd16  1  0.581066  0.581066  0.581066  1
  Cd  Cd17  1  0.581066  0.581066  0.256803  1
  Cd  Cd18  1  0.581066  0.256803  0.581066  1
  Cd  Cd19  1  0.256803  0.581066  0.581066  1
  Ir  Ir20  1  0.141716  0.141716  0.141716  1
  Ir  Ir21  1  0.141716  0.141716  0.574853  1
  Ir  Ir22  1  0.141716  0.574853  0.141716  1
  Ir  Ir23  1  0.574853  0.141716  0.141716  1
