# generated using pymatgen
data_Zr7ScSi16(MoW)6
_symmetry_space_group_name_H-M   'P 1'
_cell_length_a   6.61514428
_cell_length_b   6.77392336
_cell_length_c   12.68766504
_cell_angle_alpha   89.94809320
_cell_angle_beta   90.00768189
_cell_angle_gamma   89.96775836
_symmetry_Int_Tables_number   1
_chemical_formula_structural   Zr7ScSi16(MoW)6
_chemical_formula_sum   'Zr7 Sc1 Si16 Mo6 W6'
_cell_volume   568.54003727
_cell_formula_units_Z   1
loop_
 _symmetry_equiv_pos_site_id
 _symmetry_equiv_pos_as_xyz
  1  'x, y, z'
loop_
 _atom_site_type_symbol
 _atom_site_label
 _atom_site_symmetry_multiplicity
 _atom_site_fract_x
 _atom_site_fract_y
 _atom_site_fract_z
 _atom_site_occupancy
  Zr  Zr0  1  0.496050  0.670776  0.593279  1
  Zr  Zr1  1  0.995634  0.828440  0.907116  1
  Zr  Zr2  1  0.504828  0.327703  0.092887  1
  Zr  Zr3  1  0.005020  0.173360  0.406690  1
  Zr  Zr4  1  0.504069  0.327609  0.406705  1
  Zr  Zr5  1  0.004072  0.171958  0.093807  1
  Zr  Zr6  1  0.495088  0.672260  0.907009  1
  Sc  Sc7  1  0.994703  0.829710  0.591842  1
  Si  Si8  1  0.667402  0.958265  0.457247  1
  Si  Si9  1  0.167054  0.541976  0.043216  1
  Si  Si10  1  0.332339  0.042233  0.957585  1
  Si  Si11  1  0.833688  0.460055  0.543327  1
  Si  Si12  1  0.331506  0.039364  0.542837  1
  Si  Si13  1  0.833157  0.458453  0.957727  1
  Si  Si14  1  0.666942  0.957450  0.042907  1
  Si  Si15  1  0.166536  0.543246  0.457117  1
  Si  Si16  1  0.465544  0.378514  0.749973  1
  Si  Si17  1  0.966375  0.120424  0.749639  1
  Si  Si18  1  0.534313  0.621979  0.249625  1
  Si  Si19  1  0.034499  0.876879  0.250819  1
  Si  Si20  1  0.700998  0.859672  0.748585  1
  Si  Si21  1  0.197540  0.641467  0.749288  1
  Si  Si22  1  0.300532  0.138308  0.249815  1
  Si  Si23  1  0.800125  0.361407  0.250320  1
  Mo  Mo24  1  0.666882  0.164007  0.623839  1
  Mo  Mo25  1  0.168089  0.337308  0.876115  1
  Mo  Mo26  1  0.332392  0.835872  0.124198  1
  Mo  Mo27  1  0.831757  0.664054  0.375839  1
  Mo  Mo28  1  0.334573  0.835656  0.375452  1
  Mo  Mo29  1  0.832580  0.664162  0.124522  1
  W  W30  1  0.666403  0.163832  0.875160  1
  W  W31  1  0.167089  0.335978  0.624918  1
  W  W32  1  0.834137  0.506306  0.750294  1
  W  W33  1  0.333865  0.992204  0.750151  1
  W  W34  1  0.166997  0.489783  0.250478  1
  W  W35  1  0.667225  0.009326  0.249670  1
