# generated using pymatgen
data_Tm16AlCd3Pt4
_symmetry_space_group_name_H-M   'P 1'
_cell_length_a   9.51598979
_cell_length_b   9.51598924
_cell_length_c   9.51598945
_cell_angle_alpha   60.26931135
_cell_angle_beta   60.26931550
_cell_angle_gamma   60.26931230
_symmetry_Int_Tables_number   1
_chemical_formula_structural   Tm16AlCd3Pt4
_chemical_formula_sum   'Tm16 Al1 Cd3 Pt4'
_cell_volume   613.03615784
_cell_formula_units_Z   1
loop_
 _symmetry_equiv_pos_site_id
 _symmetry_equiv_pos_as_xyz
  1  'x, y, z'
loop_
 _atom_site_type_symbol
 _atom_site_label
 _atom_site_symmetry_multiplicity
 _atom_site_fract_x
 _atom_site_fract_y
 _atom_site_fract_z
 _atom_site_occupancy
  Tm  Tm0  1  0.349009  0.349009  0.349009  1
  Tm  Tm1  1  0.357087  0.357087  0.936241  1
  Tm  Tm2  1  0.357087  0.936241  0.357087  1
  Tm  Tm3  1  0.936241  0.357087  0.357087  1
  Tm  Tm4  1  0.810027  0.190302  0.190302  1
  Tm  Tm5  1  0.194472  0.808100  0.808100  1
  Tm  Tm6  1  0.190302  0.810027  0.190302  1
  Tm  Tm7  1  0.808100  0.194472  0.808100  1
  Tm  Tm8  1  0.190302  0.190302  0.810027  1
  Tm  Tm9  1  0.808100  0.808100  0.194472  1
  Tm  Tm10  1  0.931554  0.567225  0.567225  1
  Tm  Tm11  1  0.563242  0.937041  0.937041  1
  Tm  Tm12  1  0.567225  0.931554  0.567225  1
  Tm  Tm13  1  0.937041  0.563242  0.937041  1
  Tm  Tm14  1  0.567225  0.567225  0.931554  1
  Tm  Tm15  1  0.937041  0.937041  0.563242  1
  Al  Al16  1  0.581961  0.581961  0.581961  1
  Cd  Cd17  1  0.581006  0.581006  0.254680  1
  Cd  Cd18  1  0.581006  0.254680  0.581006  1
  Cd  Cd19  1  0.254680  0.581006  0.581006  1
  Pt  Pt20  1  0.144875  0.144875  0.144875  1
  Pt  Pt21  1  0.140428  0.140428  0.571564  1
  Pt  Pt22  1  0.140428  0.571564  0.140428  1
  Pt  Pt23  1  0.571564  0.140428  0.140428  1
