# generated using pymatgen
data_Er10In7SnIr4
_symmetry_space_group_name_H-M   'P 1'
_cell_length_a   3.64461200
_cell_length_b   7.95843527
_cell_length_c   18.13641540
_cell_angle_alpha   90.25752122
_cell_angle_beta   90.00000000
_cell_angle_gamma   90.00000000
_symmetry_Int_Tables_number   1
_chemical_formula_structural   Er10In7SnIr4
_chemical_formula_sum   'Er10 In7 Sn1 Ir4'
_cell_volume   526.04882739
_cell_formula_units_Z   1
loop_
 _symmetry_equiv_pos_site_id
 _symmetry_equiv_pos_as_xyz
  1  'x, y, z'
loop_
 _atom_site_type_symbol
 _atom_site_label
 _atom_site_symmetry_multiplicity
 _atom_site_fract_x
 _atom_site_fract_y
 _atom_site_fract_z
 _atom_site_occupancy
  Er  Er0  1  0.000000  0.499884  0.499944  1
  Er  Er1  1  0.000000  0.994927  0.998112  1
  Er  Er2  1  0.000000  0.751239  0.278109  1
  Er  Er3  1  0.000000  0.248332  0.721929  1
  Er  Er4  1  0.000000  0.749709  0.779865  1
  Er  Er5  1  0.000000  0.253559  0.222203  1
  Er  Er6  1  0.000000  0.620125  0.088135  1
  Er  Er7  1  0.000000  0.382026  0.911727  1
  Er  Er8  1  0.000000  0.880004  0.589771  1
  Er  Er9  1  0.000000  0.120271  0.410308  1
  In  In10  1  0.500000  0.294839  0.066948  1
  In  In11  1  0.500000  0.797162  0.433211  1
  In  In12  1  0.500000  0.202240  0.566173  1
  In  In13  1  0.500000  0.566831  0.649517  1
  In  In14  1  0.500000  0.434265  0.350779  1
  In  In15  1  0.500000  0.933735  0.149326  1
  In  In16  1  0.500000  0.070435  0.850522  1
  Sn  Sn17  1  0.500000  0.702255  0.933725  1
  Ir  Ir18  1  0.500000  0.528853  0.195296  1
  Ir  Ir19  1  0.500000  0.471160  0.803860  1
  Ir  Ir20  1  0.500000  0.971453  0.696774  1
  Ir  Ir21  1  0.500000  0.026695  0.303764  1
