# generated using pymatgen
data_Pr16Er4Si15Os
_symmetry_space_group_name_H-M   'P 1'
_cell_length_a   7.84988601
_cell_length_b   7.81223455
_cell_length_c   15.19667892
_cell_angle_alpha   90.17215653
_cell_angle_beta   89.84542139
_cell_angle_gamma   90.10979848
_symmetry_Int_Tables_number   1
_chemical_formula_structural   Pr16Er4Si15Os
_chemical_formula_sum   'Pr16 Er4 Si15 Os1'
_cell_volume   931.92932966
_cell_formula_units_Z   1
loop_
 _symmetry_equiv_pos_site_id
 _symmetry_equiv_pos_as_xyz
  1  'x, y, z'
loop_
 _atom_site_type_symbol
 _atom_site_label
 _atom_site_symmetry_multiplicity
 _atom_site_fract_x
 _atom_site_fract_y
 _atom_site_fract_z
 _atom_site_occupancy
  Pr  Pr0  1  0.374203  0.013659  0.448757  1
  Pr  Pr1  1  0.484417  0.881603  0.697169  1
  Pr  Pr2  1  0.512803  0.122241  0.197066  1
  Pr  Pr3  1  0.877634  0.487016  0.302642  1
  Pr  Pr4  1  0.125934  0.502693  0.799460  1
  Pr  Pr5  1  0.624170  0.987218  0.946410  1
  Pr  Pr6  1  0.007300  0.378701  0.554384  1
  Pr  Pr7  1  0.987416  0.622859  0.052899  1
  Pr  Pr8  1  0.132271  0.981168  0.872834  1
  Pr  Pr9  1  0.522818  0.628963  0.127518  1
  Pr  Pr10  1  0.468971  0.362469  0.631253  1
  Pr  Pr11  1  0.626967  0.518778  0.872728  1
  Pr  Pr12  1  0.374543  0.479041  0.372069  1
  Pr  Pr13  1  0.875221  0.024830  0.378274  1
  Pr  Pr14  1  0.978188  0.124797  0.122405  1
  Pr  Pr15  1  0.028712  0.884129  0.624493  1
  Er  Er16  1  0.309577  0.306966  0.999719  1
  Er  Er17  1  0.190124  0.809217  0.250109  1
  Er  Er18  1  0.824924  0.190191  0.748670  1
  Er  Er19  1  0.691853  0.689566  0.501521  1
  Si  Si20  1  0.329833  0.687540  0.955648  1
  Si  Si21  1  0.667074  0.310422  0.457629  1
  Si  Si22  1  0.690514  0.329183  0.044982  1
  Si  Si23  1  0.310949  0.671678  0.542980  1
  Si  Si24  1  0.812981  0.828505  0.208636  1
  Si  Si25  1  0.171925  0.189544  0.292754  1
  Si  Si26  1  0.828325  0.808373  0.794013  1
  Si  Si27  1  0.286883  0.920996  0.062304  1
  Si  Si28  1  0.579990  0.785357  0.314462  1
  Si  Si29  1  0.423487  0.210185  0.815784  1
  Si  Si30  1  0.775499  0.585083  0.685896  1
  Si  Si31  1  0.213177  0.422123  0.186094  1
  Si  Si32  1  0.706675  0.073105  0.561535  1
  Si  Si33  1  0.920377  0.284481  0.937709  1
  Si  Si34  1  0.081269  0.718700  0.436696  1
  Os  Os35  1  0.182993  0.178621  0.702497  1
