# generated using pymatgen
data_Rb2Ti7BBr18
_symmetry_space_group_name_H-M   'P 1'
_cell_length_a   10.67877878
_cell_length_b   10.67877841
_cell_length_c   10.67877783
_cell_angle_alpha   55.54247372
_cell_angle_beta   55.54246890
_cell_angle_gamma   55.54247326
_symmetry_Int_Tables_number   1
_chemical_formula_structural   Rb2Ti7BBr18
_chemical_formula_sum   'Rb2 Ti7 B1 Br18'
_cell_volume   771.98921295
_cell_formula_units_Z   1
loop_
 _symmetry_equiv_pos_site_id
 _symmetry_equiv_pos_as_xyz
  1  'x, y, z'
loop_
 _atom_site_type_symbol
 _atom_site_label
 _atom_site_symmetry_multiplicity
 _atom_site_fract_x
 _atom_site_fract_y
 _atom_site_fract_z
 _atom_site_occupancy
  Rb  Rb0  1  0.775738  0.775738  0.775738  1
  Rb  Rb1  1  0.224262  0.224262  0.224262  1
  Ti  Ti2  1  0.152135  0.905017  0.803775  1
  Ti  Ti3  1  0.847865  0.094983  0.196225  1
  Ti  Ti4  1  0.094983  0.196225  0.847865  1
  Ti  Ti5  1  0.196225  0.847865  0.094983  1
  Ti  Ti6  1  0.905017  0.803775  0.152135  1
  Ti  Ti7  1  0.803775  0.152135  0.905017  1
  Ti  Ti8  1  0.500000  0.500000  0.500000  1
  B  B9  1  0.000000  0.000000  0.000000  1
  Br  Br10  1  0.220269  0.469574  0.645218  1
  Br  Br11  1  0.779731  0.530426  0.354782  1
  Br  Br12  1  0.339064  0.052545  0.934120  1
  Br  Br13  1  0.660936  0.947455  0.065880  1
  Br  Br14  1  0.934120  0.339064  0.052545  1
  Br  Br15  1  0.715708  0.880189  0.405360  1
  Br  Br16  1  0.354782  0.779731  0.530426  1
  Br  Br17  1  0.594640  0.284292  0.119811  1
  Br  Br18  1  0.284292  0.119811  0.594640  1
  Br  Br19  1  0.119811  0.594640  0.284292  1
  Br  Br20  1  0.947455  0.065880  0.660936  1
  Br  Br21  1  0.405360  0.715708  0.880189  1
  Br  Br22  1  0.880189  0.405360  0.715708  1
  Br  Br23  1  0.065880  0.660936  0.947455  1
  Br  Br24  1  0.469574  0.645218  0.220269  1
  Br  Br25  1  0.645218  0.220269  0.469574  1
  Br  Br26  1  0.530426  0.354782  0.779731  1
  Br  Br27  1  0.052545  0.934120  0.339064  1
