# generated using pymatgen
data_Nd19DySn9Bi7
_symmetry_space_group_name_H-M   'P 1'
_cell_length_a   8.40173679
_cell_length_b   8.46071705
_cell_length_c   16.18788800
_cell_angle_alpha   90.03818041
_cell_angle_beta   89.68523001
_cell_angle_gamma   89.87203838
_symmetry_Int_Tables_number   1
_chemical_formula_structural   Nd19DySn9Bi7
_chemical_formula_sum   'Nd19 Dy1 Sn9 Bi7'
_cell_volume   1150.69094858
_cell_formula_units_Z   1
loop_
 _symmetry_equiv_pos_site_id
 _symmetry_equiv_pos_as_xyz
  1  'x, y, z'
loop_
 _atom_site_type_symbol
 _atom_site_label
 _atom_site_symmetry_multiplicity
 _atom_site_fract_x
 _atom_site_fract_y
 _atom_site_fract_z
 _atom_site_occupancy
  Nd  Nd0  1  0.397040  0.836693  0.880727  1
  Nd  Nd1  1  0.899383  0.664817  0.619061  1
  Nd  Nd2  1  0.600825  0.162546  0.380181  1
  Nd  Nd3  1  0.100862  0.337311  0.119416  1
  Nd  Nd4  1  0.605462  0.166681  0.119432  1
  Nd  Nd5  1  0.101406  0.335597  0.380223  1
  Nd  Nd6  1  0.398899  0.837031  0.619640  1
  Nd  Nd7  1  0.893849  0.661942  0.882321  1
  Nd  Nd8  1  0.560469  0.331191  0.891558  1
  Nd  Nd9  1  0.061163  0.171104  0.611806  1
  Nd  Nd10  1  0.438139  0.669396  0.387865  1
  Nd  Nd11  1  0.942164  0.823338  0.110026  1
  Nd  Nd12  1  0.447790  0.668421  0.109010  1
  Nd  Nd13  1  0.938381  0.829795  0.387627  1
  Nd  Nd14  1  0.561832  0.330163  0.611736  1
  Nd  Nd15  1  0.053162  0.175398  0.891375  1
  Nd  Nd16  1  0.226964  0.498450  0.750660  1
  Nd  Nd17  1  0.727264  0.003823  0.750763  1
  Nd  Nd18  1  0.773279  0.502031  0.246205  1
  Dy  Dy19  1  0.271976  0.996614  0.248775  1
  Sn  Sn20  1  0.766137  0.480771  0.045461  1
  Sn  Sn21  1  0.598028  0.626976  0.749827  1
  Sn  Sn22  1  0.097382  0.875131  0.751081  1
  Sn  Sn23  1  0.400543  0.371036  0.250277  1
  Sn  Sn24  1  0.904712  0.123867  0.250059  1
  Sn  Sn25  1  0.360634  0.138511  0.751197  1
  Sn  Sn26  1  0.861411  0.364208  0.750187  1
  Sn  Sn27  1  0.635667  0.863459  0.249730  1
  Sn  Sn28  1  0.141387  0.639396  0.249705  1
  Bi  Bi29  1  0.264709  0.015324  0.047641  1
  Bi  Bi30  1  0.761996  0.486417  0.452917  1
  Bi  Bi31  1  0.738165  0.987450  0.546423  1
  Bi  Bi32  1  0.234509  0.517738  0.954787  1
  Bi  Bi33  1  0.734031  0.982514  0.954818  1
  Bi  Bi34  1  0.238271  0.513243  0.546285  1
  Bi  Bi35  1  0.262106  0.011615  0.451195  1
