# generated using pymatgen
data_Y3UGa20Pt11
_symmetry_space_group_name_H-M   'P 1'
_cell_length_a   4.26337063
_cell_length_b   10.93701893
_cell_length_c   13.65262020
_cell_angle_alpha   81.72384197
_cell_angle_beta   80.80339082
_cell_angle_gamma   78.46098107
_symmetry_Int_Tables_number   1
_chemical_formula_structural   Y3UGa20Pt11
_chemical_formula_sum   'Y3 U1 Ga20 Pt11'
_cell_volume   611.57765471
_cell_formula_units_Z   1
loop_
 _symmetry_equiv_pos_site_id
 _symmetry_equiv_pos_as_xyz
  1  'x, y, z'
loop_
 _atom_site_type_symbol
 _atom_site_label
 _atom_site_symmetry_multiplicity
 _atom_site_fract_x
 _atom_site_fract_y
 _atom_site_fract_z
 _atom_site_occupancy
  Y  Y0  1  0.876447  0.910474  0.335818  1
  Y  Y1  1  0.772846  0.628720  0.821529  1
  Y  Y2  1  0.227625  0.369866  0.178166  1
  U  U3  1  0.120782  0.091885  0.668520  1
  Ga  Ga4  1  0.009097  0.071409  0.913188  1
  Ga  Ga5  1  0.990549  0.926941  0.089737  1
  Ga  Ga6  1  0.064129  0.676870  0.192576  1
  Ga  Ga7  1  0.936446  0.324314  0.806702  1
  Ga  Ga8  1  0.103020  0.342072  0.453594  1
  Ga  Ga9  1  0.896017  0.660025  0.545912  1
  Ga  Ga10  1  0.199840  0.605764  0.991923  1
  Ga  Ga11  1  0.800720  0.393360  0.007718  1
  Ga  Ga12  1  0.256731  0.781023  0.700133  1
  Ga  Ga13  1  0.744131  0.216412  0.298809  1
  Ga  Ga14  1  0.301046  0.899193  0.497218  1
  Ga  Ga15  1  0.697744  0.101908  0.504216  1
  Ga  Ga16  1  0.383128  0.527445  0.699989  1
  Ga  Ga17  1  0.616659  0.473190  0.299758  1
  Ga  Ga18  1  0.397819  0.201148  0.000254  1
  Ga  Ga19  1  0.604045  0.797315  0.998079  1
  Ga  Ga20  1  0.542468  0.288030  0.626498  1
  Ga  Ga21  1  0.456252  0.715994  0.371587  1
  Ga  Ga22  1  0.640869  0.928725  0.794507  1
  Ga  Ga23  1  0.360105  0.067359  0.208448  1
  Pt  Pt24  1  0.497681  0.503804  0.500013  1
  Pt  Pt25  1  0.030997  0.575035  0.369316  1
  Pt  Pt26  1  0.968263  0.426313  0.629729  1
  Pt  Pt27  1  0.142220  0.834157  0.887754  1
  Pt  Pt28  1  0.859785  0.163922  0.110596  1
  Pt  Pt29  1  0.241361  0.127314  0.393667  1
  Pt  Pt30  1  0.755773  0.873814  0.608774  1
  Pt  Pt31  1  0.346333  0.418001  0.891596  1
  Pt  Pt32  1  0.655089  0.580336  0.107417  1
  Pt  Pt33  1  0.512122  0.166069  0.812409  1
  Pt  Pt34  1  0.491862  0.831795  0.183849  1
