# generated using pymatgen
data_Y4Tm4Mn(B8Ir)3
_symmetry_space_group_name_H-M   'P 1'
_cell_length_a   3.62463300
_cell_length_b   9.10186706
_cell_length_c   11.49428300
_cell_angle_alpha   89.99357915
_cell_angle_beta   90.00000000
_cell_angle_gamma   90.00000000
_symmetry_Int_Tables_number   1
_chemical_formula_structural   Y4Tm4Mn(B8Ir)3
_chemical_formula_sum   'Y4 Tm4 Mn1 B24 Ir3'
_cell_volume   379.20705700
_cell_formula_units_Z   1
loop_
 _symmetry_equiv_pos_site_id
 _symmetry_equiv_pos_as_xyz
  1  'x, y, z'
loop_
 _atom_site_type_symbol
 _atom_site_label
 _atom_site_symmetry_multiplicity
 _atom_site_fract_x
 _atom_site_fract_y
 _atom_site_fract_z
 _atom_site_occupancy
  Y  Y0  1  0.000000  0.325636  0.412093  1
  Y  Y1  1  0.000000  0.678717  0.580814  1
  Y  Y2  1  0.000000  0.816836  0.090343  1
  Y  Y3  1  0.000000  0.179856  0.914507  1
  Tm  Tm4  1  0.000000  0.939487  0.373518  1
  Tm  Tm5  1  0.000000  0.055930  0.625306  1
  Tm  Tm6  1  0.000000  0.448610  0.129483  1
  Tm  Tm7  1  0.000000  0.556147  0.873911  1
  Mn  Mn8  1  0.000000  0.638254  0.320090  1
  B  B9  1  0.500000  0.554829  0.431160  1
  B  B10  1  0.500000  0.446071  0.565673  1
  B  B11  1  0.500000  0.053170  0.067063  1
  B  B12  1  0.500000  0.945872  0.933998  1
  B  B13  1  0.500000  0.747131  0.417268  1
  B  B14  1  0.500000  0.250189  0.578973  1
  B  B15  1  0.500000  0.251626  0.080633  1
  B  B16  1  0.500000  0.749364  0.920505  1
  B  B17  1  0.500000  0.790186  0.266466  1
  B  B18  1  0.500000  0.206594  0.735321  1
  B  B19  1  0.500000  0.293321  0.234754  1
  B  B20  1  0.500000  0.707217  0.764560  1
  B  B21  1  0.500000  0.631271  0.186531  1
  B  B22  1  0.500000  0.368398  0.816575  1
  B  B23  1  0.500000  0.131092  0.316359  1
  B  B24  1  0.500000  0.868757  0.683095  1
  B  B25  1  0.500000  0.981436  0.214196  1
  B  B26  1  0.500000  0.018366  0.786153  1
  B  B27  1  0.500000  0.486020  0.287323  1
  B  B28  1  0.500000  0.518039  0.713414  1
  B  B29  1  0.500000  0.606343  0.028839  1
  B  B30  1  0.500000  0.393996  0.971559  1
  B  B31  1  0.500000  0.106626  0.470716  1
  B  B32  1  0.500000  0.893278  0.529003  1
  Ir  Ir33  1  0.000000  0.361717  0.679746  1
  Ir  Ir34  1  0.000000  0.138190  0.179236  1
  Ir  Ir35  1  0.000000  0.861429  0.820822  1
