# generated using pymatgen
data_La2Yb5Pr13Ir12
_symmetry_space_group_name_H-M   'P 1'
_cell_length_a   11.25782979
_cell_length_b   11.29452909
_cell_length_c   6.50670824
_cell_angle_alpha   89.91060700
_cell_angle_beta   89.72139168
_cell_angle_gamma   90.30049676
_symmetry_Int_Tables_number   1
_chemical_formula_structural   La2Yb5Pr13Ir12
_chemical_formula_sum   'La2 Yb5 Pr13 Ir12'
_cell_volume   827.31802442
_cell_formula_units_Z   1
loop_
 _symmetry_equiv_pos_site_id
 _symmetry_equiv_pos_as_xyz
  1  'x, y, z'
loop_
 _atom_site_type_symbol
 _atom_site_label
 _atom_site_symmetry_multiplicity
 _atom_site_fract_x
 _atom_site_fract_y
 _atom_site_fract_z
 _atom_site_occupancy
  La  La0  1  0.288959  0.091072  0.389235  1
  La  La1  1  0.287393  0.909792  0.889621  1
  Yb  Yb2  1  0.708327  0.088222  0.883382  1
  Yb  Yb3  1  0.000496  0.999835  0.495877  1
  Yb  Yb4  1  0.994220  0.001217  0.995525  1
  Yb  Yb5  1  0.501741  0.501815  0.996082  1
  Yb  Yb6  1  0.500104  0.499992  0.496640  1
  Pr  Pr7  1  0.712271  0.913616  0.385796  1
  Pr  Pr8  1  0.591640  0.791956  0.885349  1
  Pr  Pr9  1  0.591681  0.211033  0.384804  1
  Pr  Pr10  1  0.412856  0.787885  0.385028  1
  Pr  Pr11  1  0.416962  0.213183  0.884316  1
  Pr  Pr12  1  0.211629  0.411426  0.616890  1
  Pr  Pr13  1  0.212419  0.587126  0.116658  1
  Pr  Pr14  1  0.787662  0.410578  0.117233  1
  Pr  Pr15  1  0.786137  0.588098  0.615974  1
  Pr  Pr16  1  0.911075  0.711230  0.115134  1
  Pr  Pr17  1  0.907735  0.285662  0.618398  1
  Pr  Pr18  1  0.087771  0.710885  0.615359  1
  Pr  Pr19  1  0.088912  0.286937  0.117920  1
  Ir  Ir20  1  0.845758  0.155680  0.249812  1
  Ir  Ir21  1  0.848611  0.841647  0.745093  1
  Ir  Ir22  1  0.154473  0.154920  0.747136  1
  Ir  Ir23  1  0.153304  0.844570  0.243805  1
  Ir  Ir24  1  0.654732  0.349246  0.746331  1
  Ir  Ir25  1  0.654589  0.656974  0.248667  1
  Ir  Ir26  1  0.347518  0.343695  0.250747  1
  Ir  Ir27  1  0.345091  0.654593  0.749750  1
  Ir  Ir28  1  0.497802  0.000133  0.120081  1
  Ir  Ir29  1  0.498664  0.000045  0.620587  1
  Ir  Ir30  1  0.000023  0.498047  0.887339  1
  Ir  Ir31  1  0.999445  0.498891  0.385429  1
