# generated using pymatgen
data_Ho2Lu3Si3Ir
_symmetry_space_group_name_H-M   'P 1'
_cell_length_a   7.06473000
_cell_length_b   7.80624300
_cell_length_c   14.39082200
_cell_angle_alpha   90.00000000
_cell_angle_beta   90.00000000
_cell_angle_gamma   90.00000000
_symmetry_Int_Tables_number   1
_chemical_formula_structural   Ho2Lu3Si3Ir
_chemical_formula_sum   'Ho8 Lu12 Si12 Ir4'
_cell_volume   793.63942966
_cell_formula_units_Z   4
loop_
 _symmetry_equiv_pos_site_id
 _symmetry_equiv_pos_as_xyz
  1  'x, y, z'
loop_
 _atom_site_type_symbol
 _atom_site_label
 _atom_site_symmetry_multiplicity
 _atom_site_fract_x
 _atom_site_fract_y
 _atom_site_fract_z
 _atom_site_occupancy
  Ho  Ho0  1  0.007110  0.182550  0.093702  1
  Ho  Ho1  1  0.992890  0.817450  0.906298  1
  Ho  Ho2  1  0.492890  0.682550  0.906298  1
  Ho  Ho3  1  0.992890  0.817450  0.593702  1
  Ho  Ho4  1  0.507110  0.317450  0.093702  1
  Ho  Ho5  1  0.007110  0.182550  0.406298  1
  Ho  Ho6  1  0.507110  0.317450  0.406298  1
  Ho  Ho7  1  0.492890  0.682550  0.593702  1
  Lu  Lu8  1  0.170951  0.508181  0.750000  1
  Lu  Lu9  1  0.829049  0.491819  0.250000  1
  Lu  Lu10  1  0.329049  0.008181  0.250000  1
  Lu  Lu11  1  0.670951  0.991819  0.750000  1
  Lu  Lu12  1  0.317507  0.171349  0.628446  1
  Lu  Lu13  1  0.682493  0.828651  0.371554  1
  Lu  Lu14  1  0.182493  0.671349  0.371554  1
  Lu  Lu15  1  0.682493  0.828651  0.128446  1
  Lu  Lu16  1  0.817507  0.328651  0.628446  1
  Lu  Lu17  1  0.317507  0.171349  0.871554  1
  Lu  Lu18  1  0.817507  0.328651  0.871554  1
  Lu  Lu19  1  0.182493  0.671349  0.128446  1
  Si  Si20  1  0.273813  0.863442  0.750000  1
  Si  Si21  1  0.726187  0.136558  0.250000  1
  Si  Si22  1  0.226187  0.363442  0.250000  1
  Si  Si23  1  0.773813  0.636558  0.750000  1
  Si  Si24  1  0.158025  0.469583  0.537803  1
  Si  Si25  1  0.841975  0.530417  0.462197  1
  Si  Si26  1  0.341975  0.969583  0.462197  1
  Si  Si27  1  0.841975  0.530417  0.037803  1
  Si  Si28  1  0.658025  0.030417  0.537803  1
  Si  Si29  1  0.158025  0.469583  0.962197  1
  Si  Si30  1  0.658025  0.030417  0.962197  1
  Si  Si31  1  0.341975  0.969583  0.037803  1
  Ir  Ir32  1  0.025145  0.100395  0.750000  1
  Ir  Ir33  1  0.974855  0.899605  0.250000  1
  Ir  Ir34  1  0.474855  0.600395  0.250000  1
  Ir  Ir35  1  0.525145  0.399605  0.750000  1
