# generated using pymatgen
data_Ta2SiRuRh4
_symmetry_space_group_name_H-M   'P 1'
_cell_length_a   4.05182900
_cell_length_b   5.47093439
_cell_length_c   10.63326623
_cell_angle_alpha   90.18791768
_cell_angle_beta   90.00000000
_cell_angle_gamma   90.00000000
_symmetry_Int_Tables_number   1
_chemical_formula_structural   Ta2SiRuRh4
_chemical_formula_sum   'Ta4 Si2 Ru2 Rh8'
_cell_volume   235.70943503
_cell_formula_units_Z   2
loop_
 _symmetry_equiv_pos_site_id
 _symmetry_equiv_pos_as_xyz
  1  'x, y, z'
loop_
 _atom_site_type_symbol
 _atom_site_label
 _atom_site_symmetry_multiplicity
 _atom_site_fract_x
 _atom_site_fract_y
 _atom_site_fract_z
 _atom_site_occupancy
  Ta  Ta0  1  0.500000  0.825196  0.361158  1
  Ta  Ta1  1  0.500000  0.174804  0.638842  1
  Ta  Ta2  1  0.500000  0.327331  0.145395  1
  Ta  Ta3  1  0.500000  0.672669  0.854605  1
  Si  Si4  1  0.000000  0.500000  0.500000  1
  Si  Si5  1  0.000000  0.000000  0.000000  1
  Ru  Ru6  1  0.500000  0.314142  0.394168  1
  Ru  Ru7  1  0.500000  0.685858  0.605832  1
  Rh  Rh8  1  0.000000  0.500000  0.000000  1
  Rh  Rh9  1  0.000000  0.000000  0.500000  1
  Rh  Rh10  1  0.000000  0.573178  0.258812  1
  Rh  Rh11  1  0.000000  0.426822  0.741188  1
  Rh  Rh12  1  0.000000  0.072968  0.238378  1
  Rh  Rh13  1  0.000000  0.927032  0.761622  1
  Rh  Rh14  1  0.500000  0.815516  0.102333  1
  Rh  Rh15  1  0.500000  0.184484  0.897667  1
