# generated using pymatgen
data_Ac12Zn(SnI4)3
_symmetry_space_group_name_H-M   'P 1'
_cell_length_a   11.73218300
_cell_length_b   11.60234722
_cell_length_c   11.60234800
_cell_angle_alpha   109.24341806
_cell_angle_beta   109.69806901
_cell_angle_gamma   109.69807253
_symmetry_Int_Tables_number   1
_chemical_formula_structural   Ac12Zn(SnI4)3
_chemical_formula_sum   'Ac12 Zn1 Sn3 I12'
_cell_volume   1212.34204515
_cell_formula_units_Z   1
loop_
 _symmetry_equiv_pos_site_id
 _symmetry_equiv_pos_as_xyz
  1  'x, y, z'
loop_
 _atom_site_type_symbol
 _atom_site_label
 _atom_site_symmetry_multiplicity
 _atom_site_fract_x
 _atom_site_fract_y
 _atom_site_fract_z
 _atom_site_occupancy
  Ac  Ac0  1  0.472910  0.493956  0.231739  1
  Ac  Ac1  1  0.750000  0.241004  0.258996  1
  Ac  Ac2  1  0.750000  0.008543  0.491457  1
  Ac  Ac3  1  0.241457  0.482914  0.491457  1
  Ac  Ac4  1  0.258829  0.737783  0.231739  1
  Ac  Ac5  1  0.027090  0.268261  0.006044  1
  Ac  Ac6  1  0.008996  0.017991  0.258996  1
  Ac  Ac7  1  0.478955  0.737783  0.006044  1
  Ac  Ac8  1  0.491004  0.241004  0.482009  1
  Ac  Ac9  1  0.021045  0.493956  0.762217  1
  Ac  Ac10  1  0.258543  0.008543  0.017086  1
  Ac  Ac11  1  0.241171  0.268261  0.762217  1
  Zn  Zn12  1  0.250000  0.500000  0.000000  1
  Sn  Sn13  1  0.250000  0.249657  0.250343  1
  Sn  Sn14  1  0.500343  0.000685  0.250343  1
  Sn  Sn15  1  0.999657  0.249657  0.499315  1
  I  I16  1  0.250000  0.758043  0.741957  1
  I  I17  1  0.513415  0.506367  0.756186  1
  I  I18  1  0.986585  0.743814  0.993633  1
  I  I19  1  0.742771  0.249819  0.756186  1
  I  I20  1  0.991957  0.983913  0.741957  1
  I  I21  1  0.250000  0.995161  0.504839  1
  I  I22  1  0.754839  0.509679  0.504839  1
  I  I23  1  0.507048  0.249819  0.993633  1
  I  I24  1  0.757229  0.743814  0.250181  1
  I  I25  1  0.745161  0.995161  0.990321  1
  I  I26  1  0.992952  0.506367  0.250181  1
  I  I27  1  0.508043  0.758043  0.516087  1
