# generated using pymatgen
data_Nd3Ho2P12Ru9Rh10
_symmetry_space_group_name_H-M   'P 1'
_cell_length_a   12.67008600
_cell_length_b   12.67008657
_cell_length_c   3.96604200
_cell_angle_alpha   90.00000000
_cell_angle_beta   90.00000000
_cell_angle_gamma   119.99999852
_symmetry_Int_Tables_number   1
_chemical_formula_structural   Nd3Ho2P12Ru9Rh10
_chemical_formula_sum   'Nd3 Ho2 P12 Ru9 Rh10'
_cell_volume   551.37502711
_cell_formula_units_Z   1
loop_
 _symmetry_equiv_pos_site_id
 _symmetry_equiv_pos_as_xyz
  1  'x, y, z'
loop_
 _atom_site_type_symbol
 _atom_site_label
 _atom_site_symmetry_multiplicity
 _atom_site_fract_x
 _atom_site_fract_y
 _atom_site_fract_z
 _atom_site_occupancy
  Nd  Nd0  1  0.000000  0.186199  0.500000  1
  Nd  Nd1  1  0.813801  0.813801  0.500000  1
  Nd  Nd2  1  0.186199  0.000000  0.500000  1
  Ho  Ho3  1  0.666667  0.333333  0.000000  1
  Ho  Ho4  1  0.333333  0.666667  0.000000  1
  P  P5  1  0.000000  0.814660  0.000000  1
  P  P6  1  0.185340  0.185340  0.000000  1
  P  P7  1  0.814660  0.000000  0.000000  1
  P  P8  1  0.689920  0.173895  0.500000  1
  P  P9  1  0.826105  0.516025  0.500000  1
  P  P10  1  0.483975  0.310080  0.500000  1
  P  P11  1  0.173895  0.689920  0.500000  1
  P  P12  1  0.516025  0.826105  0.500000  1
  P  P13  1  0.310080  0.483975  0.500000  1
  P  P14  1  0.000000  0.372252  0.000000  1
  P  P15  1  0.627748  0.627748  0.000000  1
  P  P16  1  0.372252  0.000000  0.000000  1
  Ru  Ru17  1  0.000000  0.711883  0.500000  1
  Ru  Ru18  1  0.288117  0.288117  0.500000  1
  Ru  Ru19  1  0.711883  0.000000  0.500000  1
  Ru  Ru20  1  0.872931  0.362942  0.500000  1
  Ru  Ru21  1  0.637058  0.509988  0.500000  1
  Ru  Ru22  1  0.490012  0.127069  0.500000  1
  Ru  Ru23  1  0.362942  0.872931  0.500000  1
  Ru  Ru24  1  0.509988  0.637058  0.500000  1
  Ru  Ru25  1  0.127069  0.490012  0.500000  1
  Rh  Rh26  1  0.000000  0.551222  0.000000  1
  Rh  Rh27  1  0.448778  0.448778  0.000000  1
  Rh  Rh28  1  0.551222  0.000000  0.000000  1
  Rh  Rh29  1  0.804323  0.183116  0.000000  1
  Rh  Rh30  1  0.816884  0.621206  0.000000  1
  Rh  Rh31  1  0.378794  0.195677  0.000000  1
  Rh  Rh32  1  0.183116  0.804323  0.000000  1
  Rh  Rh33  1  0.621206  0.816884  0.000000  1
  Rh  Rh34  1  0.195677  0.378794  0.000000  1
  Rh  Rh35  1  0.000000  0.000000  0.000000  1
