# generated using pymatgen
data_LaLu2Ni9
_symmetry_space_group_name_H-M   'P 1'
_cell_length_a   8.54767900
_cell_length_b   8.54767917
_cell_length_c   8.54767972
_cell_angle_alpha   33.96084960
_cell_angle_beta   33.96084499
_cell_angle_gamma   33.96084603
_symmetry_Int_Tables_number   1
_chemical_formula_structural   LaLu2Ni9
_chemical_formula_sum   'La1 Lu2 Ni9'
_cell_volume   173.70809282
_cell_formula_units_Z   1
loop_
 _symmetry_equiv_pos_site_id
 _symmetry_equiv_pos_as_xyz
  1  'x, y, z'
loop_
 _atom_site_type_symbol
 _atom_site_label
 _atom_site_symmetry_multiplicity
 _atom_site_fract_x
 _atom_site_fract_y
 _atom_site_fract_z
 _atom_site_occupancy
  La  La0  1  0.000000  0.000000  0.000000  1
  Lu  Lu1  1  0.859335  0.859335  0.859335  1
  Lu  Lu2  1  0.140665  0.140665  0.140665  1
  Ni  Ni3  1  0.586026  0.082127  0.586026  1
  Ni  Ni4  1  0.082127  0.586026  0.586026  1
  Ni  Ni5  1  0.586026  0.586026  0.082127  1
  Ni  Ni6  1  0.413974  0.917873  0.413974  1
  Ni  Ni7  1  0.917873  0.413974  0.413974  1
  Ni  Ni8  1  0.332983  0.332983  0.332983  1
  Ni  Ni9  1  0.413974  0.413974  0.917873  1
  Ni  Ni10  1  0.500000  0.500000  0.500000  1
  Ni  Ni11  1  0.667017  0.667017  0.667017  1
