# generated using pymatgen
data_Tm16MgCd3Pt4
_symmetry_space_group_name_H-M   'P 1'
_cell_length_a   9.57637189
_cell_length_b   9.57637145
_cell_length_c   9.57637134
_cell_angle_alpha   59.93457548
_cell_angle_beta   59.93457841
_cell_angle_gamma   59.93457670
_symmetry_Int_Tables_number   1
_chemical_formula_structural   Tm16MgCd3Pt4
_chemical_formula_sum   'Tm16 Mg1 Cd3 Pt4'
_cell_volume   620.07330079
_cell_formula_units_Z   1
loop_
 _symmetry_equiv_pos_site_id
 _symmetry_equiv_pos_as_xyz
  1  'x, y, z'
loop_
 _atom_site_type_symbol
 _atom_site_label
 _atom_site_symmetry_multiplicity
 _atom_site_fract_x
 _atom_site_fract_y
 _atom_site_fract_z
 _atom_site_occupancy
  Tm  Tm0  1  0.350024  0.350024  0.350024  1
  Tm  Tm1  1  0.354609  0.354609  0.940736  1
  Tm  Tm2  1  0.354609  0.940736  0.354609  1
  Tm  Tm3  1  0.940736  0.354609  0.354609  1
  Tm  Tm4  1  0.809347  0.191130  0.191130  1
  Tm  Tm5  1  0.189012  0.811659  0.811659  1
  Tm  Tm6  1  0.191130  0.809347  0.191130  1
  Tm  Tm7  1  0.811659  0.189012  0.811659  1
  Tm  Tm8  1  0.191130  0.191130  0.809347  1
  Tm  Tm9  1  0.811659  0.811659  0.189012  1
  Tm  Tm10  1  0.935196  0.566348  0.566348  1
  Tm  Tm11  1  0.562773  0.936757  0.936757  1
  Tm  Tm12  1  0.566348  0.935196  0.566348  1
  Tm  Tm13  1  0.936757  0.562773  0.936757  1
  Tm  Tm14  1  0.566348  0.566348  0.935196  1
  Tm  Tm15  1  0.936757  0.936757  0.562773  1
  Mg  Mg16  1  0.577483  0.577483  0.577483  1
  Cd  Cd17  1  0.581311  0.581311  0.253178  1
  Cd  Cd18  1  0.581311  0.253178  0.581311  1
  Cd  Cd19  1  0.253178  0.581311  0.581311  1
  Pt  Pt20  1  0.144248  0.144248  0.144248  1
  Pt  Pt21  1  0.141764  0.141764  0.570848  1
  Pt  Pt22  1  0.141764  0.570848  0.141764  1
  Pt  Pt23  1  0.570848  0.141764  0.141764  1
