# generated using pymatgen
data_Nd6Ho10Cd4Pd3Pt
_symmetry_space_group_name_H-M   'P 1'
_cell_length_a   9.78266332
_cell_length_b   9.77584837
_cell_length_c   9.77584700
_cell_angle_alpha   60.00000124
_cell_angle_beta   60.02304311
_cell_angle_gamma   60.02304651
_symmetry_Int_Tables_number   1
_chemical_formula_structural   Nd6Ho10Cd4Pd3Pt
_chemical_formula_sum   'Nd6 Ho10 Cd4 Pd3 Pt1'
_cell_volume   661.30552727
_cell_formula_units_Z   1
loop_
 _symmetry_equiv_pos_site_id
 _symmetry_equiv_pos_as_xyz
  1  'x, y, z'
loop_
 _atom_site_type_symbol
 _atom_site_label
 _atom_site_symmetry_multiplicity
 _atom_site_fract_x
 _atom_site_fract_y
 _atom_site_fract_z
 _atom_site_occupancy
  Nd  Nd0  1  0.936338  0.563518  0.563518  1
  Nd  Nd1  1  0.563414  0.937216  0.937216  1
  Nd  Nd2  1  0.563414  0.937216  0.562154  1
  Nd  Nd3  1  0.936338  0.563518  0.936626  1
  Nd  Nd4  1  0.563414  0.562154  0.937216  1
  Nd  Nd5  1  0.936338  0.936626  0.563518  1
  Ho  Ho6  1  0.352892  0.350323  0.350323  1
  Ho  Ho7  1  0.352892  0.350323  0.946460  1
  Ho  Ho8  1  0.352892  0.946460  0.350323  1
  Ho  Ho9  1  0.945850  0.351383  0.351383  1
  Ho  Ho10  1  0.811127  0.187191  0.187191  1
  Ho  Ho11  1  0.187566  0.812636  0.812636  1
  Ho  Ho12  1  0.187566  0.812636  0.187163  1
  Ho  Ho13  1  0.811127  0.187191  0.814492  1
  Ho  Ho14  1  0.187566  0.187163  0.812636  1
  Ho  Ho15  1  0.811127  0.814492  0.187191  1
  Cd  Cd16  1  0.580057  0.579952  0.579952  1
  Cd  Cd17  1  0.580057  0.579952  0.260042  1
  Cd  Cd18  1  0.580057  0.260042  0.579952  1
  Cd  Cd19  1  0.260418  0.579861  0.579861  1
  Pd  Pd20  1  0.142915  0.143241  0.143241  1
  Pd  Pd21  1  0.142915  0.143241  0.570604  1
  Pd  Pd22  1  0.142915  0.570604  0.143241  1
  Pt  Pt23  1  0.570808  0.143064  0.143064  1
