# generated using pymatgen
data_Pr6Dy10Cd4Ir3Os
_symmetry_space_group_name_H-M   'P 1'
_cell_length_a   9.81461353
_cell_length_b   9.81461342
_cell_length_c   9.81461371
_cell_angle_alpha   59.56046113
_cell_angle_beta   59.56045975
_cell_angle_gamma   59.56046886
_symmetry_Int_Tables_number   1
_chemical_formula_structural   Pr6Dy10Cd4Ir3Os
_chemical_formula_sum   'Pr6 Dy10 Cd4 Ir3 Os1'
_cell_volume   661.82484756
_cell_formula_units_Z   1
loop_
 _symmetry_equiv_pos_site_id
 _symmetry_equiv_pos_as_xyz
  1  'x, y, z'
loop_
 _atom_site_type_symbol
 _atom_site_label
 _atom_site_symmetry_multiplicity
 _atom_site_fract_x
 _atom_site_fract_y
 _atom_site_fract_z
 _atom_site_occupancy
  Pr  Pr0  1  0.939751  0.558890  0.558890  1
  Pr  Pr1  1  0.553349  0.943318  0.943318  1
  Pr  Pr2  1  0.558890  0.939751  0.558890  1
  Pr  Pr3  1  0.943318  0.553349  0.943318  1
  Pr  Pr4  1  0.558890  0.558890  0.939751  1
  Pr  Pr5  1  0.943318  0.943318  0.553349  1
  Dy  Dy6  1  0.346895  0.346895  0.346895  1
  Dy  Dy7  1  0.347122  0.347122  0.961125  1
  Dy  Dy8  1  0.347122  0.961125  0.347122  1
  Dy  Dy9  1  0.961125  0.347122  0.347122  1
  Dy  Dy10  1  0.812717  0.187123  0.187123  1
  Dy  Dy11  1  0.186347  0.812167  0.812167  1
  Dy  Dy12  1  0.187123  0.812717  0.187123  1
  Dy  Dy13  1  0.812167  0.186347  0.812167  1
  Dy  Dy14  1  0.187123  0.187123  0.812717  1
  Dy  Dy15  1  0.812167  0.812167  0.186347  1
  Cd  Cd16  1  0.578583  0.578583  0.578583  1
  Cd  Cd17  1  0.579150  0.579150  0.261732  1
  Cd  Cd18  1  0.579150  0.261732  0.579150  1
  Cd  Cd19  1  0.261732  0.579150  0.579150  1
  Ir  Ir20  1  0.142706  0.142706  0.577415  1
  Ir  Ir21  1  0.142706  0.577415  0.142706  1
  Ir  Ir22  1  0.577415  0.142706  0.142706  1
  Os  Os23  1  0.141135  0.141135  0.141135  1
