# generated using pymatgen
data_Sc4Zn2B4(IrRh)5
_symmetry_space_group_name_H-M   'P 1'
_cell_length_a   9.41994567
_cell_length_b   3.04787900
_cell_length_c   9.42833966
_cell_angle_alpha   90.00000000
_cell_angle_beta   89.95694369
_cell_angle_gamma   90.00000000
_symmetry_Int_Tables_number   1
_chemical_formula_structural   Sc4Zn2B4(IrRh)5
_chemical_formula_sum   'Sc4 Zn2 B4 Ir5 Rh5'
_cell_volume   270.69561257
_cell_formula_units_Z   1
loop_
 _symmetry_equiv_pos_site_id
 _symmetry_equiv_pos_as_xyz
  1  'x, y, z'
loop_
 _atom_site_type_symbol
 _atom_site_label
 _atom_site_symmetry_multiplicity
 _atom_site_fract_x
 _atom_site_fract_y
 _atom_site_fract_z
 _atom_site_occupancy
  Sc  Sc0  1  0.676596  0.000000  0.177663  1
  Sc  Sc1  1  0.176376  0.000000  0.322787  1
  Sc  Sc2  1  0.822028  0.000000  0.677410  1
  Sc  Sc3  1  0.321725  0.000000  0.823277  1
  Zn  Zn4  1  0.999082  0.000000  0.997897  1
  Zn  Zn5  1  0.500648  0.000000  0.501505  1
  B  B6  1  0.373081  0.000000  0.126994  1
  B  B7  1  0.873948  0.000000  0.372747  1
  B  B8  1  0.126003  0.000000  0.625902  1
  B  B9  1  0.625743  0.000000  0.874158  1
  Ir  Ir10  1  0.500705  0.500001  0.998526  1
  Ir  Ir11  1  0.216911  0.500001  0.068825  1
  Ir  Ir12  1  0.931104  0.500001  0.217518  1
  Ir  Ir13  1  0.431444  0.500001  0.283057  1
  Ir  Ir14  1  0.999522  0.500001  0.501805  1
  Rh  Rh15  1  0.717437  0.500001  0.430427  1
  Rh  Rh16  1  0.282766  0.500001  0.569818  1
  Rh  Rh17  1  0.571206  0.500001  0.717336  1
  Rh  Rh18  1  0.070896  0.500001  0.782371  1
  Rh  Rh19  1  0.782779  0.500001  0.929975  1
