# generated using pymatgen
data_SrTbBO4
_symmetry_space_group_name_H-M   'P 1'
_cell_length_a   3.69791900
_cell_length_b   9.79609600
_cell_length_c   10.96422400
_cell_angle_alpha   90.00000000
_cell_angle_beta   90.00000000
_cell_angle_gamma   90.00000000
_symmetry_Int_Tables_number   1
_chemical_formula_structural   SrTbBO4
_chemical_formula_sum   'Sr4 Tb4 B4 O16'
_cell_volume   397.18087310
_cell_formula_units_Z   4
loop_
 _symmetry_equiv_pos_site_id
 _symmetry_equiv_pos_as_xyz
  1  'x, y, z'
loop_
 _atom_site_type_symbol
 _atom_site_label
 _atom_site_symmetry_multiplicity
 _atom_site_fract_x
 _atom_site_fract_y
 _atom_site_fract_z
 _atom_site_occupancy
  Sr  Sr0  1  0.250000  0.659417  0.082814  1
  Sr  Sr1  1  0.750000  0.340583  0.917186  1
  Sr  Sr2  1  0.750000  0.159417  0.417186  1
  Sr  Sr3  1  0.250000  0.840583  0.582814  1
  Tb  Tb4  1  0.250000  0.082502  0.110746  1
  Tb  Tb5  1  0.750000  0.917498  0.889254  1
  Tb  Tb6  1  0.750000  0.582502  0.389254  1
  Tb  Tb7  1  0.250000  0.417498  0.610746  1
  B  B8  1  0.250000  0.363370  0.204750  1
  B  B9  1  0.750000  0.636630  0.795250  1
  B  B10  1  0.750000  0.863370  0.295250  1
  B  B11  1  0.250000  0.136630  0.704750  1
  O  O12  1  0.250000  0.490157  0.261440  1
  O  O13  1  0.750000  0.509843  0.738560  1
  O  O14  1  0.750000  0.990157  0.238560  1
  O  O15  1  0.250000  0.009843  0.761440  1
  O  O16  1  0.250000  0.242133  0.271707  1
  O  O17  1  0.750000  0.757867  0.728293  1
  O  O18  1  0.750000  0.742133  0.228293  1
  O  O19  1  0.250000  0.257867  0.771707  1
  O  O20  1  0.250000  0.355513  0.076904  1
  O  O21  1  0.750000  0.644487  0.923096  1
  O  O22  1  0.750000  0.855513  0.423096  1
  O  O23  1  0.250000  0.144487  0.576904  1
  O  O24  1  0.250000  0.612619  0.500753  1
  O  O25  1  0.750000  0.387381  0.499247  1
  O  O26  1  0.750000  0.112619  0.999247  1
  O  O27  1  0.250000  0.887381  0.000753  1
