# generated using pymatgen
data_Nd2FeB10
_symmetry_space_group_name_H-M   'P 1'
_cell_length_a   4.20053000
_cell_length_b   5.65248600
_cell_length_c   11.25302400
_cell_angle_alpha   90.00000000
_cell_angle_beta   90.00000000
_cell_angle_gamma   90.00000000
_symmetry_Int_Tables_number   1
_chemical_formula_structural   Nd2FeB10
_chemical_formula_sum   'Nd4 Fe2 B20'
_cell_volume   267.18546660
_cell_formula_units_Z   2
loop_
 _symmetry_equiv_pos_site_id
 _symmetry_equiv_pos_as_xyz
  1  'x, y, z'
loop_
 _atom_site_type_symbol
 _atom_site_label
 _atom_site_symmetry_multiplicity
 _atom_site_fract_x
 _atom_site_fract_y
 _atom_site_fract_z
 _atom_site_occupancy
  Nd  Nd0  1  0.500000  0.207537  0.368034  1
  Nd  Nd1  1  0.500000  0.792463  0.631966  1
  Nd  Nd2  1  0.500000  0.292463  0.868034  1
  Nd  Nd3  1  0.500000  0.707537  0.131966  1
  Fe  Fe4  1  0.000000  0.000000  0.000000  1
  Fe  Fe5  1  0.000000  0.500000  0.500000  1
  B  B6  1  0.000000  0.371335  0.039877  1
  B  B7  1  0.000000  0.628665  0.960123  1
  B  B8  1  0.000000  0.128665  0.539877  1
  B  B9  1  0.000000  0.871335  0.460123  1
  B  B10  1  0.000000  0.344638  0.197570  1
  B  B11  1  0.000000  0.655362  0.802430  1
  B  B12  1  0.000000  0.155362  0.697570  1
  B  B13  1  0.000000  0.844638  0.302430  1
  B  B14  1  0.000000  0.034086  0.186284  1
  B  B15  1  0.000000  0.965914  0.813716  1
  B  B16  1  0.000000  0.465914  0.686284  1
  B  B17  1  0.000000  0.534086  0.313716  1
  B  B18  1  0.298090  0.202575  0.112750  1
  B  B19  1  0.701910  0.797425  0.887250  1
  B  B20  1  0.298090  0.797425  0.887250  1
  B  B21  1  0.701910  0.297425  0.612750  1
  B  B22  1  0.701910  0.202575  0.112750  1
  B  B23  1  0.298090  0.702575  0.387250  1
  B  B24  1  0.701910  0.702575  0.387250  1
  B  B25  1  0.298090  0.297425  0.612750  1
