# generated using pymatgen
data_Tm2Ir3W
_symmetry_space_group_name_H-M   'P 1'
_cell_length_a   5.54768794
_cell_length_b   5.54768698
_cell_length_c   5.21251443
_cell_angle_alpha   57.84910627
_cell_angle_beta   57.84911413
_cell_angle_gamma   60.00000084
_symmetry_Int_Tables_number   1
_chemical_formula_structural   Tm2Ir3W
_chemical_formula_sum   'Tm2 Ir3 W1'
_cell_volume   109.60841600
_cell_formula_units_Z   1
loop_
 _symmetry_equiv_pos_site_id
 _symmetry_equiv_pos_as_xyz
  1  'x, y, z'
loop_
 _atom_site_type_symbol
 _atom_site_label
 _atom_site_symmetry_multiplicity
 _atom_site_fract_x
 _atom_site_fract_y
 _atom_site_fract_z
 _atom_site_occupancy
  Tm  Tm0  1  0.251310  0.251310  0.246071  1
  Tm  Tm1  1  0.998690  0.998690  0.003929  1
  Ir  Ir2  1  0.625000  0.125000  0.625000  1
  Ir  Ir3  1  0.125000  0.625000  0.625000  1
  Ir  Ir4  1  0.625000  0.625000  0.625000  1
  W  W5  1  0.625000  0.625000  0.125000  1
