# generated using pymatgen
data_TbNd10In(Hg2Pd)4
_symmetry_space_group_name_H-M   'P 1'
_cell_length_a   13.44508379
_cell_length_b   13.44505925
_cell_length_c   3.77059100
_cell_angle_alpha   90.00000000
_cell_angle_beta   90.00000000
_cell_angle_gamma   111.97974201
_symmetry_Int_Tables_number   1
_chemical_formula_structural   TbNd10In(Hg2Pd)4
_chemical_formula_sum   'Tb1 Nd10 In1 Hg8 Pd4'
_cell_volume   632.06759933
_cell_formula_units_Z   1
loop_
 _symmetry_equiv_pos_site_id
 _symmetry_equiv_pos_as_xyz
  1  'x, y, z'
loop_
 _atom_site_type_symbol
 _atom_site_label
 _atom_site_symmetry_multiplicity
 _atom_site_fract_x
 _atom_site_fract_y
 _atom_site_fract_z
 _atom_site_occupancy
  Tb  Tb0  1  0.698912  0.698914  0.000000  1
  Nd  Nd1  1  0.417333  0.074987  0.000000  1
  Nd  Nd2  1  0.583671  0.923568  0.000000  1
  Nd  Nd3  1  0.074986  0.417323  0.000000  1
  Nd  Nd4  1  0.923563  0.583673  0.000000  1
  Nd  Nd5  1  0.166437  0.833125  0.000000  1
  Nd  Nd6  1  0.833116  0.166430  0.000000  1
  Nd  Nd7  1  0.371655  0.629634  0.000000  1
  Nd  Nd8  1  0.629628  0.371651  0.000000  1
  Nd  Nd9  1  0.300869  0.300876  0.000000  1
  Nd  Nd10  1  0.999289  0.999291  0.000000  1
  In  In11  1  0.501167  0.501165  0.500000  1
  Hg  Hg12  1  0.370003  0.841848  0.500000  1
  Hg  Hg13  1  0.630468  0.158004  0.500000  1
  Hg  Hg14  1  0.841848  0.369998  0.500000  1
  Hg  Hg15  1  0.158006  0.630466  0.500000  1
  Hg  Hg16  1  0.214606  0.065298  0.500000  1
  Hg  Hg17  1  0.784504  0.931874  0.500000  1
  Hg  Hg18  1  0.065296  0.214603  0.500000  1
  Hg  Hg19  1  0.931871  0.784507  0.500000  1
  Pd  Pd20  1  0.449453  0.251181  0.500000  1
  Pd  Pd21  1  0.555101  0.747039  0.500000  1
  Pd  Pd22  1  0.251187  0.449451  0.500000  1
  Pd  Pd23  1  0.747032  0.555097  0.500000  1
