# generated using pymatgen
data_Cs5Cu(ReH9)3
_symmetry_space_group_name_H-M   'P 1'
_cell_length_a   9.99015996
_cell_length_b   10.30902108
_cell_length_c   6.48142600
_cell_angle_alpha   90.00000000
_cell_angle_beta   90.00000000
_cell_angle_gamma   121.06157164
_symmetry_Int_Tables_number   1
_chemical_formula_structural   Cs5Cu(ReH9)3
_chemical_formula_sum   'Cs5 Cu1 Re3 H27'
_cell_volume   571.80146747
_cell_formula_units_Z   1
loop_
 _symmetry_equiv_pos_site_id
 _symmetry_equiv_pos_as_xyz
  1  'x, y, z'
loop_
 _atom_site_type_symbol
 _atom_site_label
 _atom_site_symmetry_multiplicity
 _atom_site_fract_x
 _atom_site_fract_y
 _atom_site_fract_z
 _atom_site_occupancy
  Cs  Cs0  1  0.751389  0.758195  0.500000  1
  Cs  Cs1  1  0.248611  0.006806  0.500000  1
  Cs  Cs2  1  0.000000  0.600818  0.000000  1
  Cs  Cs3  1  0.380737  0.403427  0.000000  1
  Cs  Cs4  1  0.619263  0.022689  0.000000  1
  Cu  Cu5  1  0.000000  0.444547  0.500000  1
  Re  Re6  1  0.697162  0.335535  0.500000  1
  Re  Re7  1  0.302838  0.638373  0.500000  1
  Re  Re8  1  0.000000  0.999545  0.000000  1
  H  H9  1  0.831950  0.327565  0.666879  1
  H  H10  1  0.705083  0.427234  0.719522  1
  H  H11  1  0.553421  0.219697  0.667441  1
  H  H12  1  0.168050  0.495615  0.333121  1
  H  H13  1  0.553421  0.219697  0.332559  1
  H  H14  1  0.831950  0.327565  0.333121  1
  H  H15  1  0.705083  0.427234  0.280478  1
  H  H16  1  0.294917  0.722152  0.719522  1
  H  H17  1  0.446579  0.666277  0.667441  1
  H  H18  1  0.178271  0.015793  0.000000  1
  H  H19  1  0.821729  0.837521  0.000000  1
  H  H20  1  0.000000  0.162187  0.000000  1
  H  H21  1  0.884353  0.005372  0.188004  1
  H  H22  1  0.115647  0.121019  0.811996  1
  H  H23  1  0.000000  0.879097  0.816357  1
  H  H24  1  0.000000  0.879097  0.183643  1
  H  H25  1  0.115647  0.121019  0.188004  1
  H  H26  1  0.884353  0.005372  0.811996  1
  H  H27  1  0.143656  0.661904  0.500000  1
  H  H28  1  0.438968  0.826923  0.500000  1
  H  H29  1  0.329646  0.490562  0.500000  1
  H  H30  1  0.561032  0.387954  0.500000  1
  H  H31  1  0.856344  0.518247  0.500000  1
  H  H32  1  0.670354  0.160915  0.500000  1
  H  H33  1  0.168050  0.495615  0.666879  1
  H  H34  1  0.294917  0.722152  0.280478  1
  H  H35  1  0.446579  0.666277  0.332559  1
