# generated using pymatgen
data_LaTm3(ScIr)4
_symmetry_space_group_name_H-M   'P 1'
_cell_length_a   7.15354778
_cell_length_b   4.25610600
_cell_length_c   8.73446251
_cell_angle_alpha   90.00000000
_cell_angle_beta   89.25179621
_cell_angle_gamma   90.00000000
_symmetry_Int_Tables_number   1
_chemical_formula_structural   LaTm3(ScIr)4
_chemical_formula_sum   'La1 Tm3 Sc4 Ir4'
_cell_volume   265.90902165
_cell_formula_units_Z   1
loop_
 _symmetry_equiv_pos_site_id
 _symmetry_equiv_pos_as_xyz
  1  'x, y, z'
loop_
 _atom_site_type_symbol
 _atom_site_label
 _atom_site_symmetry_multiplicity
 _atom_site_fract_x
 _atom_site_fract_y
 _atom_site_fract_z
 _atom_site_occupancy
  La  La0  1  0.511733  0.750000  0.674355  1
  Tm  Tm1  1  0.977128  0.250000  0.173526  1
  Tm  Tm2  1  0.478930  0.250000  0.322530  1
  Tm  Tm3  1  0.019624  0.750000  0.832545  1
  Sc  Sc4  1  0.863944  0.250000  0.562212  1
  Sc  Sc5  1  0.358042  0.250000  0.943313  1
  Sc  Sc6  1  0.141051  0.750000  0.430140  1
  Sc  Sc7  1  0.643600  0.750000  0.069445  1
  Ir  Ir8  1  0.745514  0.250000  0.896530  1
  Ir  Ir9  1  0.234630  0.250000  0.602142  1
  Ir  Ir10  1  0.260944  0.750000  0.109909  1
  Ir  Ir11  1  0.764861  0.750000  0.383353  1
