# generated using pymatgen
data_PPb2BrO4
_symmetry_space_group_name_H-M   'P 1'
_cell_length_a   8.75459900
_cell_length_b   8.83195995
_cell_length_c   9.07742188
_cell_angle_alpha   66.42796814
_cell_angle_beta   90.00000000
_cell_angle_gamma   90.00000000
_symmetry_Int_Tables_number   1
_chemical_formula_structural   PPb2BrO4
_chemical_formula_sum   'P4 Pb8 Br4 O16'
_cell_volume   643.30339523
_cell_formula_units_Z   4
loop_
 _symmetry_equiv_pos_site_id
 _symmetry_equiv_pos_as_xyz
  1  'x, y, z'
loop_
 _atom_site_type_symbol
 _atom_site_label
 _atom_site_symmetry_multiplicity
 _atom_site_fract_x
 _atom_site_fract_y
 _atom_site_fract_z
 _atom_site_occupancy
  P  P0  1  0.049110  0.734165  0.953167  1
  P  P1  1  0.549110  0.765835  0.046833  1
  P  P2  1  0.950890  0.265835  0.046833  1
  P  P3  1  0.450890  0.234165  0.953167  1
  Pb  Pb4  1  0.295810  0.450624  0.154928  1
  Pb  Pb5  1  0.795810  0.049376  0.845072  1
  Pb  Pb6  1  0.704190  0.549376  0.845072  1
  Pb  Pb7  1  0.204190  0.950624  0.154928  1
  Pb  Pb8  1  0.326627  0.994453  0.713599  1
  Pb  Pb9  1  0.826627  0.505547  0.286401  1
  Pb  Pb10  1  0.673373  0.005547  0.286401  1
  Pb  Pb11  1  0.173373  0.494453  0.713599  1
  Br  Br12  1  0.927133  0.731138  0.493061  1
  Br  Br13  1  0.427133  0.768862  0.506939  1
  Br  Br14  1  0.072867  0.268862  0.506939  1
  Br  Br15  1  0.572867  0.231138  0.493061  1
  O  O16  1  0.056077  0.634760  0.140217  1
  O  O17  1  0.556077  0.865240  0.859783  1
  O  O18  1  0.943923  0.365240  0.859783  1
  O  O19  1  0.443923  0.134760  0.140217  1
  O  O20  1  0.114987  0.261207  0.110148  1
  O  O21  1  0.614987  0.238793  0.889852  1
  O  O22  1  0.885013  0.738793  0.889852  1
  O  O23  1  0.385013  0.761207  0.110148  1
  O  O24  1  0.668602  0.847367  0.120410  1
  O  O25  1  0.168602  0.652633  0.879590  1
  O  O26  1  0.331398  0.152633  0.879590  1
  O  O27  1  0.831398  0.347367  0.120410  1
  O  O28  1  0.400592  0.416708  0.912501  1
  O  O29  1  0.900592  0.083292  0.087499  1
  O  O30  1  0.599408  0.583292  0.087499  1
  O  O31  1  0.099408  0.916708  0.912501  1
