# generated using pymatgen
data_Ho4Ga2TcRu5
_symmetry_space_group_name_H-M   'P 1'
_cell_length_a   5.24265263
_cell_length_b   5.43219442
_cell_length_c   8.88428400
_cell_angle_alpha   90.00000000
_cell_angle_beta   90.00000000
_cell_angle_gamma   121.20332770
_symmetry_Int_Tables_number   1
_chemical_formula_structural   Ho4Ga2TcRu5
_chemical_formula_sum   'Ho4 Ga2 Tc1 Ru5'
_cell_volume   216.41364704
_cell_formula_units_Z   1
loop_
 _symmetry_equiv_pos_site_id
 _symmetry_equiv_pos_as_xyz
  1  'x, y, z'
loop_
 _atom_site_type_symbol
 _atom_site_label
 _atom_site_symmetry_multiplicity
 _atom_site_fract_x
 _atom_site_fract_y
 _atom_site_fract_z
 _atom_site_occupancy
  Ho  Ho0  1  0.340092  0.670046  0.441260  1
  Ho  Ho1  1  0.661864  0.330931  0.565768  1
  Ho  Ho2  1  0.661864  0.330931  0.934232  1
  Ho  Ho3  1  0.340092  0.670046  0.058740  1
  Ga  Ga4  1  0.829384  0.169370  0.250000  1
  Ga  Ga5  1  0.829384  0.660014  0.250000  1
  Tc  Tc6  1  0.662174  0.831086  0.750000  1
  Ru  Ru7  1  0.989615  0.994807  0.500821  1
  Ru  Ru8  1  0.989615  0.994807  0.999179  1
  Ru  Ru9  1  0.335891  0.167946  0.250000  1
  Ru  Ru10  1  0.180014  0.836302  0.750000  1
  Ru  Ru11  1  0.180014  0.343713  0.750000  1
