# generated using pymatgen
data_SmCd3(Ru2O7)2
_symmetry_space_group_name_H-M   'P 1'
_cell_length_a   7.23590254
_cell_length_b   7.23590312
_cell_length_c   7.30264280
_cell_angle_alpha   60.30186345
_cell_angle_beta   60.30185874
_cell_angle_gamma   59.99999821
_symmetry_Int_Tables_number   1
_chemical_formula_structural   SmCd3(Ru2O7)2
_chemical_formula_sum   'Sm1 Cd3 Ru4 O14'
_cell_volume   271.59203922
_cell_formula_units_Z   1
loop_
 _symmetry_equiv_pos_site_id
 _symmetry_equiv_pos_as_xyz
  1  'x, y, z'
loop_
 _atom_site_type_symbol
 _atom_site_label
 _atom_site_symmetry_multiplicity
 _atom_site_fract_x
 _atom_site_fract_y
 _atom_site_fract_z
 _atom_site_occupancy
  Sm  Sm0  1  0.625000  0.625000  0.125000  1
  Cd  Cd1  1  0.625000  0.625000  0.625000  1
  Cd  Cd2  1  0.125000  0.625000  0.625000  1
  Cd  Cd3  1  0.625000  0.125000  0.625000  1
  Ru  Ru4  1  0.125000  0.125000  0.125000  1
  Ru  Ru5  1  0.625000  0.125000  0.125000  1
  Ru  Ru6  1  0.125000  0.125000  0.625000  1
  Ru  Ru7  1  0.125000  0.625000  0.125000  1
  O  O8  1  0.495710  0.495710  0.512870  1
  O  O9  1  0.754290  0.754290  0.737130  1
  O  O10  1  0.059146  0.059146  0.438706  1
  O  O11  1  0.798685  0.798685  0.199032  1
  O  O12  1  0.443002  0.059146  0.438706  1
  O  O13  1  0.451315  0.046403  0.050968  1
  O  O14  1  0.059146  0.443002  0.438706  1
  O  O15  1  0.046403  0.451315  0.050968  1
  O  O16  1  0.451315  0.451315  0.050968  1
  O  O17  1  0.190854  0.806998  0.811294  1
  O  O18  1  0.798685  0.203597  0.199032  1
  O  O19  1  0.190854  0.190854  0.811294  1
  O  O20  1  0.203597  0.798685  0.199032  1
  O  O21  1  0.806998  0.190854  0.811294  1
