# generated using pymatgen
data_Tb3ThCd2(CuPd)2
_symmetry_space_group_name_H-M   'P 1'
_cell_length_a   3.76790800
_cell_length_b   7.70020000
_cell_length_c   7.71788310
_cell_angle_alpha   90.97251295
_cell_angle_beta   90.00000000
_cell_angle_gamma   90.00000000
_symmetry_Int_Tables_number   1
_chemical_formula_structural   Tb3ThCd2(CuPd)2
_chemical_formula_sum   'Tb3 Th1 Cd2 Cu2 Pd2'
_cell_volume   223.89166613
_cell_formula_units_Z   1
loop_
 _symmetry_equiv_pos_site_id
 _symmetry_equiv_pos_as_xyz
  1  'x, y, z'
loop_
 _atom_site_type_symbol
 _atom_site_label
 _atom_site_symmetry_multiplicity
 _atom_site_fract_x
 _atom_site_fract_y
 _atom_site_fract_z
 _atom_site_occupancy
  Tb  Tb0  1  0.500000  0.826178  0.322674  1
  Tb  Tb1  1  0.500000  0.328517  0.175216  1
  Tb  Tb2  1  0.500000  0.674033  0.828890  1
  Th  Th3  1  0.500000  0.174655  0.671577  1
  Cd  Cd4  1  0.000000  0.993819  0.002552  1
  Cd  Cd5  1  0.000000  0.510987  0.495139  1
  Cu  Cu6  1  0.000000  0.622886  0.122378  1
  Cu  Cu7  1  0.000000  0.871260  0.623081  1
  Pd  Pd8  1  0.000000  0.376627  0.876047  1
  Pd  Pd9  1  0.000000  0.121036  0.382444  1
