# generated using pymatgen
data_KUS3
_symmetry_space_group_name_H-M   'P 1'
_cell_length_a   7.29857000
_cell_length_b   7.31014300
_cell_length_c   10.33328800
_cell_angle_alpha   90.00000000
_cell_angle_beta   90.00000000
_cell_angle_gamma   90.00000000
_symmetry_Int_Tables_number   1
_chemical_formula_structural   KUS3
_chemical_formula_sum   'K4 U4 S12'
_cell_volume   551.31801539
_cell_formula_units_Z   4
loop_
 _symmetry_equiv_pos_site_id
 _symmetry_equiv_pos_as_xyz
  1  'x, y, z'
loop_
 _atom_site_type_symbol
 _atom_site_label
 _atom_site_symmetry_multiplicity
 _atom_site_fract_x
 _atom_site_fract_y
 _atom_site_fract_z
 _atom_site_occupancy
  K  K0  1  0.996810  0.017266  0.250000  1
  K  K1  1  0.496810  0.482734  0.750000  1
  K  K2  1  0.503190  0.517266  0.250000  1
  K  K3  1  0.003190  0.982734  0.750000  1
  U  U4  1  0.500000  0.000000  0.000000  1
  U  U5  1  0.000000  0.500000  0.000000  1
  U  U6  1  0.000000  0.500000  0.500000  1
  U  U7  1  0.500000  0.000000  0.500000  1
  S  S8  1  0.724159  0.276748  0.477938  1
  S  S9  1  0.224159  0.223252  0.522062  1
  S  S10  1  0.775841  0.776748  0.022062  1
  S  S11  1  0.275841  0.723252  0.977938  1
  S  S12  1  0.275841  0.723252  0.522062  1
  S  S13  1  0.775841  0.776748  0.477938  1
  S  S14  1  0.224159  0.223252  0.977938  1
  S  S15  1  0.724159  0.276748  0.022062  1
  S  S16  1  0.041083  0.492597  0.250000  1
  S  S17  1  0.541083  0.007403  0.750000  1
  S  S18  1  0.458917  0.992597  0.250000  1
  S  S19  1  0.958917  0.507403  0.750000  1
