# generated using pymatgen
data_Ho5TmAl16Os7
_symmetry_space_group_name_H-M   'P 1'
_cell_length_a   8.93389620
_cell_length_b   8.93875787
_cell_length_c   8.93875700
_cell_angle_alpha   59.96402951
_cell_angle_beta   60.01798694
_cell_angle_gamma   60.01798918
_symmetry_Int_Tables_number   1
_chemical_formula_structural   Ho5TmAl16Os7
_chemical_formula_sum   'Ho5 Tm1 Al16 Os7'
_cell_volume   504.75423430
_cell_formula_units_Z   1
loop_
 _symmetry_equiv_pos_site_id
 _symmetry_equiv_pos_as_xyz
  1  'x, y, z'
loop_
 _atom_site_type_symbol
 _atom_site_label
 _atom_site_symmetry_multiplicity
 _atom_site_fract_x
 _atom_site_fract_y
 _atom_site_fract_z
 _atom_site_occupancy
  Ho  Ho0  1  0.711669  0.711167  0.288331  1
  Ho  Ho1  1  0.288833  0.711167  0.288331  1
  Ho  Ho2  1  0.712505  0.287495  0.287495  1
  Ho  Ho3  1  0.288833  0.288331  0.711167  1
  Ho  Ho4  1  0.711669  0.288331  0.711167  1
  Tm  Tm5  1  0.287936  0.712064  0.712064  1
  Al  Al6  1  0.879150  0.878286  0.363413  1
  Al  Al7  1  0.879150  0.363413  0.878286  1
  Al  Al8  1  0.361757  0.879294  0.879294  1
  Al  Al9  1  0.879655  0.879294  0.879294  1
  Al  Al10  1  0.120706  0.120345  0.638243  1
  Al  Al11  1  0.120706  0.638243  0.120345  1
  Al  Al12  1  0.636587  0.120850  0.120850  1
  Al  Al13  1  0.121714  0.120850  0.120850  1
  Al  Al14  1  0.667670  0.668075  0.996584  1
  Al  Al15  1  0.667670  0.996584  0.668075  1
  Al  Al16  1  0.998140  0.667454  0.667454  1
  Al  Al17  1  0.666952  0.667454  0.667454  1
  Al  Al18  1  0.332546  0.333048  0.001860  1
  Al  Al19  1  0.332546  0.001860  0.333048  1
  Al  Al20  1  0.003416  0.332330  0.332330  1
  Al  Al21  1  0.331925  0.332330  0.332330  1
  Os  Os22  1  0.999197  0.000803  0.000803  1
  Os  Os23  1  0.000282  0.999718  0.500645  1
  Os  Os24  1  0.499355  0.999718  0.500645  1
  Os  Os25  1  0.999896  0.500104  0.500104  1
  Os  Os26  1  0.499355  0.500645  0.999718  1
  Os  Os27  1  0.000282  0.500645  0.999718  1
  Os  Os28  1  0.499896  0.000104  0.000104  1
