# generated using pymatgen
data_LiY3In2AgHgRh
_symmetry_space_group_name_H-M   'P 1'
_cell_length_a   7.97278800
_cell_length_b   7.97278718
_cell_length_c   3.70386900
_cell_angle_alpha   90.00000000
_cell_angle_beta   90.00000000
_cell_angle_gamma   120.00000340
_symmetry_Int_Tables_number   1
_chemical_formula_structural   LiY3In2AgHgRh
_chemical_formula_sum   'Li1 Y3 In2 Ag1 Hg1 Rh1'
_cell_volume   203.89502182
_cell_formula_units_Z   1
loop_
 _symmetry_equiv_pos_site_id
 _symmetry_equiv_pos_as_xyz
  1  'x, y, z'
loop_
 _atom_site_type_symbol
 _atom_site_label
 _atom_site_symmetry_multiplicity
 _atom_site_fract_x
 _atom_site_fract_y
 _atom_site_fract_z
 _atom_site_occupancy
  Li  Li0  1  0.000480  0.004684  0.500000  1
  Y  Y1  1  0.971009  0.572098  0.500000  1
  Y  Y2  1  0.421329  0.393277  0.500000  1
  Y  Y3  1  0.608068  0.029734  0.500000  1
  In  In4  1  0.255849  0.993439  0.000000  1
  In  In5  1  0.740238  0.742634  0.000000  1
  Ag  Ag6  1  0.336352  0.669298  0.000000  1
  Hg  Hg7  1  0.004311  0.259963  0.000000  1
  Rh  Rh8  1  0.662363  0.334873  0.000000  1
