# generated using pymatgen
data_Hf4ThS8
_symmetry_space_group_name_H-M   'P 1'
_cell_length_a   7.77339552
_cell_length_b   7.77339503
_cell_length_c   7.77339528
_cell_angle_alpha   55.39469461
_cell_angle_beta   55.39469423
_cell_angle_gamma   55.39469212
_symmetry_Int_Tables_number   1
_chemical_formula_structural   Hf4ThS8
_chemical_formula_sum   'Hf4 Th1 S8'
_cell_volume   296.60659114
_cell_formula_units_Z   1
loop_
 _symmetry_equiv_pos_site_id
 _symmetry_equiv_pos_as_xyz
  1  'x, y, z'
loop_
 _atom_site_type_symbol
 _atom_site_label
 _atom_site_symmetry_multiplicity
 _atom_site_fract_x
 _atom_site_fract_y
 _atom_site_fract_z
 _atom_site_occupancy
  Hf  Hf0  1  0.000000  0.500000  0.500000  1
  Hf  Hf1  1  0.500000  0.000000  0.500000  1
  Hf  Hf2  1  0.500000  0.500000  0.000000  1
  Hf  Hf3  1  0.000000  0.000000  0.000000  1
  Th  Th4  1  0.500000  0.500000  0.500000  1
  S  S5  1  0.247042  0.760132  0.760132  1
  S  S6  1  0.239868  0.239868  0.752958  1
  S  S7  1  0.752958  0.239868  0.239868  1
  S  S8  1  0.239868  0.752958  0.239868  1
  S  S9  1  0.259752  0.259752  0.259752  1
  S  S10  1  0.740248  0.740248  0.740248  1
  S  S11  1  0.760132  0.247042  0.760132  1
  S  S12  1  0.760132  0.760132  0.247042  1
