# generated using pymatgen
data_K3MnS4
_symmetry_space_group_name_H-M   'P 1'
_cell_length_a   9.14170700
_cell_length_b   9.30523600
_cell_length_c   10.64024500
_cell_angle_alpha   90.00000000
_cell_angle_beta   90.00000000
_cell_angle_gamma   90.00000000
_symmetry_Int_Tables_number   1
_chemical_formula_structural   K3MnS4
_chemical_formula_sum   'K12 Mn4 S16'
_cell_volume   905.12032617
_cell_formula_units_Z   4
loop_
 _symmetry_equiv_pos_site_id
 _symmetry_equiv_pos_as_xyz
  1  'x, y, z'
loop_
 _atom_site_type_symbol
 _atom_site_label
 _atom_site_symmetry_multiplicity
 _atom_site_fract_x
 _atom_site_fract_y
 _atom_site_fract_z
 _atom_site_occupancy
  K  K0  1  0.639504  0.421184  0.250000  1
  K  K1  1  0.860496  0.921184  0.750000  1
  K  K2  1  0.139504  0.078816  0.250000  1
  K  K3  1  0.360496  0.578816  0.750000  1
  K  K4  1  0.444732  0.797376  0.045101  1
  K  K5  1  0.055268  0.297376  0.954899  1
  K  K6  1  0.944732  0.702624  0.454899  1
  K  K7  1  0.555268  0.202624  0.545101  1
  K  K8  1  0.555268  0.202624  0.954899  1
  K  K9  1  0.944732  0.702624  0.045101  1
  K  K10  1  0.055268  0.297376  0.545101  1
  K  K11  1  0.444732  0.797376  0.454899  1
  Mn  Mn12  1  0.721876  0.981739  0.250000  1
  Mn  Mn13  1  0.778124  0.481739  0.750000  1
  Mn  Mn14  1  0.221876  0.518261  0.250000  1
  Mn  Mn15  1  0.278124  0.018261  0.750000  1
  S  S16  1  0.693594  0.755732  0.250000  1
  S  S17  1  0.806406  0.255732  0.750000  1
  S  S18  1  0.193594  0.744268  0.250000  1
  S  S19  1  0.306406  0.244268  0.750000  1
  S  S20  1  0.513137  0.083244  0.250000  1
  S  S21  1  0.986863  0.583244  0.750000  1
  S  S22  1  0.013137  0.416756  0.250000  1
  S  S23  1  0.486863  0.916756  0.750000  1
  S  S24  1  0.837283  0.039717  0.085205  1
  S  S25  1  0.662717  0.539717  0.914795  1
  S  S26  1  0.337283  0.460283  0.414795  1
  S  S27  1  0.162717  0.960283  0.585205  1
  S  S28  1  0.162717  0.960283  0.914795  1
  S  S29  1  0.337283  0.460283  0.085205  1
  S  S30  1  0.662717  0.539717  0.585205  1
  S  S31  1  0.837283  0.039717  0.414795  1
