# generated using pymatgen
data_Ba16Sr4Si11P
_symmetry_space_group_name_H-M   'P 1'
_cell_length_a   8.36721600
_cell_length_b   8.36721600
_cell_length_c   16.68521700
_cell_angle_alpha   90.00000000
_cell_angle_beta   90.00000000
_cell_angle_gamma   90.00000000
_symmetry_Int_Tables_number   1
_chemical_formula_structural   Ba16Sr4Si11P
_chemical_formula_sum   'Ba16 Sr4 Si11 P1'
_cell_volume   1168.13710765
_cell_formula_units_Z   1
loop_
 _symmetry_equiv_pos_site_id
 _symmetry_equiv_pos_as_xyz
  1  'x, y, z'
loop_
 _atom_site_type_symbol
 _atom_site_label
 _atom_site_symmetry_multiplicity
 _atom_site_fract_x
 _atom_site_fract_y
 _atom_site_fract_z
 _atom_site_occupancy
  Ba  Ba0  1  0.301325  0.670120  0.107737  1
  Ba  Ba1  1  0.170120  0.198675  0.107737  1
  Ba  Ba2  1  0.329482  0.697296  0.389857  1
  Ba  Ba3  1  0.674928  0.693507  0.892037  1
  Ba  Ba4  1  0.197296  0.170518  0.389857  1
  Ba  Ba5  1  0.670518  0.302704  0.389857  1
  Ba  Ba6  1  0.172392  0.804730  0.610422  1
  Ba  Ba7  1  0.325072  0.306493  0.892037  1
  Ba  Ba8  1  0.193507  0.825072  0.892037  1
  Ba  Ba9  1  0.827608  0.195270  0.610422  1
  Ba  Ba10  1  0.304730  0.327608  0.610422  1
  Ba  Ba11  1  0.802704  0.829482  0.389857  1
  Ba  Ba12  1  0.806493  0.174928  0.892037  1
  Ba  Ba13  1  0.829880  0.801325  0.107737  1
  Ba  Ba14  1  0.698675  0.329880  0.107737  1
  Ba  Ba15  1  0.695270  0.672392  0.610422  1
  Sr  Sr16  1  0.500000  0.000000  0.728021  1
  Sr  Sr17  1  0.500000  0.000000  0.222548  1
  Sr  Sr18  1  0.000000  0.500000  0.279386  1
  Sr  Sr19  1  0.000000  0.500000  0.774379  1
  Si  Si20  1  0.104706  0.104348  0.752271  1
  Si  Si21  1  0.395652  0.604706  0.752271  1
  Si  Si22  1  0.604370  0.604371  0.247898  1
  Si  Si23  1  0.500000  0.000000  0.015948  1
  Si  Si24  1  0.104371  0.895630  0.247898  1
  Si  Si25  1  0.604348  0.395294  0.752271  1
  Si  Si26  1  0.895294  0.895652  0.752271  1
  Si  Si27  1  0.395630  0.395629  0.247898  1
  Si  Si28  1  0.895629  0.104370  0.247898  1
  Si  Si29  1  0.500000  0.000000  0.516523  1
  Si  Si30  1  0.000000  0.500000  0.483934  1
  P  P31  1  0.000000  0.500000  0.978376  1
