# generated using pymatgen
data_Zr6Ti4Al2Ga10Ir7
_symmetry_space_group_name_H-M   'P 1'
_cell_length_a   8.81362151
_cell_length_b   8.79463515
_cell_length_c   8.79463600
_cell_angle_alpha   59.84274280
_cell_angle_beta   59.92856309
_cell_angle_gamma   59.92855615
_symmetry_Int_Tables_number   1
_chemical_formula_structural   Zr6Ti4Al2Ga10Ir7
_chemical_formula_sum   'Zr6 Ti4 Al2 Ga10 Ir7'
_cell_volume   480.93634491
_cell_formula_units_Z   1
loop_
 _symmetry_equiv_pos_site_id
 _symmetry_equiv_pos_as_xyz
  1  'x, y, z'
loop_
 _atom_site_type_symbol
 _atom_site_label
 _atom_site_symmetry_multiplicity
 _atom_site_fract_x
 _atom_site_fract_y
 _atom_site_fract_z
 _atom_site_occupancy
  Zr  Zr0  1  0.693060  0.695487  0.306053  1
  Zr  Zr1  1  0.305400  0.695487  0.306053  1
  Zr  Zr2  1  0.694156  0.305844  0.305844  1
  Zr  Zr3  1  0.305400  0.306053  0.695487  1
  Zr  Zr4  1  0.693060  0.306053  0.695487  1
  Zr  Zr5  1  0.306553  0.693447  0.693447  1
  Ti  Ti6  1  0.878767  0.878860  0.363607  1
  Ti  Ti7  1  0.878767  0.363607  0.878860  1
  Ti  Ti8  1  0.365399  0.878099  0.878099  1
  Ti  Ti9  1  0.878403  0.878099  0.878099  1
  Al  Al10  1  0.120877  0.121030  0.637216  1
  Al  Al11  1  0.120877  0.637216  0.121030  1
  Ga  Ga12  1  0.644154  0.118832  0.118832  1
  Ga  Ga13  1  0.118182  0.118832  0.118832  1
  Ga  Ga14  1  0.659577  0.659495  0.021350  1
  Ga  Ga15  1  0.659577  0.021350  0.659495  1
  Ga  Ga16  1  0.022037  0.659204  0.659204  1
  Ga  Ga17  1  0.659554  0.659204  0.659204  1
  Ga  Ga18  1  0.339396  0.340998  0.980212  1
  Ga  Ga19  1  0.339396  0.980212  0.340998  1
  Ga  Ga20  1  0.977596  0.341410  0.341410  1
  Ga  Ga21  1  0.339587  0.341410  0.341410  1
  Ir  Ir22  1  0.004578  0.995422  0.995422  1
  Ir  Ir23  1  0.997787  0.998779  0.503156  1
  Ir  Ir24  1  0.500278  0.998779  0.503156  1
  Ir  Ir25  1  0.998068  0.501932  0.501932  1
  Ir  Ir26  1  0.500278  0.503156  0.998779  1
  Ir  Ir27  1  0.997787  0.503156  0.998779  1
  Ir  Ir28  1  0.501449  0.998551  0.998551  1
