# generated using pymatgen
data_Pm2NiPt3
_symmetry_space_group_name_H-M   'P 1'
_cell_length_a   5.50980665
_cell_length_b   5.50983771
_cell_length_c   5.34308689
_cell_angle_alpha   58.96685838
_cell_angle_beta   58.96767577
_cell_angle_gamma   60.00261227
_symmetry_Int_Tables_number   1
_chemical_formula_structural   Pm2NiPt3
_chemical_formula_sum   'Pm2 Ni1 Pt3'
_cell_volume   112.87612257
_cell_formula_units_Z   1
loop_
 _symmetry_equiv_pos_site_id
 _symmetry_equiv_pos_as_xyz
  1  'x, y, z'
loop_
 _atom_site_type_symbol
 _atom_site_label
 _atom_site_symmetry_multiplicity
 _atom_site_fract_x
 _atom_site_fract_y
 _atom_site_fract_z
 _atom_site_occupancy
  Pm  Pm0  1  0.748891  0.748889  0.753300  1
  Pm  Pm1  1  0.001109  0.001111  0.996700  1
  Ni  Ni2  1  0.375000  0.375000  0.875000  1
  Pt  Pt3  1  0.875000  0.375000  0.375000  1
  Pt  Pt4  1  0.375000  0.875000  0.375000  1
  Pt  Pt5  1  0.375000  0.375000  0.375000  1
