# generated using pymatgen
data_Tb8BAsI12
_symmetry_space_group_name_H-M   'P 1'
_cell_length_a   4.17303000
_cell_length_b   13.97860788
_cell_length_c   14.73320819
_cell_angle_alpha   90.70803819
_cell_angle_beta   90.00000000
_cell_angle_gamma   90.00000000
_symmetry_Int_Tables_number   1
_chemical_formula_structural   Tb8BAsI12
_chemical_formula_sum   'Tb8 B1 As1 I12'
_cell_volume   859.36882252
_cell_formula_units_Z   1
loop_
 _symmetry_equiv_pos_site_id
 _symmetry_equiv_pos_as_xyz
  1  'x, y, z'
loop_
 _atom_site_type_symbol
 _atom_site_label
 _atom_site_symmetry_multiplicity
 _atom_site_fract_x
 _atom_site_fract_y
 _atom_site_fract_z
 _atom_site_occupancy
  Tb  Tb0  1  0.500000  0.105561  0.359449  1
  Tb  Tb1  1  0.500000  0.894439  0.640551  1
  Tb  Tb2  1  0.500000  0.617494  0.156421  1
  Tb  Tb3  1  0.500000  0.382506  0.843579  1
  Tb  Tb4  1  0.000000  0.100156  0.568219  1
  Tb  Tb5  1  0.000000  0.899844  0.431781  1
  Tb  Tb6  1  0.000000  0.613099  0.923782  1
  Tb  Tb7  1  0.000000  0.386901  0.076218  1
  B  B8  1  0.500000  0.000000  0.500000  1
  As  As9  1  0.500000  0.500000  0.000000  1
  I  I10  1  0.500000  0.247811  0.164561  1
  I  I11  1  0.500000  0.752189  0.835439  1
  I  I12  1  0.500000  0.750977  0.335654  1
  I  I13  1  0.500000  0.249023  0.664346  1
  I  I14  1  0.000000  0.258193  0.418273  1
  I  I15  1  0.000000  0.741807  0.581727  1
  I  I16  1  0.000000  0.760242  0.084257  1
  I  I17  1  0.000000  0.239758  0.915743  1
  I  I18  1  0.000000  0.998529  0.240544  1
  I  I19  1  0.000000  0.001471  0.759456  1
  I  I20  1  0.000000  0.499172  0.261180  1
  I  I21  1  0.000000  0.500828  0.738820  1
