# generated using pymatgen
data_LaHo2NbO7
_symmetry_space_group_name_H-M   'P 1'
_cell_length_a   6.52278392
_cell_length_b   6.52278226
_cell_length_c   7.63728300
_cell_angle_alpha   90.00000000
_cell_angle_beta   90.00000000
_cell_angle_gamma   108.85299991
_symmetry_Int_Tables_number   1
_chemical_formula_structural   LaHo2NbO7
_chemical_formula_sum   'La2 Ho4 Nb2 O14'
_cell_volume   307.50833238
_cell_formula_units_Z   2
loop_
 _symmetry_equiv_pos_site_id
 _symmetry_equiv_pos_as_xyz
  1  'x, y, z'
loop_
 _atom_site_type_symbol
 _atom_site_label
 _atom_site_symmetry_multiplicity
 _atom_site_fract_x
 _atom_site_fract_y
 _atom_site_fract_z
 _atom_site_occupancy
  La  La0  1  0.500000  0.500000  0.500000  1
  La  La1  1  0.500000  0.500000  0.000000  1
  Ho  Ho2  1  0.533775  0.001607  0.750000  1
  Ho  Ho3  1  0.001607  0.533775  0.250000  1
  Ho  Ho4  1  0.466225  0.998393  0.250000  1
  Ho  Ho5  1  0.998393  0.466225  0.750000  1
  Nb  Nb6  1  0.000000  0.000000  0.500000  1
  Nb  Nb7  1  0.000000  0.000000  0.000000  1
  O  O8  1  0.679292  0.932984  0.466688  1
  O  O9  1  0.932984  0.679292  0.533312  1
  O  O10  1  0.679292  0.932984  0.033312  1
  O  O11  1  0.932984  0.679292  0.966688  1
  O  O12  1  0.320708  0.067016  0.533312  1
  O  O13  1  0.067016  0.320708  0.466688  1
  O  O14  1  0.320708  0.067016  0.966688  1
  O  O15  1  0.067016  0.320708  0.033312  1
  O  O16  1  0.361682  0.638318  0.750000  1
  O  O17  1  0.638318  0.361682  0.250000  1
  O  O18  1  0.644676  0.355324  0.750000  1
  O  O19  1  0.355324  0.644676  0.250000  1
  O  O20  1  0.933050  0.066950  0.750000  1
  O  O21  1  0.066950  0.933050  0.250000  1
