# generated using pymatgen
data_K4Mn3FeCu4(PO4)8
_symmetry_space_group_name_H-M   'P 1'
_cell_length_a   10.05625000
_cell_length_b   8.10054806
_cell_length_c   9.20708300
_cell_angle_alpha   63.55552282
_cell_angle_beta   90.00000000
_cell_angle_gamma   90.00000000
_symmetry_Int_Tables_number   1
_chemical_formula_structural   K4Mn3FeCu4(PO4)8
_chemical_formula_sum   'K4 Mn3 Fe1 Cu4 P8 O32'
_cell_volume   671.54215849
_cell_formula_units_Z   1
loop_
 _symmetry_equiv_pos_site_id
 _symmetry_equiv_pos_as_xyz
  1  'x, y, z'
loop_
 _atom_site_type_symbol
 _atom_site_label
 _atom_site_symmetry_multiplicity
 _atom_site_fract_x
 _atom_site_fract_y
 _atom_site_fract_z
 _atom_site_occupancy
  K  K0  1  0.360777  0.646299  0.428391  1
  K  K1  1  0.140221  0.646637  0.927112  1
  K  K2  1  0.639943  0.353574  0.573598  1
  K  K3  1  0.859932  0.351002  0.074338  1
  Mn  Mn4  1  0.624201  0.737461  0.752348  1
  Mn  Mn5  1  0.876407  0.735175  0.249851  1
  Mn  Mn6  1  0.376395  0.264098  0.248193  1
  Fe  Fe7  1  0.123069  0.272474  0.743430  1
  Cu  Cu8  1  0.619072  0.083149  0.054749  1
  Cu  Cu9  1  0.881348  0.082442  0.554550  1
  Cu  Cu10  1  0.379138  0.921842  0.946805  1
  Cu  Cu11  1  0.119363  0.915349  0.446494  1
  P  P12  1  0.657404  0.021034  0.361777  1
  P  P13  1  0.842115  0.019082  0.860228  1
  P  P14  1  0.341093  0.984794  0.640171  1
  P  P15  1  0.156626  0.977375  0.140154  1
  P  P16  1  0.411321  0.376789  0.854169  1
  P  P17  1  0.090402  0.372995  0.350867  1
  P  P18  1  0.590359  0.627541  0.144796  1
  P  P19  1  0.909376  0.622862  0.644437  1
  O  O20  1  0.768136  0.159769  0.900293  1
  O  O21  1  0.732255  0.162178  0.399807  1
  O  O22  1  0.231412  0.835625  0.101869  1
  O  O23  1  0.265807  0.842381  0.604070  1
  O  O24  1  0.742133  0.971273  0.243539  1
  O  O25  1  0.755435  0.971322  0.741916  1
  O  O26  1  0.255478  0.039103  0.756266  1
  O  O27  1  0.242809  0.024405  0.259543  1
  O  O28  1  0.534455  0.115435  0.245391  1
  O  O29  1  0.965069  0.111891  0.745884  1
  O  O30  1  0.463051  0.888237  0.757266  1
  O  O31  1  0.034654  0.880067  0.258312  1
  O  O32  1  0.611590  0.848966  0.512628  1
  O  O33  1  0.887400  0.846016  0.010260  1
  O  O34  1  0.387882  0.154743  0.488976  1
  O  O35  1  0.111106  0.148193  0.990507  1
  O  O36  1  0.369790  0.396274  0.007623  1
  O  O37  1  0.133191  0.392554  0.503616  1
  O  O38  1  0.634177  0.608449  0.991542  1
  O  O39  1  0.865455  0.604696  0.491825  1
  O  O40  1  0.287215  0.394853  0.748504  1
  O  O41  1  0.212975  0.391437  0.241387  1
  O  O42  1  0.713275  0.608114  0.254049  1
  O  O43  1  0.789207  0.603472  0.756465  1
  O  O44  1  0.509252  0.524189  0.744898  1
  O  O45  1  0.993575  0.521996  0.241131  1
  O  O46  1  0.494306  0.477620  0.254693  1
  O  O47  1  0.007925  0.469520  0.750725  1
  O  O48  1  0.474969  0.181859  0.901920  1
  O  O49  1  0.025521  0.178772  0.400400  1
  O  O50  1  0.525256  0.820995  0.097422  1
  O  O51  1  0.976677  0.813622  0.600818  1
