# generated using pymatgen
data_SrHo4Er2PtI12
_symmetry_space_group_name_H-M   'P 1'
_cell_length_a   9.79594231
_cell_length_b   9.79254712
_cell_length_c   9.77629964
_cell_angle_alpha   106.24443548
_cell_angle_beta   106.28334426
_cell_angle_gamma   106.22197709
_symmetry_Int_Tables_number   1
_chemical_formula_structural   SrHo4Er2PtI12
_chemical_formula_sum   'Sr1 Ho4 Er2 Pt1 I12'
_cell_volume   796.46035873
_cell_formula_units_Z   1
loop_
 _symmetry_equiv_pos_site_id
 _symmetry_equiv_pos_as_xyz
  1  'x, y, z'
loop_
 _atom_site_type_symbol
 _atom_site_label
 _atom_site_symmetry_multiplicity
 _atom_site_fract_x
 _atom_site_fract_y
 _atom_site_fract_z
 _atom_site_occupancy
  Sr  Sr0  1  0.999875  0.999970  0.999767  1
  Ho  Ho1  1  0.479110  0.203487  0.405371  1
  Ho  Ho2  1  0.594220  0.521091  0.797126  1
  Ho  Ho3  1  0.796849  0.594357  0.520942  1
  Ho  Ho4  1  0.520847  0.796714  0.594105  1
  Er  Er5  1  0.405702  0.478793  0.204252  1
  Er  Er6  1  0.204704  0.406004  0.478881  1
  Pt  Pt7  1  0.500123  0.500169  0.500849  1
  I  I8  1  0.052029  0.365060  0.131555  1
  I  I9  1  0.131057  0.052062  0.365134  1
  I  I10  1  0.364556  0.131727  0.050817  1
  I  I11  1  0.948761  0.635162  0.869107  1
  I  I12  1  0.868908  0.948768  0.635017  1
  I  I13  1  0.635176  0.869143  0.948927  1
  I  I14  1  0.720731  0.573491  0.173992  1
  I  I15  1  0.174031  0.720918  0.573561  1
  I  I16  1  0.573886  0.174224  0.721940  1
  I  I17  1  0.277507  0.426022  0.825630  1
  I  I18  1  0.826420  0.278142  0.426100  1
  I  I19  1  0.425508  0.824697  0.276927  1
