# generated using pymatgen
data_Tb3CdSn3IrRu
_symmetry_space_group_name_H-M   'P 1'
_cell_length_a   7.81428000
_cell_length_b   7.81428087
_cell_length_c   3.86365200
_cell_angle_alpha   90.00000000
_cell_angle_beta   90.00000000
_cell_angle_gamma   119.99999631
_symmetry_Int_Tables_number   1
_chemical_formula_structural   Tb3CdSn3IrRu
_chemical_formula_sum   'Tb3 Cd1 Sn3 Ir1 Ru1'
_cell_volume   204.31800356
_cell_formula_units_Z   1
loop_
 _symmetry_equiv_pos_site_id
 _symmetry_equiv_pos_as_xyz
  1  'x, y, z'
loop_
 _atom_site_type_symbol
 _atom_site_label
 _atom_site_symmetry_multiplicity
 _atom_site_fract_x
 _atom_site_fract_y
 _atom_site_fract_z
 _atom_site_occupancy
  Tb  Tb0  1  0.615486  0.028121  0.000000  1
  Tb  Tb1  1  0.971879  0.587364  0.000000  1
  Tb  Tb2  1  0.412636  0.384514  0.000000  1
  Cd  Cd3  1  0.333333  0.666667  0.500000  1
  Sn  Sn4  1  0.254274  0.998690  0.500000  1
  Sn  Sn5  1  0.001310  0.255585  0.500000  1
  Sn  Sn6  1  0.744415  0.745726  0.500000  1
  Ir  Ir7  1  0.666667  0.333333  0.500000  1
  Ru  Ru8  1  0.000000  0.000000  0.000000  1
