# generated using pymatgen
data_TbY2Th11Ir6
_symmetry_space_group_name_H-M   'P 1'
_cell_length_a   9.99568037
_cell_length_b   10.02616414
_cell_length_c   6.37351053
_cell_angle_alpha   90.33809184
_cell_angle_beta   89.79657084
_cell_angle_gamma   120.01332219
_symmetry_Int_Tables_number   1
_chemical_formula_structural   TbY2Th11Ir6
_chemical_formula_sum   'Tb1 Y2 Th11 Ir6'
_cell_volume   553.08327817
_cell_formula_units_Z   1
loop_
 _symmetry_equiv_pos_site_id
 _symmetry_equiv_pos_as_xyz
  1  'x, y, z'
loop_
 _atom_site_type_symbol
 _atom_site_label
 _atom_site_symmetry_multiplicity
 _atom_site_fract_x
 _atom_site_fract_y
 _atom_site_fract_z
 _atom_site_occupancy
  Tb  Tb0  1  0.924082  0.462877  0.803295  1
  Y  Y1  1  0.459707  0.539279  0.294484  1
  Y  Y2  1  0.077225  0.537571  0.300675  1
  Th  Th3  1  0.253446  0.128705  0.500676  1
  Th  Th4  1  0.543674  0.085469  0.792961  1
  Th  Th5  1  0.745943  0.873606  0.001072  1
  Th  Th6  1  0.664786  0.330926  0.292399  1
  Th  Th7  1  0.127246  0.869248  0.001313  1
  Th  Th8  1  0.456139  0.911415  0.290573  1
  Th  Th9  1  0.543104  0.458662  0.795658  1
  Th  Th10  1  0.873627  0.130336  0.503796  1
  Th  Th11  1  0.126245  0.255924  0.001050  1
  Th  Th12  1  0.869903  0.742148  0.499826  1
  Th  Th13  1  0.334832  0.667669  0.782007  1
  Ir  Ir14  1  0.810203  0.624696  0.056375  1
  Ir  Ir15  1  0.812052  0.187394  0.056038  1
  Ir  Ir16  1  0.627496  0.817182  0.551008  1
  Ir  Ir17  1  0.375385  0.189107  0.050878  1
  Ir  Ir18  1  0.185203  0.372270  0.556935  1
  Ir  Ir19  1  0.189704  0.815516  0.552982  1
