# generated using pymatgen
data_Ac6P5S
_symmetry_space_group_name_H-M   'P 1'
_cell_length_a   7.66522657
_cell_length_b   8.84035438
_cell_length_c   7.66296805
_cell_angle_alpha   106.77222349
_cell_angle_beta   119.99829067
_cell_angle_gamma   106.78219520
_symmetry_Int_Tables_number   1
_chemical_formula_structural   Ac6P5S
_chemical_formula_sum   'Ac6 P5 S1'
_cell_volume   367.20445630
_cell_formula_units_Z   1
loop_
 _symmetry_equiv_pos_site_id
 _symmetry_equiv_pos_as_xyz
  1  'x, y, z'
loop_
 _atom_site_type_symbol
 _atom_site_label
 _atom_site_symmetry_multiplicity
 _atom_site_fract_x
 _atom_site_fract_y
 _atom_site_fract_z
 _atom_site_occupancy
  Ac  Ac0  1  0.796132  0.548901  0.523823  1
  Ac  Ac1  1  0.133898  0.044847  0.188187  1
  Ac  Ac2  1  0.132688  0.548694  0.188045  1
  Ac  Ac3  1  0.796829  0.044808  0.524240  1
  Ac  Ac4  1  0.459831  0.044820  0.851274  1
  Ac  Ac5  1  0.469380  0.548775  0.860322  1
  P  P6  1  0.964656  0.796834  0.355776  1
  P  P7  1  0.632040  0.296894  0.689309  1
  P  P8  1  0.630911  0.797191  0.690539  1
  P  P9  1  0.298805  0.796421  0.021637  1
  P  P10  1  0.297776  0.297055  0.022810  1
  S  S11  1  0.964516  0.296479  0.355770  1
