# generated using pymatgen
data_NaB9O
_symmetry_space_group_name_H-M   'P 1'
_cell_length_a   5.47648078
_cell_length_b   5.47648303
_cell_length_c   7.53420616
_cell_angle_alpha   111.31189890
_cell_angle_beta   68.68811323
_cell_angle_gamma   120.00124644
_symmetry_Int_Tables_number   1
_chemical_formula_structural   NaB9O
_chemical_formula_sum   'Na2 B18 O2'
_cell_volume   177.62244991
_cell_formula_units_Z   2
loop_
 _symmetry_equiv_pos_site_id
 _symmetry_equiv_pos_as_xyz
  1  'x, y, z'
loop_
 _atom_site_type_symbol
 _atom_site_label
 _atom_site_symmetry_multiplicity
 _atom_site_fract_x
 _atom_site_fract_y
 _atom_site_fract_z
 _atom_site_occupancy
  Na  Na0  1  0.303450  0.696550  0.089635  1
  Na  Na1  1  0.696549  0.303451  0.910365  1
  B  B2  1  0.174316  0.140357  0.106414  1
  B  B3  1  0.859643  0.140357  0.106413  1
  B  B4  1  0.859643  0.825684  0.106414  1
  B  B5  1  0.349458  0.321883  0.294291  1
  B  B6  1  0.678121  0.321879  0.294302  1
  B  B7  1  0.678117  0.650542  0.294291  1
  B  B8  1  0.341770  0.138360  0.454824  1
  B  B9  1  0.341773  0.658227  0.454810  1
  B  B10  1  0.861640  0.658230  0.454824  1
  B  B11  1  0.138361  0.341770  0.545176  1
  B  B12  1  0.658227  0.341773  0.545190  1
  B  B13  1  0.658230  0.861640  0.545176  1
  B  B14  1  0.321883  0.349458  0.705709  1
  B  B15  1  0.321879  0.678121  0.705699  1
  B  B16  1  0.650542  0.678118  0.705709  1
  B  B17  1  0.140357  0.174316  0.893587  1
  B  B18  1  0.140357  0.859643  0.893587  1
  B  B19  1  0.825684  0.859643  0.893586  1
  O  O20  1  0.192078  0.807922  0.423751  1
  O  O21  1  0.807922  0.192078  0.576250  1
