# generated using pymatgen
data_Dy6MgCd22P
_symmetry_space_group_name_H-M   'P 1'
_cell_length_a   9.91960618
_cell_length_b   9.91960633
_cell_length_c   9.91960700
_cell_angle_alpha   60.00000110
_cell_angle_beta   60.00000060
_cell_angle_gamma   60.00000475
_symmetry_Int_Tables_number   1
_chemical_formula_structural   Dy6MgCd22P
_chemical_formula_sum   'Dy6 Mg1 Cd22 P1'
_cell_volume   690.18951497
_cell_formula_units_Z   1
loop_
 _symmetry_equiv_pos_site_id
 _symmetry_equiv_pos_as_xyz
  1  'x, y, z'
loop_
 _atom_site_type_symbol
 _atom_site_label
 _atom_site_symmetry_multiplicity
 _atom_site_fract_x
 _atom_site_fract_y
 _atom_site_fract_z
 _atom_site_occupancy
  Dy  Dy0  1  0.801425  0.801425  0.198575  1
  Dy  Dy1  1  0.198575  0.801425  0.198575  1
  Dy  Dy2  1  0.801425  0.198575  0.198575  1
  Dy  Dy3  1  0.198575  0.198575  0.801425  1
  Dy  Dy4  1  0.801425  0.198575  0.801425  1
  Dy  Dy5  1  0.198575  0.801425  0.801425  1
  Mg  Mg6  1  0.500000  0.500000  0.500000  1
  Cd  Cd7  1  0.834517  0.834517  0.496448  1
  Cd  Cd8  1  0.834517  0.496448  0.834517  1
  Cd  Cd9  1  0.496448  0.834517  0.834517  1
  Cd  Cd10  1  0.834517  0.834517  0.834517  1
  Cd  Cd11  1  0.165483  0.165483  0.503552  1
  Cd  Cd12  1  0.165483  0.503552  0.165483  1
  Cd  Cd13  1  0.503552  0.165483  0.165483  1
  Cd  Cd14  1  0.165483  0.165483  0.165483  1
  Cd  Cd15  1  0.619780  0.619780  0.140659  1
  Cd  Cd16  1  0.619780  0.140659  0.619780  1
  Cd  Cd17  1  0.140659  0.619780  0.619780  1
  Cd  Cd18  1  0.619780  0.619780  0.619780  1
  Cd  Cd19  1  0.380220  0.380220  0.859341  1
  Cd  Cd20  1  0.380220  0.859341  0.380220  1
  Cd  Cd21  1  0.859341  0.380220  0.380220  1
  Cd  Cd22  1  0.380220  0.380220  0.380220  1
  Cd  Cd23  1  0.000000  0.000000  0.500000  1
  Cd  Cd24  1  0.500000  0.000000  0.500000  1
  Cd  Cd25  1  0.000000  0.500000  0.500000  1
  Cd  Cd26  1  0.500000  0.500000  0.000000  1
  Cd  Cd27  1  0.000000  0.500000  0.000000  1
  Cd  Cd28  1  0.500000  0.000000  0.000000  1
  P  P29  1  0.000000  0.000000  0.000000  1
