# generated using pymatgen
data_Nd6AlInSiSe14
_symmetry_space_group_name_H-M   'P 1'
_cell_length_a   10.61068900
_cell_length_b   10.61068955
_cell_length_c   6.20410600
_cell_angle_alpha   90.00000000
_cell_angle_beta   90.00000000
_cell_angle_gamma   120.00000762
_symmetry_Int_Tables_number   1
_chemical_formula_structural   Nd6AlInSiSe14
_chemical_formula_sum   'Nd6 Al1 In1 Si1 Se14'
_cell_volume   604.91868779
_cell_formula_units_Z   1
loop_
 _symmetry_equiv_pos_site_id
 _symmetry_equiv_pos_as_xyz
  1  'x, y, z'
loop_
 _atom_site_type_symbol
 _atom_site_label
 _atom_site_symmetry_multiplicity
 _atom_site_fract_x
 _atom_site_fract_y
 _atom_site_fract_z
 _atom_site_occupancy
  Nd  Nd0  1  0.803801  0.698838  0.523144  1
  Nd  Nd1  1  0.895037  0.196199  0.523144  1
  Nd  Nd2  1  0.301162  0.104963  0.523144  1
  Nd  Nd3  1  0.521280  0.964383  0.042739  1
  Nd  Nd4  1  0.443103  0.478720  0.042739  1
  Nd  Nd5  1  0.035617  0.556897  0.042739  1
  Al  Al6  1  0.333333  0.666667  0.449886  1
  In  In7  1  0.666667  0.333333  0.322959  1
  Si  Si8  1  0.000000  0.000000  0.941292  1
  Se  Se9  1  0.000000  0.000000  0.310241  1
  Se  Se10  1  0.333333  0.666667  0.831558  1
  Se  Se11  1  0.083932  0.855601  0.795887  1
  Se  Se12  1  0.771668  0.916068  0.795887  1
  Se  Se13  1  0.144399  0.228332  0.795887  1
  Se  Se14  1  0.240306  0.814062  0.300240  1
  Se  Se15  1  0.573755  0.759694  0.300240  1
  Se  Se16  1  0.185938  0.426245  0.300240  1
  Se  Se17  1  0.923802  0.493107  0.558775  1
  Se  Se18  1  0.569307  0.076198  0.558775  1
  Se  Se19  1  0.506893  0.430693  0.558775  1
  Se  Se20  1  0.415897  0.183681  0.074574  1
  Se  Se21  1  0.767785  0.584103  0.074574  1
  Se  Se22  1  0.816319  0.232215  0.074574  1
