# generated using pymatgen
data_Nd2Sm3YNiBr10
_symmetry_space_group_name_H-M   'P 1'
_cell_length_a   7.47503111
_cell_length_b   9.41164007
_cell_length_c   9.48890030
_cell_angle_alpha   108.29741684
_cell_angle_beta   96.26273887
_cell_angle_gamma   105.71644143
_symmetry_Int_Tables_number   1
_chemical_formula_structural   Nd2Sm3YNiBr10
_chemical_formula_sum   'Nd2 Sm3 Y1 Ni1 Br10'
_cell_volume   596.19556769
_cell_formula_units_Z   1
loop_
 _symmetry_equiv_pos_site_id
 _symmetry_equiv_pos_as_xyz
  1  'x, y, z'
loop_
 _atom_site_type_symbol
 _atom_site_label
 _atom_site_symmetry_multiplicity
 _atom_site_fract_x
 _atom_site_fract_y
 _atom_site_fract_z
 _atom_site_occupancy
  Nd  Nd0  1  0.874144  0.954057  0.245835  1
  Nd  Nd1  1  0.129758  0.047734  0.755036  1
  Sm  Sm2  1  0.030382  0.704851  0.906572  1
  Sm  Sm3  1  0.972215  0.295767  0.094869  1
  Sm  Sm4  1  0.643406  0.866834  0.824442  1
  Y  Y5  1  0.353334  0.131026  0.172814  1
  Ni  Ni6  1  0.001331  0.000394  0.000137  1
  Br  Br7  1  0.647366  0.547812  0.731213  1
  Br  Br8  1  0.355674  0.446568  0.270234  1
  Br  Br9  1  0.745664  0.917576  0.548138  1
  Br  Br10  1  0.259492  0.085765  0.449265  1
  Br  Br11  1  0.916547  0.630436  0.170641  1
  Br  Br12  1  0.084308  0.370401  0.830773  1
  Br  Br13  1  0.550874  0.178064  0.921773  1
  Br  Br14  1  0.448072  0.826361  0.083689  1
  Br  Br15  1  0.215964  0.741293  0.654109  1
  Br  Br16  1  0.771471  0.255062  0.340461  1
