# generated using pymatgen
data_Sc10Ga3Fe
_symmetry_space_group_name_H-M   'P 1'
_cell_length_a   8.80242100
_cell_length_b   8.80242144
_cell_length_c   8.82390400
_cell_angle_alpha   90.00000000
_cell_angle_beta   90.00000000
_cell_angle_gamma   119.99999458
_symmetry_Int_Tables_number   1
_chemical_formula_structural   Sc10Ga3Fe
_chemical_formula_sum   'Sc20 Ga6 Fe2'
_cell_volume   592.10090361
_cell_formula_units_Z   2
loop_
 _symmetry_equiv_pos_site_id
 _symmetry_equiv_pos_as_xyz
  1  'x, y, z'
loop_
 _atom_site_type_symbol
 _atom_site_label
 _atom_site_symmetry_multiplicity
 _atom_site_fract_x
 _atom_site_fract_y
 _atom_site_fract_z
 _atom_site_occupancy
  Sc  Sc0  1  0.000000  0.000000  0.500000  1
  Sc  Sc1  1  0.000000  0.000000  0.000000  1
  Sc  Sc2  1  0.539509  0.460491  0.250000  1
  Sc  Sc3  1  0.539509  0.079017  0.250000  1
  Sc  Sc4  1  0.920983  0.460491  0.250000  1
  Sc  Sc5  1  0.460491  0.539509  0.750000  1
  Sc  Sc6  1  0.460491  0.920983  0.750000  1
  Sc  Sc7  1  0.079017  0.539509  0.750000  1
  Sc  Sc8  1  0.209719  0.790281  0.437549  1
  Sc  Sc9  1  0.209719  0.419440  0.437549  1
  Sc  Sc10  1  0.580560  0.790281  0.437549  1
  Sc  Sc11  1  0.790281  0.209719  0.562451  1
  Sc  Sc12  1  0.790281  0.580560  0.562451  1
  Sc  Sc13  1  0.419440  0.209719  0.562451  1
  Sc  Sc14  1  0.790281  0.209719  0.937549  1
  Sc  Sc15  1  0.790281  0.580560  0.937549  1
  Sc  Sc16  1  0.419440  0.209719  0.937549  1
  Sc  Sc17  1  0.209719  0.790281  0.062451  1
  Sc  Sc18  1  0.209719  0.419440  0.062451  1
  Sc  Sc19  1  0.580560  0.790281  0.062451  1
  Ga  Ga20  1  0.884528  0.115472  0.250000  1
  Ga  Ga21  1  0.884528  0.769054  0.250000  1
  Ga  Ga22  1  0.230946  0.115472  0.250000  1
  Ga  Ga23  1  0.115472  0.884528  0.750000  1
  Ga  Ga24  1  0.115472  0.230946  0.750000  1
  Ga  Ga25  1  0.769054  0.884528  0.750000  1
  Fe  Fe26  1  0.333333  0.666667  0.250000  1
  Fe  Fe27  1  0.666667  0.333333  0.750000  1
