# generated using pymatgen
data_Nb4Co3NiTe8
_symmetry_space_group_name_H-M   'P 1'
_cell_length_a   6.35338327
_cell_length_b   7.85538199
_cell_length_c   8.56470295
_cell_angle_alpha   62.92955956
_cell_angle_beta   89.81074793
_cell_angle_gamma   90.05995790
_symmetry_Int_Tables_number   1
_chemical_formula_structural   Nb4Co3NiTe8
_chemical_formula_sum   'Nb4 Co3 Ni1 Te8'
_cell_volume   380.61766361
_cell_formula_units_Z   1
loop_
 _symmetry_equiv_pos_site_id
 _symmetry_equiv_pos_as_xyz
  1  'x, y, z'
loop_
 _atom_site_type_symbol
 _atom_site_label
 _atom_site_symmetry_multiplicity
 _atom_site_fract_x
 _atom_site_fract_y
 _atom_site_fract_z
 _atom_site_occupancy
  Nb  Nb0  1  0.491070  0.205065  0.505837  1
  Nb  Nb1  1  0.507333  0.796075  0.490184  1
  Nb  Nb2  1  0.991005  0.301680  0.490855  1
  Nb  Nb3  1  0.009571  0.699695  0.508785  1
  Co  Co4  1  0.351776  0.556432  0.387329  1
  Co  Co5  1  0.639702  0.445919  0.607982  1
  Co  Co6  1  0.138474  0.055295  0.393040  1
  Ni  Ni7  1  0.851135  0.939044  0.619798  1
  Te  Te8  1  0.254623  0.375496  0.718125  1
  Te  Te9  1  0.752006  0.589110  0.807532  1
  Te  Te10  1  0.251906  0.906993  0.192896  1
  Te  Te11  1  0.756299  0.123242  0.282696  1
  Te  Te12  1  0.754354  0.102923  0.806095  1
  Te  Te13  1  0.254921  0.402264  0.192334  1
  Te  Te14  1  0.250065  0.875946  0.715831  1
  Te  Te15  1  0.745758  0.624820  0.280681  1
