# generated using pymatgen
data_Ce3P2Cl
_symmetry_space_group_name_H-M   'P 1'
_cell_length_a   7.00979750
_cell_length_b   7.00979677
_cell_length_c   7.00979700
_cell_angle_alpha   146.58586922
_cell_angle_beta   131.90971960
_cell_angle_gamma   59.82314073
_symmetry_Int_Tables_number   1
_chemical_formula_structural   Ce3P2Cl
_chemical_formula_sum   'Ce3 P2 Cl1'
_cell_volume   139.88779176
_cell_formula_units_Z   1
loop_
 _symmetry_equiv_pos_site_id
 _symmetry_equiv_pos_as_xyz
  1  'x, y, z'
loop_
 _atom_site_type_symbol
 _atom_site_label
 _atom_site_symmetry_multiplicity
 _atom_site_fract_x
 _atom_site_fract_y
 _atom_site_fract_z
 _atom_site_occupancy
  Ce  Ce0  1  0.500000  0.000000  0.500000  1
  Ce  Ce1  1  0.173947  0.673947  0.500000  1
  Ce  Ce2  1  0.826053  0.326053  0.500000  1
  P  P3  1  0.664895  0.664895  0.000000  1
  P  P4  1  0.335105  0.335105  0.000000  1
  Cl  Cl5  1  0.000000  0.000000  0.000000  1
