# generated using pymatgen
data_Th2CuNi(GeH)2
_symmetry_space_group_name_H-M   'P 1'
_cell_length_a   4.20103800
_cell_length_b   4.20102270
_cell_length_c   8.36366400
_cell_angle_alpha   89.99993755
_cell_angle_beta   89.99986324
_cell_angle_gamma   60.00003065
_symmetry_Int_Tables_number   1
_chemical_formula_structural   Th2CuNi(GeH)2
_chemical_formula_sum   'Th2 Cu1 Ni1 Ge2 H2'
_cell_volume   127.83182252
_cell_formula_units_Z   1
loop_
 _symmetry_equiv_pos_site_id
 _symmetry_equiv_pos_as_xyz
  1  'x, y, z'
loop_
 _atom_site_type_symbol
 _atom_site_label
 _atom_site_symmetry_multiplicity
 _atom_site_fract_x
 _atom_site_fract_y
 _atom_site_fract_z
 _atom_site_occupancy
  Th  Th0  1  0.000001  0.000000  0.506039  1
  Th  Th1  1  0.000002  0.999999  0.992149  1
  Cu  Cu2  1  0.666670  0.666666  0.243266  1
  Ni  Ni3  1  0.333329  0.333332  0.762626  1
  Ge  Ge4  1  0.333333  0.333334  0.270564  1
  Ge  Ge5  1  0.666665  0.666668  0.731511  1
  H  H6  1  0.333334  0.333334  0.956987  1
  H  H7  1  0.666666  0.666668  0.036857  1
