# generated using pymatgen
data_Lu3Mg3AgAu2
_symmetry_space_group_name_H-M   'P 1'
_cell_length_a   7.74686400
_cell_length_b   7.74686485
_cell_length_c   3.85722400
_cell_angle_alpha   90.00000000
_cell_angle_beta   90.00000000
_cell_angle_gamma   119.99999639
_symmetry_Int_Tables_number   1
_chemical_formula_structural   Lu3Mg3AgAu2
_chemical_formula_sum   'Lu3 Mg3 Ag1 Au2'
_cell_volume   200.47370594
_cell_formula_units_Z   1
loop_
 _symmetry_equiv_pos_site_id
 _symmetry_equiv_pos_as_xyz
  1  'x, y, z'
loop_
 _atom_site_type_symbol
 _atom_site_label
 _atom_site_symmetry_multiplicity
 _atom_site_fract_x
 _atom_site_fract_y
 _atom_site_fract_z
 _atom_site_occupancy
  Lu  Lu0  1  0.407354  0.000000  0.500000  1
  Lu  Lu1  1  0.000000  0.407354  0.500000  1
  Lu  Lu2  1  0.592646  0.592646  0.500000  1
  Mg  Mg3  1  0.739032  0.000000  0.000000  1
  Mg  Mg4  1  0.000000  0.739032  0.000000  1
  Mg  Mg5  1  0.260968  0.260968  0.000000  1
  Ag  Ag6  1  0.000000  0.000000  0.500000  1
  Au  Au7  1  0.333333  0.666667  0.000000  1
  Au  Au8  1  0.666667  0.333333  0.000000  1
