# generated using pymatgen
data_Y4Ga18CoNiRh4
_symmetry_space_group_name_H-M   'P 1'
_cell_length_a   7.53564980
_cell_length_b   7.53564922
_cell_length_c   9.48316221
_cell_angle_alpha   89.95283922
_cell_angle_beta   89.95284384
_cell_angle_gamma   119.96414208
_symmetry_Int_Tables_number   1
_chemical_formula_structural   Y4Ga18CoNiRh4
_chemical_formula_sum   'Y4 Ga18 Co1 Ni1 Rh4'
_cell_volume   466.53197453
_cell_formula_units_Z   1
loop_
 _symmetry_equiv_pos_site_id
 _symmetry_equiv_pos_as_xyz
  1  'x, y, z'
loop_
 _atom_site_type_symbol
 _atom_site_label
 _atom_site_symmetry_multiplicity
 _atom_site_fract_x
 _atom_site_fract_y
 _atom_site_fract_z
 _atom_site_occupancy
  Y  Y0  1  0.996663  0.665052  0.249724  1
  Y  Y1  1  0.003337  0.334948  0.750276  1
  Y  Y2  1  0.665052  0.996663  0.249724  1
  Y  Y3  1  0.334948  0.003337  0.750276  1
  Ga  Ga4  1  0.328215  0.328216  0.562641  1
  Ga  Ga5  1  0.671784  0.671785  0.437359  1
  Ga  Ga6  1  0.674128  0.674129  0.062051  1
  Ga  Ga7  1  0.325871  0.325872  0.937949  1
  Ga  Ga8  1  0.338209  0.544092  0.250002  1
  Ga  Ga9  1  0.661791  0.455908  0.749998  1
  Ga  Ga10  1  0.544092  0.338209  0.250002  1
  Ga  Ga11  1  0.455908  0.661791  0.749998  1
  Ga  Ga12  1  0.000382  0.328088  0.077345  1
  Ga  Ga13  1  0.999618  0.671912  0.922655  1
  Ga  Ga14  1  0.999850  0.670373  0.578039  1
  Ga  Ga15  1  0.329627  0.000150  0.421961  1
  Ga  Ga16  1  0.000150  0.329627  0.421961  1
  Ga  Ga17  1  0.670373  0.999850  0.578039  1
  Ga  Ga18  1  0.671912  0.999618  0.922655  1
  Ga  Ga19  1  0.328088  0.000382  0.077345  1
  Ga  Ga20  1  0.116156  0.116156  0.248753  1
  Ga  Ga21  1  0.883844  0.883844  0.751247  1
  Co  Co22  1  0.000000  0.000000  0.000000  1
  Ni  Ni23  1  0.000000  0.000000  0.500000  1
  Rh  Rh24  1  0.671440  0.328560  0.000000  1
  Rh  Rh25  1  0.328560  0.671440  0.000000  1
  Rh  Rh26  1  0.328596  0.671404  0.500000  1
  Rh  Rh27  1  0.671404  0.328596  0.500000  1
