# generated using pymatgen
data_Er3Al12Fe3Au
_symmetry_space_group_name_H-M   'P 1'
_cell_length_a   8.71472800
_cell_length_b   8.75328170
_cell_length_c   9.35464339
_cell_angle_alpha   90.02049704
_cell_angle_beta   89.99815466
_cell_angle_gamma   119.85408425
_symmetry_Int_Tables_number   1
_chemical_formula_structural   Er3Al12Fe3Au
_chemical_formula_sum   'Er6 Al24 Fe6 Au2'
_cell_volume   618.89826036
_cell_formula_units_Z   2
loop_
 _symmetry_equiv_pos_site_id
 _symmetry_equiv_pos_as_xyz
  1  'x, y, z'
loop_
 _atom_site_type_symbol
 _atom_site_label
 _atom_site_symmetry_multiplicity
 _atom_site_fract_x
 _atom_site_fract_y
 _atom_site_fract_z
 _atom_site_occupancy
  Er  Er0  1  0.193408  0.386794  0.251156  1
  Er  Er1  1  0.806592  0.613206  0.748844  1
  Er  Er2  1  0.612324  0.807344  0.257115  1
  Er  Er3  1  0.387676  0.192656  0.742885  1
  Er  Er4  1  0.194988  0.807324  0.257098  1
  Er  Er5  1  0.805012  0.192676  0.742902  1
  Al  Al6  1  0.343195  0.686388  0.021245  1
  Al  Al7  1  0.656805  0.313612  0.978755  1
  Al  Al8  1  0.667080  0.334146  0.519401  1
  Al  Al9  1  0.332920  0.665854  0.480599  1
  Al  Al10  1  0.161279  0.322560  0.571625  1
  Al  Al11  1  0.838721  0.677440  0.428375  1
  Al  Al12  1  0.675752  0.838457  0.574782  1
  Al  Al13  1  0.844758  0.689528  0.084501  1
  Al  Al14  1  0.324248  0.161543  0.425218  1
  Al  Al15  1  0.155242  0.310472  0.915499  1
  Al  Al16  1  0.162694  0.838442  0.574772  1
  Al  Al17  1  0.317358  0.146631  0.080936  1
  Al  Al18  1  0.837306  0.161558  0.425228  1
  Al  Al19  1  0.682642  0.853369  0.919064  1
  Al  Al20  1  0.829275  0.146640  0.080937  1
  Al  Al21  1  0.170725  0.853360  0.919063  1
  Al  Al22  1  0.557825  0.115663  0.250072  1
  Al  Al23  1  0.442175  0.884337  0.749928  1
  Al  Al24  1  0.875314  0.437431  0.262287  1
  Al  Al25  1  0.124686  0.562569  0.737713  1
  Al  Al26  1  0.562122  0.437435  0.262282  1
  Al  Al27  1  0.437878  0.562565  0.737718  1
  Al  Al28  1  0.001268  0.002549  0.251462  1
  Al  Al29  1  0.998732  0.997451  0.748538  1
  Fe  Fe30  1  0.500000  0.000000  0.000000  1
  Fe  Fe31  1  0.500000  0.000000  0.500000  1
  Fe  Fe32  1  0.000000  0.500000  0.500000  1
  Fe  Fe33  1  0.500000  0.500000  0.500000  1
  Fe  Fe34  1  0.000000  0.000000  0.000000  1
  Fe  Fe35  1  0.000000  0.000000  0.500000  1
  Au  Au36  1  0.000000  0.500000  0.000000  1
  Au  Au37  1  0.500000  0.500000  0.000000  1
