# generated using pymatgen
data_Yb2Si5N8
_symmetry_space_group_name_H-M   'P 1'
_cell_length_a   7.72763099
_cell_length_b   7.72763060
_cell_length_c   9.72025493
_cell_angle_alpha   69.34913950
_cell_angle_beta   69.34914019
_cell_angle_gamma   42.63187597
_symmetry_Int_Tables_number   1
_chemical_formula_structural   Yb2Si5N8
_chemical_formula_sum   'Yb4 Si10 N16'
_cell_volume   363.87526683
_cell_formula_units_Z   2
loop_
 _symmetry_equiv_pos_site_id
 _symmetry_equiv_pos_as_xyz
  1  'x, y, z'
loop_
 _atom_site_type_symbol
 _atom_site_label
 _atom_site_symmetry_multiplicity
 _atom_site_fract_x
 _atom_site_fract_y
 _atom_site_fract_z
 _atom_site_occupancy
  Yb  Yb0  1  0.353676  0.866372  0.303800  1
  Yb  Yb1  1  0.866372  0.353676  0.803800  1
  Yb  Yb2  1  0.768065  0.231792  0.497085  1
  Yb  Yb3  1  0.231792  0.768065  0.997085  1
  Si  Si4  1  0.857812  0.853453  0.373457  1
  Si  Si5  1  0.853453  0.857812  0.873457  1
  Si  Si6  1  0.570518  0.155492  0.131080  1
  Si  Si7  1  0.155492  0.570518  0.631080  1
  Si  Si8  1  0.250907  0.257601  0.437120  1
  Si  Si9  1  0.257601  0.250907  0.937120  1
  Si  Si10  1  0.964057  0.545989  0.182778  1
  Si  Si11  1  0.545989  0.964057  0.682778  1
  Si  Si12  1  0.862585  0.252964  0.146711  1
  Si  Si13  1  0.252964  0.862585  0.646711  1
  N  N14  1  0.278118  0.312106  0.084581  1
  N  N15  1  0.312106  0.278118  0.584581  1
  N  N16  1  0.785130  0.474119  0.230188  1
  N  N17  1  0.474119  0.785130  0.730188  1
  N  N18  1  0.847622  0.821107  0.564869  1
  N  N19  1  0.821107  0.847622  0.064869  1
  N  N20  1  0.979783  0.983493  0.282669  1
  N  N21  1  0.983493  0.979783  0.782669  1
  N  N22  1  0.550859  0.055017  0.324063  1
  N  N23  1  0.055017  0.550859  0.824063  1
  N  N24  1  0.037682  0.553724  0.330065  1
  N  N25  1  0.553724  0.037682  0.830065  1
  N  N26  1  0.137454  0.119237  0.502571  1
  N  N27  1  0.119237  0.137454  0.002571  1
  N  N28  1  0.349806  0.626258  0.567065  1
  N  N29  1  0.626258  0.349806  0.067065  1
