# generated using pymatgen
data_Er10Tm2ZnCo4Sn
_symmetry_space_group_name_H-M   'P 1'
_cell_length_a   8.23565845
_cell_length_b   8.23564491
_cell_length_c   8.23565872
_cell_angle_alpha   111.45493411
_cell_angle_beta   109.98532918
_cell_angle_gamma   107.00482515
_symmetry_Int_Tables_number   1
_chemical_formula_structural   Er10Tm2ZnCo4Sn
_chemical_formula_sum   'Er10 Tm2 Zn1 Co4 Sn1'
_cell_volume   429.33519117
_cell_formula_units_Z   1
loop_
 _symmetry_equiv_pos_site_id
 _symmetry_equiv_pos_as_xyz
  1  'x, y, z'
loop_
 _atom_site_type_symbol
 _atom_site_label
 _atom_site_symmetry_multiplicity
 _atom_site_fract_x
 _atom_site_fract_y
 _atom_site_fract_z
 _atom_site_occupancy
  Er  Er0  1  0.314941  0.011541  0.696601  1
  Er  Er1  1  0.685059  0.988459  0.303399  1
  Er  Er2  1  0.427947  0.222895  0.205799  1
  Er  Er3  1  0.572053  0.777105  0.794201  1
  Er  Er4  1  0.017097  0.222895  0.794949  1
  Er  Er5  1  0.982903  0.777105  0.205051  1
  Er  Er6  1  0.185348  0.287200  0.471836  1
  Er  Er7  1  0.814652  0.712800  0.528164  1
  Er  Er8  1  0.184637  0.712800  0.898149  1
  Er  Er9  1  0.815363  0.287200  0.101851  1
  Tm  Tm10  1  0.315097  0.618641  0.303543  1
  Tm  Tm11  1  0.684903  0.381360  0.696457  1
  Zn  Zn12  1  0.000000  0.000000  0.000000  1
  Co  Co13  1  0.113368  0.613242  0.499874  1
  Co  Co14  1  0.886633  0.386759  0.500126  1
  Co  Co15  1  0.376389  0.000000  0.376389  1
  Co  Co16  1  0.623611  0.000000  0.623611  1
  Sn  Sn17  1  0.500000  0.500000  0.000000  1
