# generated using pymatgen
data_DySc3SnPt11
_symmetry_space_group_name_H-M   'P 1'
_cell_length_a   4.08981200
_cell_length_b   5.74053201
_cell_length_c   11.46556000
_cell_angle_alpha   88.23192914
_cell_angle_beta   90.00000000
_cell_angle_gamma   90.00000000
_symmetry_Int_Tables_number   1
_chemical_formula_structural   DySc3SnPt11
_chemical_formula_sum   'Dy1 Sc3 Sn1 Pt11'
_cell_volume   269.05678392
_cell_formula_units_Z   1
loop_
 _symmetry_equiv_pos_site_id
 _symmetry_equiv_pos_as_xyz
  1  'x, y, z'
loop_
 _atom_site_type_symbol
 _atom_site_label
 _atom_site_symmetry_multiplicity
 _atom_site_fract_x
 _atom_site_fract_y
 _atom_site_fract_z
 _atom_site_occupancy
  Dy  Dy0  1  0.500000  0.755787  0.376401  1
  Sc  Sc1  1  0.500000  0.715477  0.860337  1
  Sc  Sc2  1  0.500000  0.283576  0.139018  1
  Sc  Sc3  1  0.500000  0.244954  0.623883  1
  Sn  Sn4  1  0.000000  0.000627  0.998016  1
  Pt  Pt5  1  0.000000  0.021299  0.244669  1
  Pt  Pt6  1  0.000000  0.983011  0.752744  1
  Pt  Pt7  1  0.000000  0.498653  0.998484  1
  Pt  Pt8  1  0.000000  0.494694  0.504905  1
  Pt  Pt9  1  0.000000  0.511180  0.245543  1
  Pt  Pt10  1  0.000000  0.484977  0.751928  1
  Pt  Pt11  1  0.500000  0.255221  0.376518  1
  Pt  Pt12  1  0.500000  0.232161  0.881052  1
  Pt  Pt13  1  0.500000  0.768057  0.113692  1
  Pt  Pt14  1  0.500000  0.745334  0.627996  1
  Pt  Pt15  1  0.000000  0.004991  0.504815  1
