# generated using pymatgen
data_Dy8SbPd24
_symmetry_space_group_name_H-M   'P 1'
_cell_length_a   8.40599500
_cell_length_b   8.40599500
_cell_length_c   8.40599500
_cell_angle_alpha   90.00000000
_cell_angle_beta   90.00000000
_cell_angle_gamma   90.00000000
_symmetry_Int_Tables_number   1
_chemical_formula_structural   Dy8SbPd24
_chemical_formula_sum   'Dy8 Sb1 Pd24'
_cell_volume   593.97392750
_cell_formula_units_Z   1
loop_
 _symmetry_equiv_pos_site_id
 _symmetry_equiv_pos_as_xyz
  1  'x, y, z'
loop_
 _atom_site_type_symbol
 _atom_site_label
 _atom_site_symmetry_multiplicity
 _atom_site_fract_x
 _atom_site_fract_y
 _atom_site_fract_z
 _atom_site_occupancy
  Dy  Dy0  1  0.745890  0.745890  0.254110  1
  Dy  Dy1  1  0.745890  0.254110  0.745890  1
  Dy  Dy2  1  0.254110  0.745890  0.745890  1
  Dy  Dy3  1  0.745890  0.745890  0.745890  1
  Dy  Dy4  1  0.745890  0.254110  0.254110  1
  Dy  Dy5  1  0.254110  0.254110  0.745890  1
  Dy  Dy6  1  0.254110  0.745890  0.254110  1
  Dy  Dy7  1  0.254110  0.254110  0.254110  1
  Sb  Sb8  1  0.000000  0.000000  0.000000  1
  Pd  Pd9  1  0.000000  0.000000  0.305530  1
  Pd  Pd10  1  0.736024  0.000000  0.500000  1
  Pd  Pd11  1  0.736024  0.500000  0.000000  1
  Pd  Pd12  1  0.500000  0.000000  0.736024  1
  Pd  Pd13  1  0.000000  0.736024  0.500000  1
  Pd  Pd14  1  0.500000  0.000000  0.263976  1
  Pd  Pd15  1  0.000000  0.263976  0.500000  1
  Pd  Pd16  1  0.500000  0.736024  0.000000  1
  Pd  Pd17  1  0.254162  0.500000  0.500000  1
  Pd  Pd18  1  0.500000  0.500000  0.745838  1
  Pd  Pd19  1  0.500000  0.500000  0.254162  1
  Pd  Pd20  1  0.500000  0.254162  0.500000  1
  Pd  Pd21  1  0.500000  0.745838  0.500000  1
  Pd  Pd22  1  0.745838  0.500000  0.500000  1
  Pd  Pd23  1  0.305530  0.000000  0.000000  1
  Pd  Pd24  1  0.000000  0.000000  0.694470  1
  Pd  Pd25  1  0.000000  0.500000  0.263976  1
  Pd  Pd26  1  0.000000  0.305530  0.000000  1
  Pd  Pd27  1  0.000000  0.694470  0.000000  1
  Pd  Pd28  1  0.694470  0.000000  0.000000  1
  Pd  Pd29  1  0.263976  0.500000  0.000000  1
  Pd  Pd30  1  0.263976  0.000000  0.500000  1
  Pd  Pd31  1  0.000000  0.500000  0.736024  1
  Pd  Pd32  1  0.500000  0.263976  0.000000  1
