# generated using pymatgen
data_Er2Sc3Si7Pt7Rh2
_symmetry_space_group_name_H-M   'P 1'
_cell_length_a   10.04869902
_cell_length_b   10.01655499
_cell_length_c   3.93717200
_cell_angle_alpha   90.00000000
_cell_angle_beta   90.00000000
_cell_angle_gamma   119.69286871
_symmetry_Int_Tables_number   1
_chemical_formula_structural   Er2Sc3Si7Pt7Rh2
_chemical_formula_sum   'Er2 Sc3 Si7 Pt7 Rh2'
_cell_volume   344.25401572
_cell_formula_units_Z   1
loop_
 _symmetry_equiv_pos_site_id
 _symmetry_equiv_pos_as_xyz
  1  'x, y, z'
loop_
 _atom_site_type_symbol
 _atom_site_label
 _atom_site_symmetry_multiplicity
 _atom_site_fract_x
 _atom_site_fract_y
 _atom_site_fract_z
 _atom_site_occupancy
  Er  Er0  1  0.002175  0.000509  0.000000  1
  Er  Er1  1  0.330968  0.665761  0.500000  1
  Sc  Sc2  1  0.894566  0.455048  0.500000  1
  Sc  Sc3  1  0.560140  0.103394  0.500000  1
  Sc  Sc4  1  0.543512  0.439031  0.500000  1
  Si  Si5  1  0.244469  0.195881  0.500000  1
  Si  Si6  1  0.810372  0.054292  0.500000  1
  Si  Si7  1  0.955541  0.756065  0.500000  1
  Si  Si8  1  0.554853  0.646666  0.000000  1
  Si  Si9  1  0.348985  0.909096  0.000000  1
  Si  Si10  1  0.089949  0.440984  0.000000  1
  Si  Si11  1  0.665922  0.332292  0.000000  1
  Pt  Pt12  1  0.718701  0.781928  0.500000  1
  Pt  Pt13  1  0.312951  0.411543  0.000000  1
  Pt  Pt14  1  0.584701  0.900351  0.000000  1
  Pt  Pt15  1  0.097958  0.687568  0.000000  1
  Pt  Pt16  1  0.384091  0.172190  0.000000  1
  Pt  Pt17  1  0.827301  0.209987  0.000000  1
  Pt  Pt18  1  0.787832  0.615095  0.000000  1
  Rh  Rh19  1  0.221453  0.937897  0.500000  1
  Rh  Rh20  1  0.063557  0.284426  0.500000  1
