# generated using pymatgen
data_DyHoPu8(SiB4)4
_symmetry_space_group_name_H-M   'P 1'
_cell_length_a   7.19938200
_cell_length_b   7.19938200
_cell_length_c   8.09797400
_cell_angle_alpha   90.00000000
_cell_angle_beta   90.00000000
_cell_angle_gamma   90.00000000
_symmetry_Int_Tables_number   1
_chemical_formula_structural   DyHoPu8(SiB4)4
_chemical_formula_sum   'Dy1 Ho1 Pu8 Si4 B16'
_cell_volume   419.72690976
_cell_formula_units_Z   1
loop_
 _symmetry_equiv_pos_site_id
 _symmetry_equiv_pos_as_xyz
  1  'x, y, z'
loop_
 _atom_site_type_symbol
 _atom_site_label
 _atom_site_symmetry_multiplicity
 _atom_site_fract_x
 _atom_site_fract_y
 _atom_site_fract_z
 _atom_site_occupancy
  Dy  Dy0  1  0.000000  0.000000  0.500000  1
  Ho  Ho1  1  0.500000  0.500000  0.500000  1
  Pu  Pu2  1  0.681855  0.181894  0.227956  1
  Pu  Pu3  1  0.318145  0.818106  0.772044  1
  Pu  Pu4  1  0.318145  0.818106  0.227956  1
  Pu  Pu5  1  0.818106  0.681855  0.227956  1
  Pu  Pu6  1  0.818106  0.681855  0.772044  1
  Pu  Pu7  1  0.681855  0.181894  0.772044  1
  Pu  Pu8  1  0.181894  0.318145  0.772044  1
  Pu  Pu9  1  0.181894  0.318145  0.227956  1
  Si  Si10  1  0.115207  0.614721  0.500000  1
  Si  Si11  1  0.884793  0.385279  0.500000  1
  Si  Si12  1  0.385279  0.115207  0.500000  1
  Si  Si13  1  0.614721  0.884793  0.500000  1
  B  B14  1  0.173176  0.040542  0.000000  1
  B  B15  1  0.826824  0.959458  0.000000  1
  B  B16  1  0.959458  0.173176  0.000000  1
  B  B17  1  0.326840  0.540533  0.000000  1
  B  B18  1  0.040542  0.826824  0.000000  1
  B  B19  1  0.673160  0.459467  0.000000  1
  B  B20  1  0.540533  0.673160  0.000000  1
  B  B21  1  0.459467  0.326840  0.000000  1
  B  B22  1  0.090291  0.590293  0.000000  1
  B  B23  1  0.909709  0.409707  0.000000  1
  B  B24  1  0.409707  0.090291  0.000000  1
  B  B25  1  0.590293  0.909709  0.000000  1
  B  B26  1  0.000000  0.000000  0.160740  1
  B  B27  1  0.000000  0.000000  0.839260  1
  B  B28  1  0.500000  0.500000  0.839022  1
  B  B29  1  0.500000  0.500000  0.160978  1
