# generated using pymatgen
data_Ca2AsBrO4
_symmetry_space_group_name_H-M   'P 1'
_cell_length_a   6.46217200
_cell_length_b   7.24459100
_cell_length_c   11.36932900
_cell_angle_alpha   90.00000000
_cell_angle_beta   90.00000000
_cell_angle_gamma   90.00000000
_symmetry_Int_Tables_number   1
_chemical_formula_structural   Ca2AsBrO4
_chemical_formula_sum   'Ca8 As4 Br4 O16'
_cell_volume   532.26415428
_cell_formula_units_Z   4
loop_
 _symmetry_equiv_pos_site_id
 _symmetry_equiv_pos_as_xyz
  1  'x, y, z'
loop_
 _atom_site_type_symbol
 _atom_site_label
 _atom_site_symmetry_multiplicity
 _atom_site_fract_x
 _atom_site_fract_y
 _atom_site_fract_z
 _atom_site_occupancy
  Ca  Ca0  1  0.877721  0.977813  0.250000  1
  Ca  Ca1  1  0.122279  0.022187  0.750000  1
  Ca  Ca2  1  0.122279  0.477813  0.250000  1
  Ca  Ca3  1  0.877721  0.522187  0.750000  1
  Ca  Ca4  1  0.628477  0.250000  0.500000  1
  Ca  Ca5  1  0.628477  0.250000  0.000000  1
  Ca  Ca6  1  0.371523  0.750000  0.500000  1
  Ca  Ca7  1  0.371523  0.750000  0.000000  1
  As  As8  1  0.131369  0.250000  0.000000  1
  As  As9  1  0.868631  0.750000  0.500000  1
  As  As10  1  0.131369  0.250000  0.500000  1
  As  As11  1  0.868631  0.750000  0.000000  1
  Br  Br12  1  0.509556  0.696099  0.250000  1
  Br  Br13  1  0.490444  0.196099  0.250000  1
  Br  Br14  1  0.509556  0.803901  0.750000  1
  Br  Br15  1  0.490444  0.303901  0.750000  1
  O  O16  1  0.970723  0.263286  0.622091  1
  O  O17  1  0.291543  0.065989  0.526703  1
  O  O18  1  0.291543  0.434011  0.026703  1
  O  O19  1  0.291543  0.434011  0.473297  1
  O  O20  1  0.708457  0.565989  0.526703  1
  O  O21  1  0.029277  0.736714  0.377909  1
  O  O22  1  0.970723  0.236714  0.122091  1
  O  O23  1  0.029277  0.763286  0.622091  1
  O  O24  1  0.029277  0.736714  0.122091  1
  O  O25  1  0.029277  0.763286  0.877909  1
  O  O26  1  0.970723  0.236714  0.377909  1
  O  O27  1  0.291543  0.065989  0.973297  1
  O  O28  1  0.708457  0.934011  0.473297  1
  O  O29  1  0.708457  0.565989  0.973297  1
  O  O30  1  0.708457  0.934011  0.026703  1
  O  O31  1  0.970723  0.263286  0.877909  1
