# generated using pymatgen
data_Ho2Tm3RuRh
_symmetry_space_group_name_H-M   'P 1'
_cell_length_a   6.32417807
_cell_length_b   7.20839782
_cell_length_c   8.40152839
_cell_angle_alpha   96.87784058
_cell_angle_beta   112.10905915
_cell_angle_gamma   89.99999366
_symmetry_Int_Tables_number   1
_chemical_formula_structural   Ho2Tm3RuRh
_chemical_formula_sum   'Ho4 Tm6 Ru2 Rh2'
_cell_volume   351.86289347
_cell_formula_units_Z   2
loop_
 _symmetry_equiv_pos_site_id
 _symmetry_equiv_pos_as_xyz
  1  'x, y, z'
loop_
 _atom_site_type_symbol
 _atom_site_label
 _atom_site_symmetry_multiplicity
 _atom_site_fract_x
 _atom_site_fract_y
 _atom_site_fract_z
 _atom_site_occupancy
  Ho  Ho0  1  0.790893  0.081842  0.811346  1
  Ho  Ho1  1  0.979546  0.418158  0.188654  1
  Ho  Ho2  1  0.211057  0.915104  0.185945  1
  Ho  Ho3  1  0.025110  0.584896  0.814055  1
  Tm  Tm4  1  0.207581  0.183232  0.565292  1
  Tm  Tm5  1  0.642289  0.316768  0.434708  1
  Tm  Tm6  1  0.792211  0.813340  0.436857  1
  Tm  Tm7  1  0.355353  0.686660  0.563143  1
  Tm  Tm8  1  0.419714  0.250000  0.000000  1
  Tm  Tm9  1  0.577722  0.750000  0.000000  1
  Ru  Ru10  1  0.398491  0.574787  0.220779  1
  Ru  Ru11  1  0.177713  0.925213  0.779221  1
  Rh  Rh12  1  0.600381  0.423898  0.778442  1
  Rh  Rh13  1  0.821938  0.076102  0.221558  1
