# generated using pymatgen
data_YbFe3Sb12Pd
_symmetry_space_group_name_H-M   'P 1'
_cell_length_a   8.02235948
_cell_length_b   8.00208798
_cell_length_c   8.02235920
_cell_angle_alpha   109.42003559
_cell_angle_beta   109.52234537
_cell_angle_gamma   109.42004225
_symmetry_Int_Tables_number   1
_chemical_formula_structural   YbFe3Sb12Pd
_chemical_formula_sum   'Yb1 Fe3 Sb12 Pd1'
_cell_volume   396.69765319
_cell_formula_units_Z   1
loop_
 _symmetry_equiv_pos_site_id
 _symmetry_equiv_pos_as_xyz
  1  'x, y, z'
loop_
 _atom_site_type_symbol
 _atom_site_label
 _atom_site_symmetry_multiplicity
 _atom_site_fract_x
 _atom_site_fract_y
 _atom_site_fract_z
 _atom_site_occupancy
  Yb  Yb0  1  0.000000  0.000000  0.000000  1
  Fe  Fe1  1  0.500000  0.500000  0.500000  1
  Fe  Fe2  1  0.500000  0.000000  0.000000  1
  Fe  Fe3  1  0.000000  0.000000  0.500000  1
  Sb  Sb4  1  0.837833  0.667907  0.504951  1
  Sb  Sb5  1  0.162167  0.332093  0.495049  1
  Sb  Sb6  1  0.167157  0.670850  0.817189  1
  Sb  Sb7  1  0.832843  0.329150  0.182811  1
  Sb  Sb8  1  0.650033  0.503693  0.832843  1
  Sb  Sb9  1  0.349967  0.496307  0.167157  1
  Sb  Sb10  1  0.667118  0.830073  0.162167  1
  Sb  Sb11  1  0.332882  0.169927  0.837833  1
  Sb  Sb12  1  0.504951  0.837044  0.667118  1
  Sb  Sb13  1  0.495049  0.162956  0.332882  1
  Sb  Sb14  1  0.182811  0.853661  0.349967  1
  Sb  Sb15  1  0.817189  0.146339  0.650033  1
  Pd  Pd16  1  0.000000  0.500000  0.000000  1
