# generated using pymatgen
data_NdHfP7Ru12
_symmetry_space_group_name_H-M   'P 1'
_cell_length_a   9.42127400
_cell_length_b   9.42127333
_cell_length_c   3.92650300
_cell_angle_alpha   90.00000000
_cell_angle_beta   90.00000000
_cell_angle_gamma   119.99999439
_symmetry_Int_Tables_number   1
_chemical_formula_structural   NdHfP7Ru12
_chemical_formula_sum   'Nd1 Hf1 P7 Ru12'
_cell_volume   301.82543008
_cell_formula_units_Z   1
loop_
 _symmetry_equiv_pos_site_id
 _symmetry_equiv_pos_as_xyz
  1  'x, y, z'
loop_
 _atom_site_type_symbol
 _atom_site_label
 _atom_site_symmetry_multiplicity
 _atom_site_fract_x
 _atom_site_fract_y
 _atom_site_fract_z
 _atom_site_occupancy
  Nd  Nd0  1  0.333333  0.666667  0.000000  1
  Hf  Hf1  1  0.666667  0.333333  0.500000  1
  P  P2  1  0.602973  0.719286  0.500000  1
  P  P3  1  0.000000  0.000000  0.000000  1
  P  P4  1  0.280714  0.883689  0.500000  1
  P  P5  1  0.116311  0.397027  0.500000  1
  P  P6  1  0.885524  0.572255  0.000000  1
  P  P7  1  0.427745  0.313269  0.000000  1
  P  P8  1  0.686731  0.114476  0.000000  1
  Ru  Ru9  1  0.560506  0.958437  0.500000  1
  Ru  Ru10  1  0.397933  0.439494  0.500000  1
  Ru  Ru11  1  0.913393  0.121189  0.500000  1
  Ru  Ru12  1  0.207796  0.086607  0.500000  1
  Ru  Ru13  1  0.878811  0.792204  0.500000  1
  Ru  Ru14  1  0.727231  0.890161  0.000000  1
  Ru  Ru15  1  0.109839  0.837068  0.000000  1
  Ru  Ru16  1  0.162932  0.272769  0.000000  1
  Ru  Ru17  1  0.428237  0.075510  0.000000  1
  Ru  Ru18  1  0.924490  0.352728  0.000000  1
  Ru  Ru19  1  0.647272  0.571763  0.000000  1
  Ru  Ru20  1  0.041563  0.602067  0.500000  1
