# generated using pymatgen
data_Pr5NdAl24Ir3Os5
_symmetry_space_group_name_H-M   'P 1'
_cell_length_a   8.90812479
_cell_length_b   8.89627731
_cell_length_c   9.71444419
_cell_angle_alpha   90.13079219
_cell_angle_beta   89.98123217
_cell_angle_gamma   119.53356288
_symmetry_Int_Tables_number   1
_chemical_formula_structural   Pr5NdAl24Ir3Os5
_chemical_formula_sum   'Pr5 Nd1 Al24 Ir3 Os5'
_cell_volume   669.82906875
_cell_formula_units_Z   1
loop_
 _symmetry_equiv_pos_site_id
 _symmetry_equiv_pos_as_xyz
  1  'x, y, z'
loop_
 _atom_site_type_symbol
 _atom_site_label
 _atom_site_symmetry_multiplicity
 _atom_site_fract_x
 _atom_site_fract_y
 _atom_site_fract_z
 _atom_site_occupancy
  Pr  Pr0  1  0.187074  0.382933  0.250286  1
  Pr  Pr1  1  0.812879  0.616931  0.749704  1
  Pr  Pr2  1  0.618301  0.812374  0.250638  1
  Pr  Pr3  1  0.381812  0.187648  0.749381  1
  Pr  Pr4  1  0.190018  0.807360  0.250647  1
  Nd  Nd5  1  0.809896  0.192812  0.749309  1
  Al  Al6  1  0.331743  0.666079  0.017932  1
  Al  Al7  1  0.668387  0.333726  0.981686  1
  Al  Al8  1  0.667652  0.332244  0.518069  1
  Al  Al9  1  0.332519  0.667609  0.482311  1
  Al  Al10  1  0.162866  0.327394  0.574030  1
  Al  Al11  1  0.836842  0.672460  0.426173  1
  Al  Al12  1  0.673131  0.837765  0.574369  1
  Al  Al13  1  0.837262  0.672997  0.074403  1
  Al  Al14  1  0.327026  0.162546  0.425842  1
  Al  Al15  1  0.162428  0.326845  0.925387  1
  Al  Al16  1  0.164663  0.835954  0.573872  1
  Al  Al17  1  0.326593  0.163871  0.074540  1
  Al  Al18  1  0.835336  0.164077  0.426542  1
  Al  Al19  1  0.673543  0.836424  0.925264  1
  Al  Al20  1  0.837170  0.165714  0.073450  1
  Al  Al21  1  0.162799  0.834291  0.926139  1
  Al  Al22  1  0.561596  0.126490  0.250676  1
  Al  Al23  1  0.438900  0.873910  0.749355  1
  Al  Al24  1  0.872675  0.437868  0.249653  1
  Al  Al25  1  0.126934  0.561641  0.750337  1
  Al  Al26  1  0.562239  0.437432  0.249613  1
  Al  Al27  1  0.437749  0.562569  0.750387  1
  Al  Al28  1  0.998230  0.001057  0.250067  1
  Al  Al29  1  0.001521  0.999192  0.749933  1
  Ir  Ir30  1  0.500226  0.000122  0.999834  1
  Ir  Ir31  1  0.500055  0.499962  0.999955  1
  Ir  Ir32  1  0.500045  0.499963  0.500043  1
  Os  Os33  1  0.999845  0.499742  0.999813  1
  Os  Os34  1  0.500249  0.000151  0.500187  1
  Os  Os35  1  0.999870  0.499774  0.500173  1
  Os  Os36  1  0.999952  0.000033  0.999915  1
  Os  Os37  1  0.999974  0.000041  0.500084  1
