# generated using pymatgen
data_Ti12SiAs2Se
_symmetry_space_group_name_H-M   'P 1'
_cell_length_a   10.11461985
_cell_length_b   10.16371218
_cell_length_c   5.09545500
_cell_angle_alpha   90.00000000
_cell_angle_beta   90.00000000
_cell_angle_gamma   90.12410978
_symmetry_Int_Tables_number   1
_chemical_formula_structural   Ti12SiAs2Se
_chemical_formula_sum   'Ti24 Si2 As4 Se2'
_cell_volume   523.82216896
_cell_formula_units_Z   2
loop_
 _symmetry_equiv_pos_site_id
 _symmetry_equiv_pos_as_xyz
  1  'x, y, z'
loop_
 _atom_site_type_symbol
 _atom_site_label
 _atom_site_symmetry_multiplicity
 _atom_site_fract_x
 _atom_site_fract_y
 _atom_site_fract_z
 _atom_site_occupancy
  Ti  Ti0  1  0.216112  0.682243  0.992694  1
  Ti  Ti1  1  0.783888  0.317757  0.992694  1
  Ti  Ti2  1  0.184835  0.284297  0.497530  1
  Ti  Ti3  1  0.815165  0.715703  0.497530  1
  Ti  Ti4  1  0.287427  0.817726  0.507813  1
  Ti  Ti5  1  0.712573  0.182274  0.507813  1
  Ti  Ti6  1  0.317531  0.216027  0.002326  1
  Ti  Ti7  1  0.682469  0.783973  0.002326  1
  Ti  Ti8  1  0.640020  0.526807  0.714933  1
  Ti  Ti9  1  0.359980  0.473193  0.714933  1
  Ti  Ti10  1  0.027321  0.857197  0.213210  1
  Ti  Ti11  1  0.972679  0.142803  0.213210  1
  Ti  Ti12  1  0.857261  0.972665  0.786459  1
  Ti  Ti13  1  0.142739  0.027335  0.786459  1
  Ti  Ti14  1  0.472435  0.643963  0.285456  1
  Ti  Ti15  1  0.527565  0.356037  0.285456  1
  Ti  Ti16  1  0.104635  0.581716  0.468959  1
  Ti  Ti17  1  0.895365  0.418284  0.468959  1
  Ti  Ti18  1  0.081116  0.396509  0.959499  1
  Ti  Ti19  1  0.918884  0.603491  0.959499  1
  Ti  Ti20  1  0.395757  0.916662  0.026603  1
  Ti  Ti21  1  0.604243  0.083338  0.026603  1
  Ti  Ti22  1  0.419196  0.105444  0.545731  1
  Ti  Ti23  1  0.580804  0.894556  0.545731  1
  Si  Si24  1  0.459263  0.704624  0.788064  1
  Si  Si25  1  0.540737  0.295376  0.788064  1
  As  As26  1  0.040665  0.794216  0.710742  1
  As  As27  1  0.959335  0.205784  0.710742  1
  As  As28  1  0.792615  0.959673  0.287976  1
  As  As29  1  0.207385  0.040327  0.287976  1
  Se  Se30  1  0.706837  0.540510  0.212006  1
  Se  Se31  1  0.293163  0.459490  0.212006  1
