# generated using pymatgen
data_YbYHo3(In2Pt)2
_symmetry_space_group_name_H-M   'P 1'
_cell_length_a   3.59867400
_cell_length_b   8.17674056
_cell_length_c   18.36426273
_cell_angle_alpha   89.90939223
_cell_angle_beta   90.00000000
_cell_angle_gamma   90.00000000
_symmetry_Int_Tables_number   1
_chemical_formula_structural   YbYHo3(In2Pt)2
_chemical_formula_sum   'Yb2 Y2 Ho6 In8 Pt4'
_cell_volume   540.37553536
_cell_formula_units_Z   2
loop_
 _symmetry_equiv_pos_site_id
 _symmetry_equiv_pos_as_xyz
  1  'x, y, z'
loop_
 _atom_site_type_symbol
 _atom_site_label
 _atom_site_symmetry_multiplicity
 _atom_site_fract_x
 _atom_site_fract_y
 _atom_site_fract_z
 _atom_site_occupancy
  Yb  Yb0  1  0.000000  0.000000  0.000000  1
  Yb  Yb1  1  0.000000  0.500000  0.500000  1
  Y  Y2  1  0.000000  0.119926  0.414651  1
  Y  Y3  1  0.000000  0.880074  0.585349  1
  Ho  Ho4  1  0.000000  0.381215  0.913748  1
  Ho  Ho5  1  0.000000  0.618785  0.086252  1
  Ho  Ho6  1  0.000000  0.243386  0.220536  1
  Ho  Ho7  1  0.000000  0.756614  0.779464  1
  Ho  Ho8  1  0.000000  0.256588  0.720546  1
  Ho  Ho9  1  0.000000  0.743412  0.279454  1
  In  In10  1  0.500000  0.425582  0.350754  1
  In  In11  1  0.500000  0.574418  0.649246  1
  In  In12  1  0.500000  0.075179  0.851042  1
  In  In13  1  0.500000  0.924821  0.148958  1
  In  In14  1  0.500000  0.293036  0.067079  1
  In  In15  1  0.500000  0.706964  0.932921  1
  In  In16  1  0.500000  0.207807  0.567492  1
  In  In17  1  0.500000  0.792193  0.432508  1
  Pt  Pt18  1  0.500000  0.022217  0.301913  1
  Pt  Pt19  1  0.500000  0.977783  0.698087  1
  Pt  Pt20  1  0.500000  0.476906  0.803269  1
  Pt  Pt21  1  0.500000  0.523094  0.196731  1
