# generated using pymatgen
data_LiYbLuUN4
_symmetry_space_group_name_H-M   'P 1'
_cell_length_a   6.52230476
_cell_length_b   8.88917726
_cell_length_c   6.03962107
_cell_angle_alpha   28.65426652
_cell_angle_beta   57.31910224
_cell_angle_gamma   42.79953711
_symmetry_Int_Tables_number   1
_chemical_formula_structural   LiYbLuUN4
_chemical_formula_sum   'Li1 Yb1 Lu1 U1 N4'
_cell_volume   108.12703477
_cell_formula_units_Z   1
loop_
 _symmetry_equiv_pos_site_id
 _symmetry_equiv_pos_as_xyz
  1  'x, y, z'
loop_
 _atom_site_type_symbol
 _atom_site_label
 _atom_site_symmetry_multiplicity
 _atom_site_fract_x
 _atom_site_fract_y
 _atom_site_fract_z
 _atom_site_occupancy
  Li  Li0  1  0.500000  0.000000  0.000000  1
  Yb  Yb1  1  0.750000  0.500000  0.000000  1
  Lu  Lu2  1  0.250000  0.500000  0.000000  1
  U  U3  1  0.000000  0.000000  0.000000  1
  N  N4  1  0.487175  0.500000  0.525649  1
  N  N5  1  0.205068  0.000000  0.589862  1
  N  N6  1  0.012825  0.500000  0.474351  1
  N  N7  1  0.794932  0.000000  0.410138  1
