# generated using pymatgen
data_Mn(VSe2)3
_symmetry_space_group_name_H-M   'P 1'
_cell_length_a   5.87352700
_cell_length_b   5.87352587
_cell_length_c   12.83096400
_cell_angle_alpha   90.00000000
_cell_angle_beta   90.00000000
_cell_angle_gamma   120.00001199
_symmetry_Int_Tables_number   1
_chemical_formula_structural   Mn(VSe2)3
_chemical_formula_sum   'Mn2 V6 Se12'
_cell_volume   383.34316240
_cell_formula_units_Z   2
loop_
 _symmetry_equiv_pos_site_id
 _symmetry_equiv_pos_as_xyz
  1  'x, y, z'
loop_
 _atom_site_type_symbol
 _atom_site_label
 _atom_site_symmetry_multiplicity
 _atom_site_fract_x
 _atom_site_fract_y
 _atom_site_fract_z
 _atom_site_occupancy
  Mn  Mn0  1  0.666667  0.333333  0.750000  1
  Mn  Mn1  1  0.333333  0.666667  0.250000  1
  V  V2  1  0.333333  0.666667  0.497597  1
  V  V3  1  0.666667  0.333333  0.997597  1
  V  V4  1  0.666667  0.333333  0.502403  1
  V  V5  1  0.333333  0.666667  0.002403  1
  V  V6  1  0.000000  0.000000  0.500000  1
  V  V7  1  0.000000  0.000000  0.000000  1
  Se  Se8  1  0.334754  0.326525  0.122121  1
  Se  Se9  1  0.673475  0.008229  0.122121  1
  Se  Se10  1  0.991771  0.665246  0.122121  1
  Se  Se11  1  0.008229  0.334754  0.622121  1
  Se  Se12  1  0.665246  0.991771  0.877879  1
  Se  Se13  1  0.665246  0.673475  0.622121  1
  Se  Se14  1  0.326525  0.991771  0.622121  1
  Se  Se15  1  0.673475  0.665246  0.377879  1
  Se  Se16  1  0.334754  0.008229  0.377879  1
  Se  Se17  1  0.326525  0.334754  0.877879  1
  Se  Se18  1  0.008229  0.673475  0.877879  1
  Se  Se19  1  0.991771  0.326525  0.377879  1
