# generated using pymatgen
data_CaCePrRh3
_symmetry_space_group_name_H-M   'P 1'
_cell_length_a   5.37120038
_cell_length_b   5.37120146
_cell_length_c   5.37120132
_cell_angle_alpha   67.34738024
_cell_angle_beta   67.34737757
_cell_angle_gamma   67.34739188
_symmetry_Int_Tables_number   1
_chemical_formula_structural   CaCePrRh3
_chemical_formula_sum   'Ca1 Ce1 Pr1 Rh3'
_cell_volume   126.76812796
_cell_formula_units_Z   1
loop_
 _symmetry_equiv_pos_site_id
 _symmetry_equiv_pos_as_xyz
  1  'x, y, z'
loop_
 _atom_site_type_symbol
 _atom_site_label
 _atom_site_symmetry_multiplicity
 _atom_site_fract_x
 _atom_site_fract_y
 _atom_site_fract_z
 _atom_site_occupancy
  Ca  Ca0  1  0.629341  0.629341  0.629341  1
  Ce  Ce1  1  0.996333  0.996333  0.996333  1
  Pr  Pr2  1  0.378726  0.378726  0.378726  1
  Rh  Rh3  1  0.999259  0.999259  0.497081  1
  Rh  Rh4  1  0.497081  0.999259  0.999259  1
  Rh  Rh5  1  0.999259  0.497081  0.999259  1
