# generated using pymatgen
data_Ba10Li3Dy(TeO5)6
_symmetry_space_group_name_H-M   'P 1'
_cell_length_a   10.29035142
_cell_length_b   10.29034158
_cell_length_c   10.26930698
_cell_angle_alpha   99.68273768
_cell_angle_beta   99.49675316
_cell_angle_gamma   131.87428841
_symmetry_Int_Tables_number   1
_chemical_formula_structural   Ba10Li3Dy(TeO5)6
_chemical_formula_sum   'Ba10 Li3 Dy1 Te6 O30'
_cell_volume   739.04276116
_cell_formula_units_Z   1
loop_
 _symmetry_equiv_pos_site_id
 _symmetry_equiv_pos_as_xyz
  1  'x, y, z'
loop_
 _atom_site_type_symbol
 _atom_site_label
 _atom_site_symmetry_multiplicity
 _atom_site_fract_x
 _atom_site_fract_y
 _atom_site_fract_z
 _atom_site_occupancy
  Ba  Ba0  1  0.759878  0.251389  0.496446  1
  Ba  Ba1  1  0.540689  0.654665  0.692443  1
  Ba  Ba2  1  0.934282  0.834274  0.300631  1
  Ba  Ba3  1  0.153204  0.462793  0.102943  1
  Ba  Ba4  1  0.360002  0.044897  0.907436  1
  Ba  Ba5  1  0.862538  0.547435  0.907436  1
  Ba  Ba6  1  0.640151  0.949740  0.102945  1
  Ba  Ba7  1  0.037778  0.151754  0.692441  1
  Ba  Ba8  1  0.245058  0.736569  0.496445  1
  Ba  Ba9  1  0.466357  0.366350  0.300631  1
  Li  Li10  1  0.804459  0.400755  0.205215  1
  Li  Li11  1  0.198925  0.598226  0.797149  1
  Li  Li12  1  0.594636  0.801446  0.396079  1
  Dy  Dy13  1  0.399727  0.200945  0.600672  1
  Te  Te14  1  0.302828  0.900851  0.203678  1
  Te  Te15  1  0.098241  0.300438  0.398677  1
  Te  Te16  1  0.498666  0.500890  0.999558  1
  Te  Te17  1  0.698987  0.100004  0.798994  1
  Te  Te18  1  0.901634  0.698660  0.600294  1
  Te  Te19  1  0.000413  0.000339  0.000753  1
  O  O20  1  0.528907  0.134787  0.201509  1
  O  O21  1  0.330251  0.526144  0.394815  1
  O  O22  1  0.742295  0.742021  0.998501  1
  O  O23  1  0.933197  0.330355  0.800642  1
  O  O24  1  0.136904  0.937459  0.603829  1
  O  O25  1  0.252145  0.762574  0.014720  1
  O  O26  1  0.051470  0.150875  0.202346  1
  O  O27  1  0.451735  0.360421  0.812156  1
  O  O28  1  0.655716  0.959793  0.615509  1
  O  O29  1  0.854748  0.560228  0.414978  1
  O  O30  1  0.154111  0.950507  0.104619  1
  O  O31  1  0.958326  0.342664  0.300989  1
  O  O32  1  0.360952  0.545200  0.906151  1
  O  O33  1  0.558275  0.146554  0.704831  1
  O  O34  1  0.764575  0.748357  0.512933  1
  O  O35  1  0.066722  0.672602  0.201509  1
  O  O36  1  0.868669  0.064564  0.394816  1
  O  O37  1  0.256481  0.256208  0.998501  1
  O  O38  1  0.470287  0.867443  0.800641  1
  O  O39  1  0.666370  0.466925  0.603829  1
  O  O40  1  0.344593  0.043362  0.387956  1
  O  O41  1  0.146102  0.439027  0.585128  1
  O  O42  1  0.546554  0.639007  0.185560  1
  O  O43  1  0.747530  0.238194  0.985722  1
  O  O44  1  0.949699  0.845246  0.794945  1
  O  O45  1  0.441444  0.856329  0.297773  1
  O  O46  1  0.239048  0.250737  0.489786  1
  O  O47  1  0.635898  0.452583  0.088481  1
  O  O48  1  0.847845  0.050490  0.898335  1
  O  O49  1  0.040699  0.656925  0.697625  1
