# generated using pymatgen
data_BaCd10Pd
_symmetry_space_group_name_H-M   'P 1'
_cell_length_a   9.45293598
_cell_length_b   9.45293464
_cell_length_c   9.46033182
_cell_angle_alpha   99.84994074
_cell_angle_beta   99.84997179
_cell_angle_gamma   132.03052089
_symmetry_Int_Tables_number   1
_chemical_formula_structural   BaCd10Pd
_chemical_formula_sum   'Ba2 Cd20 Pd2'
_cell_volume   569.60877202
_cell_formula_units_Z   2
loop_
 _symmetry_equiv_pos_site_id
 _symmetry_equiv_pos_as_xyz
  1  'x, y, z'
loop_
 _atom_site_type_symbol
 _atom_site_label
 _atom_site_symmetry_multiplicity
 _atom_site_fract_x
 _atom_site_fract_y
 _atom_site_fract_z
 _atom_site_occupancy
  Ba  Ba0  1  0.749299  0.250701  0.500000  1
  Ba  Ba1  1  0.500701  0.499299  0.000000  1
  Cd  Cd2  1  0.925929  0.018342  0.327583  1
  Cd  Cd3  1  0.683123  0.613895  0.680555  1
  Cd  Cd4  1  0.259228  0.740772  0.500000  1
  Cd  Cd5  1  0.990772  0.009228  0.000000  1
  Cd  Cd6  1  0.125000  0.875000  0.250000  1
  Cd  Cd7  1  0.125000  0.875000  0.750000  1
  Cd  Cd8  1  0.922445  0.594067  0.913760  1
  Cd  Cd9  1  0.863895  0.433123  0.180555  1
  Cd  Cd10  1  0.268342  0.675929  0.827583  1
  Cd  Cd11  1  0.689160  0.010406  0.077078  1
  Cd  Cd12  1  0.405933  0.077555  0.086240  1
  Cd  Cd13  1  0.989594  0.310840  0.922922  1
  Cd  Cd14  1  0.566877  0.136105  0.819445  1
  Cd  Cd15  1  0.324071  0.731658  0.172417  1
  Cd  Cd16  1  0.327555  0.155933  0.586240  1
  Cd  Cd17  1  0.386105  0.316877  0.319445  1
  Cd  Cd18  1  0.981658  0.074071  0.672417  1
  Cd  Cd19  1  0.560840  0.739594  0.422922  1
  Cd  Cd20  1  0.844067  0.672445  0.413760  1
  Cd  Cd21  1  0.260406  0.439160  0.577078  1
  Pd  Pd22  1  0.125000  0.375000  0.250000  1
  Pd  Pd23  1  0.625000  0.875000  0.750000  1
