# generated using pymatgen
data_TbHf2FeCo8
_symmetry_space_group_name_H-M   'P 1'
_cell_length_a   8.33644392
_cell_length_b   8.33644336
_cell_length_c   8.33644502
_cell_angle_alpha   34.28265181
_cell_angle_beta   34.28265700
_cell_angle_gamma   34.28264752
_symmetry_Int_Tables_number   1
_chemical_formula_structural   TbHf2FeCo8
_chemical_formula_sum   'Tb1 Hf2 Fe1 Co8'
_cell_volume   163.92716743
_cell_formula_units_Z   1
loop_
 _symmetry_equiv_pos_site_id
 _symmetry_equiv_pos_as_xyz
  1  'x, y, z'
loop_
 _atom_site_type_symbol
 _atom_site_label
 _atom_site_symmetry_multiplicity
 _atom_site_fract_x
 _atom_site_fract_y
 _atom_site_fract_z
 _atom_site_occupancy
  Tb  Tb0  1  0.000000  0.000000  0.000000  1
  Hf  Hf1  1  0.140483  0.140483  0.140483  1
  Hf  Hf2  1  0.859517  0.859517  0.859517  1
  Fe  Fe3  1  0.500000  0.500000  0.500000  1
  Co  Co4  1  0.334478  0.334478  0.334478  1
  Co  Co5  1  0.665522  0.665522  0.665522  1
  Co  Co6  1  0.079700  0.588022  0.588022  1
  Co  Co7  1  0.588022  0.588022  0.079700  1
  Co  Co8  1  0.588022  0.079700  0.588022  1
  Co  Co9  1  0.411978  0.920300  0.411978  1
  Co  Co10  1  0.920300  0.411978  0.411978  1
  Co  Co11  1  0.411978  0.411978  0.920300  1
