# generated using pymatgen
data_La16InGa5Co2
_symmetry_space_group_name_H-M   'P 1'
_cell_length_a   10.62884500
_cell_length_b   10.65273077
_cell_length_c   7.16248600
_cell_angle_alpha   89.94775318
_cell_angle_beta   90.00000000
_cell_angle_gamma   119.92585872
_symmetry_Int_Tables_number   1
_chemical_formula_structural   La16InGa5Co2
_chemical_formula_sum   'La16 In1 Ga5 Co2'
_cell_volume   702.85409231
_cell_formula_units_Z   1
loop_
 _symmetry_equiv_pos_site_id
 _symmetry_equiv_pos_as_xyz
  1  'x, y, z'
loop_
 _atom_site_type_symbol
 _atom_site_label
 _atom_site_symmetry_multiplicity
 _atom_site_fract_x
 _atom_site_fract_y
 _atom_site_fract_z
 _atom_site_occupancy
  La  La0  1  0.827483  0.654965  0.506975  1
  La  La1  1  0.342478  0.170776  0.492381  1
  La  La2  1  0.828297  0.170776  0.492381  1
  La  La3  1  0.171815  0.343630  0.995090  1
  La  La4  1  0.651354  0.833874  0.991013  1
  La  La5  1  0.182521  0.833874  0.991013  1
  La  La6  1  0.661689  0.323378  0.178690  1
  La  La7  1  0.333519  0.667038  0.675797  1
  La  La8  1  0.540919  0.081837  0.786577  1
  La  La9  1  0.923944  0.455123  0.781294  1
  La  La10  1  0.531181  0.455123  0.781294  1
  La  La11  1  0.459784  0.919568  0.291549  1
  La  La12  1  0.078765  0.540192  0.283487  1
  La  La13  1  0.461428  0.540192  0.283487  1
  La  La14  1  0.002392  0.004784  0.782972  1
  La  La15  1  0.002090  0.004179  0.284560  1
  In  In16  1  0.834671  0.669341  0.034557  1
  Ga  Ga17  1  0.328059  0.165687  0.037366  1
  Ga  Ga18  1  0.837629  0.165687  0.037366  1
  Ga  Ga19  1  0.165241  0.330484  0.537100  1
  Ga  Ga20  1  0.671721  0.835790  0.535949  1
  Ga  Ga21  1  0.164068  0.835790  0.535949  1
  Co  Co22  1  0.665050  0.330097  0.554983  1
  Co  Co23  1  0.333905  0.667811  0.054411  1
