# generated using pymatgen
data_K2BaAs6Ru5Pt
_symmetry_space_group_name_H-M   'P 1'
_cell_length_a   9.22795692
_cell_length_b   9.22795675
_cell_length_c   7.15196603
_cell_angle_alpha   67.14841202
_cell_angle_beta   67.14841403
_cell_angle_gamma   36.82589560
_symmetry_Int_Tables_number   1
_chemical_formula_structural   K2BaAs6Ru5Pt
_chemical_formula_sum   'K2 Ba1 As6 Ru5 Pt1'
_cell_volume   333.06425057
_cell_formula_units_Z   1
loop_
 _symmetry_equiv_pos_site_id
 _symmetry_equiv_pos_as_xyz
  1  'x, y, z'
loop_
 _atom_site_type_symbol
 _atom_site_label
 _atom_site_symmetry_multiplicity
 _atom_site_fract_x
 _atom_site_fract_y
 _atom_site_fract_z
 _atom_site_occupancy
  K  K0  1  0.672227  0.668555  0.003276  1
  K  K1  1  0.331445  0.327773  0.996724  1
  Ba  Ba2  1  0.996095  0.003905  0.000000  1
  As  As3  1  0.888486  0.869941  0.702769  1
  As  As4  1  0.216330  0.217122  0.702405  1
  As  As5  1  0.543243  0.560838  0.705185  1
  As  As6  1  0.439162  0.456757  0.294815  1
  As  As7  1  0.782878  0.783670  0.297595  1
  As  As8  1  0.130059  0.111514  0.297231  1
  Ru  Ru9  1  0.081966  0.582602  0.496824  1
  Ru  Ru10  1  0.417398  0.918034  0.503176  1
  Ru  Ru11  1  0.584582  0.084869  0.497086  1
  Ru  Ru12  1  0.915131  0.415418  0.502914  1
  Ru  Ru13  1  0.250630  0.749370  0.500000  1
  Pt  Pt14  1  0.750368  0.249632  0.500000  1
