# generated using pymatgen
data_Ca3Pr17Si15Pd
_symmetry_space_group_name_H-M   'P 1'
_cell_length_a   7.96722589
_cell_length_b   7.91184595
_cell_length_c   15.16428181
_cell_angle_alpha   89.97664033
_cell_angle_beta   89.64293246
_cell_angle_gamma   90.20918351
_symmetry_Int_Tables_number   1
_chemical_formula_structural   Ca3Pr17Si15Pd
_chemical_formula_sum   'Ca3 Pr17 Si15 Pd1'
_cell_volume   955.86251683
_cell_formula_units_Z   1
loop_
 _symmetry_equiv_pos_site_id
 _symmetry_equiv_pos_as_xyz
  1  'x, y, z'
loop_
 _atom_site_type_symbol
 _atom_site_label
 _atom_site_symmetry_multiplicity
 _atom_site_fract_x
 _atom_site_fract_y
 _atom_site_fract_z
 _atom_site_occupancy
  Ca  Ca0  1  0.310278  0.309342  0.999718  1
  Ca  Ca1  1  0.189602  0.809413  0.250440  1
  Ca  Ca2  1  0.809070  0.190680  0.749282  1
  Pr  Pr3  1  0.692589  0.687630  0.499500  1
  Pr  Pr4  1  0.375752  0.008882  0.447665  1
  Pr  Pr5  1  0.493101  0.871777  0.700723  1
  Pr  Pr6  1  0.508898  0.124361  0.198158  1
  Pr  Pr7  1  0.873595  0.488928  0.298086  1
  Pr  Pr8  1  0.121971  0.510988  0.801507  1
  Pr  Pr9  1  0.626521  0.990843  0.949875  1
  Pr  Pr10  1  0.000126  0.375069  0.549858  1
  Pr  Pr11  1  0.990737  0.624927  0.050733  1
  Pr  Pr12  1  0.132209  0.990341  0.874433  1
  Pr  Pr13  1  0.513705  0.629480  0.125325  1
  Pr  Pr14  1  0.477230  0.366567  0.629247  1
  Pr  Pr15  1  0.629147  0.513644  0.875600  1
  Pr  Pr16  1  0.372851  0.482671  0.373816  1
  Pr  Pr17  1  0.873359  0.017968  0.375802  1
  Pr  Pr18  1  0.986403  0.124931  0.124001  1
  Pr  Pr19  1  0.020795  0.877194  0.624244  1
  Si  Si20  1  0.333275  0.699535  0.948361  1
  Si  Si21  1  0.662507  0.301052  0.451035  1
  Si  Si22  1  0.703159  0.335556  0.052826  1
  Si  Si23  1  0.304322  0.668775  0.548348  1
  Si  Si24  1  0.798835  0.835731  0.199539  1
  Si  Si25  1  0.164454  0.201872  0.298710  1
  Si  Si26  1  0.837703  0.799534  0.801050  1
  Si  Si27  1  0.287030  0.919081  0.058232  1
  Si  Si28  1  0.580774  0.786045  0.309174  1
  Si  Si29  1  0.430893  0.206885  0.814731  1
  Si  Si30  1  0.786749  0.582179  0.690347  1
  Si  Si31  1  0.212200  0.421091  0.189530  1
  Si  Si32  1  0.704354  0.074179  0.559218  1
  Si  Si33  1  0.919696  0.287461  0.941928  1
  Si  Si34  1  0.079544  0.713258  0.440880  1
  Pd  Pd35  1  0.196566  0.172132  0.698075  1
