# generated using pymatgen
data_Y2Er4MgCo17P12
_symmetry_space_group_name_H-M   'P 1'
_cell_length_a   3.70503800
_cell_length_b   10.55012100
_cell_length_c   12.21303700
_cell_angle_alpha   90.00000000
_cell_angle_beta   90.00000000
_cell_angle_gamma   90.00000000
_symmetry_Int_Tables_number   1
_chemical_formula_structural   Y2Er4MgCo17P12
_chemical_formula_sum   'Y2 Er4 Mg1 Co17 P12'
_cell_volume   477.39050842
_cell_formula_units_Z   1
loop_
 _symmetry_equiv_pos_site_id
 _symmetry_equiv_pos_as_xyz
  1  'x, y, z'
loop_
 _atom_site_type_symbol
 _atom_site_label
 _atom_site_symmetry_multiplicity
 _atom_site_fract_x
 _atom_site_fract_y
 _atom_site_fract_z
 _atom_site_occupancy
  Y  Y0  1  0.750000  0.250000  0.474720  1
  Y  Y1  1  0.250000  0.750000  0.521937  1
  Er  Er2  1  0.250000  0.927927  0.792740  1
  Er  Er3  1  0.250000  0.572073  0.792740  1
  Er  Er4  1  0.750000  0.067694  0.205248  1
  Er  Er5  1  0.750000  0.432306  0.205248  1
  Mg  Mg6  1  0.250000  0.250000  0.847023  1
  Co  Co7  1  0.750000  0.750000  0.161194  1
  Co  Co8  1  0.250000  0.250000  0.294444  1
  Co  Co9  1  0.750000  0.750000  0.704954  1
  Co  Co10  1  0.750000  0.250000  0.013788  1
  Co  Co11  1  0.250000  0.750000  0.987957  1
  Co  Co12  1  0.250000  0.420911  0.007028  1
  Co  Co13  1  0.250000  0.079089  0.007028  1
  Co  Co14  1  0.750000  0.586672  0.998339  1
  Co  Co15  1  0.750000  0.913328  0.998339  1
  Co  Co16  1  0.250000  0.454425  0.567204  1
  Co  Co17  1  0.250000  0.045575  0.567204  1
  Co  Co18  1  0.750000  0.547519  0.429314  1
  Co  Co19  1  0.750000  0.952481  0.429314  1
  Co  Co20  1  0.250000  0.870330  0.290981  1
  Co  Co21  1  0.250000  0.629670  0.290981  1
  Co  Co22  1  0.750000  0.126757  0.707315  1
  Co  Co23  1  0.750000  0.373243  0.707315  1
  P  P24  1  0.250000  0.250000  0.116495  1
  P  P25  1  0.750000  0.750000  0.883749  1
  P  P26  1  0.250000  0.250000  0.646366  1
  P  P27  1  0.750000  0.750000  0.344583  1
  P  P28  1  0.250000  0.440284  0.381921  1
  P  P29  1  0.250000  0.059716  0.381921  1
  P  P30  1  0.750000  0.560785  0.614979  1
  P  P31  1  0.750000  0.939215  0.614979  1
  P  P32  1  0.250000  0.900903  0.110146  1
  P  P33  1  0.250000  0.599097  0.110146  1
  P  P34  1  0.750000  0.086535  0.896181  1
  P  P35  1  0.750000  0.413465  0.896181  1
