# generated using pymatgen
data_Ho4Sn3Sb3Rh7
_symmetry_space_group_name_H-M   'P 1'
_cell_length_a   7.60067531
_cell_length_b   7.59320420
_cell_length_c   7.60067544
_cell_angle_alpha   109.45131597
_cell_angle_beta   109.49112981
_cell_angle_gamma   109.45130740
_symmetry_Int_Tables_number   1
_chemical_formula_structural   Ho4Sn3Sb3Rh7
_chemical_formula_sum   'Ho4 Sn3 Sb3 Rh7'
_cell_volume   337.76462692
_cell_formula_units_Z   1
loop_
 _symmetry_equiv_pos_site_id
 _symmetry_equiv_pos_as_xyz
  1  'x, y, z'
loop_
 _atom_site_type_symbol
 _atom_site_label
 _atom_site_symmetry_multiplicity
 _atom_site_fract_x
 _atom_site_fract_y
 _atom_site_fract_z
 _atom_site_occupancy
  Ho  Ho0  1  0.502312  0.997822  0.000000  1
  Ho  Ho1  1  0.000000  0.489967  0.000000  1
  Ho  Ho2  1  0.000000  0.997822  0.502312  1
  Ho  Ho3  1  0.497688  0.495509  0.497688  1
  Sn  Sn4  1  0.308084  0.994536  0.308084  1
  Sn  Sn5  1  0.000000  0.686451  0.691916  1
  Sn  Sn6  1  0.691916  0.686451  0.000000  1
  Sb  Sb7  1  0.675976  0.995666  0.675976  1
  Sb  Sb8  1  0.000000  0.319688  0.324024  1
  Sb  Sb9  1  0.324024  0.319688  0.000000  1
  Rh  Rh10  1  0.252879  0.502416  0.752928  1
  Rh  Rh11  1  0.500050  0.249538  0.747121  1
  Rh  Rh12  1  0.747121  0.249538  0.500050  1
  Rh  Rh13  1  0.499950  0.749488  0.247072  1
  Rh  Rh14  1  0.000000  0.013521  0.000000  1
  Rh  Rh15  1  0.247072  0.749488  0.499950  1
  Rh  Rh16  1  0.752928  0.502416  0.252879  1
