# generated using pymatgen
data_Hf12Mn3Al9N4
_symmetry_space_group_name_H-M   'P 1'
_cell_length_a   8.45649962
_cell_length_b   8.45650089
_cell_length_c   8.48265700
_cell_angle_alpha   60.10195400
_cell_angle_beta   60.10195688
_cell_angle_gamma   60.00000016
_symmetry_Int_Tables_number   1
_chemical_formula_structural   Hf12Mn3Al9N4
_chemical_formula_sum   'Hf12 Mn3 Al9 N4'
_cell_volume   429.60150844
_cell_formula_units_Z   1
loop_
 _symmetry_equiv_pos_site_id
 _symmetry_equiv_pos_as_xyz
  1  'x, y, z'
loop_
 _atom_site_type_symbol
 _atom_site_label
 _atom_site_symmetry_multiplicity
 _atom_site_fract_x
 _atom_site_fract_y
 _atom_site_fract_z
 _atom_site_occupancy
  Hf  Hf0  1  0.809682  0.809682  0.194245  1
  Hf  Hf1  1  0.192261  0.192261  0.808318  1
  Hf  Hf2  1  0.807160  0.192261  0.808318  1
  Hf  Hf3  1  0.186392  0.809682  0.194245  1
  Hf  Hf4  1  0.192261  0.807160  0.808318  1
  Hf  Hf5  1  0.809682  0.186392  0.194245  1
  Hf  Hf6  1  0.440318  0.440318  0.055755  1
  Hf  Hf7  1  0.057739  0.057739  0.441682  1
  Hf  Hf8  1  0.442840  0.057739  0.441682  1
  Hf  Hf9  1  0.063608  0.440318  0.055755  1
  Hf  Hf10  1  0.057739  0.442840  0.441682  1
  Hf  Hf11  1  0.440318  0.063608  0.055755  1
  Mn  Mn12  1  0.125000  0.625000  0.625000  1
  Mn  Mn13  1  0.625000  0.125000  0.625000  1
  Mn  Mn14  1  0.625000  0.625000  0.625000  1
  Al  Al15  1  0.625000  0.625000  0.125000  1
  Al  Al16  1  0.742629  0.411933  0.433508  1
  Al  Al17  1  0.411933  0.742629  0.433508  1
  Al  Al18  1  0.418389  0.418389  0.744834  1
  Al  Al19  1  0.411933  0.411933  0.433508  1
  Al  Al20  1  0.507371  0.838067  0.816492  1
  Al  Al21  1  0.838067  0.507371  0.816492  1
  Al  Al22  1  0.831611  0.831611  0.505166  1
  Al  Al23  1  0.838067  0.838067  0.816492  1
  N  N24  1  0.625000  0.125000  0.125000  1
  N  N25  1  0.125000  0.625000  0.125000  1
  N  N26  1  0.125000  0.125000  0.625000  1
  N  N27  1  0.125000  0.125000  0.125000  1
