# generated using pymatgen
data_Cs6Tl(AsBr6)3
_symmetry_space_group_name_H-M   'P 1'
_cell_length_a   7.91506700
_cell_length_b   7.91506753
_cell_length_c   20.01741700
_cell_angle_alpha   90.00000000
_cell_angle_beta   90.00000000
_cell_angle_gamma   119.99999359
_symmetry_Int_Tables_number   1
_chemical_formula_structural   Cs6Tl(AsBr6)3
_chemical_formula_sum   'Cs6 Tl1 As3 Br18'
_cell_volume   1086.04523981
_cell_formula_units_Z   1
loop_
 _symmetry_equiv_pos_site_id
 _symmetry_equiv_pos_as_xyz
  1  'x, y, z'
loop_
 _atom_site_type_symbol
 _atom_site_label
 _atom_site_symmetry_multiplicity
 _atom_site_fract_x
 _atom_site_fract_y
 _atom_site_fract_z
 _atom_site_occupancy
  Cs  Cs0  1  0.333333  0.666667  0.073832  1
  Cs  Cs1  1  0.666667  0.333333  0.924416  1
  Cs  Cs2  1  0.666667  0.333333  0.574635  1
  Cs  Cs3  1  0.333333  0.666667  0.418139  1
  Cs  Cs4  1  0.000000  0.000000  0.250161  1
  Cs  Cs5  1  0.000000  0.000000  0.756020  1
  Tl  Tl6  1  0.333333  0.666667  0.841931  1
  As  As7  1  0.333333  0.666667  0.655258  1
  As  As8  1  0.666667  0.333333  0.341994  1
  As  As9  1  0.666667  0.333333  0.157988  1
  Br  Br10  1  0.177176  0.354353  0.588000  1
  Br  Br11  1  0.823559  0.647118  0.411547  1
  Br  Br12  1  0.645647  0.822824  0.588000  1
  Br  Br13  1  0.822946  0.645893  0.089798  1
  Br  Br14  1  0.352882  0.176441  0.411547  1
  Br  Br15  1  0.164680  0.329359  0.913110  1
  Br  Br16  1  0.177176  0.822824  0.588000  1
  Br  Br17  1  0.354107  0.177054  0.089798  1
  Br  Br18  1  0.823559  0.176441  0.411547  1
  Br  Br19  1  0.670641  0.835320  0.913110  1
  Br  Br20  1  0.822946  0.177054  0.089798  1
  Br  Br21  1  0.164680  0.835320  0.913110  1
  Br  Br22  1  0.506330  0.012658  0.251485  1
  Br  Br23  1  0.495365  0.990730  0.747935  1
  Br  Br24  1  0.987342  0.493670  0.251485  1
  Br  Br25  1  0.009270  0.504635  0.747935  1
  Br  Br26  1  0.506330  0.493670  0.251485  1
  Br  Br27  1  0.495365  0.504635  0.747935  1
