# generated using pymatgen
data_Pa2Tc6P7Rh6
_symmetry_space_group_name_H-M   'P 1'
_cell_length_a   9.57078648
_cell_length_b   9.58681459
_cell_length_c   3.93267300
_cell_angle_alpha   90.00000000
_cell_angle_beta   90.00000000
_cell_angle_gamma   120.60417319
_symmetry_Int_Tables_number   1
_chemical_formula_structural   Pa2Tc6P7Rh6
_chemical_formula_sum   'Pa2 Tc6 P7 Rh6'
_cell_volume   310.57328237
_cell_formula_units_Z   1
loop_
 _symmetry_equiv_pos_site_id
 _symmetry_equiv_pos_as_xyz
  1  'x, y, z'
loop_
 _atom_site_type_symbol
 _atom_site_label
 _atom_site_symmetry_multiplicity
 _atom_site_fract_x
 _atom_site_fract_y
 _atom_site_fract_z
 _atom_site_occupancy
  Pa  Pa0  1  0.677573  0.339269  0.000000  1
  Pa  Pa1  1  0.327099  0.664528  0.500000  1
  Tc  Tc2  1  0.839849  0.114615  0.000000  1
  Tc  Tc3  1  0.880922  0.729725  0.000000  1
  Tc  Tc4  1  0.949174  0.557160  0.500000  1
  Tc  Tc5  1  0.092420  0.219315  0.500000  1
  Tc  Tc6  1  0.769757  0.874446  0.500000  1
  Tc  Tc7  1  0.125453  0.910057  0.500000  1
  P  P8  1  0.295812  0.405720  0.000000  1
  P  P9  1  0.590628  0.885224  0.000000  1
  P  P10  1  0.104215  0.698478  0.000000  1
  P  P11  1  0.400753  0.115099  0.500000  1
  P  P12  1  0.885329  0.284221  0.500000  1
  P  P13  1  0.723323  0.603528  0.500000  1
  P  P14  1  0.001468  0.003737  0.000000  1
  Rh  Rh15  1  0.074979  0.435619  0.000000  1
  Rh  Rh16  1  0.556765  0.630562  0.000000  1
  Rh  Rh17  1  0.365210  0.922795  0.000000  1
  Rh  Rh18  1  0.281208  0.159556  0.000000  1
  Rh  Rh19  1  0.449672  0.390174  0.500000  1
  Rh  Rh20  1  0.608391  0.056170  0.500000  1
