# generated using pymatgen
data_Ho10In3Bi2Pb
_symmetry_space_group_name_H-M   'P 1'
_cell_length_a   9.01337945
_cell_length_b   9.00463387
_cell_length_c   6.61484000
_cell_angle_alpha   90.00000000
_cell_angle_beta   90.00000000
_cell_angle_gamma   119.90527932
_symmetry_Int_Tables_number   1
_chemical_formula_structural   Ho10In3Bi2Pb
_chemical_formula_sum   'Ho10 In3 Bi2 Pb1'
_cell_volume   465.39039785
_cell_formula_units_Z   1
loop_
 _symmetry_equiv_pos_site_id
 _symmetry_equiv_pos_as_xyz
  1  'x, y, z'
loop_
 _atom_site_type_symbol
 _atom_site_label
 _atom_site_symmetry_multiplicity
 _atom_site_fract_x
 _atom_site_fract_y
 _atom_site_fract_z
 _atom_site_occupancy
  Ho  Ho0  1  0.672333  0.335537  0.004364  1
  Ho  Ho1  1  0.326032  0.667523  0.004730  1
  Ho  Ho2  1  0.326032  0.667523  0.495270  1
  Ho  Ho3  1  0.672333  0.335537  0.495636  1
  Ho  Ho4  1  0.769819  0.760721  0.750000  1
  Ho  Ho5  1  0.230304  0.990340  0.750000  1
  Ho  Ho6  1  0.999373  0.241270  0.750000  1
  Ho  Ho7  1  0.234855  0.235972  0.250000  1
  Ho  Ho8  1  0.764647  0.005089  0.250000  1
  Ho  Ho9  1  0.004316  0.763600  0.250000  1
  In  In10  1  0.999060  0.599106  0.750000  1
  In  In11  1  0.396330  0.002724  0.250000  1
  In  In12  1  0.000311  0.395970  0.250000  1
  Bi  Bi13  1  0.394188  0.393601  0.750000  1
  Bi  Bi14  1  0.604802  0.998359  0.750000  1
  Pb  Pb15  1  0.605265  0.607130  0.250000  1
