# generated using pymatgen
data_NiB2F8
_symmetry_space_group_name_H-M   'P 1'
_cell_length_a   4.93972892
_cell_length_b   4.79894615
_cell_length_c   6.56840679
_cell_angle_alpha   94.59729779
_cell_angle_beta   89.55701747
_cell_angle_gamma   115.81908400
_symmetry_Int_Tables_number   1
_chemical_formula_structural   NiB2F8
_chemical_formula_sum   'Ni1 B2 F8'
_cell_volume   139.64858967
_cell_formula_units_Z   1
loop_
 _symmetry_equiv_pos_site_id
 _symmetry_equiv_pos_as_xyz
  1  'x, y, z'
loop_
 _atom_site_type_symbol
 _atom_site_label
 _atom_site_symmetry_multiplicity
 _atom_site_fract_x
 _atom_site_fract_y
 _atom_site_fract_z
 _atom_site_occupancy
  Ni  Ni0  1  0.998161  0.657000  0.151259  1
  B  B1  1  0.342050  0.270408  0.911055  1
  B  B2  1  0.654467  0.044435  0.391878  1
  F  F3  1  0.182256  0.939285  0.922898  1
  F  F4  1  0.690781  0.959450  0.576374  1
  F  F5  1  0.654970  0.356878  0.960602  1
  F  F6  1  0.813955  0.375604  0.380077  1
  F  F7  1  0.305192  0.355727  0.726972  1
  F  F8  1  0.341866  0.957832  0.341823  1
  F  F9  1  0.760817  0.901854  0.226963  1
  F  F10  1  0.236352  0.413438  0.076235  1
