# generated using pymatgen
data_LaEu3(Pd2O5)2
_symmetry_space_group_name_H-M   'P 1'
_cell_length_a   6.63035114
_cell_length_b   6.65459191
_cell_length_c   5.62771200
_cell_angle_alpha   90.00000000
_cell_angle_beta   90.00000000
_cell_angle_gamma   89.83282514
_symmetry_Int_Tables_number   1
_chemical_formula_structural   LaEu3(Pd2O5)2
_chemical_formula_sum   'La1 Eu3 Pd4 O10'
_cell_volume   248.30643380
_cell_formula_units_Z   1
loop_
 _symmetry_equiv_pos_site_id
 _symmetry_equiv_pos_as_xyz
  1  'x, y, z'
loop_
 _atom_site_type_symbol
 _atom_site_label
 _atom_site_symmetry_multiplicity
 _atom_site_fract_x
 _atom_site_fract_y
 _atom_site_fract_z
 _atom_site_occupancy
  La  La0  1  0.103030  0.260400  0.000000  1
  Eu  Eu1  1  0.738177  0.102081  0.500000  1
  Eu  Eu2  1  0.894199  0.741867  0.000000  1
  Eu  Eu3  1  0.259206  0.894609  0.500000  1
  Pd  Pd4  1  0.594617  0.308101  0.000000  1
  Pd  Pd5  1  0.309834  0.406269  0.500000  1
  Pd  Pd6  1  0.406514  0.693440  0.000000  1
  Pd  Pd7  1  0.690539  0.594341  0.500000  1
  O  O8  1  0.596529  0.802573  0.258678  1
  O  O9  1  0.801190  0.403267  0.756592  1
  O  O10  1  0.406397  0.196479  0.739652  1
  O  O11  1  0.406397  0.196479  0.260348  1
  O  O12  1  0.998562  0.997438  0.748816  1
  O  O13  1  0.199265  0.599688  0.756812  1
  O  O14  1  0.199265  0.599688  0.243188  1
  O  O15  1  0.596529  0.802573  0.741322  1
  O  O16  1  0.998562  0.997438  0.251184  1
  O  O17  1  0.801190  0.403267  0.243408  1
