# generated using pymatgen
data_CsLiYRe2H17
_symmetry_space_group_name_H-M   'P 1'
_cell_length_a   5.17423445
_cell_length_b   5.17423514
_cell_length_c   10.08987828
_cell_angle_alpha   94.61202379
_cell_angle_beta   85.38797557
_cell_angle_gamma   123.89262071
_symmetry_Int_Tables_number   1
_chemical_formula_structural   CsLiYRe2H17
_chemical_formula_sum   'Cs1 Li1 Y1 Re2 H17'
_cell_volume   223.30070475
_cell_formula_units_Z   1
loop_
 _symmetry_equiv_pos_site_id
 _symmetry_equiv_pos_as_xyz
  1  'x, y, z'
loop_
 _atom_site_type_symbol
 _atom_site_label
 _atom_site_symmetry_multiplicity
 _atom_site_fract_x
 _atom_site_fract_y
 _atom_site_fract_z
 _atom_site_occupancy
  Cs  Cs0  1  0.985351  0.014649  0.498360  1
  Li  Li1  1  0.659364  0.340636  0.204196  1
  Y  Y2  1  0.975560  0.024440  0.983738  1
  Re  Re3  1  0.333707  0.666293  0.198229  1
  Re  Re4  1  0.640894  0.359106  0.800681  1
  H  H5  1  0.522014  0.477986  0.941957  1
  H  H6  1  0.432415  0.567585  0.332768  1
  H  H7  1  0.578764  0.421236  0.650927  1
  H  H8  1  0.505513  0.981906  0.308617  1
  H  H9  1  0.966176  0.523012  0.699596  1
  H  H10  1  0.519858  0.942198  0.078756  1
  H  H11  1  0.952838  0.568731  0.902364  1
  H  H12  1  0.476988  0.033824  0.699596  1
  H  H13  1  0.018094  0.494487  0.308617  1
  H  H14  1  0.431269  0.047162  0.902364  1
  H  H15  1  0.057802  0.480142  0.078755  1
  H  H16  1  0.708945  0.757402  0.173305  1
  H  H17  1  0.753898  0.735979  0.785140  1
  H  H18  1  0.264021  0.246102  0.785140  1
  H  H19  1  0.242598  0.291055  0.173305  1
  H  H20  1  0.147575  0.852425  0.195859  1
  H  H21  1  0.826361  0.173639  0.797734  1
