# generated using pymatgen
data_Dy3TmCo2(Si2Ni3)6
_symmetry_space_group_name_H-M   'P 1'
_cell_length_a   3.76976300
_cell_length_b   6.60517747
_cell_length_c   18.70286366
_cell_angle_alpha   89.90997938
_cell_angle_beta   90.00000000
_cell_angle_gamma   90.00000000
_symmetry_Int_Tables_number   1
_chemical_formula_structural   Dy3TmCo2(Si2Ni3)6
_chemical_formula_sum   'Dy3 Tm1 Co2 Si12 Ni18'
_cell_volume   465.69986336
_cell_formula_units_Z   1
loop_
 _symmetry_equiv_pos_site_id
 _symmetry_equiv_pos_as_xyz
  1  'x, y, z'
loop_
 _atom_site_type_symbol
 _atom_site_label
 _atom_site_symmetry_multiplicity
 _atom_site_fract_x
 _atom_site_fract_y
 _atom_site_fract_z
 _atom_site_occupancy
  Dy  Dy0  1  0.750000  0.126318  0.643098  1
  Dy  Dy1  1  0.750000  0.373802  0.143747  1
  Dy  Dy2  1  0.250000  0.623290  0.856144  1
  Tm  Tm3  1  0.250000  0.877187  0.355868  1
  Co  Co4  1  0.750000  0.934847  0.794265  1
  Co  Co5  1  0.750000  0.564968  0.294598  1
  Si  Si6  1  0.250000  0.075825  0.087035  1
  Si  Si7  1  0.750000  0.918548  0.913641  1
  Si  Si8  1  0.750000  0.584882  0.413095  1
  Si  Si9  1  0.250000  0.423143  0.585515  1
  Si  Si10  1  0.250000  0.653741  0.074256  1
  Si  Si11  1  0.750000  0.340818  0.925713  1
  Si  Si12  1  0.750000  0.157283  0.424829  1
  Si  Si13  1  0.250000  0.846436  0.573883  1
  Si  Si14  1  0.250000  0.380449  0.262398  1
  Si  Si15  1  0.750000  0.625948  0.738623  1
  Si  Si16  1  0.750000  0.873248  0.239746  1
  Si  Si17  1  0.250000  0.120011  0.761945  1
  Ni  Ni18  1  0.250000  0.068861  0.207348  1
  Ni  Ni19  1  0.250000  0.430314  0.706054  1
  Ni  Ni20  1  0.250000  0.618895  0.483637  1
  Ni  Ni21  1  0.750000  0.388529  0.514865  1
  Ni  Ni22  1  0.750000  0.111852  0.016402  1
  Ni  Ni23  1  0.250000  0.883526  0.984623  1
  Ni  Ni24  1  0.250000  0.684843  0.200160  1
  Ni  Ni25  1  0.750000  0.316274  0.800199  1
  Ni  Ni26  1  0.750000  0.182437  0.300592  1
  Ni  Ni27  1  0.250000  0.815283  0.699399  1
  Ni  Ni28  1  0.250000  0.360164  0.383263  1
  Ni  Ni29  1  0.750000  0.646745  0.616237  1
  Ni  Ni30  1  0.750000  0.852838  0.117373  1
  Ni  Ni31  1  0.250000  0.139231  0.883019  1
  Ni  Ni32  1  0.250000  0.361882  0.005000  1
  Ni  Ni33  1  0.750000  0.632606  0.994985  1
  Ni  Ni34  1  0.750000  0.868109  0.494277  1
  Ni  Ni35  1  0.250000  0.136865  0.504173  1
