# generated using pymatgen
data_CeNdDyIn5
_symmetry_space_group_name_H-M   'P 1'
_cell_length_a   6.53038101
_cell_length_b   6.53038224
_cell_length_c   10.38333600
_cell_angle_alpha   90.00000000
_cell_angle_beta   90.00000000
_cell_angle_gamma   102.51289521
_symmetry_Int_Tables_number   1
_chemical_formula_structural   CeNdDyIn5
_chemical_formula_sum   'Ce2 Nd2 Dy2 In10'
_cell_volume   432.28867990
_cell_formula_units_Z   2
loop_
 _symmetry_equiv_pos_site_id
 _symmetry_equiv_pos_as_xyz
  1  'x, y, z'
loop_
 _atom_site_type_symbol
 _atom_site_label
 _atom_site_symmetry_multiplicity
 _atom_site_fract_x
 _atom_site_fract_y
 _atom_site_fract_z
 _atom_site_occupancy
  Ce  Ce0  1  0.205619  0.794381  0.500000  1
  Ce  Ce1  1  0.205619  0.794381  0.000000  1
  Nd  Nd2  1  0.794492  0.205508  0.500000  1
  Nd  Nd3  1  0.794492  0.205508  0.000000  1
  Dy  Dy4  1  0.626413  0.625665  0.250000  1
  Dy  Dy5  1  0.374335  0.373587  0.750000  1
  In  In6  1  0.009209  0.006512  0.250000  1
  In  In7  1  0.993488  0.990791  0.750000  1
  In  In8  1  0.308016  0.308650  0.046773  1
  In  In9  1  0.691350  0.691984  0.953227  1
  In  In10  1  0.308016  0.308650  0.453227  1
  In  In11  1  0.691350  0.691984  0.546773  1
  In  In12  1  0.494763  0.065510  0.250000  1
  In  In13  1  0.934490  0.505237  0.750000  1
  In  In14  1  0.498299  0.929947  0.750000  1
  In  In15  1  0.070053  0.501701  0.250000  1
