# generated using pymatgen
data_Sm4Ni2Hg3
_symmetry_space_group_name_H-M   'P 1'
_cell_length_a   3.69198200
_cell_length_b   7.46330422
_cell_length_c   8.09483667
_cell_angle_alpha   107.12564647
_cell_angle_beta   90.00000000
_cell_angle_gamma   90.00000000
_symmetry_Int_Tables_number   1
_chemical_formula_structural   Sm4Ni2Hg3
_chemical_formula_sum   'Sm4 Ni2 Hg3'
_cell_volume   213.15857624
_cell_formula_units_Z   1
loop_
 _symmetry_equiv_pos_site_id
 _symmetry_equiv_pos_as_xyz
  1  'x, y, z'
loop_
 _atom_site_type_symbol
 _atom_site_label
 _atom_site_symmetry_multiplicity
 _atom_site_fract_x
 _atom_site_fract_y
 _atom_site_fract_z
 _atom_site_occupancy
  Sm  Sm0  1  0.500000  0.915421  0.780824  1
  Sm  Sm1  1  0.500000  0.084579  0.219176  1
  Sm  Sm2  1  0.500000  0.392431  0.690910  1
  Sm  Sm3  1  0.500000  0.607569  0.309090  1
  Ni  Ni4  1  0.000000  0.653901  0.606990  1
  Ni  Ni5  1  0.000000  0.346099  0.393010  1
  Hg  Hg6  1  0.000000  0.704344  0.992027  1
  Hg  Hg7  1  0.000000  0.295656  0.007973  1
  Hg  Hg8  1  0.000000  0.000000  0.500000  1
