# generated using pymatgen
data_Y4MgSc3(B6Ir)4
_symmetry_space_group_name_H-M   'P 1'
_cell_length_a   3.55614000
_cell_length_b   9.00331411
_cell_length_c   11.37773140
_cell_angle_alpha   90.05678859
_cell_angle_beta   90.00000000
_cell_angle_gamma   90.00000000
_symmetry_Int_Tables_number   1
_chemical_formula_structural   Y4MgSc3(B6Ir)4
_chemical_formula_sum   'Y4 Mg1 Sc3 B24 Ir4'
_cell_volume   364.28116403
_cell_formula_units_Z   1
loop_
 _symmetry_equiv_pos_site_id
 _symmetry_equiv_pos_as_xyz
  1  'x, y, z'
loop_
 _atom_site_type_symbol
 _atom_site_label
 _atom_site_symmetry_multiplicity
 _atom_site_fract_x
 _atom_site_fract_y
 _atom_site_fract_z
 _atom_site_occupancy
  Y  Y0  1  0.500000  0.319258  0.414622  1
  Y  Y1  1  0.500000  0.680660  0.586538  1
  Y  Y2  1  0.500000  0.181108  0.913860  1
  Y  Y3  1  0.500000  0.818968  0.085746  1
  Mg  Mg4  1  0.500000  0.446780  0.121178  1
  Sc  Sc5  1  0.500000  0.554144  0.877545  1
  Sc  Sc6  1  0.500000  0.055066  0.624253  1
  Sc  Sc7  1  0.500000  0.945053  0.375818  1
  B  B8  1  0.000000  0.100345  0.473055  1
  B  B9  1  0.000000  0.899715  0.527097  1
  B  B10  1  0.000000  0.399168  0.973176  1
  B  B11  1  0.000000  0.600069  0.027334  1
  B  B12  1  0.000000  0.129453  0.318004  1
  B  B13  1  0.000000  0.870106  0.681456  1
  B  B14  1  0.000000  0.370638  0.819556  1
  B  B15  1  0.000000  0.628744  0.181467  1
  B  B16  1  0.000000  0.055309  0.066560  1
  B  B17  1  0.000000  0.945262  0.934300  1
  B  B18  1  0.000000  0.444540  0.565627  1
  B  B19  1  0.000000  0.555374  0.433454  1
  B  B20  1  0.000000  0.481815  0.284009  1
  B  B21  1  0.000000  0.517891  0.716184  1
  B  B22  1  0.000000  0.018867  0.784958  1
  B  B23  1  0.000000  0.981945  0.214899  1
  B  B24  1  0.000000  0.255230  0.081010  1
  B  B25  1  0.000000  0.744878  0.920114  1
  B  B26  1  0.000000  0.245481  0.580199  1
  B  B27  1  0.000000  0.754485  0.419230  1
  B  B28  1  0.000000  0.296014  0.234648  1
  B  B29  1  0.000000  0.704111  0.764930  1
  B  B30  1  0.000000  0.204596  0.735669  1
  B  B31  1  0.000000  0.794531  0.264944  1
  Ir  Ir32  1  0.500000  0.142715  0.182272  1
  Ir  Ir33  1  0.500000  0.859707  0.818005  1
  Ir  Ir34  1  0.500000  0.358764  0.679817  1
  Ir  Ir35  1  0.500000  0.639210  0.318464  1
