# generated using pymatgen
data_Yb2ZnNi3
_symmetry_space_group_name_H-M   'P 1'
_cell_length_a   4.96778644
_cell_length_b   5.13907507
_cell_length_c   5.13907400
_cell_angle_alpha   59.99999399
_cell_angle_beta   58.85270054
_cell_angle_gamma   58.85271231
_symmetry_Int_Tables_number   1
_chemical_formula_structural   Yb2ZnNi3
_chemical_formula_sum   'Yb2 Zn1 Ni3'
_cell_volume   91.13069204
_cell_formula_units_Z   1
loop_
 _symmetry_equiv_pos_site_id
 _symmetry_equiv_pos_as_xyz
  1  'x, y, z'
loop_
 _atom_site_type_symbol
 _atom_site_label
 _atom_site_symmetry_multiplicity
 _atom_site_fract_x
 _atom_site_fract_y
 _atom_site_fract_z
 _atom_site_occupancy
  Yb  Yb0  1  0.500073  0.499976  0.499976  1
  Yb  Yb1  1  0.749927  0.750024  0.750024  1
  Zn  Zn2  1  0.625000  0.125000  0.125000  1
  Ni  Ni3  1  0.125000  0.125000  0.125000  1
  Ni  Ni4  1  0.125000  0.625000  0.125000  1
  Ni  Ni5  1  0.125000  0.125000  0.625000  1
