# generated using pymatgen
data_YZr(Ni2As)4
_symmetry_space_group_name_H-M   'P 1'
_cell_length_a   7.18722583
_cell_length_b   7.18722583
_cell_length_c   3.77187700
_cell_angle_alpha   90.00000000
_cell_angle_beta   90.00000000
_cell_angle_gamma   90.72999098
_symmetry_Int_Tables_number   1
_chemical_formula_structural   YZr(Ni2As)4
_chemical_formula_sum   'Y1 Zr1 Ni8 As4'
_cell_volume   194.82507628
_cell_formula_units_Z   1
loop_
 _symmetry_equiv_pos_site_id
 _symmetry_equiv_pos_as_xyz
  1  'x, y, z'
loop_
 _atom_site_type_symbol
 _atom_site_label
 _atom_site_symmetry_multiplicity
 _atom_site_fract_x
 _atom_site_fract_y
 _atom_site_fract_z
 _atom_site_occupancy
  Y  Y0  1  0.000000  0.000000  0.500000  1
  Zr  Zr1  1  0.500000  0.500000  0.000000  1
  Ni  Ni2  1  0.587709  0.155186  0.500000  1
  Ni  Ni3  1  0.412291  0.844814  0.500000  1
  Ni  Ni4  1  0.089956  0.345436  0.000000  1
  Ni  Ni5  1  0.910044  0.654564  0.000000  1
  Ni  Ni6  1  0.155186  0.587709  0.500000  1
  Ni  Ni7  1  0.844814  0.412291  0.500000  1
  Ni  Ni8  1  0.345436  0.089956  0.000000  1
  Ni  Ni9  1  0.654564  0.910044  0.000000  1
  As  As10  1  0.710982  0.710982  0.500000  1
  As  As11  1  0.289018  0.289018  0.500000  1
  As  As12  1  0.224326  0.775674  0.000000  1
  As  As13  1  0.775674  0.224326  0.000000  1
