# generated using pymatgen
data_HoLuCS
_symmetry_space_group_name_H-M   'P 1'
_cell_length_a   6.61144097
_cell_length_b   6.61144040
_cell_length_c   6.61144100
_cell_angle_alpha   31.47191907
_cell_angle_beta   31.47192724
_cell_angle_gamma   31.47192937
_symmetry_Int_Tables_number   1
_chemical_formula_structural   HoLuCS
_chemical_formula_sum   'Ho1 Lu1 C1 S1'
_cell_volume   69.92939776
_cell_formula_units_Z   1
loop_
 _symmetry_equiv_pos_site_id
 _symmetry_equiv_pos_as_xyz
  1  'x, y, z'
loop_
 _atom_site_type_symbol
 _atom_site_label
 _atom_site_symmetry_multiplicity
 _atom_site_fract_x
 _atom_site_fract_y
 _atom_site_fract_z
 _atom_site_occupancy
  Ho  Ho0  1  0.763355  0.763355  0.763355  1
  Lu  Lu1  1  0.237051  0.237051  0.237051  1
  C  C2  1  0.501358  0.501358  0.501358  1
  S  S3  1  0.998236  0.998236  0.998236  1
