# generated using pymatgen
data_CsV(AgSe2)2
_symmetry_space_group_name_H-M   'P 1'
_cell_length_a   10.40282010
_cell_length_b   10.40282070
_cell_length_c   8.37437100
_cell_angle_alpha   90.00000000
_cell_angle_beta   90.00000000
_cell_angle_gamma   145.74357867
_symmetry_Int_Tables_number   1
_chemical_formula_structural   CsV(AgSe2)2
_chemical_formula_sum   'Cs2 V2 Ag4 Se8'
_cell_volume   510.13340862
_cell_formula_units_Z   2
loop_
 _symmetry_equiv_pos_site_id
 _symmetry_equiv_pos_as_xyz
  1  'x, y, z'
loop_
 _atom_site_type_symbol
 _atom_site_label
 _atom_site_symmetry_multiplicity
 _atom_site_fract_x
 _atom_site_fract_y
 _atom_site_fract_z
 _atom_site_occupancy
  Cs  Cs0  1  0.457105  0.823505  0.750000  1
  Cs  Cs1  1  0.823505  0.457105  0.250000  1
  V  V2  1  0.520987  0.297739  0.750000  1
  V  V3  1  0.297739  0.520987  0.250000  1
  Ag  Ag4  1  0.370919  0.370919  0.000000  1
  Ag  Ag5  1  0.370919  0.370919  0.500000  1
  Ag  Ag6  1  0.026105  0.796130  0.750000  1
  Ag  Ag7  1  0.796130  0.026105  0.250000  1
  Se  Se8  1  0.644937  0.618442  0.750000  1
  Se  Se9  1  0.618442  0.644937  0.250000  1
  Se  Se10  1  0.317492  0.077032  0.984080  1
  Se  Se11  1  0.077032  0.317492  0.484080  1
  Se  Se12  1  0.404947  0.822637  0.250000  1
  Se  Se13  1  0.077032  0.317492  0.015920  1
  Se  Se14  1  0.317492  0.077032  0.515920  1
  Se  Se15  1  0.822637  0.404947  0.750000  1
