# generated using pymatgen
data_Er6Tm4InPb5
_symmetry_space_group_name_H-M   'P 1'
_cell_length_a   6.58326600
_cell_length_b   8.95207039
_cell_length_c   8.95903116
_cell_angle_alpha   119.97430352
_cell_angle_beta   89.99965642
_cell_angle_gamma   90.00069779
_symmetry_Int_Tables_number   1
_chemical_formula_structural   Er6Tm4InPb5
_chemical_formula_sum   'Er6 Tm4 In1 Pb5'
_cell_volume   457.37136011
_cell_formula_units_Z   1
loop_
 _symmetry_equiv_pos_site_id
 _symmetry_equiv_pos_as_xyz
  1  'x, y, z'
loop_
 _atom_site_type_symbol
 _atom_site_label
 _atom_site_symmetry_multiplicity
 _atom_site_fract_x
 _atom_site_fract_y
 _atom_site_fract_z
 _atom_site_occupancy
  Er  Er0  1  0.750005  0.238097  0.000000  1
  Er  Er1  1  0.750014  0.762282  0.766806  1
  Er  Er2  1  0.750014  0.995476  0.233194  1
  Er  Er3  1  0.249996  0.763508  0.000000  1
  Er  Er4  1  0.249977  0.236456  0.236271  1
  Er  Er5  1  0.249977  0.000186  0.763729  1
  Tm  Tm6  1  0.501927  0.336230  0.669989  1
  Tm  Tm7  1  0.501927  0.666241  0.330011  1
  Tm  Tm8  1  0.998072  0.666260  0.330009  1
  Tm  Tm9  1  0.998072  0.336251  0.669991  1
  In  In10  1  0.750001  0.602953  0.000000  1
  Pb  Pb11  1  0.750006  0.394034  0.394603  1
  Pb  Pb12  1  0.750006  0.999432  0.605397  1
  Pb  Pb13  1  0.249972  0.396101  0.000000  1
  Pb  Pb14  1  0.250016  0.605082  0.603668  1
  Pb  Pb15  1  0.250016  0.001414  0.396332  1
