# generated using pymatgen
data_Tm6GaNiRh
_symmetry_space_group_name_H-M   'P 1'
_cell_length_a   8.22664643
_cell_length_b   8.22664807
_cell_length_c   8.22664600
_cell_angle_alpha   105.76207743
_cell_angle_beta   110.41870428
_cell_angle_gamma   112.30139176
_symmetry_Int_Tables_number   1
_chemical_formula_structural   Tm6GaNiRh
_chemical_formula_sum   'Tm12 Ga2 Ni2 Rh2'
_cell_volume   427.13500582
_cell_formula_units_Z   2
loop_
 _symmetry_equiv_pos_site_id
 _symmetry_equiv_pos_as_xyz
  1  'x, y, z'
loop_
 _atom_site_type_symbol
 _atom_site_label
 _atom_site_symmetry_multiplicity
 _atom_site_fract_x
 _atom_site_fract_y
 _atom_site_fract_z
 _atom_site_occupancy
  Tm  Tm0  1  0.692405  0.256577  0.948981  1
  Tm  Tm1  1  0.307595  0.743423  0.051019  1
  Tm  Tm2  1  0.692405  0.743423  0.435829  1
  Tm  Tm3  1  0.307595  0.256577  0.564171  1
  Tm  Tm4  1  0.808704  0.132959  0.324255  1
  Tm  Tm5  1  0.808704  0.484449  0.675745  1
  Tm  Tm6  1  0.191296  0.867041  0.675745  1
  Tm  Tm7  1  0.191296  0.515551  0.324255  1
  Tm  Tm8  1  0.600141  0.779819  0.820323  1
  Tm  Tm9  1  0.959496  0.779819  0.179677  1
  Tm  Tm10  1  0.040504  0.220181  0.820323  1
  Tm  Tm11  1  0.399859  0.220181  0.179677  1
  Ga  Ga12  1  0.500000  0.500000  0.000000  1
  Ga  Ga13  1  0.500000  0.000000  0.500000  1
  Ni  Ni14  1  0.000000  0.119734  0.119734  1
  Ni  Ni15  1  0.000000  0.880266  0.880266  1
  Rh  Rh16  1  0.835585  0.500000  0.335585  1
  Rh  Rh17  1  0.164415  0.500000  0.664415  1
