# generated using pymatgen
data_Zr3Ga3(Ru2Rh)2
_symmetry_space_group_name_H-M   'P 1'
_cell_length_a   4.47903100
_cell_length_b   6.33121600
_cell_length_c   13.38964300
_cell_angle_alpha   90.00000000
_cell_angle_beta   90.00092698
_cell_angle_gamma   90.00000000
_symmetry_Int_Tables_number   1
_chemical_formula_structural   Zr3Ga3(Ru2Rh)2
_chemical_formula_sum   'Zr6 Ga6 Ru8 Rh4'
_cell_volume   379.69964975
_cell_formula_units_Z   2
loop_
 _symmetry_equiv_pos_site_id
 _symmetry_equiv_pos_as_xyz
  1  'x, y, z'
loop_
 _atom_site_type_symbol
 _atom_site_label
 _atom_site_symmetry_multiplicity
 _atom_site_fract_x
 _atom_site_fract_y
 _atom_site_fract_z
 _atom_site_occupancy
  Zr  Zr0  1  0.000006  0.000000  0.002725  1
  Zr  Zr1  1  0.500030  0.500001  0.167139  1
  Zr  Zr2  1  0.000062  0.000000  0.332855  1
  Zr  Zr3  1  0.500004  0.500001  0.497280  1
  Zr  Zr4  1  0.999943  0.000000  0.664201  1
  Zr  Zr5  1  0.499967  0.500001  0.835806  1
  Ga  Ga6  1  0.000009  0.500001  0.002581  1
  Ga  Ga7  1  0.500030  0.000000  0.166725  1
  Ga  Ga8  1  0.000047  0.500001  0.333269  1
  Ga  Ga9  1  0.499999  0.000000  0.497410  1
  Ga  Ga10  1  0.999955  0.500001  0.664088  1
  Ga  Ga11  1  0.499959  0.000000  0.835909  1
  Ru  Ru12  1  0.499986  0.250411  0.997497  1
  Ru  Ru13  1  0.499986  0.749589  0.997497  1
  Ru  Ru14  1  0.000041  0.249876  0.165999  1
  Ru  Ru15  1  0.000041  0.750124  0.165999  1
  Ru  Ru16  1  0.500051  0.250126  0.333995  1
  Ru  Ru17  1  0.500051  0.749874  0.333995  1
  Ru  Ru18  1  0.000003  0.249600  0.502508  1
  Ru  Ru19  1  0.000003  0.750400  0.502508  1
  Rh  Rh20  1  0.499940  0.247917  0.668093  1
  Rh  Rh21  1  0.499940  0.752083  0.668093  1
  Rh  Rh22  1  0.999973  0.252086  0.831913  1
  Rh  Rh23  1  0.999973  0.747914  0.831913  1
