# generated using pymatgen
data_HoNb3(Co4P3)2
_symmetry_space_group_name_H-M   'P 1'
_cell_length_a   12.01444500
_cell_length_b   12.01444425
_cell_length_c   3.66159200
_cell_angle_alpha   90.00000000
_cell_angle_beta   90.00000000
_cell_angle_gamma   119.99999932
_symmetry_Int_Tables_number   1
_chemical_formula_structural   HoNb3(Co4P3)2
_chemical_formula_sum   'Ho2 Nb6 Co16 P12'
_cell_volume   457.72853271
_cell_formula_units_Z   2
loop_
 _symmetry_equiv_pos_site_id
 _symmetry_equiv_pos_as_xyz
  1  'x, y, z'
loop_
 _atom_site_type_symbol
 _atom_site_label
 _atom_site_symmetry_multiplicity
 _atom_site_fract_x
 _atom_site_fract_y
 _atom_site_fract_z
 _atom_site_occupancy
  Ho  Ho0  1  0.333333  0.666667  0.000000  1
  Ho  Ho1  1  0.666667  0.333333  0.000000  1
  Nb  Nb2  1  0.821042  0.000000  0.500000  1
  Nb  Nb3  1  0.000000  0.821042  0.500000  1
  Nb  Nb4  1  0.178958  0.178958  0.500000  1
  Nb  Nb5  1  0.444864  0.000000  0.000000  1
  Nb  Nb6  1  0.000000  0.444864  0.000000  1
  Nb  Nb7  1  0.555136  0.555136  0.000000  1
  Co  Co8  1  0.272048  0.000000  0.500000  1
  Co  Co9  1  0.000000  0.272048  0.500000  1
  Co  Co10  1  0.727952  0.727952  0.500000  1
  Co  Co11  1  0.634148  0.810659  0.000000  1
  Co  Co12  1  0.189341  0.823489  0.000000  1
  Co  Co13  1  0.176511  0.365852  0.000000  1
  Co  Co14  1  0.365852  0.176511  0.000000  1
  Co  Co15  1  0.810659  0.634148  0.000000  1
  Co  Co16  1  0.823489  0.189341  0.000000  1
  Co  Co17  1  0.520972  0.874625  0.500000  1
  Co  Co18  1  0.125375  0.646347  0.500000  1
  Co  Co19  1  0.353653  0.479028  0.500000  1
  Co  Co20  1  0.479028  0.353653  0.500000  1
  Co  Co21  1  0.874625  0.520972  0.500000  1
  Co  Co22  1  0.646347  0.125375  0.500000  1
  Co  Co23  1  0.000000  0.000000  0.000000  1
  P  P24  1  0.172759  0.000000  0.000000  1
  P  P25  1  0.000000  0.172759  0.000000  1
  P  P26  1  0.827241  0.827241  0.000000  1
  P  P27  1  0.523408  0.690939  0.500000  1
  P  P28  1  0.309061  0.832469  0.500000  1
  P  P29  1  0.167531  0.476592  0.500000  1
  P  P30  1  0.476592  0.167531  0.500000  1
  P  P31  1  0.690939  0.523408  0.500000  1
  P  P32  1  0.832469  0.309061  0.500000  1
  P  P33  1  0.648105  0.000000  0.000000  1
  P  P34  1  0.000000  0.648105  0.000000  1
  P  P35  1  0.351895  0.351895  0.000000  1
