# generated using pymatgen
data_Ho9Er(Zn2Bi)2
_symmetry_space_group_name_H-M   'P 1'
_cell_length_a   8.59615296
_cell_length_b   8.59615269
_cell_length_c   8.59615313
_cell_angle_alpha   123.51763870
_cell_angle_beta   123.51765020
_cell_angle_gamma   84.00812525
_symmetry_Int_Tables_number   1
_chemical_formula_structural   Ho9Er(Zn2Bi)2
_chemical_formula_sum   'Ho9 Er1 Zn4 Bi2'
_cell_volume   422.74479361
_cell_formula_units_Z   1
loop_
 _symmetry_equiv_pos_site_id
 _symmetry_equiv_pos_as_xyz
  1  'x, y, z'
loop_
 _atom_site_type_symbol
 _atom_site_label
 _atom_site_symmetry_multiplicity
 _atom_site_fract_x
 _atom_site_fract_y
 _atom_site_fract_z
 _atom_site_occupancy
  Ho  Ho0  1  0.000000  0.000000  0.000000  1
  Ho  Ho1  1  0.510764  0.010979  0.805414  1
  Ho  Ho2  1  0.205565  0.705349  0.194586  1
  Ho  Ho3  1  0.010979  0.205565  0.500216  1
  Ho  Ho4  1  0.705349  0.510764  0.499784  1
  Ho  Ho5  1  0.489236  0.989021  0.194586  1
  Ho  Ho6  1  0.794435  0.294651  0.805414  1
  Ho  Ho7  1  0.989021  0.794435  0.499784  1
  Ho  Ho8  1  0.294651  0.489236  0.500216  1
  Er  Er9  1  0.500000  0.500000  0.000000  1
  Zn  Zn10  1  0.139403  0.638706  0.778111  1
  Zn  Zn11  1  0.860597  0.361294  0.221889  1
  Zn  Zn12  1  0.638706  0.860597  0.499303  1
  Zn  Zn13  1  0.361294  0.139403  0.500697  1
  Bi  Bi14  1  0.250273  0.250273  0.000000  1
  Bi  Bi15  1  0.749727  0.749727  0.000000  1
