# generated using pymatgen
data_Nd5CuIrO12
_symmetry_space_group_name_H-M   'P 1'
_cell_length_a   7.04730561
_cell_length_b   7.04730504
_cell_length_c   7.55650944
_cell_angle_alpha   74.47357611
_cell_angle_beta   74.47357575
_cell_angle_gamma   51.31260212
_symmetry_Int_Tables_number   1
_chemical_formula_structural   Nd5CuIrO12
_chemical_formula_sum   'Nd5 Cu1 Ir1 O12'
_cell_volume   279.72499992
_cell_formula_units_Z   1
loop_
 _symmetry_equiv_pos_site_id
 _symmetry_equiv_pos_as_xyz
  1  'x, y, z'
loop_
 _atom_site_type_symbol
 _atom_site_label
 _atom_site_symmetry_multiplicity
 _atom_site_fract_x
 _atom_site_fract_y
 _atom_site_fract_z
 _atom_site_occupancy
  Nd  Nd0  1  0.315296  0.296000  0.356982  1
  Nd  Nd1  1  0.704000  0.684704  0.643018  1
  Nd  Nd2  1  0.695530  0.691682  0.165078  1
  Nd  Nd3  1  0.308318  0.304470  0.834922  1
  Nd  Nd4  1  0.006062  0.993938  0.500000  1
  Cu  Cu5  1  0.748128  0.251872  0.000000  1
  Ir  Ir6  1  0.237635  0.762365  0.000000  1
  O  O7  1  0.100883  0.592826  0.576727  1
  O  O8  1  0.004982  0.993172  0.174460  1
  O  O9  1  0.407174  0.899117  0.423273  1
  O  O10  1  0.480559  0.520381  0.176204  1
  O  O11  1  0.098998  0.581139  0.079263  1
  O  O12  1  0.909776  0.398496  0.421650  1
  O  O13  1  0.006828  0.995018  0.825540  1
  O  O14  1  0.601504  0.090223  0.578350  1
  O  O15  1  0.479619  0.519441  0.823796  1
  O  O16  1  0.580177  0.104332  0.077271  1
  O  O17  1  0.418861  0.901002  0.920737  1
  O  O18  1  0.895668  0.419823  0.922729  1
