# generated using pymatgen
data_Nd2Si6SbRh12
_symmetry_space_group_name_H-M   'P 1'
_cell_length_a   9.97242700
_cell_length_b   9.97242715
_cell_length_c   3.87001100
_cell_angle_alpha   90.00000000
_cell_angle_beta   90.00000000
_cell_angle_gamma   120.00000283
_symmetry_Int_Tables_number   1
_chemical_formula_structural   Nd2Si6SbRh12
_chemical_formula_sum   'Nd2 Si6 Sb1 Rh12'
_cell_volume   333.30709381
_cell_formula_units_Z   1
loop_
 _symmetry_equiv_pos_site_id
 _symmetry_equiv_pos_as_xyz
  1  'x, y, z'
loop_
 _atom_site_type_symbol
 _atom_site_label
 _atom_site_symmetry_multiplicity
 _atom_site_fract_x
 _atom_site_fract_y
 _atom_site_fract_z
 _atom_site_occupancy
  Nd  Nd0  1  0.333333  0.666667  0.246254  1
  Nd  Nd1  1  0.666667  0.333333  0.753746  1
  Si  Si2  1  0.400110  0.106723  0.251814  1
  Si  Si3  1  0.706613  0.599890  0.251814  1
  Si  Si4  1  0.893277  0.293387  0.251814  1
  Si  Si5  1  0.599890  0.893277  0.748186  1
  Si  Si6  1  0.293387  0.400110  0.748186  1
  Si  Si7  1  0.106723  0.706613  0.748186  1
  Sb  Sb8  1  0.000000  0.000000  0.500000  1
  Rh  Rh9  1  0.444730  0.382145  0.250098  1
  Rh  Rh10  1  0.937415  0.555270  0.250098  1
  Rh  Rh11  1  0.617855  0.062585  0.250098  1
  Rh  Rh12  1  0.555270  0.617855  0.749902  1
  Rh  Rh13  1  0.062585  0.444730  0.749902  1
  Rh  Rh14  1  0.382145  0.937415  0.749902  1
  Rh  Rh15  1  0.149012  0.873912  0.243924  1
  Rh  Rh16  1  0.724900  0.850988  0.243924  1
  Rh  Rh17  1  0.126088  0.275100  0.243924  1
  Rh  Rh18  1  0.850988  0.126088  0.756076  1
  Rh  Rh19  1  0.275100  0.149012  0.756076  1
  Rh  Rh20  1  0.873912  0.724900  0.756076  1
