# generated using pymatgen
data_Ho3Tm(InRh2)4
_symmetry_space_group_name_H-M   'P 1'
_cell_length_a   6.35879600
_cell_length_b   6.35874401
_cell_length_c   7.22695700
_cell_angle_alpha   90.00018922
_cell_angle_beta   89.99954948
_cell_angle_gamma   89.99767528
_symmetry_Int_Tables_number   1
_chemical_formula_structural   Ho3Tm(InRh2)4
_chemical_formula_sum   'Ho3 Tm1 In4 Rh8'
_cell_volume   292.21446072
_cell_formula_units_Z   1
loop_
 _symmetry_equiv_pos_site_id
 _symmetry_equiv_pos_as_xyz
  1  'x, y, z'
loop_
 _atom_site_type_symbol
 _atom_site_label
 _atom_site_symmetry_multiplicity
 _atom_site_fract_x
 _atom_site_fract_y
 _atom_site_fract_z
 _atom_site_occupancy
  Ho  Ho0  1  0.750093  0.249974  0.000035  1
  Ho  Ho1  1  0.249967  0.750006  0.000037  1
  Ho  Ho2  1  0.749952  0.249977  0.500024  1
  Tm  Tm3  1  0.250017  0.750015  0.500038  1
  In  In4  1  0.250169  0.250040  0.000022  1
  In  In5  1  0.749855  0.749989  0.000085  1
  In  In6  1  0.249820  0.250035  0.500127  1
  In  In7  1  0.750109  0.750015  0.500010  1
  Rh  Rh8  1  0.000820  0.999178  0.250954  1
  Rh  Rh9  1  0.000706  0.500730  0.250924  1
  Rh  Rh10  1  0.499245  0.999238  0.250843  1
  Rh  Rh11  1  0.499254  0.500797  0.250783  1
  Rh  Rh12  1  0.499255  0.999272  0.749154  1
  Rh  Rh13  1  0.499126  0.500821  0.749085  1
  Rh  Rh14  1  0.000857  0.999210  0.748870  1
  Rh  Rh15  1  0.000756  0.500703  0.749011  1
