# generated using pymatgen
data_ErFe2(PRh)3
_symmetry_space_group_name_H-M   'P 1'
_cell_length_a   3.79543200
_cell_length_b   10.51814800
_cell_length_c   12.25982400
_cell_angle_alpha   90.00000000
_cell_angle_beta   90.00000000
_cell_angle_gamma   90.00000000
_symmetry_Int_Tables_number   1
_chemical_formula_structural   ErFe2(PRh)3
_chemical_formula_sum   'Er4 Fe8 P12 Rh12'
_cell_volume   489.42339795
_cell_formula_units_Z   4
loop_
 _symmetry_equiv_pos_site_id
 _symmetry_equiv_pos_as_xyz
  1  'x, y, z'
loop_
 _atom_site_type_symbol
 _atom_site_label
 _atom_site_symmetry_multiplicity
 _atom_site_fract_x
 _atom_site_fract_y
 _atom_site_fract_z
 _atom_site_occupancy
  Er  Er0  1  0.250000  0.578262  0.710669  1
  Er  Er1  1  0.250000  0.921738  0.210669  1
  Er  Er2  1  0.750000  0.421738  0.289331  1
  Er  Er3  1  0.750000  0.078262  0.789331  1
  Fe  Fe4  1  0.250000  0.875260  0.698235  1
  Fe  Fe5  1  0.250000  0.624740  0.198235  1
  Fe  Fe6  1  0.750000  0.124740  0.301765  1
  Fe  Fe7  1  0.750000  0.375260  0.801765  1
  Fe  Fe8  1  0.250000  0.458979  0.934580  1
  Fe  Fe9  1  0.250000  0.041021  0.434580  1
  Fe  Fe10  1  0.750000  0.541021  0.065420  1
  Fe  Fe11  1  0.750000  0.958979  0.565420  1
  P  P12  1  0.250000  0.440947  0.112125  1
  P  P13  1  0.250000  0.059053  0.612125  1
  P  P14  1  0.750000  0.559053  0.887875  1
  P  P15  1  0.750000  0.940947  0.387875  1
  P  P16  1  0.250000  0.271538  0.863747  1
  P  P17  1  0.250000  0.228462  0.363747  1
  P  P18  1  0.750000  0.728462  0.136253  1
  P  P19  1  0.750000  0.771538  0.636253  1
  P  P20  1  0.250000  0.601475  0.380245  1
  P  P21  1  0.250000  0.898525  0.880245  1
  P  P22  1  0.750000  0.398525  0.619755  1
  P  P23  1  0.750000  0.101475  0.119755  1
  Rh  Rh24  1  0.250000  0.714101  0.990125  1
  Rh  Rh25  1  0.250000  0.785899  0.490125  1
  Rh  Rh26  1  0.750000  0.285899  0.009875  1
  Rh  Rh27  1  0.750000  0.214101  0.509875  1
  Rh  Rh28  1  0.250000  0.407961  0.477736  1
  Rh  Rh29  1  0.250000  0.092040  0.977736  1
  Rh  Rh30  1  0.750000  0.592039  0.522264  1
  Rh  Rh31  1  0.750000  0.907961  0.022264  1
  Rh  Rh32  1  0.250000  0.232137  0.174272  1
  Rh  Rh33  1  0.250000  0.267863  0.674272  1
  Rh  Rh34  1  0.750000  0.767863  0.825728  1
  Rh  Rh35  1  0.750000  0.732137  0.325728  1
