# generated using pymatgen
data_Dy5Ho3Re(B8Ru)3
_symmetry_space_group_name_H-M   'P 1'
_cell_length_a   3.66607700
_cell_length_b   9.13914376
_cell_length_c   11.52515500
_cell_angle_alpha   90.12896945
_cell_angle_beta   90.00000000
_cell_angle_gamma   90.00000000
_symmetry_Int_Tables_number   1
_chemical_formula_structural   Dy5Ho3Re(B8Ru)3
_chemical_formula_sum   'Dy5 Ho3 Re1 B24 Ru3'
_cell_volume   386.14708982
_cell_formula_units_Z   1
loop_
 _symmetry_equiv_pos_site_id
 _symmetry_equiv_pos_as_xyz
  1  'x, y, z'
loop_
 _atom_site_type_symbol
 _atom_site_label
 _atom_site_symmetry_multiplicity
 _atom_site_fract_x
 _atom_site_fract_y
 _atom_site_fract_z
 _atom_site_occupancy
  Dy  Dy0  1  0.000000  0.323087  0.415116  1
  Dy  Dy1  1  0.000000  0.679859  0.588055  1
  Dy  Dy2  1  0.000000  0.822760  0.083462  1
  Dy  Dy3  1  0.000000  0.176142  0.913440  1
  Dy  Dy4  1  0.000000  0.943095  0.370979  1
  Ho  Ho5  1  0.000000  0.056482  0.627871  1
  Ho  Ho6  1  0.000000  0.442596  0.128684  1
  Ho  Ho7  1  0.000000  0.555989  0.872384  1
  Re  Re8  1  0.000000  0.862310  0.821168  1
  B  B9  1  0.500000  0.554077  0.433156  1
  B  B10  1  0.500000  0.446159  0.567210  1
  B  B11  1  0.500000  0.053869  0.067546  1
  B  B12  1  0.500000  0.947026  0.933139  1
  B  B13  1  0.500000  0.748158  0.419349  1
  B  B14  1  0.500000  0.251944  0.580427  1
  B  B15  1  0.500000  0.248132  0.080879  1
  B  B16  1  0.500000  0.751298  0.919222  1
  B  B17  1  0.500000  0.789981  0.265783  1
  B  B18  1  0.500000  0.209319  0.733182  1
  B  B19  1  0.500000  0.290784  0.234172  1
  B  B20  1  0.500000  0.708369  0.765925  1
  B  B21  1  0.500000  0.630831  0.185281  1
  B  B22  1  0.500000  0.368413  0.814357  1
  B  B23  1  0.500000  0.131885  0.314761  1
  B  B24  1  0.500000  0.868870  0.685416  1
  B  B25  1  0.500000  0.983739  0.212305  1
  B  B26  1  0.500000  0.017773  0.787299  1
  B  B27  1  0.500000  0.483343  0.287976  1
  B  B28  1  0.500000  0.516589  0.712645  1
  B  B29  1  0.500000  0.605246  0.029969  1
  B  B30  1  0.500000  0.392675  0.970911  1
  B  B31  1  0.500000  0.107442  0.470041  1
  B  B32  1  0.500000  0.893662  0.528960  1
  Ru  Ru33  1  0.000000  0.637512  0.321063  1
  Ru  Ru34  1  0.000000  0.362384  0.678562  1
  Ru  Ru35  1  0.000000  0.138193  0.179303  1
