# generated using pymatgen
data_ErTh(Ni4Pt)2
_symmetry_space_group_name_H-M   'P 1'
_cell_length_a   4.03255400
_cell_length_b   5.10153160
_cell_length_c   8.50270873
_cell_angle_alpha   93.68190743
_cell_angle_beta   90.00000000
_cell_angle_gamma   90.00000000
_symmetry_Int_Tables_number   1
_chemical_formula_structural   ErTh(Ni4Pt)2
_chemical_formula_sum   'Er1 Th1 Ni8 Pt2'
_cell_volume   174.55839573
_cell_formula_units_Z   1
loop_
 _symmetry_equiv_pos_site_id
 _symmetry_equiv_pos_as_xyz
  1  'x, y, z'
loop_
 _atom_site_type_symbol
 _atom_site_label
 _atom_site_symmetry_multiplicity
 _atom_site_fract_x
 _atom_site_fract_y
 _atom_site_fract_z
 _atom_site_occupancy
  Er  Er0  1  0.000000  0.500000  0.500000  1
  Th  Th1  1  0.000000  0.000000  0.000000  1
  Ni  Ni2  1  0.000000  0.978159  0.343611  1
  Ni  Ni3  1  0.000000  0.474162  0.839699  1
  Ni  Ni4  1  0.000000  0.525838  0.160301  1
  Ni  Ni5  1  0.000000  0.021841  0.656389  1
  Ni  Ni6  1  0.500000  0.000000  0.500000  1
  Ni  Ni7  1  0.500000  0.500000  0.000000  1
  Ni  Ni8  1  0.500000  0.753295  0.250928  1
  Ni  Ni9  1  0.500000  0.246705  0.749072  1
  Pt  Pt10  1  0.500000  0.255142  0.253760  1
  Pt  Pt11  1  0.500000  0.744858  0.746240  1
