# generated using pymatgen
data_TbYCr2F14
_symmetry_space_group_name_H-M   'P 1'
_cell_length_a   5.53125256
_cell_length_b   8.78778610
_cell_length_c   11.70445307
_cell_angle_alpha   63.02858538
_cell_angle_beta   90.02680623
_cell_angle_gamma   89.97446682
_symmetry_Int_Tables_number   1
_chemical_formula_structural   TbYCr2F14
_chemical_formula_sum   'Tb2 Y2 Cr4 F28'
_cell_volume   507.04340889
_cell_formula_units_Z   2
loop_
 _symmetry_equiv_pos_site_id
 _symmetry_equiv_pos_as_xyz
  1  'x, y, z'
loop_
 _atom_site_type_symbol
 _atom_site_label
 _atom_site_symmetry_multiplicity
 _atom_site_fract_x
 _atom_site_fract_y
 _atom_site_fract_z
 _atom_site_occupancy
  Tb  Tb0  1  0.764888  0.191003  0.233356  1
  Tb  Tb1  1  0.235112  0.808997  0.766644  1
  Y  Y2  1  0.265739  0.808379  0.266595  1
  Y  Y3  1  0.734261  0.191621  0.733405  1
  Cr  Cr4  1  0.756976  0.725815  0.044454  1
  Cr  Cr5  1  0.243024  0.274185  0.955546  1
  Cr  Cr6  1  0.256803  0.274363  0.456013  1
  Cr  Cr7  1  0.743197  0.725637  0.543987  1
  F  F8  1  0.939567  0.705535  0.424989  1
  F  F9  1  0.060433  0.294465  0.575011  1
  F  F10  1  0.439828  0.293777  0.074722  1
  F  F11  1  0.560172  0.706223  0.925278  1
  F  F12  1  0.480997  0.730541  0.138470  1
  F  F13  1  0.519003  0.269459  0.861530  1
  F  F14  1  0.981120  0.268533  0.362217  1
  F  F15  1  0.018880  0.731467  0.637783  1
  F  F16  1  0.952404  0.744264  0.167322  1
  F  F17  1  0.047596  0.255736  0.832678  1
  F  F18  1  0.451872  0.255276  0.333464  1
  F  F19  1  0.548128  0.744724  0.666536  1
  F  F20  1  0.765458  0.491488  0.139253  1
  F  F21  1  0.234542  0.508512  0.860747  1
  F  F22  1  0.264846  0.508514  0.360648  1
  F  F23  1  0.735154  0.491486  0.639352  1
  F  F24  1  0.960911  0.284891  0.044514  1
  F  F25  1  0.039089  0.715109  0.955486  1
  F  F26  1  0.460457  0.714545  0.455425  1
  F  F27  1  0.539543  0.285455  0.544575  1
  F  F28  1  0.741621  0.958786  0.453420  1
  F  F29  1  0.258379  0.041214  0.546580  1
  F  F30  1  0.242006  0.041345  0.045530  1
  F  F31  1  0.757994  0.958655  0.954470  1
  F  F32  1  0.584139  0.973886  0.227863  1
  F  F33  1  0.415861  0.026114  0.772137  1
  F  F34  1  0.084642  0.024728  0.271956  1
  F  F35  1  0.915358  0.975272  0.728044  1
