# generated using pymatgen
data_TbYb2Ag(Pt2O7)2
_symmetry_space_group_name_H-M   'P 1'
_cell_length_a   7.18646008
_cell_length_b   7.21191152
_cell_length_c   7.21191167
_cell_angle_alpha   60.96550430
_cell_angle_beta   61.10074606
_cell_angle_gamma   61.10074821
_symmetry_Int_Tables_number   1
_chemical_formula_structural   TbYb2Ag(Pt2O7)2
_chemical_formula_sum   'Tb1 Yb2 Ag1 Pt4 O14'
_cell_volume   270.58364931
_cell_formula_units_Z   1
loop_
 _symmetry_equiv_pos_site_id
 _symmetry_equiv_pos_as_xyz
  1  'x, y, z'
loop_
 _atom_site_type_symbol
 _atom_site_label
 _atom_site_symmetry_multiplicity
 _atom_site_fract_x
 _atom_site_fract_y
 _atom_site_fract_z
 _atom_site_occupancy
  Tb  Tb0  1  0.125000  0.625000  0.625000  1
  Yb  Yb1  1  0.625000  0.625000  0.125000  1
  Yb  Yb2  1  0.625000  0.125000  0.625000  1
  Ag  Ag3  1  0.625000  0.625000  0.625000  1
  Pt  Pt4  1  0.125000  0.125000  0.125000  1
  Pt  Pt5  1  0.625000  0.125000  0.125000  1
  Pt  Pt6  1  0.125000  0.625000  0.125000  1
  Pt  Pt7  1  0.125000  0.125000  0.625000  1
  O  O8  1  0.050512  0.456623  0.456623  1
  O  O9  1  0.795486  0.794686  0.201846  1
  O  O10  1  0.791712  0.210049  0.210049  1
  O  O11  1  0.454514  0.048154  0.455314  1
  O  O12  1  0.040613  0.461090  0.034068  1
  O  O13  1  0.746974  0.739675  0.739675  1
  O  O14  1  0.040613  0.034068  0.461090  1
  O  O15  1  0.209387  0.788910  0.215932  1
  O  O16  1  0.209387  0.215932  0.788910  1
  O  O17  1  0.503026  0.510325  0.510325  1
  O  O18  1  0.795486  0.201846  0.794686  1
  O  O19  1  0.458288  0.039951  0.039951  1
  O  O20  1  0.454514  0.455314  0.048154  1
  O  O21  1  0.199488  0.793377  0.793377  1
