# generated using pymatgen
data_Sc11Tc3Sn
_symmetry_space_group_name_H-M   'P 1'
_cell_length_a   9.74487415
_cell_length_b   9.53771172
_cell_length_c   9.74487364
_cell_angle_alpha   60.70077230
_cell_angle_beta   58.59844129
_cell_angle_gamma   60.70077263
_symmetry_Int_Tables_number   1
_chemical_formula_structural   Sc11Tc3Sn
_chemical_formula_sum   'Sc22 Tc6 Sn2'
_cell_volume   639.87775206
_cell_formula_units_Z   2
loop_
 _symmetry_equiv_pos_site_id
 _symmetry_equiv_pos_as_xyz
  1  'x, y, z'
loop_
 _atom_site_type_symbol
 _atom_site_label
 _atom_site_symmetry_multiplicity
 _atom_site_fract_x
 _atom_site_fract_y
 _atom_site_fract_z
 _atom_site_occupancy
  Sc  Sc0  1  0.805656  0.805656  0.194344  1
  Sc  Sc1  1  0.197089  0.802911  0.197089  1
  Sc  Sc2  1  0.805656  0.194344  0.194344  1
  Sc  Sc3  1  0.194344  0.194344  0.805656  1
  Sc  Sc4  1  0.802911  0.197089  0.802911  1
  Sc  Sc5  1  0.194344  0.805656  0.805656  1
  Sc  Sc6  1  0.604317  0.621228  0.153225  1
  Sc  Sc7  1  0.621228  0.153225  0.621228  1
  Sc  Sc8  1  0.153225  0.621228  0.604317  1
  Sc  Sc9  1  0.621228  0.604317  0.621228  1
  Sc  Sc10  1  0.395683  0.378772  0.846775  1
  Sc  Sc11  1  0.378772  0.846775  0.378772  1
  Sc  Sc12  1  0.846775  0.378772  0.395683  1
  Sc  Sc13  1  0.378772  0.395683  0.378772  1
  Sc  Sc14  1  0.860917  0.833524  0.472035  1
  Sc  Sc15  1  0.833524  0.472035  0.833524  1
  Sc  Sc16  1  0.472035  0.833524  0.860917  1
  Sc  Sc17  1  0.833524  0.860917  0.833524  1
  Sc  Sc18  1  0.139083  0.166476  0.527965  1
  Sc  Sc19  1  0.166476  0.527965  0.166476  1
  Sc  Sc20  1  0.527965  0.166476  0.139083  1
  Sc  Sc21  1  0.166476  0.139083  0.166476  1
  Tc  Tc22  1  0.000000  0.000000  0.000000  1
  Tc  Tc23  1  0.500000  0.500000  0.500000  1
  Tc  Tc24  1  0.000000  0.000000  0.500000  1
  Tc  Tc25  1  0.000000  0.500000  0.500000  1
  Tc  Tc26  1  0.500000  0.500000  0.000000  1
  Tc  Tc27  1  0.500000  0.000000  0.000000  1
  Sn  Sn28  1  0.500000  0.000000  0.500000  1
  Sn  Sn29  1  0.000000  0.500000  0.000000  1
