# generated using pymatgen
data_Li3La2TbPt3
_symmetry_space_group_name_H-M   'P 1'
_cell_length_a   7.31348066
_cell_length_b   7.33600107
_cell_length_c   4.16743500
_cell_angle_alpha   90.00000000
_cell_angle_beta   90.00000000
_cell_angle_gamma   120.10189315
_symmetry_Int_Tables_number   1
_chemical_formula_structural   Li3La2TbPt3
_chemical_formula_sum   'Li3 La2 Tb1 Pt3'
_cell_volume   193.43548410
_cell_formula_units_Z   1
loop_
 _symmetry_equiv_pos_site_id
 _symmetry_equiv_pos_as_xyz
  1  'x, y, z'
loop_
 _atom_site_type_symbol
 _atom_site_label
 _atom_site_symmetry_multiplicity
 _atom_site_fract_x
 _atom_site_fract_y
 _atom_site_fract_z
 _atom_site_occupancy
  Li  Li0  1  0.776446  0.770700  0.500000  1
  Li  Li1  1  0.223554  0.994254  0.500000  1
  Li  Li2  1  0.000000  0.230481  0.500000  1
  La  La3  1  0.411039  0.413421  0.000000  1
  La  La4  1  0.588961  0.002382  0.000000  1
  Tb  Tb5  1  0.000000  0.592736  0.000000  1
  Pt  Pt6  1  0.000000  0.990713  0.000000  1
  Pt  Pt7  1  0.679496  0.342403  0.500000  1
  Pt  Pt8  1  0.320504  0.662909  0.500000  1
