# generated using pymatgen
data_Tb5Y6(Lu3Bi4)3
_symmetry_space_group_name_H-M   'P 1'
_cell_length_a   8.20037176
_cell_length_b   9.44786729
_cell_length_c   12.00913412
_cell_angle_alpha   90.00652276
_cell_angle_beta   90.10213676
_cell_angle_gamma   89.98045435
_symmetry_Int_Tables_number   1
_chemical_formula_structural   Tb5Y6(Lu3Bi4)3
_chemical_formula_sum   'Tb5 Y6 Lu9 Bi12'
_cell_volume   930.41842647
_cell_formula_units_Z   1
loop_
 _symmetry_equiv_pos_site_id
 _symmetry_equiv_pos_as_xyz
  1  'x, y, z'
loop_
 _atom_site_type_symbol
 _atom_site_label
 _atom_site_symmetry_multiplicity
 _atom_site_fract_x
 _atom_site_fract_y
 _atom_site_fract_z
 _atom_site_occupancy
  Tb  Tb0  1  0.185165  0.749470  0.719008  1
  Tb  Tb1  1  0.685497  0.749549  0.781628  1
  Tb  Tb2  1  0.814737  0.249452  0.281139  1
  Tb  Tb3  1  0.314161  0.249880  0.219145  1
  Tb  Tb4  1  0.192658  0.939205  0.440051  1
  Y  Y5  1  0.309187  0.061492  0.941609  1
  Y  Y6  1  0.806930  0.439515  0.559838  1
  Y  Y7  1  0.354746  0.749497  0.215552  1
  Y  Y8  1  0.851794  0.748314  0.282943  1
  Y  Y9  1  0.646110  0.249221  0.784310  1
  Y  Y10  1  0.146872  0.248883  0.716380  1
  Lu  Lu11  1  0.021986  0.749339  0.989351  1
  Lu  Lu12  1  0.523252  0.750107  0.510599  1
  Lu  Lu13  1  0.976536  0.249266  0.010604  1
  Lu  Lu14  1  0.476764  0.249462  0.489036  1
  Lu  Lu15  1  0.308063  0.431127  0.941396  1
  Lu  Lu16  1  0.809047  0.069069  0.558977  1
  Lu  Lu17  1  0.691221  0.931574  0.058204  1
  Lu  Lu18  1  0.191511  0.569417  0.440867  1
  Lu  Lu19  1  0.693038  0.565320  0.059049  1
  Bi  Bi20  1  0.434492  0.003186  0.671729  1
  Bi  Bi21  1  0.934526  0.495396  0.828719  1
  Bi  Bi22  1  0.565692  0.503328  0.327992  1
  Bi  Bi23  1  0.065372  0.995408  0.171569  1
  Bi  Bi24  1  0.567318  0.995819  0.328403  1
  Bi  Bi25  1  0.066124  0.503409  0.170840  1
  Bi  Bi26  1  0.432986  0.495666  0.671436  1
  Bi  Bi27  1  0.932880  0.003453  0.828840  1
  Bi  Bi28  1  0.404264  0.743826  0.957297  1
  Bi  Bi29  1  0.904405  0.755586  0.542065  1
  Bi  Bi30  1  0.597302  0.249826  0.043736  1
  Bi  Bi31  1  0.095364  0.255940  0.457686  1
