# generated using pymatgen
data_Ta4Zn(TeSe)4
_symmetry_space_group_name_H-M   'P 1'
_cell_length_a   7.77476662
_cell_length_b   7.77476673
_cell_length_c   7.77476700
_cell_angle_alpha   59.99999458
_cell_angle_beta   59.99999412
_cell_angle_gamma   59.99999409
_symmetry_Int_Tables_number   1
_chemical_formula_structural   Ta4Zn(TeSe)4
_chemical_formula_sum   'Ta4 Zn1 Te4 Se4'
_cell_volume   332.31279019
_cell_formula_units_Z   1
loop_
 _symmetry_equiv_pos_site_id
 _symmetry_equiv_pos_as_xyz
  1  'x, y, z'
loop_
 _atom_site_type_symbol
 _atom_site_label
 _atom_site_symmetry_multiplicity
 _atom_site_fract_x
 _atom_site_fract_y
 _atom_site_fract_z
 _atom_site_occupancy
  Ta  Ta0  1  0.598874  0.598874  0.203378  1
  Ta  Ta1  1  0.598874  0.203378  0.598874  1
  Ta  Ta2  1  0.203378  0.598874  0.598874  1
  Ta  Ta3  1  0.598874  0.598874  0.598874  1
  Zn  Zn4  1  0.000000  0.000000  0.000000  1
  Te  Te5  1  0.863660  0.863660  0.409018  1
  Te  Te6  1  0.863660  0.409018  0.863660  1
  Te  Te7  1  0.409018  0.863660  0.863660  1
  Te  Te8  1  0.863660  0.863660  0.863660  1
  Se  Se9  1  0.369904  0.369904  0.890290  1
  Se  Se10  1  0.369904  0.890290  0.369904  1
  Se  Se11  1  0.890290  0.369904  0.369904  1
  Se  Se12  1  0.369904  0.369904  0.369904  1
