# generated using pymatgen
data_Ca2CdIn3Ag2
_symmetry_space_group_name_H-M   'P 1'
_cell_length_a   5.87423477
_cell_length_b   5.87423577
_cell_length_c   7.85225835
_cell_angle_alpha   89.84973801
_cell_angle_beta   90.15026015
_cell_angle_gamma   133.04981476
_symmetry_Int_Tables_number   1
_chemical_formula_structural   Ca2CdIn3Ag2
_chemical_formula_sum   'Ca2 Cd1 In3 Ag2'
_cell_volume   198.00243310
_cell_formula_units_Z   1
loop_
 _symmetry_equiv_pos_site_id
 _symmetry_equiv_pos_as_xyz
  1  'x, y, z'
loop_
 _atom_site_type_symbol
 _atom_site_label
 _atom_site_symmetry_multiplicity
 _atom_site_fract_x
 _atom_site_fract_y
 _atom_site_fract_z
 _atom_site_occupancy
  Ca  Ca0  1  0.924531  0.075469  0.753866  1
  Ca  Ca1  1  0.075573  0.924427  0.247343  1
  Cd  Cd2  1  0.633816  0.366184  0.946546  1
  In  In3  1  0.636112  0.363888  0.554724  1
  In  In4  1  0.364213  0.635787  0.052366  1
  In  In5  1  0.365135  0.634865  0.445848  1
  Ag  Ag6  1  0.212879  0.787121  0.748273  1
  Ag  Ag7  1  0.787741  0.212259  0.251034  1
