# generated using pymatgen
data_Tm4Tc3B16W
_symmetry_space_group_name_H-M   'P 1'
_cell_length_a   3.57452700
_cell_length_b   5.96242871
_cell_length_c   11.52379098
_cell_angle_alpha   89.98372835
_cell_angle_beta   90.00000000
_cell_angle_gamma   90.00000000
_symmetry_Int_Tables_number   1
_chemical_formula_structural   Tm4Tc3B16W
_chemical_formula_sum   'Tm4 Tc3 B16 W1'
_cell_volume   245.60496167
_cell_formula_units_Z   1
loop_
 _symmetry_equiv_pos_site_id
 _symmetry_equiv_pos_as_xyz
  1  'x, y, z'
loop_
 _atom_site_type_symbol
 _atom_site_label
 _atom_site_symmetry_multiplicity
 _atom_site_fract_x
 _atom_site_fract_y
 _atom_site_fract_z
 _atom_site_occupancy
  Tm  Tm0  1  0.000000  0.626061  0.347554  1
  Tm  Tm1  1  0.000000  0.371849  0.652420  1
  Tm  Tm2  1  0.000000  0.127774  0.147577  1
  Tm  Tm3  1  0.000000  0.871754  0.853072  1
  Tc  Tc4  1  0.000000  0.636556  0.089419  1
  Tc  Tc5  1  0.000000  0.364558  0.912453  1
  Tc  Tc6  1  0.000000  0.130910  0.414166  1
  B  B7  1  0.500000  0.788608  0.185032  1
  B  B8  1  0.500000  0.212419  0.815687  1
  B  B9  1  0.500000  0.288256  0.313951  1
  B  B10  1  0.500000  0.708668  0.687563  1
  B  B11  1  0.500000  0.864877  0.031003  1
  B  B12  1  0.500000  0.135546  0.969449  1
  B  B13  1  0.500000  0.365529  0.466966  1
  B  B14  1  0.500000  0.631343  0.530298  1
  B  B15  1  0.500000  0.886497  0.449790  1
  B  B16  1  0.500000  0.118193  0.546635  1
  B  B17  1  0.500000  0.386441  0.047541  1
  B  B18  1  0.500000  0.613813  0.952988  1
  B  B19  1  0.500000  0.978831  0.305542  1
  B  B20  1  0.500000  0.024547  0.694994  1
  B  B21  1  0.500000  0.476103  0.192576  1
  B  B22  1  0.500000  0.522201  0.808154  1
  W  W23  1  0.000000  0.868664  0.585172  1
