# generated using pymatgen
data_Er3Sc3B4(Ir4Rh)2
_symmetry_space_group_name_H-M   'P 1'
_cell_length_a   9.69948006
_cell_length_b   9.69948006
_cell_length_c   3.14092100
_cell_angle_alpha   90.00000000
_cell_angle_beta   90.00000000
_cell_angle_gamma   90.53839852
_symmetry_Int_Tables_number   1
_chemical_formula_structural   Er3Sc3B4(Ir4Rh)2
_chemical_formula_sum   'Er3 Sc3 B4 Ir8 Rh2'
_cell_volume   295.48452950
_cell_formula_units_Z   1
loop_
 _symmetry_equiv_pos_site_id
 _symmetry_equiv_pos_as_xyz
  1  'x, y, z'
loop_
 _atom_site_type_symbol
 _atom_site_label
 _atom_site_symmetry_multiplicity
 _atom_site_fract_x
 _atom_site_fract_y
 _atom_site_fract_z
 _atom_site_occupancy
  Er  Er0  1  0.825053  0.325053  0.000000  1
  Er  Er1  1  0.322754  0.175350  0.000000  1
  Er  Er2  1  0.675350  0.822754  0.000000  1
  Sc  Sc3  1  0.176018  0.676018  0.000000  1
  Sc  Sc4  1  0.999754  0.001350  0.000000  1
  Sc  Sc5  1  0.501350  0.499754  0.000000  1
  B  B6  1  0.619630  0.119630  0.000000  1
  B  B7  1  0.123758  0.382893  0.000000  1
  B  B8  1  0.882893  0.623758  0.000000  1
  B  B9  1  0.375358  0.875358  0.000000  1
  Ir  Ir10  1  0.069255  0.227688  0.500000  1
  Ir  Ir11  1  0.221065  0.924527  0.500000  1
  Ir  Ir12  1  0.773913  0.068331  0.500000  1
  Ir  Ir13  1  0.936266  0.775733  0.500000  1
  Ir  Ir14  1  0.424527  0.721065  0.500000  1
  Ir  Ir15  1  0.568331  0.273913  0.500000  1
  Ir  Ir16  1  0.727688  0.569255  0.500000  1
  Ir  Ir17  1  0.275733  0.436266  0.500000  1
  Rh  Rh18  1  0.497225  0.997225  0.500000  1
  Rh  Rh19  1  0.004078  0.504078  0.500000  1
