# generated using pymatgen
data_Ni2As12OsRu
_symmetry_space_group_name_H-M   'P 1'
_cell_length_a   7.32178025
_cell_length_b   7.31833454
_cell_length_c   8.47337239
_cell_angle_alpha   55.14977290
_cell_angle_beta   55.12290020
_cell_angle_gamma   71.08933868
_symmetry_Int_Tables_number   1
_chemical_formula_structural   Ni2As12OsRu
_chemical_formula_sum   'Ni2 As12 Os1 Ru1'
_cell_volume   305.67111171
_cell_formula_units_Z   1
loop_
 _symmetry_equiv_pos_site_id
 _symmetry_equiv_pos_as_xyz
  1  'x, y, z'
loop_
 _atom_site_type_symbol
 _atom_site_label
 _atom_site_symmetry_multiplicity
 _atom_site_fract_x
 _atom_site_fract_y
 _atom_site_fract_z
 _atom_site_occupancy
  Ni  Ni0  1  0.000000  0.500000  0.500000  1
  Ni  Ni1  1  0.500000  0.000000  0.500000  1
  As  As2  1  0.147741  0.145957  0.197627  1
  As  As3  1  0.852259  0.854043  0.802373  1
  As  As4  1  0.849688  0.849715  0.497163  1
  As  As5  1  0.150312  0.150285  0.502837  1
  As  As6  1  0.802510  0.505325  0.348496  1
  As  As7  1  0.197490  0.494675  0.651504  1
  As  As8  1  0.505184  0.803239  0.347363  1
  As  As9  1  0.494816  0.196761  0.652637  1
  As  As10  1  0.656711  0.349536  0.847741  1
  As  As11  1  0.343289  0.650464  0.152259  1
  As  As12  1  0.649517  0.342457  0.152457  1
  As  As13  1  0.350483  0.657543  0.847543  1
  Os  Os14  1  0.000000  0.500000  0.000000  1
  Ru  Ru15  1  0.500000  0.000000  0.000000  1
