# generated using pymatgen
data_Ho4ScSn3Se
_symmetry_space_group_name_H-M   'P 1'
_cell_length_a   9.01909600
_cell_length_b   9.01909628
_cell_length_c   6.58210500
_cell_angle_alpha   90.00000000
_cell_angle_beta   90.00000000
_cell_angle_gamma   120.00000631
_symmetry_Int_Tables_number   1
_chemical_formula_structural   Ho4ScSn3Se
_chemical_formula_sum   'Ho8 Sc2 Sn6 Se2'
_cell_volume   463.68328732
_cell_formula_units_Z   2
loop_
 _symmetry_equiv_pos_site_id
 _symmetry_equiv_pos_as_xyz
  1  'x, y, z'
loop_
 _atom_site_type_symbol
 _atom_site_label
 _atom_site_symmetry_multiplicity
 _atom_site_fract_x
 _atom_site_fract_y
 _atom_site_fract_z
 _atom_site_occupancy
  Ho  Ho0  1  0.666667  0.333333  0.000000  1
  Ho  Ho1  1  0.333333  0.666667  0.000000  1
  Ho  Ho2  1  0.745771  0.745771  0.748268  1
  Ho  Ho3  1  0.254229  0.000000  0.748268  1
  Ho  Ho4  1  0.000000  0.254229  0.748268  1
  Ho  Ho5  1  0.254229  0.254229  0.251732  1
  Ho  Ho6  1  0.745771  0.000000  0.251732  1
  Ho  Ho7  1  0.000000  0.745771  0.251732  1
  Sc  Sc8  1  0.333333  0.666667  0.500000  1
  Sc  Sc9  1  0.666667  0.333333  0.500000  1
  Sn  Sn10  1  0.398259  0.398259  0.744129  1
  Sn  Sn11  1  0.601741  0.000000  0.744129  1
  Sn  Sn12  1  0.000000  0.601741  0.744129  1
  Sn  Sn13  1  0.601741  0.601741  0.255871  1
  Sn  Sn14  1  0.398259  0.000000  0.255871  1
  Sn  Sn15  1  0.000000  0.398259  0.255871  1
  Se  Se16  1  0.000000  0.000000  0.000000  1
  Se  Se17  1  0.000000  0.000000  0.500000  1
