# generated using pymatgen
data_Er12InNi4Au
_symmetry_space_group_name_H-M   'P 1'
_cell_length_a   8.29915667
_cell_length_b   8.29915549
_cell_length_c   8.29915514
_cell_angle_alpha   112.22379156
_cell_angle_beta   109.40377248
_cell_angle_gamma   106.83111650
_symmetry_Int_Tables_number   1
_chemical_formula_structural   Er12InNi4Au
_chemical_formula_sum   'Er12 In1 Ni4 Au1'
_cell_volume   439.05123482
_cell_formula_units_Z   1
loop_
 _symmetry_equiv_pos_site_id
 _symmetry_equiv_pos_as_xyz
  1  'x, y, z'
loop_
 _atom_site_type_symbol
 _atom_site_label
 _atom_site_symmetry_multiplicity
 _atom_site_fract_x
 _atom_site_fract_y
 _atom_site_fract_z
 _atom_site_occupancy
  Er  Er0  1  0.323965  0.630593  0.306629  1
  Er  Er1  1  0.676035  0.369407  0.693371  1
  Er  Er2  1  0.323965  0.017334  0.693371  1
  Er  Er3  1  0.676035  0.982666  0.306629  1
  Er  Er4  1  0.182996  0.294258  0.477254  1
  Er  Er5  1  0.817004  0.705742  0.522746  1
  Er  Er6  1  0.182996  0.705742  0.888738  1
  Er  Er7  1  0.817004  0.294258  0.111262  1
  Er  Er8  1  0.420483  0.222017  0.198466  1
  Er  Er9  1  0.579517  0.777983  0.801534  1
  Er  Er10  1  0.023549  0.222017  0.801534  1
  Er  Er11  1  0.976451  0.777983  0.198466  1
  In  In12  1  0.500000  0.500000  0.000000  1
  Ni  Ni13  1  0.123745  0.623745  0.500000  1
  Ni  Ni14  1  0.876255  0.376255  0.500000  1
  Ni  Ni15  1  0.361966  0.000000  0.361966  1
  Ni  Ni16  1  0.638034  0.000000  0.638034  1
  Au  Au17  1  0.000000  0.000000  0.000000  1
