# generated using pymatgen
data_Sr4TaIn2SbO12
_symmetry_space_group_name_H-M   'P 1'
_cell_length_a   5.78343763
_cell_length_b   5.84580550
_cell_length_c   8.19635501
_cell_angle_alpha   89.65951286
_cell_angle_beta   90.12738368
_cell_angle_gamma   89.93993653
_symmetry_Int_Tables_number   1
_chemical_formula_structural   Sr4TaIn2SbO12
_chemical_formula_sum   'Sr4 Ta1 In2 Sb1 O12'
_cell_volume   277.10361547
_cell_formula_units_Z   1
loop_
 _symmetry_equiv_pos_site_id
 _symmetry_equiv_pos_as_xyz
  1  'x, y, z'
loop_
 _atom_site_type_symbol
 _atom_site_label
 _atom_site_symmetry_multiplicity
 _atom_site_fract_x
 _atom_site_fract_y
 _atom_site_fract_z
 _atom_site_occupancy
  Sr  Sr0  1  0.009224  0.965741  0.249819  1
  Sr  Sr1  1  0.494535  0.465380  0.249447  1
  Sr  Sr2  1  0.505465  0.534620  0.750553  1
  Sr  Sr3  1  0.990777  0.034259  0.750180  1
  Ta  Ta4  1  0.000000  0.500000  0.000000  1
  In  In5  1  0.500000  0.000000  0.999999  1
  In  In6  1  0.999999  0.500000  0.500000  1
  Sb  Sb7  1  0.500000  0.000000  0.500000  1
  O  O8  1  0.274253  0.704355  0.034202  1
  O  O9  1  0.203262  0.225715  0.037554  1
  O  O10  1  0.931640  0.517621  0.239716  1
  O  O11  1  0.579245  0.021183  0.261302  1
  O  O12  1  0.300171  0.723174  0.457030  1
  O  O13  1  0.223426  0.202921  0.458833  1
  O  O14  1  0.776573  0.797079  0.541167  1
  O  O15  1  0.699828  0.276826  0.542970  1
  O  O16  1  0.420756  0.978817  0.738699  1
  O  O17  1  0.068359  0.482379  0.760283  1
  O  O18  1  0.796739  0.774285  0.962446  1
  O  O19  1  0.725747  0.295645  0.965797  1
