# generated using pymatgen
data_In2P7Ru12
_symmetry_space_group_name_H-M   'P 1'
_cell_length_a   9.59305000
_cell_length_b   9.59304960
_cell_length_c   3.77956000
_cell_angle_alpha   90.00000000
_cell_angle_beta   90.00000000
_cell_angle_gamma   119.99999584
_symmetry_Int_Tables_number   1
_chemical_formula_structural   In2P7Ru12
_chemical_formula_sum   'In2 P7 Ru12'
_cell_volume   301.22103188
_cell_formula_units_Z   1
loop_
 _symmetry_equiv_pos_site_id
 _symmetry_equiv_pos_as_xyz
  1  'x, y, z'
loop_
 _atom_site_type_symbol
 _atom_site_label
 _atom_site_symmetry_multiplicity
 _atom_site_fract_x
 _atom_site_fract_y
 _atom_site_fract_z
 _atom_site_occupancy
  In  In0  1  0.666667  0.333333  0.500000  1
  In  In1  1  0.333333  0.666667  0.000000  1
  P  P2  1  0.615059  0.695720  0.500000  1
  P  P3  1  0.000000  0.000000  0.000000  1
  P  P4  1  0.304280  0.919339  0.500000  1
  P  P5  1  0.080661  0.384941  0.500000  1
  P  P6  1  0.912336  0.613209  0.000000  1
  P  P7  1  0.386791  0.299127  0.000000  1
  P  P8  1  0.700873  0.087664  0.000000  1
  Ru  Ru9  1  0.536391  0.902272  0.500000  1
  Ru  Ru10  1  0.365882  0.463609  0.500000  1
  Ru  Ru11  1  0.867156  0.121180  0.500000  1
  Ru  Ru12  1  0.254024  0.132844  0.500000  1
  Ru  Ru13  1  0.878820  0.745976  0.500000  1
  Ru  Ru14  1  0.732184  0.861666  0.000000  1
  Ru  Ru15  1  0.138334  0.870516  0.000000  1
  Ru  Ru16  1  0.129484  0.267816  0.000000  1
  Ru  Ru17  1  0.462099  0.093753  0.000000  1
  Ru  Ru18  1  0.906247  0.368346  0.000000  1
  Ru  Ru19  1  0.631654  0.537901  0.000000  1
  Ru  Ru20  1  0.097728  0.634118  0.500000  1
