# generated using pymatgen
data_Tb4Sm2Pt5Rh13
_symmetry_space_group_name_H-M   'P 1'
_cell_length_a   5.33870650
_cell_length_b   5.33870582
_cell_length_c   17.59237323
_cell_angle_alpha   89.95694973
_cell_angle_beta   90.04304838
_cell_angle_gamma   120.18654946
_symmetry_Int_Tables_number   1
_chemical_formula_structural   Tb4Sm2Pt5Rh13
_chemical_formula_sum   'Tb4 Sm2 Pt5 Rh13'
_cell_volume   433.41853213
_cell_formula_units_Z   1
loop_
 _symmetry_equiv_pos_site_id
 _symmetry_equiv_pos_as_xyz
  1  'x, y, z'
loop_
 _atom_site_type_symbol
 _atom_site_label
 _atom_site_symmetry_multiplicity
 _atom_site_fract_x
 _atom_site_fract_y
 _atom_site_fract_z
 _atom_site_occupancy
  Tb  Tb0  1  0.333417  0.666583  0.956900  1
  Tb  Tb1  1  0.666792  0.333208  0.042489  1
  Tb  Tb2  1  0.666222  0.333778  0.457866  1
  Tb  Tb3  1  0.333105  0.666895  0.543603  1
  Sm  Sm4  1  0.333169  0.666831  0.750454  1
  Sm  Sm5  1  0.666788  0.333212  0.249054  1
  Pt  Pt6  1  0.169786  0.830214  0.375730  1
  Pt  Pt7  1  0.334591  0.665409  0.249386  1
  Pt  Pt8  1  0.666704  0.333296  0.749963  1
  Pt  Pt9  1  0.998467  0.001533  0.500561  1
  Pt  Pt10  1  0.000189  0.999811  0.999937  1
  Rh  Rh11  1  0.169179  0.333316  0.374777  1
  Rh  Rh12  1  0.666684  0.830821  0.374777  1
  Rh  Rh13  1  0.831463  0.168537  0.625207  1
  Rh  Rh14  1  0.831906  0.665404  0.625564  1
  Rh  Rh15  1  0.334596  0.168094  0.625564  1
  Rh  Rh16  1  0.832433  0.167567  0.874758  1
  Rh  Rh17  1  0.832273  0.664685  0.874635  1
  Rh  Rh18  1  0.335315  0.167727  0.874635  1
  Rh  Rh19  1  0.167255  0.832745  0.125541  1
  Rh  Rh20  1  0.168451  0.336164  0.124739  1
  Rh  Rh21  1  0.663836  0.831549  0.124739  1
  Rh  Rh22  1  0.997318  0.002682  0.249076  1
  Rh  Rh23  1  0.000064  0.999936  0.750045  1
