# generated using pymatgen
data_Pa4Co4GeSb
_symmetry_space_group_name_H-M   'P 1'
_cell_length_a   6.97863900
_cell_length_b   6.97863900
_cell_length_c   3.74503300
_cell_angle_alpha   90.00000000
_cell_angle_beta   90.00000000
_cell_angle_gamma   90.00000000
_symmetry_Int_Tables_number   1
_chemical_formula_structural   Pa4Co4GeSb
_chemical_formula_sum   'Pa4 Co4 Ge1 Sb1'
_cell_volume   182.38835873
_cell_formula_units_Z   1
loop_
 _symmetry_equiv_pos_site_id
 _symmetry_equiv_pos_as_xyz
  1  'x, y, z'
loop_
 _atom_site_type_symbol
 _atom_site_label
 _atom_site_symmetry_multiplicity
 _atom_site_fract_x
 _atom_site_fract_y
 _atom_site_fract_z
 _atom_site_occupancy
  Pa  Pa0  1  0.688263  0.166985  0.500000  1
  Pa  Pa1  1  0.311737  0.833015  0.500000  1
  Pa  Pa2  1  0.833015  0.688263  0.500000  1
  Pa  Pa3  1  0.166985  0.311737  0.500000  1
  Co  Co4  1  0.640552  0.878034  0.000000  1
  Co  Co5  1  0.121966  0.640552  0.000000  1
  Co  Co6  1  0.878034  0.359448  0.000000  1
  Co  Co7  1  0.359448  0.121966  0.000000  1
  Ge  Ge8  1  0.000000  0.000000  0.000000  1
  Sb  Sb9  1  0.500000  0.500000  0.000000  1
