# generated using pymatgen
data_Nd3MgCd2Ag2Ru
_symmetry_space_group_name_H-M   'P 1'
_cell_length_a   7.79842460
_cell_length_b   7.80234885
_cell_length_c   4.18050300
_cell_angle_alpha   90.00000000
_cell_angle_beta   90.00000000
_cell_angle_gamma   120.46629244
_symmetry_Int_Tables_number   1
_chemical_formula_structural   Nd3MgCd2Ag2Ru
_chemical_formula_sum   'Nd3 Mg1 Cd2 Ag2 Ru1'
_cell_volume   219.24594436
_cell_formula_units_Z   1
loop_
 _symmetry_equiv_pos_site_id
 _symmetry_equiv_pos_as_xyz
  1  'x, y, z'
loop_
 _atom_site_type_symbol
 _atom_site_label
 _atom_site_symmetry_multiplicity
 _atom_site_fract_x
 _atom_site_fract_y
 _atom_site_fract_z
 _atom_site_occupancy
  Nd  Nd0  1  0.571220  0.972890  0.000000  1
  Nd  Nd1  1  0.034778  0.600834  0.000000  1
  Nd  Nd2  1  0.392897  0.423976  0.000000  1
  Mg  Mg3  1  0.748140  0.750820  0.500000  1
  Cd  Cd4  1  0.253150  0.997942  0.500000  1
  Cd  Cd5  1  0.999568  0.253199  0.500000  1
  Ag  Ag6  1  0.667524  0.340305  0.500000  1
  Ag  Ag7  1  0.991862  0.990583  0.000000  1
  Ru  Ru8  1  0.340863  0.669451  0.500000  1
