# generated using pymatgen
data_Ba3AcSb3
_symmetry_space_group_name_H-M   'P 1'
_cell_length_a   9.08932827
_cell_length_b   9.02408880
_cell_length_c   9.08932847
_cell_angle_alpha   109.32808352
_cell_angle_beta   109.70556791
_cell_angle_gamma   109.67157163
_symmetry_Int_Tables_number   1
_chemical_formula_structural   Ba3AcSb3
_chemical_formula_sum   'Ba6 Ac2 Sb6'
_cell_volume   571.83158468
_cell_formula_units_Z   2
loop_
 _symmetry_equiv_pos_site_id
 _symmetry_equiv_pos_as_xyz
  1  'x, y, z'
loop_
 _atom_site_type_symbol
 _atom_site_label
 _atom_site_symmetry_multiplicity
 _atom_site_fract_x
 _atom_site_fract_y
 _atom_site_fract_z
 _atom_site_occupancy
  Ba  Ba0  1  0.643043  0.500514  0.000728  1
  Ba  Ba1  1  0.500214  0.999486  0.642529  1
  Ba  Ba2  1  0.000073  0.640871  0.499907  1
  Ba  Ba3  1  0.859037  0.859129  0.859202  1
  Ba  Ba4  1  0.496372  0.995771  0.131224  1
  Ba  Ba5  1  0.135452  0.504229  0.000601  1
  Ac  Ac6  1  0.997122  0.135699  0.501069  1
  Ac  Ac7  1  0.365370  0.364301  0.361423  1
  Sb  Sb8  1  0.893466  0.250000  0.143466  1
  Sb  Sb9  1  0.625336  0.750000  0.375336  1
  Sb  Sb10  1  0.245724  0.133189  0.876708  1
  Sb  Sb11  1  0.743518  0.366811  0.612534  1
  Sb  Sb12  1  0.131255  0.898813  0.262831  1
  Sb  Sb13  1  0.364019  0.601187  0.732442  1
