# generated using pymatgen
data_Ho6ScFe2(Co5P4)3
_symmetry_space_group_name_H-M   'P 1'
_cell_length_a   3.70667700
_cell_length_b   10.60026600
_cell_length_c   12.22235500
_cell_angle_alpha   90.00000000
_cell_angle_beta   90.00000000
_cell_angle_gamma   90.00000000
_symmetry_Int_Tables_number   1
_chemical_formula_structural   Ho6ScFe2(Co5P4)3
_chemical_formula_sum   'Ho6 Sc1 Fe2 Co15 P12'
_cell_volume   480.23786589
_cell_formula_units_Z   1
loop_
 _symmetry_equiv_pos_site_id
 _symmetry_equiv_pos_as_xyz
  1  'x, y, z'
loop_
 _atom_site_type_symbol
 _atom_site_label
 _atom_site_symmetry_multiplicity
 _atom_site_fract_x
 _atom_site_fract_y
 _atom_site_fract_z
 _atom_site_occupancy
  Ho  Ho0  1  0.000000  0.500000  0.528292  1
  Ho  Ho1  1  0.500000  0.000000  0.477942  1
  Ho  Ho2  1  0.500000  0.823205  0.205504  1
  Ho  Ho3  1  0.500000  0.176795  0.205504  1
  Ho  Ho4  1  0.000000  0.681631  0.795660  1
  Ho  Ho5  1  0.000000  0.318369  0.795660  1
  Sc  Sc6  1  0.500000  0.500000  0.153310  1
  Fe  Fe7  1  0.500000  0.000000  0.009313  1
  Fe  Fe8  1  0.000000  0.000000  0.840936  1
  Co  Co9  1  0.000000  0.500000  0.984645  1
  Co  Co10  1  0.500000  0.294203  0.434083  1
  Co  Co11  1  0.500000  0.705797  0.434083  1
  Co  Co12  1  0.000000  0.201641  0.570616  1
  Co  Co13  1  0.000000  0.798359  0.570616  1
  Co  Co14  1  0.500000  0.879987  0.708070  1
  Co  Co15  1  0.500000  0.120013  0.708070  1
  Co  Co16  1  0.000000  0.622900  0.297079  1
  Co  Co17  1  0.000000  0.377100  0.297079  1
  Co  Co18  1  0.500000  0.327709  0.989874  1
  Co  Co19  1  0.500000  0.672291  0.989874  1
  Co  Co20  1  0.000000  0.164550  0.001225  1
  Co  Co21  1  0.000000  0.835450  0.001225  1
  Co  Co22  1  0.500000  0.500000  0.702584  1
  Co  Co23  1  0.000000  0.000000  0.296614  1
  P  P24  1  0.500000  0.308959  0.618076  1
  P  P25  1  0.500000  0.691041  0.618076  1
  P  P26  1  0.000000  0.188329  0.385606  1
  P  P27  1  0.000000  0.811671  0.385606  1
  P  P28  1  0.500000  0.500000  0.882891  1
  P  P29  1  0.000000  0.000000  0.113592  1
  P  P30  1  0.500000  0.850394  0.889128  1
  P  P31  1  0.500000  0.149606  0.889128  1
  P  P32  1  0.000000  0.662880  0.102561  1
  P  P33  1  0.000000  0.337120  0.102561  1
  P  P34  1  0.500000  0.500000  0.358743  1
  P  P35  1  0.000000  0.000000  0.656166  1
