# generated using pymatgen
data_CeDyHo6(B6Os)4
_symmetry_space_group_name_H-M   'P 1'
_cell_length_a   3.65728900
_cell_length_b   9.14741598
_cell_length_c   11.51498300
_cell_angle_alpha   90.05459304
_cell_angle_beta   90.00000000
_cell_angle_gamma   90.00000000
_symmetry_Int_Tables_number   1
_chemical_formula_structural   CeDyHo6(B6Os)4
_chemical_formula_sum   'Ce1 Dy1 Ho6 B24 Os4'
_cell_volume   385.23063185
_cell_formula_units_Z   1
loop_
 _symmetry_equiv_pos_site_id
 _symmetry_equiv_pos_as_xyz
  1  'x, y, z'
loop_
 _atom_site_type_symbol
 _atom_site_label
 _atom_site_symmetry_multiplicity
 _atom_site_fract_x
 _atom_site_fract_y
 _atom_site_fract_z
 _atom_site_occupancy
  Ce  Ce0  1  0.000000  0.322657  0.413371  1
  Dy  Dy1  1  0.000000  0.679144  0.587128  1
  Ho  Ho2  1  0.000000  0.821615  0.085599  1
  Ho  Ho3  1  0.000000  0.177951  0.913613  1
  Ho  Ho4  1  0.000000  0.943687  0.373502  1
  Ho  Ho5  1  0.000000  0.054721  0.627158  1
  Ho  Ho6  1  0.000000  0.444434  0.125662  1
  Ho  Ho7  1  0.000000  0.556238  0.874142  1
  B  B8  1  0.500000  0.554894  0.432170  1
  B  B9  1  0.500000  0.446296  0.568246  1
  B  B10  1  0.500000  0.053567  0.066832  1
  B  B11  1  0.500000  0.946002  0.933093  1
  B  B12  1  0.500000  0.748807  0.419922  1
  B  B13  1  0.500000  0.251871  0.581216  1
  B  B14  1  0.500000  0.247733  0.078967  1
  B  B15  1  0.500000  0.752262  0.920319  1
  B  B16  1  0.500000  0.791532  0.266188  1
  B  B17  1  0.500000  0.208522  0.734600  1
  B  B18  1  0.500000  0.290576  0.232112  1
  B  B19  1  0.500000  0.708944  0.767191  1
  B  B20  1  0.500000  0.632739  0.184519  1
  B  B21  1  0.500000  0.367914  0.815133  1
  B  B22  1  0.500000  0.131167  0.313718  1
  B  B23  1  0.500000  0.867883  0.685786  1
  B  B24  1  0.500000  0.982512  0.212522  1
  B  B25  1  0.500000  0.016577  0.787115  1
  B  B26  1  0.500000  0.484944  0.285901  1
  B  B27  1  0.500000  0.516601  0.714202  1
  B  B28  1  0.500000  0.610287  0.030282  1
  B  B29  1  0.500000  0.389826  0.969426  1
  B  B30  1  0.500000  0.107249  0.470349  1
  B  B31  1  0.500000  0.890515  0.530218  1
  Os  Os32  1  0.000000  0.638230  0.320929  1
  Os  Os33  1  0.000000  0.362015  0.678432  1
  Os  Os34  1  0.000000  0.137535  0.178869  1
  Os  Os35  1  0.000000  0.862554  0.821567  1
