# generated using pymatgen
data_Ho8Mg2CuNi3Bi2
_symmetry_space_group_name_H-M   'P 1'
_cell_length_a   8.61332454
_cell_length_b   8.61332470
_cell_length_c   8.71420694
_cell_angle_alpha   128.58162189
_cell_angle_beta   128.58163649
_cell_angle_gamma   74.81916574
_symmetry_Int_Tables_number   1
_chemical_formula_structural   Ho8Mg2CuNi3Bi2
_chemical_formula_sum   'Ho8 Mg2 Cu1 Ni3 Bi2'
_cell_volume   386.43609679
_cell_formula_units_Z   1
loop_
 _symmetry_equiv_pos_site_id
 _symmetry_equiv_pos_as_xyz
  1  'x, y, z'
loop_
 _atom_site_type_symbol
 _atom_site_label
 _atom_site_symmetry_multiplicity
 _atom_site_fract_x
 _atom_site_fract_y
 _atom_site_fract_z
 _atom_site_occupancy
  Ho  Ho0  1  0.025982  0.525982  0.808186  1
  Ho  Ho1  1  0.706703  0.206703  0.166042  1
  Ho  Ho2  1  0.546723  0.707668  0.511840  1
  Ho  Ho3  1  0.207668  0.046723  0.511840  1
  Ho  Ho4  1  0.959339  0.459339  0.166042  1
  Ho  Ho5  1  0.282204  0.782204  0.808186  1
  Ho  Ho6  1  0.465117  0.304171  0.511840  1
  Ho  Ho7  1  0.804171  0.965117  0.511840  1
  Mg  Mg8  1  0.003446  0.001100  0.004546  1
  Mg  Mg9  1  0.501100  0.503446  0.004546  1
  Cu  Cu10  1  0.372983  0.872983  0.245964  1
  Ni  Ni11  1  0.618255  0.118255  0.736512  1
  Ni  Ni12  1  0.870632  0.625361  0.495993  1
  Ni  Ni13  1  0.125361  0.370632  0.495993  1
  Bi  Bi14  1  0.755158  0.755158  0.010316  1
  Bi  Bi15  1  0.255158  0.255158  0.010316  1
