# generated using pymatgen
data_Sr6TbYBi6
_symmetry_space_group_name_H-M   'P 1'
_cell_length_a   8.63339664
_cell_length_b   8.76303493
_cell_length_c   8.63313701
_cell_angle_alpha   109.67714790
_cell_angle_beta   108.91425962
_cell_angle_gamma   109.68488653
_symmetry_Int_Tables_number   1
_chemical_formula_structural   Sr6TbYBi6
_chemical_formula_sum   'Sr6 Tb1 Y1 Bi6'
_cell_volume   503.61382759
_cell_formula_units_Z   1
loop_
 _symmetry_equiv_pos_site_id
 _symmetry_equiv_pos_as_xyz
  1  'x, y, z'
loop_
 _atom_site_type_symbol
 _atom_site_label
 _atom_site_symmetry_multiplicity
 _atom_site_fract_x
 _atom_site_fract_y
 _atom_site_fract_z
 _atom_site_occupancy
  Sr  Sr0  1  0.358719  0.355328  0.356915  1
  Sr  Sr1  1  0.000200  0.141375  0.498263  1
  Sr  Sr2  1  0.856970  0.855336  0.858774  1
  Sr  Sr3  1  0.998239  0.641327  0.500175  1
  Sr  Sr4  1  0.503384  0.003064  0.140807  1
  Sr  Sr5  1  0.640811  0.503072  0.003389  1
  Tb  Tb6  1  0.501591  0.002300  0.639113  1
  Y  Y7  1  0.139151  0.502267  0.001574  1
  Bi  Bi8  1  0.876235  0.252433  0.107119  1
  Bi  Bi9  1  0.138294  0.866356  0.255465  1
  Bi  Bi10  1  0.371284  0.629202  0.752580  1
  Bi  Bi11  1  0.252506  0.129214  0.871299  1
  Bi  Bi12  1  0.755547  0.366400  0.638367  1
  Bi  Bi13  1  0.607070  0.752329  0.376159  1
