# generated using pymatgen
data_Ba6Bi2O11
_symmetry_space_group_name_H-M   'P 1'
_cell_length_a   6.44026919
_cell_length_b   6.40583518
_cell_length_c   25.50829700
_cell_angle_alpha   58.68075616
_cell_angle_beta   59.12381155
_cell_angle_gamma   60.03476477
_symmetry_Int_Tables_number   1
_chemical_formula_structural   Ba6Bi2O11
_chemical_formula_sum   'Ba12 Bi4 O22'
_cell_volume   731.70258923
_cell_formula_units_Z   2
loop_
 _symmetry_equiv_pos_site_id
 _symmetry_equiv_pos_as_xyz
  1  'x, y, z'
loop_
 _atom_site_type_symbol
 _atom_site_label
 _atom_site_symmetry_multiplicity
 _atom_site_fract_x
 _atom_site_fract_y
 _atom_site_fract_z
 _atom_site_occupancy
  Ba  Ba0  1  0.124926  0.327956  0.078426  1
  Ba  Ba1  1  0.436543  0.614249  0.108743  1
  Ba  Ba2  1  0.176812  0.354853  0.292486  1
  Ba  Ba3  1  0.367664  0.547575  0.387790  1
  Ba  Ba4  1  0.632341  0.805285  0.203549  1
  Ba  Ba5  1  0.219791  0.236658  0.578447  1
  Ba  Ba6  1  0.504553  0.517155  0.609212  1
  Ba  Ba7  1  0.227087  0.289312  0.793153  1
  Ba  Ba8  1  0.651340  0.852735  0.418748  1
  Ba  Ba9  1  0.453252  0.477514  0.888068  1
  Ba  Ba10  1  0.688808  0.743061  0.704940  1
  Ba  Ba11  1  0.731675  0.765025  0.918007  1
  Bi  Bi12  1  0.000120  0.046974  0.998224  1
  Bi  Bi13  1  0.906060  0.080289  0.248502  1
  Bi  Bi14  1  0.936074  0.970286  0.498477  1
  Bi  Bi15  1  0.965264  0.012719  0.748390  1
  O  O16  1  0.092587  0.376524  0.185523  1
  O  O17  1  0.206233  0.845763  0.190803  1
  O  O18  1  0.805980  0.370254  0.028615  1
  O  O19  1  0.781724  0.822400  0.080214  1
  O  O20  1  0.687719  0.243802  0.186384  1
  O  O21  1  0.609042  0.325075  0.303594  1
  O  O22  1  0.162350  0.187490  0.416342  1
  O  O23  1  0.117899  0.916733  0.312019  1
  O  O24  1  0.727115  0.777420  0.311646  1
  O  O25  1  0.615590  0.171433  0.466527  1
  O  O26  1  0.708880  0.071333  0.581114  1
  O  O27  1  0.144565  0.784543  0.687113  1
  O  O28  1  0.256841  0.717058  0.530385  1
  O  O29  1  0.331749  0.045301  0.998657  1
  O  O30  1  0.935951  0.636800  0.498502  1
  O  O31  1  0.753183  0.322274  0.684734  1
  O  O32  1  0.258768  0.192984  0.691685  1
  O  O33  1  0.783491  0.232769  0.810399  1
  O  O34  1  0.251227  0.725519  0.967133  1
  O  O35  1  0.191753  0.709910  0.810096  1
  O  O36  1  0.660041  0.843716  0.807090  1
  O  O37  1  0.890502  0.270749  0.916488  1
