# generated using pymatgen
data_Er3TmVRe3B16
_symmetry_space_group_name_H-M   'P 1'
_cell_length_a   3.56853700
_cell_length_b   5.95280423
_cell_length_c   11.50401128
_cell_angle_alpha   89.90141690
_cell_angle_beta   90.00000000
_cell_angle_gamma   90.00000000
_symmetry_Int_Tables_number   1
_chemical_formula_structural   Er3TmVRe3B16
_chemical_formula_sum   'Er3 Tm1 V1 Re3 B16'
_cell_volume   244.37707405
_cell_formula_units_Z   1
loop_
 _symmetry_equiv_pos_site_id
 _symmetry_equiv_pos_as_xyz
  1  'x, y, z'
loop_
 _atom_site_type_symbol
 _atom_site_label
 _atom_site_symmetry_multiplicity
 _atom_site_fract_x
 _atom_site_fract_y
 _atom_site_fract_z
 _atom_site_occupancy
  Er  Er0  1  0.500000  0.874876  0.148903  1
  Er  Er1  1  0.500000  0.626888  0.650804  1
  Er  Er2  1  0.500000  0.372498  0.347763  1
  Tm  Tm3  1  0.500000  0.126039  0.851603  1
  V  V4  1  0.500000  0.371140  0.082809  1
  Re  Re5  1  0.500000  0.133609  0.587610  1
  Re  Re6  1  0.500000  0.866371  0.413857  1
  Re  Re7  1  0.500000  0.627666  0.915686  1
  B  B8  1  0.000000  0.286782  0.686238  1
  B  B9  1  0.000000  0.713321  0.314183  1
  B  B10  1  0.000000  0.787581  0.815380  1
  B  B11  1  0.000000  0.213025  0.184727  1
  B  B12  1  0.000000  0.364698  0.531440  1
  B  B13  1  0.000000  0.635463  0.468736  1
  B  B14  1  0.000000  0.865286  0.968024  1
  B  B15  1  0.000000  0.134589  0.031943  1
  B  B16  1  0.000000  0.023483  0.306736  1
  B  B17  1  0.000000  0.977010  0.693492  1
  B  B18  1  0.000000  0.522475  0.192706  1
  B  B19  1  0.000000  0.477058  0.807193  1
  B  B20  1  0.000000  0.114799  0.452189  1
  B  B21  1  0.000000  0.885969  0.548010  1
  B  B22  1  0.000000  0.614373  0.047502  1
  B  B23  1  0.000000  0.385003  0.952468  1
