# generated using pymatgen
data_Li2AcAu4
_symmetry_space_group_name_H-M   'P 1'
_cell_length_a   5.87634383
_cell_length_b   5.87634349
_cell_length_c   5.87634410
_cell_angle_alpha   102.07637124
_cell_angle_beta   102.07637678
_cell_angle_gamma   125.56099291
_symmetry_Int_Tables_number   1
_chemical_formula_structural   Li2AcAu4
_chemical_formula_sum   'Li2 Ac1 Au4'
_cell_volume   146.79342396
_cell_formula_units_Z   1
loop_
 _symmetry_equiv_pos_site_id
 _symmetry_equiv_pos_as_xyz
  1  'x, y, z'
loop_
 _atom_site_type_symbol
 _atom_site_label
 _atom_site_symmetry_multiplicity
 _atom_site_fract_x
 _atom_site_fract_y
 _atom_site_fract_z
 _atom_site_occupancy
  Li  Li0  1  0.250000  0.750000  0.500000  1
  Li  Li1  1  0.750000  0.250000  0.500000  1
  Ac  Ac2  1  0.000000  0.000000  0.000000  1
  Au  Au3  1  0.302436  0.302436  0.604870  1
  Au  Au4  1  0.697564  0.697564  0.395130  1
  Au  Au5  1  0.697564  0.302436  0.000000  1
  Au  Au6  1  0.302436  0.697564  0.000000  1
