# generated using pymatgen
data_Ca2BeSi3
_symmetry_space_group_name_H-M   'P 1'
_cell_length_a   8.10971066
_cell_length_b   7.89706641
_cell_length_c   5.86663908
_cell_angle_alpha   70.44510422
_cell_angle_beta   66.57953841
_cell_angle_gamma   42.97536931
_symmetry_Int_Tables_number   1
_chemical_formula_structural   Ca2BeSi3
_chemical_formula_sum   'Ca4 Be2 Si6'
_cell_volume   234.43955949
_cell_formula_units_Z   2
loop_
 _symmetry_equiv_pos_site_id
 _symmetry_equiv_pos_as_xyz
  1  'x, y, z'
loop_
 _atom_site_type_symbol
 _atom_site_label
 _atom_site_symmetry_multiplicity
 _atom_site_fract_x
 _atom_site_fract_y
 _atom_site_fract_z
 _atom_site_occupancy
  Ca  Ca0  1  0.750000  0.750000  0.750000  1
  Ca  Ca1  1  0.756440  0.243560  0.756440  1
  Ca  Ca2  1  0.250000  0.250000  0.250000  1
  Ca  Ca3  1  0.243560  0.756440  0.243560  1
  Be  Be4  1  0.666650  0.666650  0.333350  1
  Be  Be5  1  0.333350  0.333350  0.666650  1
  Si  Si6  1  0.825657  0.346327  0.174343  1
  Si  Si7  1  0.653673  0.174343  0.346327  1
  Si  Si8  1  0.174343  0.653673  0.825657  1
  Si  Si9  1  0.346327  0.825657  0.653673  1
  Si  Si10  1  0.172243  0.172243  0.827757  1
  Si  Si11  1  0.827757  0.827757  0.172243  1
