# generated using pymatgen
data_Sr3CoNi2N3
_symmetry_space_group_name_H-M   'P 1'
_cell_length_a   5.22261700
_cell_length_b   9.14552000
_cell_length_c   13.33760900
_cell_angle_alpha   90.00000000
_cell_angle_beta   90.00000000
_cell_angle_gamma   90.00000000
_symmetry_Int_Tables_number   1
_chemical_formula_structural   Sr3CoNi2N3
_chemical_formula_sum   'Sr12 Co4 Ni8 N12'
_cell_volume   637.05153069
_cell_formula_units_Z   4
loop_
 _symmetry_equiv_pos_site_id
 _symmetry_equiv_pos_as_xyz
  1  'x, y, z'
loop_
 _atom_site_type_symbol
 _atom_site_label
 _atom_site_symmetry_multiplicity
 _atom_site_fract_x
 _atom_site_fract_y
 _atom_site_fract_z
 _atom_site_occupancy
  Sr  Sr0  1  0.493196  0.491981  0.748945  1
  Sr  Sr1  1  0.993196  0.008019  0.251055  1
  Sr  Sr2  1  0.006804  0.991981  0.751055  1
  Sr  Sr3  1  0.506804  0.508019  0.248945  1
  Sr  Sr4  1  0.975325  0.332407  0.411658  1
  Sr  Sr5  1  0.475325  0.167593  0.588342  1
  Sr  Sr6  1  0.524675  0.832407  0.088342  1
  Sr  Sr7  1  0.024675  0.667593  0.911658  1
  Sr  Sr8  1  0.019822  0.667294  0.587643  1
  Sr  Sr9  1  0.519822  0.832706  0.412357  1
  Sr  Sr10  1  0.480178  0.167294  0.912357  1
  Sr  Sr11  1  0.980178  0.332706  0.087643  1
  Co  Co12  1  0.462670  0.159341  0.161390  1
  Co  Co13  1  0.962670  0.340659  0.838610  1
  Co  Co14  1  0.037330  0.659341  0.338610  1
  Co  Co15  1  0.537330  0.840659  0.661390  1
  Ni  Ni16  1  0.539648  0.840325  0.839073  1
  Ni  Ni17  1  0.039648  0.659675  0.160927  1
  Ni  Ni18  1  0.960352  0.340325  0.660927  1
  Ni  Ni19  1  0.460352  0.159675  0.339073  1
  Ni  Ni20  1  0.002804  0.999897  0.000838  1
  Ni  Ni21  1  0.502804  0.500103  0.999162  1
  Ni  Ni22  1  0.497196  0.499897  0.499162  1
  Ni  Ni23  1  0.997196  0.000103  0.500838  1
  N  N24  1  0.310191  0.759299  0.748210  1
  N  N25  1  0.810191  0.740701  0.251790  1
  N  N26  1  0.189809  0.259299  0.751790  1
  N  N27  1  0.689809  0.240701  0.248210  1
  N  N28  1  0.233389  0.080866  0.423869  1
  N  N29  1  0.733389  0.419134  0.576131  1
  N  N30  1  0.266611  0.580866  0.076131  1
  N  N31  1  0.766611  0.919134  0.923869  1
  N  N32  1  0.759668  0.918961  0.578493  1
  N  N33  1  0.259668  0.581039  0.421507  1
  N  N34  1  0.740332  0.418961  0.921507  1
  N  N35  1  0.240332  0.081039  0.078493  1
