# generated using pymatgen
data_Sc3TiPd2O
_symmetry_space_group_name_H-M   'P 1'
_cell_length_a   8.61572130
_cell_length_b   8.61713826
_cell_length_c   8.61591300
_cell_angle_alpha   59.99253802
_cell_angle_beta   59.98713427
_cell_angle_gamma   59.99202316
_symmetry_Int_Tables_number   1
_chemical_formula_structural   Sc3TiPd2O
_chemical_formula_sum   'Sc12 Ti4 Pd8 O4'
_cell_volume   452.21825691
_cell_formula_units_Z   4
loop_
 _symmetry_equiv_pos_site_id
 _symmetry_equiv_pos_as_xyz
  1  'x, y, z'
loop_
 _atom_site_type_symbol
 _atom_site_label
 _atom_site_symmetry_multiplicity
 _atom_site_fract_x
 _atom_site_fract_y
 _atom_site_fract_z
 _atom_site_occupancy
  Sc  Sc0  1  0.815312  0.815291  0.184675  1
  Sc  Sc1  1  0.184711  0.184752  0.815292  1
  Sc  Sc2  1  0.815280  0.184681  0.815315  1
  Sc  Sc3  1  0.184711  0.815264  0.184754  1
  Sc  Sc4  1  0.184672  0.815258  0.815312  1
  Sc  Sc5  1  0.815282  0.184723  0.184724  1
  Sc  Sc6  1  0.434688  0.434709  0.065325  1
  Sc  Sc7  1  0.065289  0.065248  0.434708  1
  Sc  Sc8  1  0.434720  0.065319  0.434685  1
  Sc  Sc9  1  0.065289  0.434736  0.065246  1
  Sc  Sc10  1  0.065328  0.434742  0.434688  1
  Sc  Sc11  1  0.434718  0.065277  0.065276  1
  Ti  Ti12  1  0.125000  0.625000  0.625000  1
  Ti  Ti13  1  0.625000  0.125000  0.625000  1
  Ti  Ti14  1  0.625000  0.625000  0.125000  1
  Ti  Ti15  1  0.625000  0.625000  0.625000  1
  Pd  Pd16  1  0.756534  0.414541  0.414396  1
  Pd  Pd17  1  0.414546  0.756566  0.414385  1
  Pd  Pd18  1  0.414491  0.414477  0.756569  1
  Pd  Pd19  1  0.414542  0.414508  0.414379  1
  Pd  Pd20  1  0.493466  0.835459  0.835604  1
  Pd  Pd21  1  0.835454  0.493434  0.835615  1
  Pd  Pd22  1  0.835509  0.835523  0.493431  1
  Pd  Pd23  1  0.835458  0.835492  0.835621  1
  O  O24  1  0.625000  0.125000  0.125000  1
  O  O25  1  0.125000  0.625000  0.125000  1
  O  O26  1  0.125000  0.125000  0.625000  1
  O  O27  1  0.125000  0.125000  0.125000  1
