# generated using pymatgen
data_TbY9(Er5Bi6)2
_symmetry_space_group_name_H-M   'P 1'
_cell_length_a   8.24259400
_cell_length_b   9.47694020
_cell_length_c   12.05891700
_cell_angle_alpha   90.01191629
_cell_angle_beta   90.00000000
_cell_angle_gamma   90.00000000
_symmetry_Int_Tables_number   1
_chemical_formula_structural   TbY9(Er5Bi6)2
_chemical_formula_sum   'Tb1 Y9 Er10 Bi12'
_cell_volume   941.97710144
_cell_formula_units_Z   1
loop_
 _symmetry_equiv_pos_site_id
 _symmetry_equiv_pos_as_xyz
  1  'x, y, z'
loop_
 _atom_site_type_symbol
 _atom_site_label
 _atom_site_symmetry_multiplicity
 _atom_site_fract_x
 _atom_site_fract_y
 _atom_site_fract_z
 _atom_site_occupancy
  Tb  Tb0  1  0.186367  0.749996  0.718812  1
  Y  Y1  1  0.686367  0.750004  0.781188  1
  Y  Y2  1  0.813542  0.249746  0.281000  1
  Y  Y3  1  0.313542  0.250254  0.219000  1
  Y  Y4  1  0.306485  0.062924  0.940327  1
  Y  Y5  1  0.806485  0.437076  0.559673  1
  Y  Y6  1  0.353767  0.750155  0.215564  1
  Y  Y7  1  0.853767  0.749845  0.284436  1
  Y  Y8  1  0.645941  0.249859  0.784556  1
  Y  Y9  1  0.145941  0.250141  0.715444  1
  Er  Er10  1  0.025293  0.749826  0.988996  1
  Er  Er11  1  0.525293  0.750174  0.511004  1
  Er  Er12  1  0.973767  0.250428  0.011174  1
  Er  Er13  1  0.473767  0.249572  0.488826  1
  Er  Er14  1  0.306380  0.435677  0.940160  1
  Er  Er15  1  0.806380  0.064323  0.559840  1
  Er  Er16  1  0.693772  0.935005  0.059808  1
  Er  Er17  1  0.193772  0.564995  0.440192  1
  Er  Er18  1  0.693811  0.564874  0.059847  1
  Er  Er19  1  0.193811  0.935126  0.440153  1
  Bi  Bi20  1  0.434058  0.003767  0.672694  1
  Bi  Bi21  1  0.934058  0.496233  0.827306  1
  Bi  Bi22  1  0.566086  0.503747  0.326962  1
  Bi  Bi23  1  0.066086  0.996253  0.173038  1
  Bi  Bi24  1  0.566166  0.996178  0.327223  1
  Bi  Bi25  1  0.066166  0.503822  0.172777  1
  Bi  Bi26  1  0.433577  0.496140  0.672943  1
  Bi  Bi27  1  0.933577  0.003860  0.827057  1
  Bi  Bi28  1  0.408647  0.748442  0.958467  1
  Bi  Bi29  1  0.908647  0.751558  0.541533  1
  Bi  Bi30  1  0.592340  0.250491  0.042164  1
  Bi  Bi31  1  0.092340  0.249509  0.457836  1
