# generated using pymatgen
data_Y2Co10Re2P7
_symmetry_space_group_name_H-M   'P 1'
_cell_length_a   8.97685892
_cell_length_b   9.05196924
_cell_length_c   3.69017300
_cell_angle_alpha   90.00000000
_cell_angle_beta   90.00000000
_cell_angle_gamma   119.61357898
_symmetry_Int_Tables_number   1
_chemical_formula_structural   Y2Co10Re2P7
_chemical_formula_sum   'Y2 Co10 Re2 P7'
_cell_volume   260.68903436
_cell_formula_units_Z   1
loop_
 _symmetry_equiv_pos_site_id
 _symmetry_equiv_pos_as_xyz
  1  'x, y, z'
loop_
 _atom_site_type_symbol
 _atom_site_label
 _atom_site_symmetry_multiplicity
 _atom_site_fract_x
 _atom_site_fract_y
 _atom_site_fract_z
 _atom_site_occupancy
  Y  Y0  1  0.667669  0.333688  0.500000  1
  Y  Y1  1  0.337893  0.669288  0.000000  1
  Co  Co2  1  0.724656  0.879230  0.000000  1
  Co  Co3  1  0.939775  0.372398  0.000000  1
  Co  Co4  1  0.158644  0.281684  0.000000  1
  Co  Co5  1  0.383610  0.437096  0.500000  1
  Co  Co6  1  0.119150  0.841542  0.000000  1
  Co  Co7  1  0.432277  0.061703  0.000000  1
  Co  Co8  1  0.050770  0.616463  0.500000  1
  Co  Co9  1  0.564775  0.946950  0.500000  1
  Co  Co10  1  0.625827  0.565080  0.000000  1
  Co  Co11  1  0.865848  0.760956  0.500000  1
  Re  Re12  1  0.215121  0.100196  0.500000  1
  Re  Re13  1  0.908379  0.128202  0.500000  1
  P  P14  1  0.411970  0.300479  0.000000  1
  P  P15  1  0.290221  0.884356  0.500000  1
  P  P16  1  0.701226  0.110552  0.000000  1
  P  P17  1  0.597359  0.707849  0.500000  1
  P  P18  1  0.887220  0.591321  0.000000  1
  P  P19  1  0.117649  0.413285  0.500000  1
  P  P20  1  0.999962  0.997680  0.000000  1
