# generated using pymatgen
data_Lu7PS7
_symmetry_space_group_name_H-M   'P 1'
_cell_length_a   7.63743524
_cell_length_b   7.63774460
_cell_length_c   7.63749940
_cell_angle_alpha   120.00100617
_cell_angle_beta   89.99593407
_cell_angle_gamma   120.00216822
_symmetry_Int_Tables_number   1
_chemical_formula_structural   Lu7PS7
_chemical_formula_sum   'Lu7 P1 S7'
_cell_volume   315.02385002
_cell_formula_units_Z   1
loop_
 _symmetry_equiv_pos_site_id
 _symmetry_equiv_pos_as_xyz
  1  'x, y, z'
loop_
 _atom_site_type_symbol
 _atom_site_label
 _atom_site_symmetry_multiplicity
 _atom_site_fract_x
 _atom_site_fract_y
 _atom_site_fract_z
 _atom_site_occupancy
  Lu  Lu0  1  0.247287  0.000022  0.247279  1
  Lu  Lu1  1  0.247276  0.494534  0.247260  1
  Lu  Lu2  1  0.752723  0.999986  0.247265  1
  Lu  Lu3  1  0.249996  0.500006  0.750003  1
  Lu  Lu4  1  0.247277  0.000016  0.752740  1
  Lu  Lu5  1  0.752723  0.999998  0.752722  1
  Lu  Lu6  1  0.752737  0.505459  0.752736  1
  P  P7  1  0.999998  0.999997  0.999996  1
  S  S8  1  0.499981  0.999979  0.499996  1
  S  S9  1  0.000282  0.000561  0.500283  1
  S  S10  1  0.000279  0.499997  0.500270  1
  S  S11  1  0.499684  0.500002  0.500327  1
  S  S12  1  0.000313  0.500009  0.999705  1
  S  S13  1  0.499717  0.499976  0.999700  1
  S  S14  1  0.499729  0.999461  0.999724  1
