# generated using pymatgen
data_SrLa7(Yb3Sn4)4
_symmetry_space_group_name_H-M   'P 1'
_cell_length_a   8.02502303
_cell_length_b   8.55611829
_cell_length_c   16.18248500
_cell_angle_alpha   90.01201347
_cell_angle_beta   89.99486660
_cell_angle_gamma   90.00862613
_symmetry_Int_Tables_number   1
_chemical_formula_structural   SrLa7(Yb3Sn4)4
_chemical_formula_sum   'Sr1 La7 Yb12 Sn16'
_cell_volume   1111.13867539
_cell_formula_units_Z   1
loop_
 _symmetry_equiv_pos_site_id
 _symmetry_equiv_pos_as_xyz
  1  'x, y, z'
loop_
 _atom_site_type_symbol
 _atom_site_label
 _atom_site_symmetry_multiplicity
 _atom_site_fract_x
 _atom_site_fract_y
 _atom_site_fract_z
 _atom_site_occupancy
  Sr  Sr0  1  0.995459  0.179930  0.906271  1
  La  La1  1  0.493096  0.316384  0.902821  1
  La  La2  1  0.992376  0.184182  0.595952  1
  La  La3  1  0.507204  0.683777  0.403813  1
  La  La4  1  0.006752  0.817429  0.096406  1
  La  La5  1  0.506926  0.683035  0.095995  1
  La  La6  1  0.007041  0.816512  0.403863  1
  La  La7  1  0.491583  0.315556  0.596446  1
  Yb  Yb8  1  0.330604  0.829929  0.874523  1
  Yb  Yb9  1  0.831600  0.670700  0.624096  1
  Yb  Yb10  1  0.668888  0.171148  0.376059  1
  Yb  Yb11  1  0.168289  0.328854  0.123710  1
  Yb  Yb12  1  0.669035  0.171555  0.123921  1
  Yb  Yb13  1  0.168599  0.328480  0.376105  1
  Yb  Yb14  1  0.332742  0.828840  0.623770  1
  Yb  Yb15  1  0.830682  0.670759  0.875936  1
  Yb  Yb16  1  0.158188  0.502952  0.750808  1
  Yb  Yb17  1  0.661155  0.996733  0.750878  1
  Yb  Yb18  1  0.841296  0.495568  0.250019  1
  Yb  Yb19  1  0.341230  0.004603  0.250043  1
  Sn  Sn20  1  0.333560  0.033247  0.039310  1
  Sn  Sn21  1  0.832481  0.464948  0.461603  1
  Sn  Sn22  1  0.668071  0.964628  0.538045  1
  Sn  Sn23  1  0.169429  0.540424  0.963418  1
  Sn  Sn24  1  0.662591  0.962558  0.962555  1
  Sn  Sn25  1  0.167978  0.535399  0.538066  1
  Sn  Sn26  1  0.332778  0.035200  0.461271  1
  Sn  Sn27  1  0.831027  0.470228  0.040380  1
  Sn  Sn28  1  0.531117  0.605518  0.749177  1
  Sn  Sn29  1  0.033848  0.891646  0.747216  1
  Sn  Sn30  1  0.467647  0.395177  0.250407  1
  Sn  Sn31  1  0.967611  0.104610  0.250139  1
  Sn  Sn32  1  0.287419  0.137769  0.747479  1
  Sn  Sn33  1  0.783739  0.362229  0.748256  1
  Sn  Sn34  1  0.713979  0.859984  0.250709  1
  Sn  Sn35  1  0.213980  0.639508  0.250531  1
