# generated using pymatgen
data_TbScFe14(SiC)3
_symmetry_space_group_name_H-M   'P 1'
_cell_length_a   6.41888398
_cell_length_b   6.41888499
_cell_length_c   6.41888496
_cell_angle_alpha   83.02493435
_cell_angle_beta   83.02493444
_cell_angle_gamma   83.02493623
_symmetry_Int_Tables_number   1
_chemical_formula_structural   TbScFe14(SiC)3
_chemical_formula_sum   'Tb1 Sc1 Fe14 Si3 C3'
_cell_volume   259.03897866
_cell_formula_units_Z   1
loop_
 _symmetry_equiv_pos_site_id
 _symmetry_equiv_pos_as_xyz
  1  'x, y, z'
loop_
 _atom_site_type_symbol
 _atom_site_label
 _atom_site_symmetry_multiplicity
 _atom_site_fract_x
 _atom_site_fract_y
 _atom_site_fract_z
 _atom_site_occupancy
  Tb  Tb0  1  0.347772  0.347772  0.347772  1
  Sc  Sc1  1  0.656205  0.656205  0.656205  1
  Fe  Fe2  1  0.716644  0.284852  0.998437  1
  Fe  Fe3  1  0.998437  0.716644  0.284852  1
  Fe  Fe4  1  0.284852  0.998437  0.716644  1
  Fe  Fe5  1  0.998437  0.284852  0.716644  1
  Fe  Fe6  1  0.716644  0.998437  0.284852  1
  Fe  Fe7  1  0.284852  0.716644  0.998437  1
  Fe  Fe8  1  0.342261  0.342261  0.858404  1
  Fe  Fe9  1  0.858404  0.342261  0.342261  1
  Fe  Fe10  1  0.342261  0.858404  0.342261  1
  Fe  Fe11  1  0.659719  0.659719  0.135355  1
  Fe  Fe12  1  0.135355  0.659719  0.659719  1
  Fe  Fe13  1  0.659719  0.135355  0.659719  1
  Fe  Fe14  1  0.901210  0.901210  0.901210  1
  Fe  Fe15  1  0.096775  0.096775  0.096775  1
  Si  Si16  1  0.002310  0.002310  0.498637  1
  Si  Si17  1  0.498637  0.002310  0.002310  1
  Si  Si18  1  0.002310  0.498637  0.002310  1
  C  C19  1  0.504913  0.504913  0.987368  1
  C  C20  1  0.987368  0.504913  0.504913  1
  C  C21  1  0.504913  0.987368  0.504913  1
