# generated using pymatgen
data_Li12Hf3SnO14
_symmetry_space_group_name_H-M   'P 1'
_cell_length_a   6.04106213
_cell_length_b   5.33149172
_cell_length_c   10.32216393
_cell_angle_alpha   69.92375678
_cell_angle_beta   90.02339425
_cell_angle_gamma   90.00608118
_symmetry_Int_Tables_number   1
_chemical_formula_structural   Li12Hf3SnO14
_chemical_formula_sum   'Li12 Hf3 Sn1 O14'
_cell_volume   312.25384457
_cell_formula_units_Z   1
loop_
 _symmetry_equiv_pos_site_id
 _symmetry_equiv_pos_as_xyz
  1  'x, y, z'
loop_
 _atom_site_type_symbol
 _atom_site_label
 _atom_site_symmetry_multiplicity
 _atom_site_fract_x
 _atom_site_fract_y
 _atom_site_fract_z
 _atom_site_occupancy
  Li  Li0  1  0.781706  0.205396  0.145603  1
  Li  Li1  1  0.234416  0.216199  0.140093  1
  Li  Li2  1  0.495202  0.840565  0.122868  1
  Li  Li3  1  0.996090  0.162023  0.376017  1
  Li  Li4  1  0.735331  0.781957  0.361478  1
  Li  Li5  1  0.280708  0.791492  0.356272  1
  Li  Li6  1  0.716743  0.208499  0.642671  1
  Li  Li7  1  0.267985  0.218520  0.636787  1
  Li  Li8  1  0.004876  0.843834  0.622205  1
  Li  Li9  1  0.504216  0.157240  0.877081  1
  Li  Li10  1  0.763908  0.783573  0.862239  1
  Li  Li11  1  0.219796  0.793787  0.856865  1
  Hf  Hf12  1  0.507489  0.270790  0.365252  1
  Hf  Hf13  1  0.492944  0.730289  0.633194  1
  Hf  Hf14  1  0.992768  0.272860  0.865220  1
  Sn  Sn15  1  0.006712  0.730206  0.131497  1
  O  O16  1  0.000678  0.503271  0.000234  1
  O  O17  1  0.763916  0.989223  0.003251  1
  O  O18  1  0.508637  0.039113  0.245316  1
  O  O19  1  0.278688  0.515170  0.236281  1
  O  O20  1  0.781313  0.475276  0.264454  1
  O  O21  1  0.008841  0.955694  0.256729  1
  O  O22  1  0.267303  0.011079  0.496370  1
  O  O23  1  0.499915  0.498231  0.501001  1
  O  O24  1  0.732706  0.989172  0.504041  1
  O  O25  1  0.991789  0.045400  0.744038  1
  O  O26  1  0.220018  0.521611  0.736879  1
  O  O27  1  0.718847  0.479618  0.765127  1
  O  O28  1  0.491891  0.957936  0.755403  1
  O  O29  1  0.234569  0.011974  0.995533  1
