# generated using pymatgen
data_Ho4TcOs5Ru2
_symmetry_space_group_name_H-M   'P 1'
_cell_length_a   5.23984651
_cell_length_b   5.31592673
_cell_length_c   9.00576700
_cell_angle_alpha   90.00000000
_cell_angle_beta   90.00000000
_cell_angle_gamma   120.48145140
_symmetry_Int_Tables_number   1
_chemical_formula_structural   Ho4TcOs5Ru2
_chemical_formula_sum   'Ho4 Tc1 Os5 Ru2'
_cell_volume   216.18294750
_cell_formula_units_Z   1
loop_
 _symmetry_equiv_pos_site_id
 _symmetry_equiv_pos_as_xyz
  1  'x, y, z'
loop_
 _atom_site_type_symbol
 _atom_site_label
 _atom_site_symmetry_multiplicity
 _atom_site_fract_x
 _atom_site_fract_y
 _atom_site_fract_z
 _atom_site_occupancy
  Ho  Ho0  1  0.329833  0.664917  0.433995  1
  Ho  Ho1  1  0.659481  0.329739  0.565142  1
  Ho  Ho2  1  0.659481  0.329739  0.934858  1
  Ho  Ho3  1  0.329833  0.664917  0.066005  1
  Tc  Tc4  1  0.676753  0.838376  0.750000  1
  Os  Os5  1  0.835187  0.169431  0.250000  1
  Os  Os6  1  0.835187  0.665756  0.250000  1
  Os  Os7  1  0.352223  0.176111  0.250000  1
  Os  Os8  1  0.176273  0.826629  0.750000  1
  Os  Os9  1  0.176273  0.349645  0.750000  1
  Ru  Ru10  1  0.984738  0.992369  0.500023  1
  Ru  Ru11  1  0.984738  0.992369  0.999977  1
