# generated using pymatgen
data_YbSm3(SiTc2)8
_symmetry_space_group_name_H-M   'P 1'
_cell_length_a   4.16961100
_cell_length_b   7.19131893
_cell_length_c   15.52406900
_cell_angle_alpha   90.21135843
_cell_angle_beta   90.00000000
_cell_angle_gamma   90.00000000
_symmetry_Int_Tables_number   1
_chemical_formula_structural   YbSm3(SiTc2)8
_chemical_formula_sum   'Yb1 Sm3 Si8 Tc16'
_cell_volume   465.48608080
_cell_formula_units_Z   1
loop_
 _symmetry_equiv_pos_site_id
 _symmetry_equiv_pos_as_xyz
  1  'x, y, z'
loop_
 _atom_site_type_symbol
 _atom_site_label
 _atom_site_symmetry_multiplicity
 _atom_site_fract_x
 _atom_site_fract_y
 _atom_site_fract_z
 _atom_site_occupancy
  Yb  Yb0  1  0.500000  0.916702  0.618565  1
  Sm  Sm1  1  0.000000  0.583687  0.117349  1
  Sm  Sm2  1  0.000000  0.418230  0.881637  1
  Sm  Sm3  1  0.500000  0.082459  0.383368  1
  Si  Si4  1  0.000000  0.826663  0.476092  1
  Si  Si5  1  0.000000  0.170123  0.525550  1
  Si  Si6  1  0.500000  0.328331  0.024564  1
  Si  Si7  1  0.500000  0.671972  0.974270  1
  Si  Si8  1  0.000000  0.297954  0.273541  1
  Si  Si9  1  0.000000  0.706225  0.725289  1
  Si  Si10  1  0.500000  0.798085  0.227052  1
  Si  Si11  1  0.500000  0.203621  0.772716  1
  Tc  Tc12  1  0.000000  0.140384  0.052003  1
  Tc  Tc13  1  0.000000  0.859337  0.947607  1
  Tc  Tc14  1  0.500000  0.639679  0.448265  1
  Tc  Tc15  1  0.500000  0.358519  0.552304  1
  Tc  Tc16  1  0.000000  0.731604  0.320603  1
  Tc  Tc17  1  0.000000  0.265212  0.679838  1
  Tc  Tc18  1  0.500000  0.232877  0.179203  1
  Tc  Tc19  1  0.500000  0.767753  0.819811  1
  Tc  Tc20  1  0.000000  0.434485  0.419661  1
  Tc  Tc21  1  0.000000  0.562270  0.581167  1
  Tc  Tc22  1  0.500000  0.934062  0.080621  1
  Tc  Tc23  1  0.500000  0.065949  0.918877  1
  Tc  Tc24  1  0.000000  0.992474  0.205043  1
  Tc  Tc25  1  0.000000  0.009997  0.794588  1
  Tc  Tc26  1  0.500000  0.492310  0.295201  1
  Tc  Tc27  1  0.500000  0.509035  0.705213  1
