# generated using pymatgen
data_Sr2BiSb(BrO2)2
_symmetry_space_group_name_H-M   'P 1'
_cell_length_a   5.64190900
_cell_length_b   5.80302807
_cell_length_c   7.15596429
_cell_angle_alpha   66.07955195
_cell_angle_beta   90.00000000
_cell_angle_gamma   90.00000000
_symmetry_Int_Tables_number   1
_chemical_formula_structural   Sr2BiSb(BrO2)2
_chemical_formula_sum   'Sr2 Bi1 Sb1 Br2 O4'
_cell_volume   214.16428321
_cell_formula_units_Z   1
loop_
 _symmetry_equiv_pos_site_id
 _symmetry_equiv_pos_as_xyz
  1  'x, y, z'
loop_
 _atom_site_type_symbol
 _atom_site_label
 _atom_site_symmetry_multiplicity
 _atom_site_fract_x
 _atom_site_fract_y
 _atom_site_fract_z
 _atom_site_occupancy
  Sr  Sr0  1  0.750000  0.396175  0.207651  1
  Sr  Sr1  1  0.250000  0.607955  0.784089  1
  Bi  Bi2  1  0.750000  0.079855  0.840288  1
  Sb  Sb3  1  0.250000  0.929503  0.140996  1
  Br  Br4  1  0.250000  0.251465  0.497071  1
  Br  Br5  1  0.750000  0.739002  0.521996  1
  O  O6  1  0.006812  0.228360  0.001977  1
  O  O7  1  0.493188  0.228360  0.001977  1
  O  O8  1  0.006812  0.769663  0.001977  1
  O  O9  1  0.493188  0.769663  0.001977  1
