# generated using pymatgen
data_Y19Er(CoSb2)4
_symmetry_space_group_name_H-M   'P 1'
_cell_length_a   7.90731211
_cell_length_b   8.78493216
_cell_length_c   12.21536205
_cell_angle_alpha   89.98967958
_cell_angle_beta   89.99801429
_cell_angle_gamma   89.98057611
_symmetry_Int_Tables_number   1
_chemical_formula_structural   Y19Er(CoSb2)4
_chemical_formula_sum   'Y19 Er1 Co4 Sb8'
_cell_volume   848.54251119
_cell_formula_units_Z   1
loop_
 _symmetry_equiv_pos_site_id
 _symmetry_equiv_pos_as_xyz
  1  'x, y, z'
loop_
 _atom_site_type_symbol
 _atom_site_label
 _atom_site_symmetry_multiplicity
 _atom_site_fract_x
 _atom_site_fract_y
 _atom_site_fract_z
 _atom_site_occupancy
  Y  Y0  1  0.156344  0.750044  0.204506  1
  Y  Y1  1  0.655975  0.250554  0.296073  1
  Y  Y2  1  0.843605  0.249893  0.795716  1
  Y  Y3  1  0.343736  0.749792  0.704249  1
  Y  Y4  1  0.456607  0.749980  0.998421  1
  Y  Y5  1  0.958409  0.250841  0.501447  1
  Y  Y6  1  0.543450  0.250055  0.001706  1
  Y  Y7  1  0.045429  0.748923  0.498107  1
  Y  Y8  1  0.623886  0.749471  0.306175  1
  Y  Y9  1  0.124361  0.249984  0.194264  1
  Y  Y10  1  0.374930  0.250496  0.693753  1
  Y  Y11  1  0.875343  0.750157  0.805859  1
  Y  Y12  1  0.821390  0.965579  0.066109  1
  Y  Y13  1  0.321481  0.034666  0.433928  1
  Y  Y14  1  0.178348  0.465342  0.934066  1
  Y  Y15  1  0.678551  0.534210  0.565737  1
  Y  Y16  1  0.178405  0.034659  0.934026  1
  Y  Y17  1  0.678535  0.966004  0.565442  1
  Y  Y18  1  0.821446  0.534523  0.066137  1
  Er  Er19  1  0.324441  0.465233  0.434408  1
  Co  Co20  1  0.433930  0.748539  0.490310  1
  Co  Co21  1  0.934701  0.250001  0.009617  1
  Co  Co22  1  0.562805  0.251054  0.508983  1
  Co  Co23  1  0.065183  0.750033  0.990504  1
  Sb  Sb24  1  0.929361  0.991901  0.327452  1
  Sb  Sb25  1  0.429800  0.008113  0.173048  1
  Sb  Sb26  1  0.069703  0.492041  0.673294  1
  Sb  Sb27  1  0.570197  0.507935  0.826978  1
  Sb  Sb28  1  0.070109  0.007934  0.672644  1
  Sb  Sb29  1  0.569849  0.992134  0.826776  1
  Sb  Sb30  1  0.930415  0.507975  0.327093  1
  Sb  Sb31  1  0.429276  0.491929  0.173172  1
