# generated using pymatgen
data_Dy5Mn3(Co4P3)4
_symmetry_space_group_name_H-M   'P 1'
_cell_length_a   12.05220400
_cell_length_b   12.05220364
_cell_length_c   3.67172500
_cell_angle_alpha   90.00000000
_cell_angle_beta   90.00000000
_cell_angle_gamma   119.99999549
_symmetry_Int_Tables_number   1
_chemical_formula_structural   Dy5Mn3(Co4P3)4
_chemical_formula_sum   'Dy5 Mn3 Co16 P12'
_cell_volume   461.88486680
_cell_formula_units_Z   1
loop_
 _symmetry_equiv_pos_site_id
 _symmetry_equiv_pos_as_xyz
  1  'x, y, z'
loop_
 _atom_site_type_symbol
 _atom_site_label
 _atom_site_symmetry_multiplicity
 _atom_site_fract_x
 _atom_site_fract_y
 _atom_site_fract_z
 _atom_site_occupancy
  Dy  Dy0  1  0.666667  0.333333  0.000000  1
  Dy  Dy1  1  0.333333  0.666667  0.000000  1
  Dy  Dy2  1  0.186341  0.186341  0.500000  1
  Dy  Dy3  1  0.813659  0.000000  0.500000  1
  Dy  Dy4  1  0.000000  0.813659  0.500000  1
  Mn  Mn5  1  0.556872  0.556872  0.000000  1
  Mn  Mn6  1  0.443128  0.000000  0.000000  1
  Mn  Mn7  1  0.000000  0.443128  0.000000  1
  Co  Co8  1  0.821883  0.199062  0.000000  1
  Co  Co9  1  0.800938  0.622821  0.000000  1
  Co  Co10  1  0.377179  0.178117  0.000000  1
  Co  Co11  1  0.199062  0.821883  0.000000  1
  Co  Co12  1  0.622821  0.800938  0.000000  1
  Co  Co13  1  0.178117  0.377179  0.000000  1
  Co  Co14  1  0.642543  0.125300  0.500000  1
  Co  Co15  1  0.874700  0.517243  0.500000  1
  Co  Co16  1  0.482757  0.357457  0.500000  1
  Co  Co17  1  0.125300  0.642543  0.500000  1
  Co  Co18  1  0.517243  0.874700  0.500000  1
  Co  Co19  1  0.357457  0.482757  0.500000  1
  Co  Co20  1  0.715959  0.715959  0.500000  1
  Co  Co21  1  0.284041  0.000000  0.500000  1
  Co  Co22  1  0.000000  0.284041  0.500000  1
  Co  Co23  1  0.000000  0.000000  0.000000  1
  P  P24  1  0.364436  0.364436  0.000000  1
  P  P25  1  0.635564  0.000000  0.000000  1
  P  P26  1  0.000000  0.635564  0.000000  1
  P  P27  1  0.833849  0.313868  0.500000  1
  P  P28  1  0.686132  0.519980  0.500000  1
  P  P29  1  0.480020  0.166151  0.500000  1
  P  P30  1  0.313868  0.833849  0.500000  1
  P  P31  1  0.519980  0.686132  0.500000  1
  P  P32  1  0.166151  0.480020  0.500000  1
  P  P33  1  0.819252  0.819252  0.000000  1
  P  P34  1  0.180748  0.000000  0.000000  1
  P  P35  1  0.000000  0.180748  0.000000  1
