# generated using pymatgen
data_TbTh2Al3Co2Ni
_symmetry_space_group_name_H-M   'P 1'
_cell_length_a   7.04111500
_cell_length_b   7.15740135
_cell_length_c   3.87677000
_cell_angle_alpha   90.00000000
_cell_angle_beta   90.00000000
_cell_angle_gamma   119.46398846
_symmetry_Int_Tables_number   1
_chemical_formula_structural   TbTh2Al3Co2Ni
_chemical_formula_sum   'Tb1 Th2 Al3 Co2 Ni1'
_cell_volume   170.10533781
_cell_formula_units_Z   1
loop_
 _symmetry_equiv_pos_site_id
 _symmetry_equiv_pos_as_xyz
  1  'x, y, z'
loop_
 _atom_site_type_symbol
 _atom_site_label
 _atom_site_symmetry_multiplicity
 _atom_site_fract_x
 _atom_site_fract_y
 _atom_site_fract_z
 _atom_site_occupancy
  Tb  Tb0  1  0.581438  0.000000  0.000000  1
  Th  Th1  1  0.999633  0.573565  0.000000  1
  Th  Th2  1  0.426068  0.426435  0.000000  1
  Al  Al3  1  0.241701  0.000000  0.500000  1
  Al  Al4  1  0.992494  0.224166  0.500000  1
  Al  Al5  1  0.768329  0.775834  0.500000  1
  Co  Co6  1  0.312852  0.642345  0.500000  1
  Co  Co7  1  0.670508  0.357655  0.500000  1
  Ni  Ni8  1  0.006977  0.000000  0.000000  1
