# generated using pymatgen
data_TlVCu4P4O17
_symmetry_space_group_name_H-M   'P 1'
_cell_length_a   9.73017800
_cell_length_b   9.73017800
_cell_length_c   7.54120200
_cell_angle_alpha   90.00000000
_cell_angle_beta   90.00000000
_cell_angle_gamma   90.00000000
_symmetry_Int_Tables_number   1
_chemical_formula_structural   TlVCu4P4O17
_chemical_formula_sum   'Tl2 V2 Cu8 P8 O34'
_cell_volume   713.97358488
_cell_formula_units_Z   2
loop_
 _symmetry_equiv_pos_site_id
 _symmetry_equiv_pos_as_xyz
  1  'x, y, z'
loop_
 _atom_site_type_symbol
 _atom_site_label
 _atom_site_symmetry_multiplicity
 _atom_site_fract_x
 _atom_site_fract_y
 _atom_site_fract_z
 _atom_site_occupancy
  Tl  Tl0  1  0.000000  0.000000  0.000000  1
  Tl  Tl1  1  0.500000  0.500000  0.000000  1
  V  V2  1  0.000000  0.500000  0.939692  1
  V  V3  1  0.500000  0.000000  0.060308  1
  Cu  Cu4  1  0.238368  0.489791  0.406606  1
  Cu  Cu5  1  0.489791  0.238368  0.593394  1
  Cu  Cu6  1  0.010209  0.738368  0.406606  1
  Cu  Cu7  1  0.761632  0.510209  0.406606  1
  Cu  Cu8  1  0.738368  0.010209  0.593394  1
  Cu  Cu9  1  0.989791  0.261632  0.406606  1
  Cu  Cu10  1  0.510209  0.761632  0.593394  1
  Cu  Cu11  1  0.261632  0.989791  0.593394  1
  P  P12  1  0.216809  0.694355  0.723389  1
  P  P13  1  0.805645  0.716809  0.723389  1
  P  P14  1  0.716809  0.805645  0.276611  1
  P  P15  1  0.194355  0.283191  0.723389  1
  P  P16  1  0.783191  0.305645  0.723389  1
  P  P17  1  0.283191  0.194355  0.276611  1
  P  P18  1  0.694355  0.216809  0.276611  1
  P  P19  1  0.305645  0.783191  0.276611  1
  O  O20  1  0.000000  0.500000  0.155640  1
  O  O21  1  0.871423  0.838608  0.275596  1
  O  O22  1  0.885093  0.651935  0.882565  1
  O  O23  1  0.320556  0.347402  0.261336  1
  O  O24  1  0.847402  0.179444  0.261336  1
  O  O25  1  0.848065  0.385093  0.882565  1
  O  O26  1  0.679444  0.652598  0.261336  1
  O  O27  1  0.500000  0.000000  0.844360  1
  O  O28  1  0.652598  0.679444  0.738664  1
  O  O29  1  0.820556  0.152598  0.738664  1
  O  O30  1  0.651935  0.885093  0.117435  1
  O  O31  1  0.114907  0.348065  0.882565  1
  O  O32  1  0.347402  0.320556  0.738664  1
  O  O33  1  0.179444  0.847402  0.738664  1
  O  O34  1  0.628577  0.338608  0.724404  1
  O  O35  1  0.348065  0.114907  0.117435  1
  O  O36  1  0.128577  0.161392  0.275596  1
  O  O37  1  0.838608  0.871423  0.724404  1
  O  O38  1  0.864309  0.649264  0.547031  1
  O  O39  1  0.350736  0.135691  0.452969  1
  O  O40  1  0.338608  0.628577  0.275596  1
  O  O41  1  0.850736  0.364309  0.547031  1
  O  O42  1  0.649264  0.864309  0.452969  1
  O  O43  1  0.151935  0.614907  0.882565  1
  O  O44  1  0.161392  0.128577  0.724404  1
  O  O45  1  0.371423  0.661392  0.724404  1
  O  O46  1  0.152598  0.820556  0.261336  1
  O  O47  1  0.364309  0.850736  0.452969  1
  O  O48  1  0.385093  0.848065  0.117435  1
  O  O49  1  0.661392  0.371423  0.275596  1
  O  O50  1  0.635691  0.149264  0.452969  1
  O  O51  1  0.135691  0.350736  0.547031  1
  O  O52  1  0.614907  0.151935  0.117435  1
  O  O53  1  0.149264  0.635691  0.547031  1
