# generated using pymatgen
data_K3Tm(PO4)2
_symmetry_space_group_name_H-M   'P 1'
_cell_length_a   5.66052300
_cell_length_b   5.66052176
_cell_length_c   7.74159200
_cell_angle_alpha   90.00000000
_cell_angle_beta   90.00000000
_cell_angle_gamma   120.00001307
_symmetry_Int_Tables_number   1
_chemical_formula_structural   K3Tm(PO4)2
_chemical_formula_sum   'K3 Tm1 P2 O8'
_cell_volume   214.81958715
_cell_formula_units_Z   1
loop_
 _symmetry_equiv_pos_site_id
 _symmetry_equiv_pos_as_xyz
  1  'x, y, z'
loop_
 _atom_site_type_symbol
 _atom_site_label
 _atom_site_symmetry_multiplicity
 _atom_site_fract_x
 _atom_site_fract_y
 _atom_site_fract_z
 _atom_site_occupancy
  K  K0  1  0.333333  0.666667  0.733509  1
  K  K1  1  0.666667  0.333333  0.266491  1
  K  K2  1  0.000000  0.000000  0.000000  1
  Tm  Tm3  1  0.000000  0.000000  0.500000  1
  P  P4  1  0.333333  0.666667  0.260986  1
  P  P5  1  0.666667  0.333333  0.739014  1
  O  O6  1  0.333333  0.666667  0.064905  1
  O  O7  1  0.666667  0.333333  0.935095  1
  O  O8  1  0.183792  0.816208  0.333375  1
  O  O9  1  0.816208  0.183792  0.666625  1
  O  O10  1  0.183792  0.367585  0.333375  1
  O  O11  1  0.816208  0.632415  0.666625  1
  O  O12  1  0.632415  0.816208  0.333375  1
  O  O13  1  0.367585  0.183792  0.666625  1
