# generated using pymatgen
data_Ca4In4Pt3Rh
_symmetry_space_group_name_H-M   'P 1'
_cell_length_a   4.45485100
_cell_length_b   7.32743614
_cell_length_c   8.39936958
_cell_angle_alpha   90.19448703
_cell_angle_beta   90.00000000
_cell_angle_gamma   90.00000000
_symmetry_Int_Tables_number   1
_chemical_formula_structural   Ca4In4Pt3Rh
_chemical_formula_sum   'Ca4 In4 Pt3 Rh1'
_cell_volume   274.17598611
_cell_formula_units_Z   1
loop_
 _symmetry_equiv_pos_site_id
 _symmetry_equiv_pos_as_xyz
  1  'x, y, z'
loop_
 _atom_site_type_symbol
 _atom_site_label
 _atom_site_symmetry_multiplicity
 _atom_site_fract_x
 _atom_site_fract_y
 _atom_site_fract_z
 _atom_site_occupancy
  Ca  Ca0  1  0.250000  0.029198  0.322485  1
  Ca  Ca1  1  0.250000  0.529263  0.176121  1
  Ca  Ca2  1  0.750000  0.971525  0.678478  1
  Ca  Ca3  1  0.750000  0.470140  0.823199  1
  In  In4  1  0.750000  0.348387  0.431189  1
  In  In5  1  0.250000  0.152446  0.939481  1
  In  In6  1  0.750000  0.855366  0.065962  1
  In  In7  1  0.250000  0.649151  0.564295  1
  Pt  Pt8  1  0.750000  0.728543  0.377429  1
  Pt  Pt9  1  0.250000  0.768369  0.878105  1
  Pt  Pt10  1  0.250000  0.268494  0.622796  1
  Rh  Rh11  1  0.750000  0.229118  0.120460  1
