# generated using pymatgen
data_Dy3Ho5Sc12Si15Rh
_symmetry_space_group_name_H-M   'P 1'
_cell_length_a   7.07005617
_cell_length_b   7.43055858
_cell_length_c   13.94421214
_cell_angle_alpha   90.01135774
_cell_angle_beta   89.98803142
_cell_angle_gamma   90.20739705
_symmetry_Int_Tables_number   1
_chemical_formula_structural   Dy3Ho5Sc12Si15Rh
_chemical_formula_sum   'Dy3 Ho5 Sc12 Si15 Rh1'
_cell_volume   732.54691753
_cell_formula_units_Z   1
loop_
 _symmetry_equiv_pos_site_id
 _symmetry_equiv_pos_as_xyz
  1  'x, y, z'
loop_
 _atom_site_type_symbol
 _atom_site_label
 _atom_site_symmetry_multiplicity
 _atom_site_fract_x
 _atom_site_fract_y
 _atom_site_fract_z
 _atom_site_occupancy
  Dy  Dy0  1  0.011228  0.178175  0.404084  1
  Dy  Dy1  1  0.511169  0.323064  0.403750  1
  Dy  Dy2  1  0.489284  0.676812  0.595523  1
  Ho  Ho3  1  0.011385  0.178411  0.096058  1
  Ho  Ho4  1  0.991024  0.824446  0.904674  1
  Ho  Ho5  1  0.489216  0.677095  0.904334  1
  Ho  Ho6  1  0.991035  0.824449  0.595470  1
  Ho  Ho7  1  0.511185  0.322764  0.096355  1
  Sc  Sc8  1  0.159056  0.504195  0.750045  1
  Sc  Sc9  1  0.837912  0.496047  0.249888  1
  Sc  Sc10  1  0.338790  0.004935  0.249893  1
  Sc  Sc11  1  0.668687  0.998619  0.750047  1
  Sc  Sc12  1  0.319935  0.172398  0.627036  1
  Sc  Sc13  1  0.671298  0.825407  0.373969  1
  Sc  Sc14  1  0.170716  0.677444  0.374253  1
  Sc  Sc15  1  0.671176  0.825312  0.125903  1
  Sc  Sc16  1  0.834050  0.322195  0.626720  1
  Sc  Sc17  1  0.319914  0.172561  0.873088  1
  Sc  Sc18  1  0.834142  0.322089  0.873397  1
  Sc  Sc19  1  0.170734  0.677407  0.125598  1
  Si  Si20  1  0.968530  0.884876  0.249863  1
  Si  Si21  1  0.468171  0.614688  0.249861  1
  Si  Si22  1  0.530513  0.387494  0.750150  1
  Si  Si23  1  0.287524  0.867998  0.750201  1
  Si  Si24  1  0.713457  0.129464  0.249662  1
  Si  Si25  1  0.213372  0.371598  0.249648  1
  Si  Si26  1  0.780908  0.626966  0.750195  1
  Si  Si27  1  0.159297  0.467451  0.538048  1
  Si  Si28  1  0.842895  0.536060  0.461391  1
  Si  Si29  1  0.344428  0.965724  0.460623  1
  Si  Si30  1  0.842431  0.535561  0.038735  1
  Si  Si31  1  0.657991  0.034542  0.538776  1
  Si  Si32  1  0.159816  0.467315  0.962016  1
  Si  Si33  1  0.657926  0.034518  0.961270  1
  Si  Si34  1  0.344197  0.966019  0.039458  1
  Rh  Rh35  1  0.026606  0.105900  0.750020  1
