# generated using pymatgen
data_Th4InPd4Au
_symmetry_space_group_name_H-M   'P 1'
_cell_length_a   7.90635400
_cell_length_b   7.90635400
_cell_length_c   3.80440200
_cell_angle_alpha   90.00000000
_cell_angle_beta   90.00000000
_cell_angle_gamma   90.00000000
_symmetry_Int_Tables_number   1
_chemical_formula_structural   Th4InPd4Au
_chemical_formula_sum   'Th4 In1 Pd4 Au1'
_cell_volume   237.81481851
_cell_formula_units_Z   1
loop_
 _symmetry_equiv_pos_site_id
 _symmetry_equiv_pos_as_xyz
  1  'x, y, z'
loop_
 _atom_site_type_symbol
 _atom_site_label
 _atom_site_symmetry_multiplicity
 _atom_site_fract_x
 _atom_site_fract_y
 _atom_site_fract_z
 _atom_site_occupancy
  Th  Th0  1  0.316405  0.830636  0.500000  1
  Th  Th1  1  0.830636  0.683595  0.500000  1
  Th  Th2  1  0.169364  0.316405  0.500000  1
  Th  Th3  1  0.683595  0.169364  0.500000  1
  In  In4  1  0.500000  0.500000  0.000000  1
  Pd  Pd5  1  0.376678  0.130233  0.000000  1
  Pd  Pd6  1  0.869767  0.376678  0.000000  1
  Pd  Pd7  1  0.130233  0.623322  0.000000  1
  Pd  Pd8  1  0.623322  0.869767  0.000000  1
  Au  Au9  1  0.000000  0.000000  0.000000  1
