# generated using pymatgen
data_SrMn2Co(P2O7)2
_symmetry_space_group_name_H-M   'P 1'
_cell_length_a   7.86439700
_cell_length_b   7.74717077
_cell_length_c   9.69355656
_cell_angle_alpha   68.16785340
_cell_angle_beta   90.00000000
_cell_angle_gamma   90.00000000
_symmetry_Int_Tables_number   1
_chemical_formula_structural   SrMn2Co(P2O7)2
_chemical_formula_sum   'Sr2 Mn4 Co2 P8 O28'
_cell_volume   548.23839331
_cell_formula_units_Z   2
loop_
 _symmetry_equiv_pos_site_id
 _symmetry_equiv_pos_as_xyz
  1  'x, y, z'
loop_
 _atom_site_type_symbol
 _atom_site_label
 _atom_site_symmetry_multiplicity
 _atom_site_fract_x
 _atom_site_fract_y
 _atom_site_fract_z
 _atom_site_occupancy
  Sr  Sr0  1  0.500000  0.000000  0.500000  1
  Sr  Sr1  1  0.000000  0.000000  0.000000  1
  Mn  Mn2  1  0.624526  0.308835  0.031978  1
  Mn  Mn3  1  0.124526  0.691165  0.468022  1
  Mn  Mn4  1  0.375474  0.691165  0.968022  1
  Mn  Mn5  1  0.875474  0.308835  0.531978  1
  Co  Co6  1  0.500000  0.500000  0.500000  1
  Co  Co7  1  0.000000  0.500000  0.000000  1
  P  P8  1  0.203019  0.384874  0.306784  1
  P  P9  1  0.703019  0.615126  0.193216  1
  P  P10  1  0.796981  0.615126  0.693216  1
  P  P11  1  0.296981  0.384874  0.806784  1
  P  P12  1  0.556312  0.108880  0.793891  1
  P  P13  1  0.056312  0.891120  0.706109  1
  P  P14  1  0.443688  0.891120  0.206109  1
  P  P15  1  0.943688  0.108880  0.293891  1
  O  O16  1  0.181928  0.876707  0.591210  1
  O  O17  1  0.681928  0.123293  0.908790  1
  O  O18  1  0.818072  0.123293  0.408790  1
  O  O19  1  0.318072  0.876707  0.091210  1
  O  O20  1  0.625991  0.659070  0.612572  1
  O  O21  1  0.125991  0.340930  0.887428  1
  O  O22  1  0.374009  0.340930  0.387428  1
  O  O23  1  0.874009  0.659070  0.112572  1
  O  O24  1  0.372828  0.182406  0.825502  1
  O  O25  1  0.872828  0.817594  0.674498  1
  O  O26  1  0.627172  0.817594  0.174498  1
  O  O27  1  0.127172  0.182406  0.325502  1
  O  O28  1  0.578236  0.530401  0.114143  1
  O  O29  1  0.078236  0.469599  0.385857  1
  O  O30  1  0.421764  0.469599  0.885857  1
  O  O31  1  0.921764  0.530401  0.614143  1
  O  O32  1  0.609332  0.234565  0.632385  1
  O  O33  1  0.109332  0.765435  0.867615  1
  O  O34  1  0.390668  0.765435  0.367615  1
  O  O35  1  0.890668  0.234565  0.132385  1
  O  O36  1  0.208575  0.491567  0.137863  1
  O  O37  1  0.708575  0.508433  0.362137  1
  O  O38  1  0.791425  0.508433  0.862137  1
  O  O39  1  0.291425  0.491567  0.637863  1
  O  O40  1  0.516466  0.914043  0.797634  1
  O  O41  1  0.016466  0.085957  0.702366  1
  O  O42  1  0.483534  0.085957  0.202366  1
  O  O43  1  0.983534  0.914043  0.297634  1
