# generated using pymatgen
data_Y7ZrAlPd24
_symmetry_space_group_name_H-M   'P 1'
_cell_length_a   8.33707095
_cell_length_b   8.33707097
_cell_length_c   8.33707088
_cell_angle_alpha   89.80129043
_cell_angle_beta   90.19870797
_cell_angle_gamma   90.19870868
_symmetry_Int_Tables_number   1
_chemical_formula_structural   Y7ZrAlPd24
_chemical_formula_sum   'Y7 Zr1 Al1 Pd24'
_cell_volume   579.47228854
_cell_formula_units_Z   1
loop_
 _symmetry_equiv_pos_site_id
 _symmetry_equiv_pos_as_xyz
  1  'x, y, z'
loop_
 _atom_site_type_symbol
 _atom_site_label
 _atom_site_symmetry_multiplicity
 _atom_site_fract_x
 _atom_site_fract_y
 _atom_site_fract_z
 _atom_site_occupancy
  Y  Y0  1  0.250808  0.252040  0.252040  1
  Y  Y1  1  0.748511  0.748366  0.748366  1
  Y  Y2  1  0.747960  0.749192  0.252040  1
  Y  Y3  1  0.747960  0.252040  0.749192  1
  Y  Y4  1  0.251634  0.251489  0.748366  1
  Y  Y5  1  0.251634  0.748366  0.251489  1
  Y  Y6  1  0.252470  0.747530  0.747530  1
  Zr  Zr7  1  0.745678  0.254322  0.254322  1
  Al  Al8  1  0.002077  0.997923  0.997923  1
  Pd  Pd9  1  0.259515  0.498406  0.000495  1
  Pd  Pd10  1  0.740416  0.496634  0.005916  1
  Pd  Pd11  1  0.994084  0.259584  0.496634  1
  Pd  Pd12  1  0.503366  0.259584  0.005916  1
  Pd  Pd13  1  0.999505  0.740485  0.498406  1
  Pd  Pd14  1  0.501594  0.740485  0.000495  1
  Pd  Pd15  1  0.503366  0.005916  0.259584  1
  Pd  Pd16  1  0.259515  0.000495  0.498406  1
  Pd  Pd17  1  0.501594  0.000495  0.740485  1
  Pd  Pd18  1  0.740416  0.005916  0.496634  1
  Pd  Pd19  1  0.994084  0.496634  0.259584  1
  Pd  Pd20  1  0.999505  0.498406  0.740485  1
  Pd  Pd21  1  0.252510  0.498972  0.498972  1
  Pd  Pd22  1  0.746766  0.496252  0.496252  1
  Pd  Pd23  1  0.503748  0.253234  0.496252  1
  Pd  Pd24  1  0.501028  0.747490  0.498972  1
  Pd  Pd25  1  0.503748  0.496252  0.253234  1
  Pd  Pd26  1  0.501028  0.498972  0.747490  1
  Pd  Pd27  1  0.290837  0.999871  0.999871  1
  Pd  Pd28  1  0.713327  0.004470  0.004470  1
  Pd  Pd29  1  0.995530  0.286673  0.004470  1
  Pd  Pd30  1  0.000129  0.709163  0.999871  1
  Pd  Pd31  1  0.995530  0.004470  0.286673  1
  Pd  Pd32  1  0.000129  0.999871  0.709163  1
