# generated using pymatgen
data_Tb2Nd2Re16Si7Ge
_symmetry_space_group_name_H-M   'P 1'
_cell_length_a   4.15609800
_cell_length_b   7.35739685
_cell_length_c   15.47326935
_cell_angle_alpha   90.27582975
_cell_angle_beta   90.00000000
_cell_angle_gamma   90.00000000
_symmetry_Int_Tables_number   1
_chemical_formula_structural   Tb2Nd2Re16Si7Ge
_chemical_formula_sum   'Tb2 Nd2 Re16 Si7 Ge1'
_cell_volume   473.13711211
_cell_formula_units_Z   1
loop_
 _symmetry_equiv_pos_site_id
 _symmetry_equiv_pos_as_xyz
  1  'x, y, z'
loop_
 _atom_site_type_symbol
 _atom_site_label
 _atom_site_symmetry_multiplicity
 _atom_site_fract_x
 _atom_site_fract_y
 _atom_site_fract_z
 _atom_site_occupancy
  Tb  Tb0  1  0.000000  0.578117  0.117186  1
  Tb  Tb1  1  0.000000  0.420150  0.882820  1
  Nd  Nd2  1  0.500000  0.081759  0.379249  1
  Nd  Nd3  1  0.500000  0.922785  0.621683  1
  Re  Re4  1  0.000000  0.140240  0.050697  1
  Re  Re5  1  0.000000  0.856859  0.948770  1
  Re  Re6  1  0.500000  0.634083  0.446497  1
  Re  Re7  1  0.500000  0.362735  0.552388  1
  Re  Re8  1  0.000000  0.729754  0.318721  1
  Re  Re9  1  0.000000  0.268923  0.681131  1
  Re  Re10  1  0.500000  0.234417  0.175811  1
  Re  Re11  1  0.500000  0.763558  0.823931  1
  Re  Re12  1  0.000000  0.430317  0.417167  1
  Re  Re13  1  0.000000  0.567354  0.582765  1
  Re  Re14  1  0.500000  0.930018  0.081270  1
  Re  Re15  1  0.500000  0.067710  0.918151  1
  Re  Re16  1  0.000000  0.985850  0.203712  1
  Re  Re17  1  0.000000  0.012578  0.796096  1
  Re  Re18  1  0.500000  0.489165  0.291171  1
  Re  Re19  1  0.500000  0.509712  0.708208  1
  Si  Si20  1  0.000000  0.177946  0.525452  1
  Si  Si21  1  0.500000  0.332391  0.022146  1
  Si  Si22  1  0.500000  0.665213  0.977616  1
  Si  Si23  1  0.000000  0.291917  0.270031  1
  Si  Si24  1  0.000000  0.707086  0.729675  1
  Si  Si25  1  0.500000  0.787677  0.224442  1
  Si  Si26  1  0.500000  0.211792  0.775690  1
  Ge  Ge27  1  0.000000  0.839895  0.477524  1
