# generated using pymatgen
data_Ho4Tc3Ni17P12
_symmetry_space_group_name_H-M   'P 1'
_cell_length_a   3.69505400
_cell_length_b   10.48056234
_cell_length_c   11.92017900
_cell_angle_alpha   90.25877449
_cell_angle_beta   90.00000000
_cell_angle_gamma   90.00000000
_symmetry_Int_Tables_number   1
_chemical_formula_structural   Ho4Tc3Ni17P12
_chemical_formula_sum   'Ho4 Tc3 Ni17 P12'
_cell_volume   461.61904976
_cell_formula_units_Z   1
loop_
 _symmetry_equiv_pos_site_id
 _symmetry_equiv_pos_as_xyz
  1  'x, y, z'
loop_
 _atom_site_type_symbol
 _atom_site_label
 _atom_site_symmetry_multiplicity
 _atom_site_fract_x
 _atom_site_fract_y
 _atom_site_fract_z
 _atom_site_occupancy
  Ho  Ho0  1  0.250000  0.585335  0.704417  1
  Ho  Ho1  1  0.250000  0.912663  0.206752  1
  Ho  Ho2  1  0.750000  0.411578  0.295026  1
  Ho  Ho3  1  0.750000  0.088259  0.793795  1
  Tc  Tc4  1  0.250000  0.714610  0.990456  1
  Tc  Tc5  1  0.250000  0.791970  0.484324  1
  Tc  Tc6  1  0.750000  0.286324  0.012561  1
  Ni  Ni7  1  0.750000  0.214338  0.511740  1
  Ni  Ni8  1  0.250000  0.408580  0.489087  1
  Ni  Ni9  1  0.250000  0.089442  0.986960  1
  Ni  Ni10  1  0.750000  0.590613  0.512473  1
  Ni  Ni11  1  0.750000  0.911387  0.009996  1
  Ni  Ni12  1  0.250000  0.218043  0.179893  1
  Ni  Ni13  1  0.250000  0.278911  0.677852  1
  Ni  Ni14  1  0.750000  0.778375  0.820081  1
  Ni  Ni15  1  0.750000  0.719431  0.319115  1
  Ni  Ni16  1  0.250000  0.885013  0.701407  1
  Ni  Ni17  1  0.250000  0.608914  0.204668  1
  Ni  Ni18  1  0.750000  0.116359  0.300162  1
  Ni  Ni19  1  0.750000  0.386936  0.797558  1
  Ni  Ni20  1  0.250000  0.465874  0.930109  1
  Ni  Ni21  1  0.250000  0.038290  0.431356  1
  Ni  Ni22  1  0.750000  0.534528  0.070657  1
  Ni  Ni23  1  0.750000  0.970386  0.568981  1
  P  P24  1  0.250000  0.415364  0.112264  1
  P  P25  1  0.250000  0.082071  0.613586  1
  P  P26  1  0.750000  0.582862  0.887902  1
  P  P27  1  0.750000  0.916207  0.387937  1
  P  P28  1  0.250000  0.269382  0.870314  1
  P  P29  1  0.250000  0.232574  0.372142  1
  P  P30  1  0.750000  0.732231  0.128420  1
  P  P31  1  0.750000  0.769624  0.628415  1
  P  P32  1  0.250000  0.595788  0.391183  1
  P  P33  1  0.250000  0.902858  0.887777  1
  P  P34  1  0.750000  0.399173  0.608889  1
  P  P35  1  0.750000  0.095706  0.111745  1
