# generated using pymatgen
data_Y3Er5(HgIr)2
_symmetry_space_group_name_H-M   'P 1'
_cell_length_a   9.54938921
_cell_length_b   9.54938832
_cell_length_c   9.54939000
_cell_angle_alpha   60.00000112
_cell_angle_beta   60.00000420
_cell_angle_gamma   60.00000172
_symmetry_Int_Tables_number   1
_chemical_formula_structural   Y3Er5(HgIr)2
_chemical_formula_sum   'Y6 Er10 Hg4 Ir4'
_cell_volume   615.76046923
_cell_formula_units_Z   2
loop_
 _symmetry_equiv_pos_site_id
 _symmetry_equiv_pos_as_xyz
  1  'x, y, z'
loop_
 _atom_site_type_symbol
 _atom_site_label
 _atom_site_symmetry_multiplicity
 _atom_site_fract_x
 _atom_site_fract_y
 _atom_site_fract_z
 _atom_site_occupancy
  Y  Y0  1  0.939208  0.560792  0.560792  1
  Y  Y1  1  0.560792  0.939208  0.939208  1
  Y  Y2  1  0.560792  0.939208  0.560792  1
  Y  Y3  1  0.939208  0.560792  0.939208  1
  Y  Y4  1  0.560792  0.560792  0.939208  1
  Y  Y5  1  0.939208  0.939208  0.560792  1
  Er  Er6  1  0.349885  0.349885  0.349885  1
  Er  Er7  1  0.349885  0.349885  0.950346  1
  Er  Er8  1  0.349885  0.950346  0.349885  1
  Er  Er9  1  0.950346  0.349885  0.349885  1
  Er  Er10  1  0.810517  0.189483  0.189483  1
  Er  Er11  1  0.189483  0.810517  0.810517  1
  Er  Er12  1  0.189483  0.810517  0.189483  1
  Er  Er13  1  0.810517  0.189483  0.810517  1
  Er  Er14  1  0.189483  0.189483  0.810517  1
  Er  Er15  1  0.810517  0.810517  0.189483  1
  Hg  Hg16  1  0.583623  0.583623  0.583623  1
  Hg  Hg17  1  0.583623  0.583623  0.249131  1
  Hg  Hg18  1  0.583623  0.249131  0.583623  1
  Hg  Hg19  1  0.249131  0.583623  0.583623  1
  Ir  Ir20  1  0.141845  0.141845  0.141845  1
  Ir  Ir21  1  0.141845  0.141845  0.574465  1
  Ir  Ir22  1  0.141845  0.574465  0.141845  1
  Ir  Ir23  1  0.574465  0.141845  0.141845  1
