# generated using pymatgen
data_Zr6Al15ZnPd7
_symmetry_space_group_name_H-M   'P 1'
_cell_length_a   8.80614364
_cell_length_b   8.80614339
_cell_length_c   8.79879953
_cell_angle_alpha   59.97238221
_cell_angle_beta   59.97238415
_cell_angle_gamma   60.00000248
_symmetry_Int_Tables_number   1
_chemical_formula_structural   Zr6Al15ZnPd7
_chemical_formula_sum   'Zr6 Al15 Zn1 Pd7'
_cell_volume   482.27920717
_cell_formula_units_Z   1
loop_
 _symmetry_equiv_pos_site_id
 _symmetry_equiv_pos_as_xyz
  1  'x, y, z'
loop_
 _atom_site_type_symbol
 _atom_site_label
 _atom_site_symmetry_multiplicity
 _atom_site_fract_x
 _atom_site_fract_y
 _atom_site_fract_z
 _atom_site_occupancy
  Zr  Zr0  1  0.686443  0.686443  0.314135  1
  Zr  Zr1  1  0.312980  0.686443  0.314135  1
  Zr  Zr2  1  0.686443  0.312980  0.314135  1
  Zr  Zr3  1  0.314105  0.314105  0.685876  1
  Zr  Zr4  1  0.685913  0.314105  0.685876  1
  Zr  Zr5  1  0.314105  0.685913  0.685876  1
  Al  Al6  1  0.879638  0.360886  0.879839  1
  Al  Al7  1  0.360886  0.879638  0.879839  1
  Al  Al8  1  0.879638  0.879638  0.879839  1
  Al  Al9  1  0.120336  0.120336  0.638991  1
  Al  Al10  1  0.118379  0.640826  0.122416  1
  Al  Al11  1  0.640826  0.118379  0.122416  1
  Al  Al12  1  0.118379  0.118379  0.122416  1
  Al  Al13  1  0.665801  0.665801  0.002597  1
  Al  Al14  1  0.667644  0.001005  0.663706  1
  Al  Al15  1  0.001005  0.667644  0.663706  1
  Al  Al16  1  0.667644  0.667644  0.663706  1
  Al  Al17  1  0.334035  0.334035  0.997896  1
  Al  Al18  1  0.335070  0.996320  0.333540  1
  Al  Al19  1  0.996320  0.335070  0.333540  1
  Al  Al20  1  0.335070  0.335070  0.333540  1
  Zn  Zn21  1  0.879926  0.879926  0.360224  1
  Pd  Pd22  1  0.002051  0.002051  0.993848  1
  Pd  Pd23  1  0.001410  0.001410  0.503422  1
  Pd  Pd24  1  0.493758  0.001410  0.503422  1
  Pd  Pd25  1  0.001410  0.493758  0.503422  1
  Pd  Pd26  1  0.500165  0.500165  0.999216  1
  Pd  Pd27  1  0.000453  0.500165  0.999216  1
  Pd  Pd28  1  0.500165  0.000453  0.999216  1
