# generated using pymatgen
data_TbY3AgIr
_symmetry_space_group_name_H-M   'P 1'
_cell_length_a   9.58824547
_cell_length_b   9.58824506
_cell_length_c   9.58824500
_cell_angle_alpha   59.99999676
_cell_angle_beta   59.99999817
_cell_angle_gamma   59.99999738
_symmetry_Int_Tables_number   1
_chemical_formula_structural   TbY3AgIr
_chemical_formula_sum   'Tb4 Y12 Ag4 Ir4'
_cell_volume   623.30752339
_cell_formula_units_Z   4
loop_
 _symmetry_equiv_pos_site_id
 _symmetry_equiv_pos_as_xyz
  1  'x, y, z'
loop_
 _atom_site_type_symbol
 _atom_site_label
 _atom_site_symmetry_multiplicity
 _atom_site_fract_x
 _atom_site_fract_y
 _atom_site_fract_z
 _atom_site_occupancy
  Tb  Tb0  1  0.352251  0.352251  0.352251  1
  Tb  Tb1  1  0.352251  0.352251  0.943248  1
  Tb  Tb2  1  0.352251  0.943248  0.352251  1
  Tb  Tb3  1  0.943248  0.352251  0.352251  1
  Y  Y4  1  0.810707  0.189293  0.189293  1
  Y  Y5  1  0.189293  0.810707  0.810707  1
  Y  Y6  1  0.189293  0.810707  0.189293  1
  Y  Y7  1  0.810707  0.189293  0.810707  1
  Y  Y8  1  0.189293  0.189293  0.810707  1
  Y  Y9  1  0.810707  0.810707  0.189293  1
  Y  Y10  1  0.936746  0.563254  0.563254  1
  Y  Y11  1  0.563254  0.936746  0.936746  1
  Y  Y12  1  0.563254  0.936746  0.563254  1
  Y  Y13  1  0.936746  0.563254  0.936746  1
  Y  Y14  1  0.563254  0.563254  0.936746  1
  Y  Y15  1  0.936746  0.936746  0.563254  1
  Ag  Ag16  1  0.581451  0.581451  0.581451  1
  Ag  Ag17  1  0.581451  0.581451  0.255647  1
  Ag  Ag18  1  0.581451  0.255647  0.581451  1
  Ag  Ag19  1  0.255647  0.581451  0.581451  1
  Ir  Ir20  1  0.142712  0.142712  0.142712  1
  Ir  Ir21  1  0.142712  0.142712  0.571864  1
  Ir  Ir22  1  0.142712  0.571864  0.142712  1
  Ir  Ir23  1  0.571864  0.142712  0.142712  1
