# generated using pymatgen
data_LiY5Tm11In3Rh4
_symmetry_space_group_name_H-M   'P 1'
_cell_length_a   9.62247334
_cell_length_b   9.61665910
_cell_length_c   9.61620347
_cell_angle_alpha   59.59012846
_cell_angle_beta   59.44330046
_cell_angle_gamma   59.44239665
_symmetry_Int_Tables_number   1
_chemical_formula_structural   LiY5Tm11In3Rh4
_chemical_formula_sum   'Li1 Y5 Tm11 In3 Rh4'
_cell_volume   621.94226816
_cell_formula_units_Z   1
loop_
 _symmetry_equiv_pos_site_id
 _symmetry_equiv_pos_as_xyz
  1  'x, y, z'
loop_
 _atom_site_type_symbol
 _atom_site_label
 _atom_site_symmetry_multiplicity
 _atom_site_fract_x
 _atom_site_fract_y
 _atom_site_fract_z
 _atom_site_occupancy
  Li  Li0  1  0.428794  0.428220  0.428200  1
  Y  Y1  1  0.063143  0.063027  0.436551  1
  Y  Y2  1  0.437710  0.063528  0.436920  1
  Y  Y3  1  0.063130  0.436561  0.063024  1
  Y  Y4  1  0.049885  0.649944  0.649954  1
  Y  Y5  1  0.437711  0.436917  0.063533  1
  Tm  Tm6  1  0.651370  0.046924  0.649797  1
  Tm  Tm7  1  0.185739  0.814570  0.185232  1
  Tm  Tm8  1  0.185738  0.185228  0.814570  1
  Tm  Tm9  1  0.809397  0.809569  0.190573  1
  Tm  Tm10  1  0.442048  0.058499  0.058506  1
  Tm  Tm11  1  0.814719  0.185622  0.185618  1
  Tm  Tm12  1  0.059350  0.439986  0.439996  1
  Tm  Tm13  1  0.809398  0.190571  0.809571  1
  Tm  Tm14  1  0.189443  0.810644  0.810643  1
  Tm  Tm15  1  0.651381  0.649798  0.046929  1
  Tm  Tm16  1  0.649109  0.651013  0.651001  1
  In  In17  1  0.746092  0.417030  0.417007  1
  In  In18  1  0.417777  0.746260  0.415636  1
  In  In19  1  0.417793  0.415623  0.746250  1
  Rh  Rh20  1  0.854913  0.857157  0.425402  1
  Rh  Rh21  1  0.853078  0.860352  0.860382  1
  Rh  Rh22  1  0.427359  0.857558  0.857553  1
  Rh  Rh23  1  0.854923  0.425401  0.857152  1
