# generated using pymatgen
data_Rb3Nb2Cu3Se8
_symmetry_space_group_name_H-M   'P 1'
_cell_length_a   12.85328106
_cell_length_b   12.85327598
_cell_length_c   15.54886303
_cell_angle_alpha   60.81009696
_cell_angle_beta   60.81003990
_cell_angle_gamma   25.97003357
_symmetry_Int_Tables_number   1
_chemical_formula_structural   Rb3Nb2Cu3Se8
_chemical_formula_sum   'Rb6 Nb4 Cu6 Se16'
_cell_volume   973.83816660
_cell_formula_units_Z   2
loop_
 _symmetry_equiv_pos_site_id
 _symmetry_equiv_pos_as_xyz
  1  'x, y, z'
loop_
 _atom_site_type_symbol
 _atom_site_label
 _atom_site_symmetry_multiplicity
 _atom_site_fract_x
 _atom_site_fract_y
 _atom_site_fract_z
 _atom_site_occupancy
  Rb  Rb0  1  0.267687  0.346971  0.595007  1
  Rb  Rb1  1  0.653029  0.732314  0.904992  1
  Rb  Rb2  1  0.732313  0.653029  0.404993  1
  Rb  Rb3  1  0.000000  0.000000  0.500000  1
  Rb  Rb4  1  0.000000  0.000000  0.000000  1
  Rb  Rb5  1  0.346971  0.267686  0.095008  1
  Nb  Nb6  1  0.840637  0.406653  0.721381  1
  Nb  Nb7  1  0.406652  0.840638  0.221379  1
  Nb  Nb8  1  0.593348  0.159362  0.778621  1
  Nb  Nb9  1  0.159363  0.593347  0.278619  1
  Cu  Cu10  1  0.338979  0.904250  0.720728  1
  Cu  Cu11  1  0.661021  0.095750  0.279272  1
  Cu  Cu12  1  0.904254  0.338986  0.220721  1
  Cu  Cu13  1  0.277612  0.722388  0.250000  1
  Cu  Cu14  1  0.095746  0.661014  0.779279  1
  Cu  Cu15  1  0.722388  0.277612  0.750000  1
  Se  Se16  1  0.187103  0.125036  0.312745  1
  Se  Se17  1  0.323757  0.259459  0.388444  1
  Se  Se18  1  0.513918  0.560133  0.839429  1
  Se  Se19  1  0.125034  0.187105  0.812745  1
  Se  Se20  1  0.874966  0.812895  0.187255  1
  Se  Se21  1  0.132165  0.045857  0.128316  1
  Se  Se22  1  0.560133  0.513920  0.339427  1
  Se  Se23  1  0.439867  0.486080  0.660573  1
  Se  Se24  1  0.045856  0.132167  0.628315  1
  Se  Se25  1  0.259459  0.323756  0.888445  1
  Se  Se26  1  0.486082  0.439867  0.160571  1
  Se  Se27  1  0.676243  0.740541  0.611556  1
  Se  Se28  1  0.812897  0.874964  0.687255  1
  Se  Se29  1  0.740541  0.676244  0.111555  1
  Se  Se30  1  0.954144  0.867833  0.371685  1
  Se  Se31  1  0.867835  0.954143  0.871684  1
