# generated using pymatgen
data_Sm5Th3(BeSi3)4
_symmetry_space_group_name_H-M   'P 1'
_cell_length_a   7.91808600
_cell_length_b   7.91685797
_cell_length_c   8.47403700
_cell_angle_alpha   90.00000000
_cell_angle_beta   90.00000000
_cell_angle_gamma   120.00513970
_symmetry_Int_Tables_number   1
_chemical_formula_structural   Sm5Th3(BeSi3)4
_chemical_formula_sum   'Sm5 Th3 Be4 Si12'
_cell_volume   460.01454178
_cell_formula_units_Z   1
loop_
 _symmetry_equiv_pos_site_id
 _symmetry_equiv_pos_as_xyz
  1  'x, y, z'
loop_
 _atom_site_type_symbol
 _atom_site_label
 _atom_site_symmetry_multiplicity
 _atom_site_fract_x
 _atom_site_fract_y
 _atom_site_fract_z
 _atom_site_occupancy
  Sm  Sm0  1  0.499678  0.500350  0.750000  1
  Sm  Sm1  1  0.500332  0.499694  0.250000  1
  Sm  Sm2  1  0.000674  0.500350  0.750000  1
  Sm  Sm3  1  0.999364  0.499694  0.250000  1
  Sm  Sm4  1  0.499647  0.999294  0.750000  1
  Th  Th5  1  0.500469  0.000947  0.250000  1
  Th  Th6  1  0.999997  0.999997  0.750000  1
  Th  Th7  1  0.999990  0.999972  0.250000  1
  Be  Be8  1  0.666890  0.333782  0.996693  1
  Be  Be9  1  0.333063  0.666127  0.999310  1
  Be  Be10  1  0.333063  0.666127  0.500690  1
  Be  Be11  1  0.666890  0.333782  0.503307  1
  Si  Si12  1  0.828036  0.173446  0.998697  1
  Si  Si13  1  0.171955  0.826537  0.999520  1
  Si  Si14  1  0.345412  0.173447  0.998698  1
  Si  Si15  1  0.171955  0.826537  0.500480  1
  Si  Si16  1  0.654581  0.826536  0.999521  1
  Si  Si17  1  0.828036  0.173446  0.501303  1
  Si  Si18  1  0.827003  0.654007  0.999117  1
  Si  Si19  1  0.654581  0.826536  0.500479  1
  Si  Si20  1  0.172984  0.345967  0.999910  1
  Si  Si21  1  0.345412  0.173447  0.501302  1
  Si  Si22  1  0.172984  0.345967  0.500090  1
  Si  Si23  1  0.827003  0.654007  0.500883  1
