# generated using pymatgen
data_Pr16MgAg3Rh4
_symmetry_space_group_name_H-M   'P 1'
_cell_length_a   9.96585186
_cell_length_b   9.98515157
_cell_length_c   9.98515100
_cell_angle_alpha   60.00000519
_cell_angle_beta   59.93592281
_cell_angle_gamma   59.93592189
_symmetry_Int_Tables_number   1
_chemical_formula_structural   Pr16MgAg3Rh4
_chemical_formula_sum   'Pr16 Mg1 Ag3 Rh4'
_cell_volume   701.91970763
_cell_formula_units_Z   1
loop_
 _symmetry_equiv_pos_site_id
 _symmetry_equiv_pos_as_xyz
  1  'x, y, z'
loop_
 _atom_site_type_symbol
 _atom_site_label
 _atom_site_symmetry_multiplicity
 _atom_site_fract_x
 _atom_site_fract_y
 _atom_site_fract_z
 _atom_site_occupancy
  Pr  Pr0  1  0.600849  0.599879  0.599879  1
  Pr  Pr1  1  0.600849  0.599879  0.199391  1
  Pr  Pr2  1  0.600849  0.199391  0.599879  1
  Pr  Pr3  1  0.190146  0.603285  0.603285  1
  Pr  Pr4  1  0.060582  0.439026  0.439026  1
  Pr  Pr5  1  0.436003  0.062898  0.062898  1
  Pr  Pr6  1  0.436003  0.062898  0.438200  1
  Pr  Pr7  1  0.060582  0.439026  0.061366  1
  Pr  Pr8  1  0.436003  0.438200  0.062898  1
  Pr  Pr9  1  0.060582  0.061366  0.439026  1
  Pr  Pr10  1  0.184261  0.814635  0.814635  1
  Pr  Pr11  1  0.813406  0.185752  0.185752  1
  Pr  Pr12  1  0.813406  0.185752  0.815091  1
  Pr  Pr13  1  0.184261  0.814635  0.186467  1
  Pr  Pr14  1  0.813406  0.815091  0.185752  1
  Pr  Pr15  1  0.184261  0.186467  0.814635  1
  Mg  Mg16  1  0.535805  0.821399  0.821399  1
  Ag  Ag17  1  0.831084  0.833124  0.833124  1
  Ag  Ag18  1  0.831084  0.833124  0.502670  1
  Ag  Ag19  1  0.831084  0.502670  0.833124  1
  Rh  Rh20  1  0.391088  0.393091  0.393091  1
  Rh  Rh21  1  0.391088  0.393091  0.822730  1
  Rh  Rh22  1  0.391088  0.822730  0.393091  1
  Rh  Rh23  1  0.822229  0.392590  0.392590  1
