# generated using pymatgen
data_Yb2Cd3Pd2Pb
_symmetry_space_group_name_H-M   'P 1'
_cell_length_a   5.48792094
_cell_length_b   5.48792102
_cell_length_c   8.46463296
_cell_angle_alpha   90.23965309
_cell_angle_beta   89.76034816
_cell_angle_gamma   133.42203668
_symmetry_Int_Tables_number   1
_chemical_formula_structural   Yb2Cd3Pd2Pb
_chemical_formula_sum   'Yb2 Cd3 Pd2 Pb1'
_cell_volume   185.15760869
_cell_formula_units_Z   1
loop_
 _symmetry_equiv_pos_site_id
 _symmetry_equiv_pos_as_xyz
  1  'x, y, z'
loop_
 _atom_site_type_symbol
 _atom_site_label
 _atom_site_symmetry_multiplicity
 _atom_site_fract_x
 _atom_site_fract_y
 _atom_site_fract_z
 _atom_site_occupancy
  Yb  Yb0  1  0.432872  0.567128  0.261140  1
  Yb  Yb1  1  0.565844  0.434156  0.742609  1
  Cd  Cd2  1  0.854919  0.145081  0.550664  1
  Cd  Cd3  1  0.143780  0.856220  0.454161  1
  Cd  Cd4  1  0.857931  0.142069  0.938431  1
  Pd  Pd5  1  0.277980  0.722020  0.748939  1
  Pd  Pd6  1  0.723492  0.276508  0.251122  1
  Pb  Pb7  1  0.143182  0.856818  0.052933  1
