# generated using pymatgen
data_ErLuNbFe9
_symmetry_space_group_name_H-M   'P 1'
_cell_length_a   8.47120994
_cell_length_b   8.47120961
_cell_length_c   8.47120886
_cell_angle_alpha   34.20764838
_cell_angle_beta   34.20764899
_cell_angle_gamma   34.20764522
_symmetry_Int_Tables_number   1
_chemical_formula_structural   ErLuNbFe9
_chemical_formula_sum   'Er1 Lu1 Nb1 Fe9'
_cell_volume   171.32463543
_cell_formula_units_Z   1
loop_
 _symmetry_equiv_pos_site_id
 _symmetry_equiv_pos_as_xyz
  1  'x, y, z'
loop_
 _atom_site_type_symbol
 _atom_site_label
 _atom_site_symmetry_multiplicity
 _atom_site_fract_x
 _atom_site_fract_y
 _atom_site_fract_z
 _atom_site_occupancy
  Er  Er0  1  0.999338  0.999338  0.999338  1
  Lu  Lu1  1  0.142914  0.142914  0.142914  1
  Nb  Nb2  1  0.857498  0.857498  0.857498  1
  Fe  Fe3  1  0.414652  0.414652  0.917465  1
  Fe  Fe4  1  0.917465  0.414652  0.414652  1
  Fe  Fe5  1  0.585330  0.082913  0.585330  1
  Fe  Fe6  1  0.585330  0.585330  0.082913  1
  Fe  Fe7  1  0.414652  0.917465  0.414652  1
  Fe  Fe8  1  0.082913  0.585330  0.585330  1
  Fe  Fe9  1  0.332738  0.332738  0.332738  1
  Fe  Fe10  1  0.666796  0.666796  0.666796  1
  Fe  Fe11  1  0.500375  0.500375  0.500375  1
