# generated using pymatgen
data_Sr3NdRhO6
_symmetry_space_group_name_H-M   'P 1'
_cell_length_a   6.92304672
_cell_length_b   6.92304627
_cell_length_c   6.92304682
_cell_angle_alpha   91.60820128
_cell_angle_beta   91.60819526
_cell_angle_gamma   91.60819656
_symmetry_Int_Tables_number   1
_chemical_formula_structural   Sr3NdRhO6
_chemical_formula_sum   'Sr6 Nd2 Rh2 O12'
_cell_volume   331.41216324
_cell_formula_units_Z   2
loop_
 _symmetry_equiv_pos_site_id
 _symmetry_equiv_pos_as_xyz
  1  'x, y, z'
loop_
 _atom_site_type_symbol
 _atom_site_label
 _atom_site_symmetry_multiplicity
 _atom_site_fract_x
 _atom_site_fract_y
 _atom_site_fract_z
 _atom_site_occupancy
  Sr  Sr0  1  0.250000  0.881017  0.618983  1
  Sr  Sr1  1  0.881017  0.618983  0.250000  1
  Sr  Sr2  1  0.750000  0.118983  0.381017  1
  Sr  Sr3  1  0.381017  0.750000  0.118983  1
  Sr  Sr4  1  0.118983  0.381017  0.750000  1
  Sr  Sr5  1  0.618983  0.250000  0.881017  1
  Nd  Nd6  1  0.750000  0.750000  0.750000  1
  Nd  Nd7  1  0.250000  0.250000  0.250000  1
  Rh  Rh8  1  0.500000  0.500000  0.500000  1
  Rh  Rh9  1  0.000000  0.000000  0.000000  1
  O  O10  1  0.585457  0.790770  0.448715  1
  O  O11  1  0.448715  0.585457  0.790770  1
  O  O12  1  0.790770  0.448715  0.585457  1
  O  O13  1  0.914543  0.051285  0.709230  1
  O  O14  1  0.709230  0.914543  0.051285  1
  O  O15  1  0.051285  0.709230  0.914543  1
  O  O16  1  0.414543  0.209230  0.551285  1
  O  O17  1  0.551285  0.414543  0.209230  1
  O  O18  1  0.209230  0.551285  0.414543  1
  O  O19  1  0.085457  0.948715  0.290770  1
  O  O20  1  0.948715  0.290770  0.085457  1
  O  O21  1  0.290770  0.085457  0.948715  1
