# generated using pymatgen
data_Tb6EuRuI12
_symmetry_space_group_name_H-M   'P 1'
_cell_length_a   9.88219279
_cell_length_b   9.88219231
_cell_length_c   9.88219192
_cell_angle_alpha   106.86635167
_cell_angle_beta   106.86635214
_cell_angle_gamma   106.86634685
_symmetry_Int_Tables_number   1
_chemical_formula_structural   Tb6EuRuI12
_chemical_formula_sum   'Tb6 Eu1 Ru1 I12'
_cell_volume   806.63383570
_cell_formula_units_Z   1
loop_
 _symmetry_equiv_pos_site_id
 _symmetry_equiv_pos_as_xyz
  1  'x, y, z'
loop_
 _atom_site_type_symbol
 _atom_site_label
 _atom_site_symmetry_multiplicity
 _atom_site_fract_x
 _atom_site_fract_y
 _atom_site_fract_z
 _atom_site_occupancy
  Tb  Tb0  1  0.904399  0.703409  0.976216  1
  Tb  Tb1  1  0.976216  0.904399  0.703409  1
  Tb  Tb2  1  0.703409  0.976216  0.904399  1
  Tb  Tb3  1  0.095601  0.296591  0.023784  1
  Tb  Tb4  1  0.023784  0.095601  0.296591  1
  Tb  Tb5  1  0.296591  0.023784  0.095601  1
  Eu  Eu6  1  0.500000  0.500000  0.500000  1
  Ru  Ru7  1  0.000000  0.000000  0.000000  1
  I  I8  1  0.625374  0.857879  0.545875  1
  I  I9  1  0.545875  0.625374  0.857879  1
  I  I10  1  0.857879  0.545875  0.625374  1
  I  I11  1  0.374626  0.142121  0.454125  1
  I  I12  1  0.454125  0.374626  0.142121  1
  I  I13  1  0.142121  0.454125  0.374626  1
  I  I14  1  0.680790  0.073224  0.222414  1
  I  I15  1  0.222414  0.680790  0.073224  1
  I  I16  1  0.073224  0.222414  0.680790  1
  I  I17  1  0.319210  0.926776  0.777586  1
  I  I18  1  0.777586  0.319210  0.926776  1
  I  I19  1  0.926776  0.777586  0.319210  1
