# generated using pymatgen
data_Ho10Sn5BiN2
_symmetry_space_group_name_H-M   'P 1'
_cell_length_a   8.89174404
_cell_length_b   8.89174493
_cell_length_c   6.41358800
_cell_angle_alpha   90.00000000
_cell_angle_beta   90.00000000
_cell_angle_gamma   119.94450800
_symmetry_Int_Tables_number   1
_chemical_formula_structural   Ho10Sn5BiN2
_chemical_formula_sum   'Ho10 Sn5 Bi1 N2'
_cell_volume   439.38802158
_cell_formula_units_Z   1
loop_
 _symmetry_equiv_pos_site_id
 _symmetry_equiv_pos_as_xyz
  1  'x, y, z'
loop_
 _atom_site_type_symbol
 _atom_site_label
 _atom_site_symmetry_multiplicity
 _atom_site_fract_x
 _atom_site_fract_y
 _atom_site_fract_z
 _atom_site_occupancy
  Ho  Ho0  1  0.670134  0.332496  0.002387  1
  Ho  Ho1  1  0.332496  0.670134  0.002387  1
  Ho  Ho2  1  0.332496  0.670134  0.497613  1
  Ho  Ho3  1  0.670134  0.332496  0.497613  1
  Ho  Ho4  1  0.788303  0.788303  0.750000  1
  Ho  Ho5  1  0.212012  0.995082  0.750000  1
  Ho  Ho6  1  0.995082  0.212012  0.750000  1
  Ho  Ho7  1  0.211820  0.211820  0.250000  1
  Ho  Ho8  1  0.785392  0.000004  0.250000  1
  Ho  Ho9  1  0.000004  0.785392  0.250000  1
  Sn  Sn10  1  0.596144  0.999689  0.750000  1
  Sn  Sn11  1  0.999689  0.596144  0.750000  1
  Sn  Sn12  1  0.597327  0.597327  0.250000  1
  Sn  Sn13  1  0.403394  0.001129  0.250000  1
  Sn  Sn14  1  0.001129  0.403394  0.250000  1
  Bi  Bi15  1  0.401660  0.401660  0.750000  1
  N  N16  1  0.001391  0.001391  0.998953  1
  N  N17  1  0.001391  0.001391  0.501047  1
