# generated using pymatgen
data_Pr2YAg(Ir2O7)2
_symmetry_space_group_name_H-M   'P 1'
_cell_length_a   7.42923669
_cell_length_b   7.42923728
_cell_length_c   7.25091510
_cell_angle_alpha   59.13613497
_cell_angle_beta   59.13613242
_cell_angle_gamma   60.18585347
_symmetry_Int_Tables_number   1
_chemical_formula_structural   Pr2YAg(Ir2O7)2
_chemical_formula_sum   'Pr2 Y1 Ag1 Ir4 O14'
_cell_volume   279.61475372
_cell_formula_units_Z   1
loop_
 _symmetry_equiv_pos_site_id
 _symmetry_equiv_pos_as_xyz
  1  'x, y, z'
loop_
 _atom_site_type_symbol
 _atom_site_label
 _atom_site_symmetry_multiplicity
 _atom_site_fract_x
 _atom_site_fract_y
 _atom_site_fract_z
 _atom_site_occupancy
  Pr  Pr0  1  0.625000  0.125000  0.125000  1
  Pr  Pr1  1  0.125000  0.625000  0.125000  1
  Y  Y2  1  0.125000  0.125000  0.125000  1
  Ag  Ag3  1  0.125000  0.125000  0.625000  1
  Ir  Ir4  1  0.625000  0.625000  0.625000  1
  Ir  Ir5  1  0.125000  0.625000  0.625000  1
  Ir  Ir6  1  0.625000  0.125000  0.625000  1
  Ir  Ir7  1  0.625000  0.625000  0.125000  1
  O  O8  1  0.947381  0.555671  0.551111  1
  O  O9  1  0.301882  0.301882  0.707864  1
  O  O10  1  0.956424  0.535272  0.961366  1
  O  O11  1  0.714728  0.293576  0.288634  1
  O  O12  1  0.541210  0.541210  0.962012  1
  O  O13  1  0.555671  0.947381  0.551111  1
  O  O14  1  0.535272  0.956424  0.961366  1
  O  O15  1  0.241473  0.241473  0.256693  1
  O  O16  1  0.302619  0.694329  0.698889  1
  O  O17  1  0.694329  0.302619  0.698889  1
  O  O18  1  0.008527  0.008527  0.993307  1
  O  O19  1  0.948118  0.948118  0.542136  1
  O  O20  1  0.293576  0.714728  0.288634  1
  O  O21  1  0.708790  0.708790  0.287988  1
