# generated using pymatgen
data_TmHf2ZrAl17GaIr6
_symmetry_space_group_name_H-M   'P 1'
_cell_length_a   7.48643700
_cell_length_b   7.47924287
_cell_length_c   9.28101900
_cell_angle_alpha   90.00000000
_cell_angle_beta   90.00000000
_cell_angle_gamma   119.82486317
_symmetry_Int_Tables_number   1
_chemical_formula_structural   TmHf2ZrAl17GaIr6
_chemical_formula_sum   'Tm1 Hf2 Zr1 Al17 Ga1 Ir6'
_cell_volume   450.84041637
_cell_formula_units_Z   1
loop_
 _symmetry_equiv_pos_site_id
 _symmetry_equiv_pos_as_xyz
  1  'x, y, z'
loop_
 _atom_site_type_symbol
 _atom_site_label
 _atom_site_symmetry_multiplicity
 _atom_site_fract_x
 _atom_site_fract_y
 _atom_site_fract_z
 _atom_site_occupancy
  Tm  Tm0  1  0.326621  0.006060  0.750000  1
  Hf  Hf1  1  0.994489  0.672109  0.250000  1
  Hf  Hf2  1  0.671418  0.994050  0.250000  1
  Zr  Zr3  1  0.006220  0.328459  0.750000  1
  Al  Al4  1  0.125446  0.126809  0.250000  1
  Al  Al5  1  0.997676  0.334681  0.077384  1
  Al  Al6  1  0.000360  0.663290  0.926228  1
  Al  Al7  1  0.000360  0.663290  0.573772  1
  Al  Al8  1  0.335198  0.998555  0.419611  1
  Al  Al9  1  0.997676  0.334681  0.422616  1
  Al  Al10  1  0.667715  0.001854  0.574357  1
  Al  Al11  1  0.667715  0.001854  0.925643  1
  Al  Al12  1  0.335198  0.998555  0.080389  1
  Al  Al13  1  0.331937  0.333845  0.555755  1
  Al  Al14  1  0.668086  0.667961  0.436939  1
  Al  Al15  1  0.668086  0.667961  0.063061  1
  Al  Al16  1  0.331937  0.333845  0.944245  1
  Al  Al17  1  0.337616  0.552220  0.250000  1
  Al  Al18  1  0.666690  0.450580  0.750000  1
  Al  Al19  1  0.553599  0.339044  0.250000  1
  Al  Al20  1  0.446239  0.658839  0.750000  1
  Ga  Ga21  1  0.866761  0.868942  0.750000  1
  Ir  Ir22  1  0.672829  0.328217  0.001539  1
  Ir  Ir23  1  0.328959  0.674209  0.001938  1
  Ir  Ir24  1  0.328959  0.674209  0.498062  1
  Ir  Ir25  1  0.672829  0.328217  0.498461  1
  Ir  Ir26  1  0.999691  0.998830  0.004272  1
  Ir  Ir27  1  0.999691  0.998830  0.495728  1
