# generated using pymatgen
data_Tm10In8PdAu3
_symmetry_space_group_name_H-M   'P 1'
_cell_length_a   3.63097600
_cell_length_b   8.15989750
_cell_length_c   18.26179500
_cell_angle_alpha   89.81291536
_cell_angle_beta   90.00000000
_cell_angle_gamma   90.00000000
_symmetry_Int_Tables_number   1
_chemical_formula_structural   Tm10In8PdAu3
_chemical_formula_sum   'Tm10 In8 Pd1 Au3'
_cell_volume   541.06473620
_cell_formula_units_Z   1
loop_
 _symmetry_equiv_pos_site_id
 _symmetry_equiv_pos_as_xyz
  1  'x, y, z'
loop_
 _atom_site_type_symbol
 _atom_site_label
 _atom_site_symmetry_multiplicity
 _atom_site_fract_x
 _atom_site_fract_y
 _atom_site_fract_z
 _atom_site_occupancy
  Tm  Tm0  1  0.000000  0.500059  0.499097  1
  Tm  Tm1  1  0.000000  0.000111  0.000466  1
  Tm  Tm2  1  0.000000  0.747526  0.283034  1
  Tm  Tm3  1  0.000000  0.262671  0.716729  1
  Tm  Tm4  1  0.000000  0.763067  0.782591  1
  Tm  Tm5  1  0.000000  0.231591  0.219782  1
  Tm  Tm6  1  0.000000  0.619074  0.081151  1
  Tm  Tm7  1  0.000000  0.380885  0.920526  1
  Tm  Tm8  1  0.000000  0.879992  0.579497  1
  Tm  Tm9  1  0.000000  0.115333  0.416429  1
  In  In10  1  0.500000  0.710429  0.934294  1
  In  In11  1  0.500000  0.289662  0.067271  1
  In  In12  1  0.500000  0.790817  0.432279  1
  In  In13  1  0.500000  0.209959  0.564702  1
  In  In14  1  0.500000  0.580570  0.646569  1
  In  In15  1  0.500000  0.416601  0.352342  1
  In  In16  1  0.500000  0.922251  0.148858  1
  In  In17  1  0.500000  0.081459  0.853033  1
  Pd  Pd18  1  0.500000  0.025950  0.303823  1
  Au  Au19  1  0.500000  0.526324  0.197893  1
  Au  Au20  1  0.500000  0.472731  0.803374  1
  Au  Au21  1  0.500000  0.972937  0.696258  1
