# generated using pymatgen
data_DyTm7Hg4
_symmetry_space_group_name_H-M   'P 1'
_cell_length_a   5.06680100
_cell_length_b   6.91938833
_cell_length_c   9.18057708
_cell_angle_alpha   89.97319670
_cell_angle_beta   90.00000000
_cell_angle_gamma   90.00000000
_symmetry_Int_Tables_number   1
_chemical_formula_structural   DyTm7Hg4
_chemical_formula_sum   'Dy1 Tm7 Hg4'
_cell_volume   321.86331964
_cell_formula_units_Z   1
loop_
 _symmetry_equiv_pos_site_id
 _symmetry_equiv_pos_as_xyz
  1  'x, y, z'
loop_
 _atom_site_type_symbol
 _atom_site_label
 _atom_site_symmetry_multiplicity
 _atom_site_fract_x
 _atom_site_fract_y
 _atom_site_fract_z
 _atom_site_occupancy
  Dy  Dy0  1  0.750000  0.330939  0.925400  1
  Tm  Tm1  1  0.250000  0.017315  0.805131  1
  Tm  Tm2  1  0.250000  0.518593  0.692113  1
  Tm  Tm3  1  0.750000  0.980739  0.196784  1
  Tm  Tm4  1  0.750000  0.482457  0.305829  1
  Tm  Tm5  1  0.250000  0.166097  0.426897  1
  Tm  Tm6  1  0.250000  0.667820  0.073063  1
  Tm  Tm7  1  0.750000  0.833021  0.575031  1
  Hg  Hg8  1  0.250000  0.733038  0.396162  1
  Hg  Hg9  1  0.250000  0.231459  0.105325  1
  Hg  Hg10  1  0.750000  0.267490  0.600098  1
  Hg  Hg11  1  0.750000  0.771030  0.898167  1
