# generated using pymatgen
data_NdLuCdIrO7
_symmetry_space_group_name_H-M   'P 1'
_cell_length_a   6.40720147
_cell_length_b   6.54514290
_cell_length_c   7.52648000
_cell_angle_alpha   90.00000000
_cell_angle_beta   90.00000000
_cell_angle_gamma   111.24913422
_symmetry_Int_Tables_number   1
_chemical_formula_structural   NdLuCdIrO7
_chemical_formula_sum   'Nd2 Lu2 Cd2 Ir2 O14'
_cell_volume   294.17215118
_cell_formula_units_Z   2
loop_
 _symmetry_equiv_pos_site_id
 _symmetry_equiv_pos_as_xyz
  1  'x, y, z'
loop_
 _atom_site_type_symbol
 _atom_site_label
 _atom_site_symmetry_multiplicity
 _atom_site_fract_x
 _atom_site_fract_y
 _atom_site_fract_z
 _atom_site_occupancy
  Nd  Nd0  1  0.000000  0.000000  0.000000  1
  Nd  Nd1  1  0.000000  0.000000  0.500000  1
  Lu  Lu2  1  0.957322  0.490506  0.750000  1
  Lu  Lu3  1  0.042678  0.509494  0.250000  1
  Cd  Cd4  1  0.485742  0.981904  0.750000  1
  Cd  Cd5  1  0.514258  0.018096  0.250000  1
  Ir  Ir6  1  0.500000  0.500000  0.000000  1
  Ir  Ir7  1  0.500000  0.500000  0.500000  1
  O  O8  1  0.603437  0.509157  0.750000  1
  O  O9  1  0.396563  0.490843  0.250000  1
  O  O10  1  0.846007  0.133169  0.750000  1
  O  O11  1  0.153993  0.866831  0.250000  1
  O  O12  1  0.123684  0.847511  0.750000  1
  O  O13  1  0.876316  0.152489  0.250000  1
  O  O14  1  0.425450  0.192327  0.000111  1
  O  O15  1  0.574550  0.807673  0.500111  1
  O  O16  1  0.174629  0.438699  0.965882  1
  O  O17  1  0.825371  0.561301  0.465882  1
  O  O18  1  0.425450  0.192327  0.499889  1
  O  O19  1  0.574550  0.807673  0.999889  1
  O  O20  1  0.825371  0.561301  0.034118  1
  O  O21  1  0.174629  0.438699  0.534118  1
