# generated using pymatgen
data_Ca7La5(SnRh)8
_symmetry_space_group_name_H-M   'P 1'
_cell_length_a   5.90183339
_cell_length_b   8.44111988
_cell_length_c   14.21779202
_cell_angle_alpha   90.05831618
_cell_angle_beta   90.27799374
_cell_angle_gamma   89.54388921
_symmetry_Int_Tables_number   1
_chemical_formula_structural   Ca7La5(SnRh)8
_chemical_formula_sum   'Ca7 La5 Sn8 Rh8'
_cell_volume   708.27202542
_cell_formula_units_Z   1
loop_
 _symmetry_equiv_pos_site_id
 _symmetry_equiv_pos_as_xyz
  1  'x, y, z'
loop_
 _atom_site_type_symbol
 _atom_site_label
 _atom_site_symmetry_multiplicity
 _atom_site_fract_x
 _atom_site_fract_y
 _atom_site_fract_z
 _atom_site_occupancy
  Ca  Ca0  1  0.633651  0.256228  0.247847  1
  Ca  Ca1  1  0.368227  0.741073  0.751311  1
  Ca  Ca2  1  0.359862  0.750904  0.246919  1
  Ca  Ca3  1  0.637770  0.251505  0.750581  1
  Ca  Ca4  1  0.154481  0.402199  0.097249  1
  Ca  Ca5  1  0.846220  0.595574  0.903148  1
  Ca  Ca6  1  0.839348  0.603991  0.599238  1
  La  La7  1  0.826969  0.896248  0.406704  1
  La  La8  1  0.167942  0.401942  0.408292  1
  La  La9  1  0.176242  0.098580  0.596310  1
  La  La10  1  0.173670  0.110387  0.908454  1
  La  La11  1  0.826565  0.894451  0.090161  1
  Sn  Sn12  1  0.136043  0.097652  0.248781  1
  Sn  Sn13  1  0.865282  0.903032  0.752539  1
  Sn  Sn14  1  0.856180  0.600563  0.248880  1
  Sn  Sn15  1  0.135337  0.400002  0.747921  1
  Sn  Sn16  1  0.653827  0.253575  0.002735  1
  Sn  Sn17  1  0.345232  0.744115  0.995887  1
  Sn  Sn18  1  0.349667  0.750700  0.503582  1
  Sn  Sn19  1  0.660550  0.251977  0.499789  1
  Rh  Rh20  1  0.372953  0.034657  0.090286  1
  Rh  Rh21  1  0.624459  0.961686  0.909178  1
  Rh  Rh22  1  0.630657  0.963870  0.592247  1
  Rh  Rh23  1  0.622553  0.540272  0.409211  1
  Rh  Rh24  1  0.374367  0.040278  0.409444  1
  Rh  Rh25  1  0.362506  0.456395  0.586211  1
  Rh  Rh26  1  0.371026  0.455166  0.908800  1
  Rh  Rh27  1  0.628412  0.542977  0.088294  1
