# generated using pymatgen
data_DyHoAl3Fe14C3
_symmetry_space_group_name_H-M   'P 1'
_cell_length_a   6.50126227
_cell_length_b   6.50126217
_cell_length_c   6.50126200
_cell_angle_alpha   83.41755821
_cell_angle_beta   83.41754961
_cell_angle_gamma   83.41754368
_symmetry_Int_Tables_number   1
_chemical_formula_structural   DyHoAl3Fe14C3
_chemical_formula_sum   'Dy1 Ho1 Al3 Fe14 C3'
_cell_volume   269.73625214
_cell_formula_units_Z   1
loop_
 _symmetry_equiv_pos_site_id
 _symmetry_equiv_pos_as_xyz
  1  'x, y, z'
loop_
 _atom_site_type_symbol
 _atom_site_label
 _atom_site_symmetry_multiplicity
 _atom_site_fract_x
 _atom_site_fract_y
 _atom_site_fract_z
 _atom_site_occupancy
  Dy  Dy0  1  0.342893  0.342893  0.342893  1
  Ho  Ho1  1  0.657135  0.657135  0.657135  1
  Al  Al2  1  0.999983  0.999983  0.500019  1
  Al  Al3  1  0.500019  0.999983  0.999983  1
  Al  Al4  1  0.999983  0.500019  0.999983  1
  Fe  Fe5  1  0.714438  0.285594  0.999956  1
  Fe  Fe6  1  0.999956  0.714438  0.285594  1
  Fe  Fe7  1  0.285594  0.999956  0.714438  1
  Fe  Fe8  1  0.999956  0.285594  0.714438  1
  Fe  Fe9  1  0.714438  0.999956  0.285594  1
  Fe  Fe10  1  0.285594  0.714438  0.999956  1
  Fe  Fe11  1  0.345014  0.345014  0.851926  1
  Fe  Fe12  1  0.851926  0.345014  0.345014  1
  Fe  Fe13  1  0.345014  0.851926  0.345014  1
  Fe  Fe14  1  0.655033  0.655033  0.148032  1
  Fe  Fe15  1  0.148032  0.655033  0.655033  1
  Fe  Fe16  1  0.655033  0.148032  0.655033  1
  Fe  Fe17  1  0.907026  0.907026  0.907026  1
  Fe  Fe18  1  0.092941  0.092941  0.092941  1
  C  C19  1  0.500074  0.500074  0.999845  1
  C  C20  1  0.999845  0.500074  0.500074  1
  C  C21  1  0.500074  0.999845  0.500074  1
