# generated using pymatgen
data_Ta10BeGa2P3
_symmetry_space_group_name_H-M   'P 1'
_cell_length_a   7.54693129
_cell_length_b   7.54693013
_cell_length_c   7.55689800
_cell_angle_alpha   128.21877364
_cell_angle_beta   128.21876669
_cell_angle_gamma   76.17447866
_symmetry_Int_Tables_number   1
_chemical_formula_structural   Ta10BeGa2P3
_chemical_formula_sum   'Ta10 Be1 Ga2 P3'
_cell_volume   258.36466345
_cell_formula_units_Z   1
loop_
 _symmetry_equiv_pos_site_id
 _symmetry_equiv_pos_as_xyz
  1  'x, y, z'
loop_
 _atom_site_type_symbol
 _atom_site_label
 _atom_site_symmetry_multiplicity
 _atom_site_fract_x
 _atom_site_fract_y
 _atom_site_fract_z
 _atom_site_occupancy
  Ta  Ta0  1  0.022380  0.191573  0.500000  1
  Ta  Ta1  1  0.695538  0.514731  0.500000  1
  Ta  Ta2  1  0.511795  0.016627  0.820980  1
  Ta  Ta3  1  0.190816  0.695648  0.179020  1
  Ta  Ta4  1  0.985269  0.804462  0.500000  1
  Ta  Ta5  1  0.308427  0.477620  0.500000  1
  Ta  Ta6  1  0.483373  0.988205  0.179020  1
  Ta  Ta7  1  0.804352  0.309184  0.820980  1
  Ta  Ta8  1  0.002269  0.999506  0.001775  1
  Ta  Ta9  1  0.500494  0.497731  0.998225  1
  Be  Be10  1  0.372813  0.127187  0.500000  1
  Ga  Ga11  1  0.748878  0.751122  0.000000  1
  Ga  Ga12  1  0.248878  0.251122  0.000000  1
  P  P13  1  0.621284  0.878716  0.500000  1
  P  P14  1  0.863145  0.359709  0.222853  1
  P  P15  1  0.140291  0.636855  0.777147  1
