# generated using pymatgen
data_Li2AcTb2Al7
_symmetry_space_group_name_H-M   'P 1'
_cell_length_a   9.43773547
_cell_length_b   9.43773503
_cell_length_c   9.43773500
_cell_angle_alpha   34.44747302
_cell_angle_beta   34.44747695
_cell_angle_gamma   34.44746954
_symmetry_Int_Tables_number   1
_chemical_formula_structural   Li2AcTb2Al7
_chemical_formula_sum   'Li2 Ac1 Tb2 Al7'
_cell_volume   239.93081089
_cell_formula_units_Z   1
loop_
 _symmetry_equiv_pos_site_id
 _symmetry_equiv_pos_as_xyz
  1  'x, y, z'
loop_
 _atom_site_type_symbol
 _atom_site_label
 _atom_site_symmetry_multiplicity
 _atom_site_fract_x
 _atom_site_fract_y
 _atom_site_fract_z
 _atom_site_occupancy
  Li  Li0  1  0.664497  0.664497  0.664497  1
  Li  Li1  1  0.335503  0.335503  0.335503  1
  Ac  Ac2  1  0.000000  0.000000  0.000000  1
  Tb  Tb3  1  0.141575  0.141575  0.141575  1
  Tb  Tb4  1  0.858425  0.858425  0.858425  1
  Al  Al5  1  0.412165  0.412165  0.922906  1
  Al  Al6  1  0.922906  0.412165  0.412165  1
  Al  Al7  1  0.500000  0.500000  0.500000  1
  Al  Al8  1  0.587835  0.587835  0.077094  1
  Al  Al9  1  0.412165  0.922906  0.412165  1
  Al  Al10  1  0.077094  0.587835  0.587835  1
  Al  Al11  1  0.587835  0.077094  0.587835  1
