# generated using pymatgen
data_RbNaZrF6
_symmetry_space_group_name_H-M   'P 1'
_cell_length_a   6.48786600
_cell_length_b   8.40568000
_cell_length_c   11.84445400
_cell_angle_alpha   90.00000000
_cell_angle_beta   90.00000000
_cell_angle_gamma   90.00000000
_symmetry_Int_Tables_number   1
_chemical_formula_structural   RbNaZrF6
_chemical_formula_sum   'Rb4 Na4 Zr4 F24'
_cell_volume   645.93641623
_cell_formula_units_Z   4
loop_
 _symmetry_equiv_pos_site_id
 _symmetry_equiv_pos_as_xyz
  1  'x, y, z'
loop_
 _atom_site_type_symbol
 _atom_site_label
 _atom_site_symmetry_multiplicity
 _atom_site_fract_x
 _atom_site_fract_y
 _atom_site_fract_z
 _atom_site_occupancy
  Rb  Rb0  1  0.036106  0.750795  0.467072  1
  Rb  Rb1  1  0.536106  0.250795  0.032928  1
  Rb  Rb2  1  0.463894  0.750795  0.967072  1
  Rb  Rb3  1  0.963894  0.250795  0.532928  1
  Na  Na4  1  0.446920  0.500447  0.648064  1
  Na  Na5  1  0.553080  0.000447  0.351936  1
  Na  Na6  1  0.946920  0.000447  0.851936  1
  Na  Na7  1  0.053080  0.500447  0.148064  1
  Zr  Zr8  1  0.454277  0.001210  0.642682  1
  Zr  Zr9  1  0.045723  0.001210  0.142682  1
  Zr  Zr10  1  0.545723  0.501210  0.357318  1
  Zr  Zr11  1  0.954277  0.501210  0.857318  1
  F  F12  1  0.627498  0.267637  0.364845  1
  F  F13  1  0.177531  0.058041  0.713124  1
  F  F14  1  0.789962  0.964939  0.042307  1
  F  F15  1  0.463602  0.735115  0.353974  1
  F  F16  1  0.372502  0.767637  0.635155  1
  F  F17  1  0.536398  0.235115  0.646026  1
  F  F18  1  0.108716  0.461666  0.709883  1
  F  F19  1  0.289962  0.464939  0.457693  1
  F  F20  1  0.701362  0.530253  0.508388  1
  F  F21  1  0.677531  0.558041  0.786876  1
  F  F22  1  0.391284  0.461666  0.209883  1
  F  F23  1  0.891284  0.961666  0.290117  1
  F  F24  1  0.210038  0.464939  0.957693  1
  F  F25  1  0.710038  0.964939  0.542307  1
  F  F26  1  0.201362  0.030253  0.991612  1
  F  F27  1  0.963602  0.235115  0.146026  1
  F  F28  1  0.798638  0.530253  0.008388  1
  F  F29  1  0.822469  0.558041  0.286876  1
  F  F30  1  0.036398  0.735115  0.853974  1
  F  F31  1  0.322469  0.058041  0.213124  1
  F  F32  1  0.298638  0.030253  0.491612  1
  F  F33  1  0.872502  0.267637  0.864845  1
  F  F34  1  0.608716  0.961666  0.790117  1
  F  F35  1  0.127498  0.767637  0.135155  1
