# generated using pymatgen
data_Yb(BrF4)2
_symmetry_space_group_name_H-M   'P 1'
_cell_length_a   5.99482000
_cell_length_b   5.99482000
_cell_length_c   10.41941000
_cell_angle_alpha   90.00000000
_cell_angle_beta   90.00000000
_cell_angle_gamma   90.00000000
_symmetry_Int_Tables_number   1
_chemical_formula_structural   Yb(BrF4)2
_chemical_formula_sum   'Yb2 Br4 F16'
_cell_volume   374.45136905
_cell_formula_units_Z   2
loop_
 _symmetry_equiv_pos_site_id
 _symmetry_equiv_pos_as_xyz
  1  'x, y, z'
loop_
 _atom_site_type_symbol
 _atom_site_label
 _atom_site_symmetry_multiplicity
 _atom_site_fract_x
 _atom_site_fract_y
 _atom_site_fract_z
 _atom_site_occupancy
  Yb  Yb0  1  0.000000  0.000000  0.250000  1
  Yb  Yb1  1  0.000000  0.000000  0.750000  1
  Br  Br2  1  0.500000  0.000000  0.000000  1
  Br  Br3  1  0.000000  0.500000  0.000000  1
  Br  Br4  1  0.000000  0.500000  0.500000  1
  Br  Br5  1  0.500000  0.000000  0.500000  1
  F  F6  1  0.696426  0.878623  0.629968  1
  F  F7  1  0.303574  0.121377  0.629968  1
  F  F8  1  0.878623  0.696426  0.870032  1
  F  F9  1  0.878623  0.303574  0.629968  1
  F  F10  1  0.121377  0.696426  0.629968  1
  F  F11  1  0.303574  0.878623  0.870032  1
  F  F12  1  0.878623  0.696426  0.129968  1
  F  F13  1  0.303574  0.878623  0.129968  1
  F  F14  1  0.696426  0.121377  0.129968  1
  F  F15  1  0.878623  0.303574  0.370032  1
  F  F16  1  0.121377  0.696426  0.370032  1
  F  F17  1  0.121377  0.303574  0.129968  1
  F  F18  1  0.696426  0.878623  0.370032  1
  F  F19  1  0.303574  0.121377  0.370032  1
  F  F20  1  0.121377  0.303574  0.870032  1
  F  F21  1  0.696426  0.121377  0.870032  1
