# generated using pymatgen
data_Y11Ho7Sc2(Cd3Ru)2
_symmetry_space_group_name_H-M   'P 1'
_cell_length_a   9.53089270
_cell_length_b   9.53089217
_cell_length_c   9.76535186
_cell_angle_alpha   89.95835073
_cell_angle_beta   90.04165093
_cell_angle_gamma   119.98556011
_symmetry_Int_Tables_number   1
_chemical_formula_structural   Y11Ho7Sc2(Cd3Ru)2
_chemical_formula_sum   'Y11 Ho7 Sc2 Cd6 Ru2'
_cell_volume   768.33158285
_cell_formula_units_Z   1
loop_
 _symmetry_equiv_pos_site_id
 _symmetry_equiv_pos_as_xyz
  1  'x, y, z'
loop_
 _atom_site_type_symbol
 _atom_site_label
 _atom_site_symmetry_multiplicity
 _atom_site_fract_x
 _atom_site_fract_y
 _atom_site_fract_z
 _atom_site_occupancy
  Y  Y0  1  0.791869  0.583506  0.940821  1
  Y  Y1  1  0.416494  0.208131  0.940821  1
  Y  Y2  1  0.208148  0.791852  0.059212  1
  Y  Y3  1  0.207951  0.416248  0.059140  1
  Y  Y4  1  0.583752  0.792049  0.059140  1
  Y  Y5  1  0.540893  0.459107  0.250669  1
  Y  Y6  1  0.541040  0.081908  0.250467  1
  Y  Y7  1  0.918092  0.458960  0.250467  1
  Y  Y8  1  0.459072  0.540928  0.749320  1
  Y  Y9  1  0.459314  0.918389  0.749474  1
  Y  Y10  1  0.081611  0.540686  0.749474  1
  Ho  Ho11  1  0.208568  0.791432  0.440679  1
  Ho  Ho12  1  0.208546  0.417130  0.440692  1
  Ho  Ho13  1  0.582870  0.791454  0.440692  1
  Ho  Ho14  1  0.791410  0.208590  0.559489  1
  Ho  Ho15  1  0.791408  0.582804  0.559351  1
  Ho  Ho16  1  0.417196  0.208592  0.559351  1
  Ho  Ho17  1  0.791463  0.208537  0.940310  1
  Sc  Sc18  1  0.999998  0.000002  0.500042  1
  Sc  Sc19  1  0.999880  0.000120  0.999920  1
  Cd  Cd20  1  0.889099  0.110901  0.250060  1
  Cd  Cd21  1  0.889117  0.778210  0.250042  1
  Cd  Cd22  1  0.221790  0.110883  0.250042  1
  Cd  Cd23  1  0.110882  0.889118  0.749944  1
  Cd  Cd24  1  0.110856  0.221751  0.749938  1
  Cd  Cd25  1  0.778249  0.889144  0.749938  1
  Ru  Ru26  1  0.333350  0.666650  0.251683  1
  Ru  Ru27  1  0.667081  0.332919  0.748824  1
