# generated using pymatgen
data_PrEr2Ni2Rh7
_symmetry_space_group_name_H-M   'P 1'
_cell_length_a   5.34970900
_cell_length_b   5.34970747
_cell_length_c   16.86166900
_cell_angle_alpha   90.00000000
_cell_angle_beta   90.00000000
_cell_angle_gamma   119.99999089
_symmetry_Int_Tables_number   1
_chemical_formula_structural   PrEr2Ni2Rh7
_chemical_formula_sum   'Pr2 Er4 Ni4 Rh14'
_cell_volume   417.91833531
_cell_formula_units_Z   2
loop_
 _symmetry_equiv_pos_site_id
 _symmetry_equiv_pos_as_xyz
  1  'x, y, z'
loop_
 _atom_site_type_symbol
 _atom_site_label
 _atom_site_symmetry_multiplicity
 _atom_site_fract_x
 _atom_site_fract_y
 _atom_site_fract_z
 _atom_site_occupancy
  Pr  Pr0  1  0.333333  0.666667  0.750000  1
  Pr  Pr1  1  0.666667  0.333333  0.250000  1
  Er  Er2  1  0.333333  0.666667  0.539943  1
  Er  Er3  1  0.666667  0.333333  0.039943  1
  Er  Er4  1  0.666667  0.333333  0.460057  1
  Er  Er5  1  0.333333  0.666667  0.960057  1
  Ni  Ni6  1  0.000000  0.000000  0.250000  1
  Ni  Ni7  1  0.000000  0.000000  0.750000  1
  Ni  Ni8  1  0.333333  0.666667  0.250000  1
  Ni  Ni9  1  0.666667  0.333333  0.750000  1
  Rh  Rh10  1  0.167766  0.335535  0.128349  1
  Rh  Rh11  1  0.832234  0.664465  0.628349  1
  Rh  Rh12  1  0.664465  0.832234  0.128349  1
  Rh  Rh13  1  0.167766  0.832234  0.128349  1
  Rh  Rh14  1  0.832234  0.167766  0.628349  1
  Rh  Rh15  1  0.335535  0.167766  0.628349  1
  Rh  Rh16  1  0.832234  0.664465  0.871651  1
  Rh  Rh17  1  0.832234  0.167766  0.871651  1
  Rh  Rh18  1  0.335535  0.167766  0.871651  1
  Rh  Rh19  1  0.664465  0.832234  0.371651  1
  Rh  Rh20  1  0.167766  0.832234  0.371651  1
  Rh  Rh21  1  0.167766  0.335535  0.371651  1
  Rh  Rh22  1  0.000000  0.000000  0.000000  1
  Rh  Rh23  1  0.000000  0.000000  0.500000  1
