# generated using pymatgen
data_Ca3Y(TcB4)4
_symmetry_space_group_name_H-M   'P 1'
_cell_length_a   6.00411811
_cell_length_b   11.60588122
_cell_length_c   3.57590400
_cell_angle_alpha   90.00000000
_cell_angle_beta   90.00000000
_cell_angle_gamma   90.02207468
_symmetry_Int_Tables_number   1
_chemical_formula_structural   Ca3Y(TcB4)4
_chemical_formula_sum   'Ca3 Y1 Tc4 B16'
_cell_volume   249.17999175
_cell_formula_units_Z   1
loop_
 _symmetry_equiv_pos_site_id
 _symmetry_equiv_pos_as_xyz
  1  'x, y, z'
loop_
 _atom_site_type_symbol
 _atom_site_label
 _atom_site_symmetry_multiplicity
 _atom_site_fract_x
 _atom_site_fract_y
 _atom_site_fract_z
 _atom_site_occupancy
  Ca  Ca0  1  0.872502  0.151497  0.000000  1
  Ca  Ca1  1  0.372642  0.349788  0.000000  1
  Ca  Ca2  1  0.626988  0.649407  0.000000  1
  Y  Y3  1  0.128227  0.849172  0.000000  1
  Tc  Tc4  1  0.369107  0.082495  0.000000  1
  Tc  Tc5  1  0.869982  0.417251  0.000000  1
  Tc  Tc6  1  0.128851  0.583680  0.000000  1
  Tc  Tc7  1  0.629079  0.915700  0.000000  1
  B  B8  1  0.135727  0.031878  0.499999  1
  B  B9  1  0.613804  0.047409  0.499999  1
  B  B10  1  0.216117  0.185083  0.499999  1
  B  B11  1  0.522572  0.192390  0.499999  1
  B  B12  1  0.022755  0.307570  0.499999  1
  B  B13  1  0.715284  0.315300  0.499999  1
  B  B14  1  0.113944  0.453066  0.499999  1
  B  B15  1  0.634949  0.467782  0.499999  1
  B  B16  1  0.365414  0.532160  0.499999  1
  B  B17  1  0.886620  0.547528  0.499999  1
  B  B18  1  0.285197  0.684749  0.499999  1
  B  B19  1  0.976739  0.692574  0.499999  1
  B  B20  1  0.476223  0.807467  0.499999  1
  B  B21  1  0.784924  0.815299  0.499999  1
  B  B22  1  0.387926  0.952660  0.499999  1
  B  B23  1  0.864427  0.968100  0.499999  1
