# generated using pymatgen
data_Tl5VF9
_symmetry_space_group_name_H-M   'P 1'
_cell_length_a   6.75677700
_cell_length_b   7.92919500
_cell_length_c   11.05451100
_cell_angle_alpha   90.00010116
_cell_angle_beta   89.99852452
_cell_angle_gamma   89.99992774
_symmetry_Int_Tables_number   1
_chemical_formula_structural   Tl5VF9
_chemical_formula_sum   'Tl10 V2 F18'
_cell_volume   592.25429701
_cell_formula_units_Z   2
loop_
 _symmetry_equiv_pos_site_id
 _symmetry_equiv_pos_as_xyz
  1  'x, y, z'
loop_
 _atom_site_type_symbol
 _atom_site_label
 _atom_site_symmetry_multiplicity
 _atom_site_fract_x
 _atom_site_fract_y
 _atom_site_fract_z
 _atom_site_occupancy
  Tl  Tl0  1  0.040327  0.266498  0.826247  1
  Tl  Tl1  1  0.040330  0.733481  0.826249  1
  Tl  Tl2  1  0.444595  0.499999  0.017450  1
  Tl  Tl3  1  0.450074  0.733157  0.336204  1
  Tl  Tl4  1  0.450067  0.266855  0.336214  1
  Tl  Tl5  1  0.540313  0.733497  0.673740  1
  Tl  Tl6  1  0.540298  0.266485  0.673748  1
  Tl  Tl7  1  0.944603  0.500006  0.482579  1
  Tl  Tl8  1  0.950072  0.266869  0.163775  1
  Tl  Tl9  1  0.950075  0.733139  0.163779  1
  V  V10  1  0.497843  0.000006  0.999946  1
  V  V11  1  0.997839  0.000021  0.500092  1
  F  F12  1  0.108696  0.999919  0.347509  1
  F  F13  1  0.177089  0.172558  0.548860  1
  F  F14  1  0.177174  0.827465  0.548747  1
  F  F15  1  0.192314  0.499957  0.263503  1
  F  F16  1  0.328266  0.500021  0.779490  1
  F  F17  1  0.313817  0.169702  0.049419  1
  F  F18  1  0.313825  0.830282  0.049441  1
  F  F19  1  0.384410  0.000052  0.847588  1
  F  F20  1  0.534394  0.500002  0.501123  1
  F  F21  1  0.608861  0.999926  0.152499  1
  F  F22  1  0.677142  0.172556  0.951199  1
  F  F23  1  0.677210  0.827449  0.951273  1
  F  F24  1  0.692181  0.499974  0.236423  1
  F  F25  1  0.828295  0.500014  0.720428  1
  F  F26  1  0.813816  0.169718  0.450600  1
  F  F27  1  0.813834  0.830286  0.450557  1
  F  F28  1  0.884508  0.000104  0.652463  1
  F  F29  1  0.034326  0.500002  0.998857  1
