# generated using pymatgen
data_Sr4Li3Ca4Si12Pd
_symmetry_space_group_name_H-M   'P 1'
_cell_length_a   4.42547400
_cell_length_b   10.78909866
_cell_length_c   11.28711524
_cell_angle_alpha   89.63785581
_cell_angle_beta   90.00000000
_cell_angle_gamma   90.00000000
_symmetry_Int_Tables_number   1
_chemical_formula_structural   Sr4Li3Ca4Si12Pd
_chemical_formula_sum   'Sr4 Li3 Ca4 Si12 Pd1'
_cell_volume   538.91372259
_cell_formula_units_Z   1
loop_
 _symmetry_equiv_pos_site_id
 _symmetry_equiv_pos_as_xyz
  1  'x, y, z'
loop_
 _atom_site_type_symbol
 _atom_site_label
 _atom_site_symmetry_multiplicity
 _atom_site_fract_x
 _atom_site_fract_y
 _atom_site_fract_z
 _atom_site_occupancy
  Sr  Sr0  1  0.500000  0.820855  0.577504  1
  Sr  Sr1  1  0.500000  0.176978  0.417432  1
  Sr  Sr2  1  0.000000  0.319495  0.919733  1
  Sr  Sr3  1  0.000000  0.680127  0.082852  1
  Li  Li4  1  0.500000  0.136001  0.717030  1
  Li  Li5  1  0.000000  0.360475  0.218268  1
  Li  Li6  1  0.000000  0.640172  0.782698  1
  Ca  Ca7  1  0.500000  0.557622  0.345872  1
  Ca  Ca8  1  0.500000  0.451616  0.648001  1
  Ca  Ca9  1  0.000000  0.047386  0.154253  1
  Ca  Ca10  1  0.000000  0.948692  0.852639  1
  Si  Si11  1  0.500000  0.893194  0.053232  1
  Si  Si12  1  0.500000  0.100945  0.963464  1
  Si  Si13  1  0.000000  0.396454  0.458940  1
  Si  Si14  1  0.000000  0.607010  0.536112  1
  Si  Si15  1  0.000000  0.959809  0.396577  1
  Si  Si16  1  0.000000  0.039910  0.596914  1
  Si  Si17  1  0.500000  0.457787  0.096954  1
  Si  Si18  1  0.500000  0.541028  0.900964  1
  Si  Si19  1  0.000000  0.257564  0.627861  1
  Si  Si20  1  0.000000  0.746399  0.359614  1
  Si  Si21  1  0.500000  0.759314  0.877566  1
  Si  Si22  1  0.500000  0.241813  0.129109  1
  Pd  Pd23  1  0.500000  0.859355  0.286406  1
