# generated using pymatgen
data_Ho2Tm3Co16(P4Os)3
_symmetry_space_group_name_H-M   'P 1'
_cell_length_a   11.98058600
_cell_length_b   11.98058615
_cell_length_c   3.70854900
_cell_angle_alpha   90.00000000
_cell_angle_beta   90.00000000
_cell_angle_gamma   119.99999959
_symmetry_Int_Tables_number   1
_chemical_formula_structural   Ho2Tm3Co16(P4Os)3
_chemical_formula_sum   'Ho2 Tm3 Co16 P12 Os3'
_cell_volume   460.98923348
_cell_formula_units_Z   1
loop_
 _symmetry_equiv_pos_site_id
 _symmetry_equiv_pos_as_xyz
  1  'x, y, z'
loop_
 _atom_site_type_symbol
 _atom_site_label
 _atom_site_symmetry_multiplicity
 _atom_site_fract_x
 _atom_site_fract_y
 _atom_site_fract_z
 _atom_site_occupancy
  Ho  Ho0  1  0.666667  0.333333  0.000000  1
  Ho  Ho1  1  0.333333  0.666667  0.000000  1
  Tm  Tm2  1  0.815531  0.815531  0.500000  1
  Tm  Tm3  1  0.184469  0.000000  0.500000  1
  Tm  Tm4  1  0.000000  0.184469  0.500000  1
  Co  Co5  1  0.874218  0.358889  0.500000  1
  Co  Co6  1  0.641111  0.515329  0.500000  1
  Co  Co7  1  0.484671  0.125782  0.500000  1
  Co  Co8  1  0.358889  0.874218  0.500000  1
  Co  Co9  1  0.515329  0.641111  0.500000  1
  Co  Co10  1  0.125782  0.484671  0.500000  1
  Co  Co11  1  0.804088  0.179938  0.000000  1
  Co  Co12  1  0.820062  0.624149  0.000000  1
  Co  Co13  1  0.375851  0.195912  0.000000  1
  Co  Co14  1  0.179938  0.804088  0.000000  1
  Co  Co15  1  0.624149  0.820062  0.000000  1
  Co  Co16  1  0.195912  0.375851  0.000000  1
  Co  Co17  1  0.283007  0.283007  0.500000  1
  Co  Co18  1  0.716993  0.000000  0.500000  1
  Co  Co19  1  0.000000  0.716993  0.500000  1
  Co  Co20  1  0.000000  0.000000  0.000000  1
  P  P21  1  0.687496  0.166421  0.500000  1
  P  P22  1  0.833579  0.521075  0.500000  1
  P  P23  1  0.478925  0.312504  0.500000  1
  P  P24  1  0.166421  0.687496  0.500000  1
  P  P25  1  0.521075  0.833579  0.500000  1
  P  P26  1  0.312504  0.478925  0.500000  1
  P  P27  1  0.178591  0.178591  0.000000  1
  P  P28  1  0.821409  0.000000  0.000000  1
  P  P29  1  0.000000  0.821409  0.000000  1
  P  P30  1  0.638321  0.638321  0.000000  1
  P  P31  1  0.361679  0.000000  0.000000  1
  P  P32  1  0.000000  0.361679  0.000000  1
  Os  Os33  1  0.446268  0.446268  0.000000  1
  Os  Os34  1  0.553732  0.000000  0.000000  1
  Os  Os35  1  0.000000  0.553732  0.000000  1
