# generated using pymatgen
data_Ho3Er2RuPb3
_symmetry_space_group_name_H-M   'P 1'
_cell_length_a   9.27771901
_cell_length_b   9.27771867
_cell_length_c   6.55115100
_cell_angle_alpha   90.00000000
_cell_angle_beta   90.00000000
_cell_angle_gamma   119.99543071
_symmetry_Int_Tables_number   1
_chemical_formula_structural   Ho3Er2RuPb3
_chemical_formula_sum   'Ho6 Er4 Ru2 Pb6'
_cell_volume   488.37188066
_cell_formula_units_Z   2
loop_
 _symmetry_equiv_pos_site_id
 _symmetry_equiv_pos_as_xyz
  1  'x, y, z'
loop_
 _atom_site_type_symbol
 _atom_site_label
 _atom_site_symmetry_multiplicity
 _atom_site_fract_x
 _atom_site_fract_y
 _atom_site_fract_z
 _atom_site_occupancy
  Ho  Ho0  1  0.000006  0.763522  0.750000  1
  Ho  Ho1  1  0.236478  0.999994  0.250000  1
  Ho  Ho2  1  0.333373  0.666627  0.500000  1
  Ho  Ho3  1  0.666676  0.333324  0.500000  1
  Ho  Ho4  1  0.333373  0.666627  0.000000  1
  Ho  Ho5  1  0.666676  0.333324  0.000000  1
  Er  Er6  1  0.763628  0.000007  0.750000  1
  Er  Er7  1  0.999993  0.236372  0.250000  1
  Er  Er8  1  0.763632  0.763632  0.250000  1
  Er  Er9  1  0.236368  0.236368  0.750000  1
  Ru  Ru10  1  0.999761  0.000239  0.000000  1
  Ru  Ru11  1  0.999761  0.000239  0.500000  1
  Pb  Pb12  1  0.402443  0.402510  0.250000  1
  Pb  Pb13  1  0.999993  0.402105  0.750000  1
  Pb  Pb14  1  0.999930  0.597477  0.250000  1
  Pb  Pb15  1  0.597895  0.000007  0.250000  1
  Pb  Pb16  1  0.402523  0.000070  0.750000  1
  Pb  Pb17  1  0.597490  0.597557  0.750000  1
