# generated using pymatgen
data_Ca14ZnSb11
_symmetry_space_group_name_H-M   'P 1'
_cell_length_a   16.23360897
_cell_length_b   16.23360842
_cell_length_c   16.23360900
_cell_angle_alpha   117.77309857
_cell_angle_beta   117.77309754
_cell_angle_gamma   93.90242311
_symmetry_Int_Tables_number   1
_chemical_formula_structural   Ca14ZnSb11
_chemical_formula_sum   'Ca56 Zn4 Sb44'
_cell_volume   3119.02907791
_cell_formula_units_Z   4
loop_
 _symmetry_equiv_pos_site_id
 _symmetry_equiv_pos_as_xyz
  1  'x, y, z'
loop_
 _atom_site_type_symbol
 _atom_site_label
 _atom_site_symmetry_multiplicity
 _atom_site_fract_x
 _atom_site_fract_y
 _atom_site_fract_z
 _atom_site_occupancy
  Ca  Ca0  1  0.351649  0.690768  0.978199  1
  Ca  Ca1  1  0.940768  0.101649  0.478199  1
  Ca  Ca2  1  0.777174  0.496989  0.367307  1
  Ca  Ca3  1  0.125000  0.519097  0.894097  1
  Ca  Ca4  1  0.625000  0.230903  0.105903  1
  Ca  Ca5  1  0.712569  0.373450  0.021801  1
  Ca  Ca6  1  0.003011  0.722826  0.632693  1
  Ca  Ca7  1  0.851649  0.873450  0.660881  1
  Ca  Ca8  1  0.123450  0.601649  0.160881  1
  Ca  Ca9  1  0.497938  0.145441  0.397145  1
  Ca  Ca10  1  0.895441  0.998298  0.147504  1
  Ca  Ca11  1  0.354559  0.002062  0.602855  1
  Ca  Ca12  1  0.972826  0.753011  0.132693  1
  Ca  Ca13  1  0.037431  0.876550  0.478199  1
  Ca  Ca14  1  0.537431  0.059232  0.160881  1
  Ca  Ca15  1  0.472826  0.340132  0.219815  1
  Ca  Ca16  1  0.399206  0.751702  0.397145  1
  Ca  Ca17  1  0.395441  0.247938  0.897145  1
  Ca  Ca18  1  0.898351  0.376550  0.839119  1
  Ca  Ca19  1  0.350794  0.498298  0.102855  1
  Ca  Ca20  1  0.480903  0.375000  0.605903  1
  Ca  Ca21  1  0.440768  0.962569  0.839119  1
  Ca  Ca22  1  0.629682  0.996989  0.719815  1
  Ca  Ca23  1  0.752062  0.649206  0.147504  1
  Ca  Ca24  1  0.309232  0.287431  0.660881  1
  Ca  Ca25  1  0.126550  0.787431  0.978199  1
  Ca  Ca26  1  0.246989  0.379682  0.219815  1
  Ca  Ca27  1  0.501702  0.604559  0.852496  1
  Ca  Ca28  1  0.809232  0.148351  0.021801  1
  Ca  Ca29  1  0.769097  0.875000  0.394097  1
  Ca  Ca30  1  0.659868  0.879682  0.132693  1
  Ca  Ca31  1  0.159868  0.027174  0.780185  1
  Ca  Ca32  1  0.997938  0.600794  0.352496  1
  Ca  Ca33  1  0.590132  0.222826  0.719815  1
  Ca  Ca34  1  0.850794  0.747938  0.852496  1
  Ca  Ca35  1  0.620318  0.840132  0.867307  1
  Ca  Ca36  1  0.623450  0.462569  0.521801  1
  Ca  Ca37  1  0.269097  0.875000  0.894097  1
  Ca  Ca38  1  0.277174  0.909868  0.280185  1
  Ca  Ca39  1  0.746989  0.527174  0.867307  1
  Ca  Ca40  1  0.899206  0.502062  0.647504  1
  Ca  Ca41  1  0.125000  0.019097  0.394097  1
  Ca  Ca42  1  0.248298  0.645441  0.647504  1
  Ca  Ca43  1  0.748298  0.100794  0.602855  1
  Ca  Ca44  1  0.980903  0.375000  0.105903  1
  Ca  Ca45  1  0.001702  0.149206  0.897145  1
  Ca  Ca46  1  0.212569  0.190768  0.339119  1
  Ca  Ca47  1  0.625000  0.730903  0.605903  1
  Ca  Ca48  1  0.854559  0.251702  0.352496  1
  Ca  Ca49  1  0.120318  0.253011  0.780185  1
  Ca  Ca50  1  0.503011  0.870318  0.280185  1
  Ca  Ca51  1  0.129682  0.409868  0.632693  1
  Ca  Ca52  1  0.626550  0.648351  0.339119  1
  Ca  Ca53  1  0.252062  0.104559  0.102855  1
  Ca  Ca54  1  0.090132  0.370318  0.367307  1
  Ca  Ca55  1  0.398351  0.559232  0.521801  1
  Zn  Zn56  1  0.500000  0.500000  0.000000  1
  Zn  Zn57  1  0.750000  0.250000  0.500000  1
  Zn  Zn58  1  0.250000  0.750000  0.500000  1
  Zn  Zn59  1  0.000000  0.000000  0.000000  1
  Sb  Sb60  1  0.896816  0.541766  0.094564  1
  Sb  Sb61  1  0.454139  0.811742  0.636270  1
  Sb  Sb62  1  0.853184  0.708234  0.405436  1
  Sb  Sb63  1  0.688258  0.045861  0.363730  1
  Sb  Sb64  1  0.552252  0.146816  0.855048  1
  Sb  Sb65  1  0.561742  0.425472  0.857603  1
  Sb  Sb66  1  0.885259  0.885259  0.270517  1
  Sb  Sb67  1  0.802797  0.208234  0.855048  1
  Sb  Sb68  1  0.500000  0.000000  0.500000  1
  Sb  Sb69  1  0.675472  0.311742  0.357603  1
  Sb  Sb70  1  0.074528  0.938258  0.142397  1
  Sb  Sb71  1  0.291766  0.697203  0.144952  1
  Sb  Sb72  1  0.574528  0.432131  0.136270  1
  Sb  Sb73  1  0.197748  0.103184  0.644952  1
  Sb  Sb74  1  0.750000  0.750000  0.000000  1
  Sb  Sb75  1  0.114741  0.385259  0.000000  1
  Sb  Sb76  1  0.067869  0.925472  0.863730  1
  Sb  Sb77  1  0.175472  0.817869  0.363730  1
  Sb  Sb78  1  0.795861  0.932131  0.857603  1
  Sb  Sb79  1  0.458234  0.552797  0.355048  1
  Sb  Sb80  1  0.188258  0.824528  0.642397  1
  Sb  Sb81  1  0.947203  0.041766  0.644952  1
  Sb  Sb82  1  0.250000  0.250000  0.000000  1
  Sb  Sb83  1  0.061742  0.204139  0.136270  1
  Sb  Sb84  1  0.135259  0.635259  0.770517  1
  Sb  Sb85  1  0.182131  0.545861  0.357603  1
  Sb  Sb86  1  0.958234  0.603184  0.905436  1
  Sb  Sb87  1  0.567869  0.704139  0.142397  1
  Sb  Sb88  1  0.302797  0.447748  0.594564  1
  Sb  Sb89  1  0.864741  0.364741  0.229483  1
  Sb  Sb90  1  0.614741  0.614741  0.729483  1
  Sb  Sb91  1  0.353184  0.947748  0.144952  1
  Sb  Sb92  1  0.364741  0.135259  0.500000  1
  Sb  Sb93  1  0.396816  0.302252  0.355048  1
  Sb  Sb94  1  0.295861  0.438258  0.863730  1
  Sb  Sb95  1  0.697748  0.052797  0.094564  1
  Sb  Sb96  1  0.447203  0.802252  0.905436  1
  Sb  Sb97  1  0.635259  0.864741  0.500000  1
  Sb  Sb98  1  0.000000  0.500000  0.500000  1
  Sb  Sb99  1  0.385259  0.114741  0.000000  1
  Sb  Sb100  1  0.954139  0.317869  0.642397  1
  Sb  Sb101  1  0.052252  0.197203  0.405436  1
  Sb  Sb102  1  0.682131  0.324528  0.636270  1
  Sb  Sb103  1  0.791766  0.646816  0.594564  1
