# generated using pymatgen
data_Hf2TaNbC4
_symmetry_space_group_name_H-M   'P 1'
_cell_length_a   10.73800116
_cell_length_b   10.73800096
_cell_length_c   10.73799987
_cell_angle_alpha   17.26503063
_cell_angle_beta   17.26503598
_cell_angle_gamma   17.26503224
_symmetry_Int_Tables_number   1
_chemical_formula_structural   Hf2TaNbC4
_chemical_formula_sum   'Hf2 Ta1 Nb1 C4'
_cell_volume   95.16538662
_cell_formula_units_Z   1
loop_
 _symmetry_equiv_pos_site_id
 _symmetry_equiv_pos_as_xyz
  1  'x, y, z'
loop_
 _atom_site_type_symbol
 _atom_site_label
 _atom_site_symmetry_multiplicity
 _atom_site_fract_x
 _atom_site_fract_y
 _atom_site_fract_z
 _atom_site_occupancy
  Hf  Hf0  1  0.250104  0.250104  0.250104  1
  Hf  Hf1  1  0.749896  0.749896  0.749896  1
  Ta  Ta2  1  0.500000  0.500000  0.500000  1
  Nb  Nb3  1  0.000000  0.000000  0.000000  1
  C  C4  1  0.374092  0.374092  0.374092  1
  C  C5  1  0.126541  0.126541  0.126541  1
  C  C6  1  0.625908  0.625908  0.625908  1
  C  C7  1  0.873459  0.873459  0.873459  1
