# generated using pymatgen
data_Na8TiSb4
_symmetry_space_group_name_H-M   'P 1'
_cell_length_a   10.39449052
_cell_length_b   10.39449043
_cell_length_c   10.39449100
_cell_angle_alpha   60.00000136
_cell_angle_beta   60.00000166
_cell_angle_gamma   60.00000081
_symmetry_Int_Tables_number   1
_chemical_formula_structural   Na8TiSb4
_chemical_formula_sum   'Na16 Ti2 Sb8'
_cell_volume   794.13557844
_cell_formula_units_Z   2
loop_
 _symmetry_equiv_pos_site_id
 _symmetry_equiv_pos_as_xyz
  1  'x, y, z'
loop_
 _atom_site_type_symbol
 _atom_site_label
 _atom_site_symmetry_multiplicity
 _atom_site_fract_x
 _atom_site_fract_y
 _atom_site_fract_z
 _atom_site_occupancy
  Na  Na0  1  0.625000  0.625000  0.125000  1
  Na  Na1  1  0.625000  0.125000  0.625000  1
  Na  Na2  1  0.125000  0.625000  0.625000  1
  Na  Na3  1  0.625000  0.625000  0.625000  1
  Na  Na4  1  0.028983  0.471017  0.471017  1
  Na  Na5  1  0.778983  0.221017  0.221017  1
  Na  Na6  1  0.471017  0.028983  0.471017  1
  Na  Na7  1  0.471017  0.471017  0.028983  1
  Na  Na8  1  0.028983  0.028983  0.471017  1
  Na  Na9  1  0.028983  0.471017  0.028983  1
  Na  Na10  1  0.471017  0.028983  0.028983  1
  Na  Na11  1  0.778983  0.221017  0.778983  1
  Na  Na12  1  0.221017  0.778983  0.221017  1
  Na  Na13  1  0.221017  0.221017  0.778983  1
  Na  Na14  1  0.778983  0.778983  0.221017  1
  Na  Na15  1  0.221017  0.778983  0.778983  1
  Ti  Ti16  1  0.750000  0.750000  0.750000  1
  Ti  Ti17  1  0.500000  0.500000  0.500000  1
  Sb  Sb18  1  0.856537  0.856537  0.430390  1
  Sb  Sb19  1  0.856537  0.430390  0.856537  1
  Sb  Sb20  1  0.393463  0.393463  0.819610  1
  Sb  Sb21  1  0.393463  0.819610  0.393463  1
  Sb  Sb22  1  0.819610  0.393463  0.393463  1
  Sb  Sb23  1  0.856537  0.856537  0.856537  1
  Sb  Sb24  1  0.430390  0.856537  0.856537  1
  Sb  Sb25  1  0.393463  0.393463  0.393463  1
