# generated using pymatgen
data_Pr8Sm2AlSi4Ge
_symmetry_space_group_name_H-M   'P 1'
_cell_length_a   7.82676200
_cell_length_b   9.13146598
_cell_length_c   7.82676200
_cell_angle_alpha   115.37621531
_cell_angle_beta   90.00000000
_cell_angle_gamma   115.37621531
_symmetry_Int_Tables_number   1
_chemical_formula_structural   Pr8Sm2AlSi4Ge
_chemical_formula_sum   'Pr8 Sm2 Al1 Si4 Ge1'
_cell_volume   444.93260449
_cell_formula_units_Z   1
loop_
 _symmetry_equiv_pos_site_id
 _symmetry_equiv_pos_as_xyz
  1  'x, y, z'
loop_
 _atom_site_type_symbol
 _atom_site_label
 _atom_site_symmetry_multiplicity
 _atom_site_fract_x
 _atom_site_fract_y
 _atom_site_fract_z
 _atom_site_occupancy
  Pr  Pr0  1  0.526541  0.716594  0.673177  1
  Pr  Pr1  1  0.190055  0.716594  0.043419  1
  Pr  Pr2  1  0.673177  0.716594  0.190055  1
  Pr  Pr3  1  0.043419  0.716594  0.526541  1
  Pr  Pr4  1  0.456581  0.283406  0.309945  1
  Pr  Pr5  1  0.826823  0.283406  0.973459  1
  Pr  Pr6  1  0.309945  0.283406  0.826823  1
  Pr  Pr7  1  0.973459  0.283406  0.456581  1
  Sm  Sm8  1  0.977598  0.955196  0.977598  1
  Sm  Sm9  1  0.522402  0.044804  0.522402  1
  Al  Al10  1  0.750000  0.500000  0.750000  1
  Si  Si11  1  0.884494  0.000000  0.615506  1
  Si  Si12  1  0.115506  0.000000  0.384494  1
  Si  Si13  1  0.615506  0.000000  0.115506  1
  Si  Si14  1  0.384494  0.000000  0.884494  1
  Ge  Ge15  1  0.250000  0.500000  0.250000  1
