# generated using pymatgen
data_Sc8Ta2V9Si16W
_symmetry_space_group_name_H-M   'P 1'
_cell_length_a   6.68231454
_cell_length_b   6.68231422
_cell_length_c   12.37532017
_cell_angle_alpha   89.93102997
_cell_angle_beta   90.06896813
_cell_angle_gamma   89.97698588
_symmetry_Int_Tables_number   1
_chemical_formula_structural   Sc8Ta2V9Si16W
_chemical_formula_sum   'Sc8 Ta2 V9 Si16 W1'
_cell_volume   552.59835386
_cell_formula_units_Z   1
loop_
 _symmetry_equiv_pos_site_id
 _symmetry_equiv_pos_as_xyz
  1  'x, y, z'
loop_
 _atom_site_type_symbol
 _atom_site_label
 _atom_site_symmetry_multiplicity
 _atom_site_fract_x
 _atom_site_fract_y
 _atom_site_fract_z
 _atom_site_occupancy
  Sc  Sc0  1  0.002930  0.662346  0.029705  1
  Sc  Sc1  1  0.836770  0.501567  0.280013  1
  Sc  Sc2  1  0.162744  0.497667  0.779445  1
  Sc  Sc3  1  0.501567  0.836770  0.719987  1
  Sc  Sc4  1  0.497667  0.162744  0.220555  1
  Sc  Sc5  1  0.997485  0.337398  0.529811  1
  Sc  Sc6  1  0.662346  0.002930  0.970295  1
  Sc  Sc7  1  0.337398  0.997485  0.470189  1
  Ta  Ta8  1  0.168371  0.832148  0.250266  1
  Ta  Ta9  1  0.832148  0.168371  0.749734  1
  V  V10  1  0.667377  0.667377  0.500000  1
  V  V11  1  0.006450  0.156449  0.127248  1
  V  V12  1  0.342927  0.507375  0.377492  1
  V  V13  1  0.658264  0.492884  0.876700  1
  V  V14  1  0.507375  0.342927  0.622508  1
  V  V15  1  0.492884  0.658264  0.123300  1
  V  V16  1  0.992522  0.842785  0.626295  1
  V  V17  1  0.156449  0.006450  0.872752  1
  V  V18  1  0.842785  0.992522  0.373705  1
  Si  Si19  1  0.295619  0.960860  0.062106  1
  Si  Si20  1  0.544963  0.793255  0.316438  1
  Si  Si21  1  0.456690  0.205564  0.813800  1
  Si  Si22  1  0.793255  0.544963  0.683562  1
  Si  Si23  1  0.205564  0.456690  0.186200  1
  Si  Si24  1  0.703693  0.036653  0.561222  1
  Si  Si25  1  0.960860  0.295619  0.937894  1
  Si  Si26  1  0.036653  0.703693  0.438778  1
  Si  Si27  1  0.706062  0.371701  0.071743  1
  Si  Si28  1  0.128559  0.208303  0.322074  1
  Si  Si29  1  0.871113  0.791235  0.821143  1
  Si  Si30  1  0.208303  0.128559  0.677926  1
  Si  Si31  1  0.791235  0.871113  0.178857  1
  Si  Si32  1  0.296680  0.629396  0.570174  1
  Si  Si33  1  0.371701  0.706062  0.928257  1
  Si  Si34  1  0.629396  0.296680  0.429826  1
  W  W35  1  0.333193  0.333193  0.000000  1
