# generated using pymatgen
data_Dy2Ho10Ni5Sn
_symmetry_space_group_name_H-M   'P 1'
_cell_length_a   8.29168705
_cell_length_b   8.29168750
_cell_length_c   8.29168759
_cell_angle_alpha   107.19087863
_cell_angle_beta   109.91556762
_cell_angle_gamma   111.33431052
_symmetry_Int_Tables_number   1
_chemical_formula_structural   Dy2Ho10Ni5Sn
_chemical_formula_sum   'Dy2 Ho10 Ni5 Sn1'
_cell_volume   438.25176328
_cell_formula_units_Z   1
loop_
 _symmetry_equiv_pos_site_id
 _symmetry_equiv_pos_as_xyz
  1  'x, y, z'
loop_
 _atom_site_type_symbol
 _atom_site_label
 _atom_site_symmetry_multiplicity
 _atom_site_fract_x
 _atom_site_fract_y
 _atom_site_fract_z
 _atom_site_occupancy
  Dy  Dy0  1  0.477439  0.295367  0.182072  1
  Dy  Dy1  1  0.113297  0.295367  0.817928  1
  Ho  Ho2  1  0.887230  0.705459  0.181772  1
  Ho  Ho3  1  0.523686  0.705459  0.818228  1
  Ho  Ho4  1  0.306186  0.627898  0.321713  1
  Ho  Ho5  1  0.306186  0.984475  0.678287  1
  Ho  Ho6  1  0.693468  0.371679  0.678210  1
  Ho  Ho7  1  0.693468  0.015256  0.321790  1
  Ho  Ho8  1  0.190771  0.211126  0.402021  1
  Ho  Ho9  1  0.809105  0.788750  0.597979  1
  Ho  Ho10  1  0.190771  0.788750  0.979644  1
  Ho  Ho11  1  0.809105  0.211126  0.020356  1
  Ni  Ni12  1  0.501516  0.626120  0.124605  1
  Ni  Ni13  1  0.501516  0.376911  0.875395  1
  Ni  Ni14  1  0.362565  0.998875  0.363690  1
  Ni  Ni15  1  0.635186  0.998875  0.636310  1
  Ni  Ni16  1  0.999318  0.999318  0.000000  1
  Sn  Sn17  1  0.999187  0.499187  0.500000  1
