# generated using pymatgen
data_Yb6Er2Si12HgPd3
_symmetry_space_group_name_H-M   'P 1'
_cell_length_a   8.27612200
_cell_length_b   8.27612072
_cell_length_c   8.15485300
_cell_angle_alpha   90.00000000
_cell_angle_beta   90.00000000
_cell_angle_gamma   119.99999711
_symmetry_Int_Tables_number   1
_chemical_formula_structural   Yb6Er2Si12HgPd3
_chemical_formula_sum   'Yb6 Er2 Si12 Hg1 Pd3'
_cell_volume   483.72717085
_cell_formula_units_Z   1
loop_
 _symmetry_equiv_pos_site_id
 _symmetry_equiv_pos_as_xyz
  1  'x, y, z'
loop_
 _atom_site_type_symbol
 _atom_site_label
 _atom_site_symmetry_multiplicity
 _atom_site_fract_x
 _atom_site_fract_y
 _atom_site_fract_z
 _atom_site_occupancy
  Yb  Yb0  1  0.505369  0.010738  0.257532  1
  Yb  Yb1  1  0.500718  0.001436  0.742384  1
  Yb  Yb2  1  0.989262  0.494631  0.257532  1
  Yb  Yb3  1  0.998564  0.499282  0.742384  1
  Yb  Yb4  1  0.505369  0.494631  0.257532  1
  Yb  Yb5  1  0.500718  0.499282  0.742384  1
  Er  Er6  1  0.000000  0.000000  0.254595  1
  Er  Er7  1  0.000000  0.000000  0.745493  1
  Si  Si8  1  0.155384  0.310769  0.001078  1
  Si  Si9  1  0.833402  0.666805  0.997928  1
  Si  Si10  1  0.689231  0.844616  0.001078  1
  Si  Si11  1  0.837298  0.674598  0.501864  1
  Si  Si12  1  0.333195  0.166598  0.997928  1
  Si  Si13  1  0.163892  0.327784  0.498139  1
  Si  Si14  1  0.155384  0.844616  0.001078  1
  Si  Si15  1  0.325402  0.162702  0.501864  1
  Si  Si16  1  0.833402  0.166598  0.997928  1
  Si  Si17  1  0.672216  0.836108  0.498139  1
  Si  Si18  1  0.837298  0.162702  0.501864  1
  Si  Si19  1  0.163892  0.836108  0.498139  1
  Hg  Hg20  1  0.333333  0.666667  0.010031  1
  Pd  Pd21  1  0.666667  0.333333  0.993707  1
  Pd  Pd22  1  0.666667  0.333333  0.505777  1
  Pd  Pd23  1  0.333333  0.666667  0.493626  1
