# generated using pymatgen
data_Nd3Y5Cd2IrRu
_symmetry_space_group_name_H-M   'P 1'
_cell_length_a   9.77540302
_cell_length_b   9.77540375
_cell_length_c   9.80852300
_cell_angle_alpha   59.88785841
_cell_angle_beta   59.88785595
_cell_angle_gamma   59.81832332
_symmetry_Int_Tables_number   1
_chemical_formula_structural   Nd3Y5Cd2IrRu
_chemical_formula_sum   'Nd6 Y10 Cd4 Ir2 Ru2'
_cell_volume   660.72682794
_cell_formula_units_Z   2
loop_
 _symmetry_equiv_pos_site_id
 _symmetry_equiv_pos_as_xyz
  1  'x, y, z'
loop_
 _atom_site_type_symbol
 _atom_site_label
 _atom_site_symmetry_multiplicity
 _atom_site_fract_x
 _atom_site_fract_y
 _atom_site_fract_z
 _atom_site_occupancy
  Nd  Nd0  1  0.940308  0.557772  0.560552  1
  Nd  Nd1  1  0.557772  0.940308  0.941369  1
  Nd  Nd2  1  0.557772  0.940308  0.560552  1
  Nd  Nd3  1  0.940308  0.557772  0.941369  1
  Nd  Nd4  1  0.559925  0.559925  0.940075  1
  Nd  Nd5  1  0.941557  0.941557  0.558443  1
  Y  Y6  1  0.347092  0.347092  0.346843  1
  Y  Y7  1  0.347092  0.347092  0.958975  1
  Y  Y8  1  0.347041  0.959283  0.346839  1
  Y  Y9  1  0.959283  0.347041  0.346839  1
  Y  Y10  1  0.813284  0.187615  0.187769  1
  Y  Y11  1  0.187615  0.813284  0.811332  1
  Y  Y12  1  0.187615  0.813284  0.187769  1
  Y  Y13  1  0.813284  0.187615  0.811332  1
  Y  Y14  1  0.187252  0.187252  0.812748  1
  Y  Y15  1  0.811564  0.811564  0.188436  1
  Cd  Cd16  1  0.579424  0.579424  0.579653  1
  Cd  Cd17  1  0.579424  0.579424  0.261499  1
  Cd  Cd18  1  0.579366  0.260896  0.579869  1
  Cd  Cd19  1  0.260896  0.579366  0.579869  1
  Ir  Ir20  1  0.142153  0.578003  0.139922  1
  Ir  Ir21  1  0.578003  0.142153  0.139922  1
  Ru  Ru22  1  0.140987  0.140987  0.138698  1
  Ru  Ru23  1  0.140987  0.140987  0.579329  1
