# generated using pymatgen
data_YbSc2O4
_symmetry_space_group_name_H-M   'P 1'
_cell_length_a   3.14182100
_cell_length_b   9.43717700
_cell_length_c   11.11578400
_cell_angle_alpha   90.00000000
_cell_angle_beta   90.00000000
_cell_angle_gamma   90.00000000
_symmetry_Int_Tables_number   1
_chemical_formula_structural   YbSc2O4
_chemical_formula_sum   'Yb4 Sc8 O16'
_cell_volume   329.58211611
_cell_formula_units_Z   4
loop_
 _symmetry_equiv_pos_site_id
 _symmetry_equiv_pos_as_xyz
  1  'x, y, z'
loop_
 _atom_site_type_symbol
 _atom_site_label
 _atom_site_symmetry_multiplicity
 _atom_site_fract_x
 _atom_site_fract_y
 _atom_site_fract_z
 _atom_site_occupancy
  Yb  Yb0  1  0.750000  0.255740  0.846800  1
  Yb  Yb1  1  0.250000  0.744260  0.153200  1
  Yb  Yb2  1  0.750000  0.755740  0.653200  1
  Yb  Yb3  1  0.250000  0.244260  0.346800  1
  Sc  Sc4  1  0.250000  0.580528  0.892900  1
  Sc  Sc5  1  0.750000  0.419472  0.107100  1
  Sc  Sc6  1  0.250000  0.080528  0.607100  1
  Sc  Sc7  1  0.750000  0.919472  0.392900  1
  Sc  Sc8  1  0.750000  0.929740  0.887633  1
  Sc  Sc9  1  0.250000  0.070260  0.112367  1
  Sc  Sc10  1  0.750000  0.429740  0.612367  1
  Sc  Sc11  1  0.250000  0.570260  0.387633  1
  O  O12  1  0.250000  0.582290  0.576385  1
  O  O13  1  0.750000  0.417710  0.423615  1
  O  O14  1  0.250000  0.082290  0.923615  1
  O  O15  1  0.750000  0.917710  0.076385  1
  O  O16  1  0.250000  0.477408  0.215867  1
  O  O17  1  0.750000  0.522592  0.784133  1
  O  O18  1  0.250000  0.977408  0.284133  1
  O  O19  1  0.750000  0.022592  0.715867  1
  O  O20  1  0.250000  0.874487  0.526086  1
  O  O21  1  0.750000  0.125513  0.473914  1
  O  O22  1  0.250000  0.374487  0.973914  1
  O  O23  1  0.750000  0.625513  0.026086  1
  O  O24  1  0.750000  0.707592  0.325046  1
  O  O25  1  0.250000  0.292408  0.674954  1
  O  O26  1  0.750000  0.207592  0.174954  1
  O  O27  1  0.250000  0.792408  0.825046  1
