# generated using pymatgen
data_DyHo7Sc12Si15Hg
_symmetry_space_group_name_H-M   'P 1'
_cell_length_a   7.12640303
_cell_length_b   7.38811079
_cell_length_c   14.07697314
_cell_angle_alpha   89.95836118
_cell_angle_beta   89.56421196
_cell_angle_gamma   90.13959552
_symmetry_Int_Tables_number   1
_chemical_formula_structural   DyHo7Sc12Si15Hg
_chemical_formula_sum   'Dy1 Ho7 Sc12 Si15 Hg1'
_cell_volume   741.13801520
_cell_formula_units_Z   1
loop_
 _symmetry_equiv_pos_site_id
 _symmetry_equiv_pos_as_xyz
  1  'x, y, z'
loop_
 _atom_site_type_symbol
 _atom_site_label
 _atom_site_symmetry_multiplicity
 _atom_site_fract_x
 _atom_site_fract_y
 _atom_site_fract_z
 _atom_site_occupancy
  Dy  Dy0  1  0.012040  0.175515  0.097107  1
  Ho  Ho1  1  0.987459  0.825253  0.904349  1
  Ho  Ho2  1  0.487389  0.676949  0.903892  1
  Ho  Ho3  1  0.988924  0.831328  0.598270  1
  Ho  Ho4  1  0.511892  0.323549  0.096385  1
  Ho  Ho5  1  0.007566  0.171111  0.398232  1
  Ho  Ho6  1  0.511553  0.322015  0.399101  1
  Ho  Ho7  1  0.496390  0.681817  0.600308  1
  Sc  Sc8  1  0.162695  0.501670  0.754257  1
  Sc  Sc9  1  0.836805  0.498228  0.250051  1
  Sc  Sc10  1  0.337312  0.001114  0.248817  1
  Sc  Sc11  1  0.665107  0.996531  0.751680  1
  Sc  Sc12  1  0.342384  0.168235  0.628882  1
  Sc  Sc13  1  0.664103  0.824423  0.373011  1
  Sc  Sc14  1  0.166428  0.677881  0.370731  1
  Sc  Sc15  1  0.669272  0.823599  0.124181  1
  Sc  Sc16  1  0.825700  0.325121  0.626244  1
  Sc  Sc17  1  0.329082  0.175172  0.876213  1
  Sc  Sc18  1  0.830243  0.322770  0.876245  1
  Sc  Sc19  1  0.168800  0.676822  0.124875  1
  Si  Si20  1  0.035613  0.120254  0.751459  1
  Si  Si21  1  0.964096  0.883913  0.247926  1
  Si  Si22  1  0.466038  0.615036  0.247871  1
  Si  Si23  1  0.533772  0.386228  0.752216  1
  Si  Si24  1  0.284864  0.871759  0.751890  1
  Si  Si25  1  0.712374  0.127960  0.247820  1
  Si  Si26  1  0.213400  0.371059  0.248167  1
  Si  Si27  1  0.788880  0.628667  0.752724  1
  Si  Si28  1  0.832345  0.538306  0.459072  1
  Si  Si29  1  0.338312  0.962404  0.459987  1
  Si  Si30  1  0.843185  0.535448  0.038859  1
  Si  Si31  1  0.660619  0.037324  0.537544  1
  Si  Si32  1  0.156624  0.464445  0.962068  1
  Si  Si33  1  0.656222  0.034747  0.960552  1
  Si  Si34  1  0.342947  0.964891  0.039785  1
  Hg  Hg35  1  0.169568  0.458452  0.539233  1
