# generated using pymatgen
data_Zr6CoSi12Rh5
_symmetry_space_group_name_H-M   'P 1'
_cell_length_a   9.97051545
_cell_length_b   9.96298153
_cell_length_c   9.95995386
_cell_angle_alpha   148.72695792
_cell_angle_beta   133.65285607
_cell_angle_gamma   56.99716284
_symmetry_Int_Tables_number   1
_chemical_formula_structural   Zr6CoSi12Rh5
_chemical_formula_sum   'Zr6 Co1 Si12 Rh5'
_cell_volume   368.89776150
_cell_formula_units_Z   1
loop_
 _symmetry_equiv_pos_site_id
 _symmetry_equiv_pos_as_xyz
  1  'x, y, z'
loop_
 _atom_site_type_symbol
 _atom_site_label
 _atom_site_symmetry_multiplicity
 _atom_site_fract_x
 _atom_site_fract_y
 _atom_site_fract_z
 _atom_site_occupancy
  Zr  Zr0  1  0.348994  0.095010  0.254815  1
  Zr  Zr1  1  0.651006  0.904990  0.745185  1
  Zr  Zr2  1  0.160246  0.904062  0.253397  1
  Zr  Zr3  1  0.839754  0.095938  0.746603  1
  Zr  Zr4  1  0.637693  0.640031  0.000203  1
  Zr  Zr5  1  0.362307  0.359969  0.999797  1
  Co  Co6  1  0.500000  0.500000  0.500000  1
  Si  Si7  1  0.000341  0.780399  0.780035  1
  Si  Si8  1  0.999659  0.219601  0.219965  1
  Si  Si9  1  0.499449  0.228243  0.728132  1
  Si  Si10  1  0.500551  0.771757  0.271868  1
  Si  Si11  1  0.208419  0.221050  0.022918  1
  Si  Si12  1  0.791581  0.778950  0.977082  1
  Si  Si13  1  0.296781  0.782361  0.494308  1
  Si  Si14  1  0.703219  0.217639  0.505692  1
  Si  Si15  1  0.712316  0.372253  0.365313  1
  Si  Si16  1  0.287684  0.627747  0.634687  1
  Si  Si17  1  0.988185  0.640561  0.355885  1
  Si  Si18  1  0.011815  0.359439  0.644115  1
  Rh  Rh19  1  0.500000  0.000000  0.000000  1
  Rh  Rh20  1  0.000000  0.000000  0.500000  1
  Rh  Rh21  1  0.000000  0.500000  0.000000  1
  Rh  Rh22  1  0.245222  0.501757  0.744065  1
  Rh  Rh23  1  0.754778  0.498243  0.255935  1
