# generated using pymatgen
data_Hf6Ta3Ti(GaSn3)2
_symmetry_space_group_name_H-M   'P 1'
_cell_length_a   8.53884500
_cell_length_b   8.53884465
_cell_length_c   5.71118300
_cell_angle_alpha   90.00000000
_cell_angle_beta   90.00000000
_cell_angle_gamma   120.00000522
_symmetry_Int_Tables_number   1
_chemical_formula_structural   Hf6Ta3Ti(GaSn3)2
_chemical_formula_sum   'Hf6 Ta3 Ti1 Ga2 Sn6'
_cell_volume   360.62425042
_cell_formula_units_Z   1
loop_
 _symmetry_equiv_pos_site_id
 _symmetry_equiv_pos_as_xyz
  1  'x, y, z'
loop_
 _atom_site_type_symbol
 _atom_site_label
 _atom_site_symmetry_multiplicity
 _atom_site_fract_x
 _atom_site_fract_y
 _atom_site_fract_z
 _atom_site_occupancy
  Hf  Hf0  1  0.730237  0.731987  0.748588  1
  Hf  Hf1  1  0.268013  0.998250  0.748588  1
  Hf  Hf2  1  0.001750  0.269763  0.748588  1
  Hf  Hf3  1  0.268013  0.269763  0.251412  1
  Hf  Hf4  1  0.730237  0.998250  0.251412  1
  Hf  Hf5  1  0.001750  0.731987  0.251412  1
  Ta  Ta6  1  0.333333  0.666667  0.000000  1
  Ta  Ta7  1  0.333333  0.666667  0.500000  1
  Ta  Ta8  1  0.666667  0.333333  0.500000  1
  Ti  Ti9  1  0.666667  0.333333  0.000000  1
  Ga  Ga10  1  0.000000  0.000000  0.000000  1
  Ga  Ga11  1  0.000000  0.000000  0.500000  1
  Sn  Sn12  1  0.392325  0.390102  0.751867  1
  Sn  Sn13  1  0.609898  0.002223  0.751867  1
  Sn  Sn14  1  0.997777  0.607675  0.751867  1
  Sn  Sn15  1  0.609898  0.607675  0.248133  1
  Sn  Sn16  1  0.392325  0.002223  0.248133  1
  Sn  Sn17  1  0.997777  0.390102  0.248133  1
