# generated using pymatgen
data_TmLu3Co8
_symmetry_space_group_name_H-M   'P 1'
_cell_length_a   4.96816200
_cell_length_b   4.96816243
_cell_length_c   8.30677000
_cell_angle_alpha   90.00000000
_cell_angle_beta   90.00000000
_cell_angle_gamma   119.99999713
_symmetry_Int_Tables_number   1
_chemical_formula_structural   TmLu3Co8
_chemical_formula_sum   'Tm1 Lu3 Co8'
_cell_volume   177.56377321
_cell_formula_units_Z   1
loop_
 _symmetry_equiv_pos_site_id
 _symmetry_equiv_pos_as_xyz
  1  'x, y, z'
loop_
 _atom_site_type_symbol
 _atom_site_label
 _atom_site_symmetry_multiplicity
 _atom_site_fract_x
 _atom_site_fract_y
 _atom_site_fract_z
 _atom_site_occupancy
  Tm  Tm0  1  0.333333  0.666667  0.065139  1
  Lu  Lu1  1  0.333333  0.666667  0.435624  1
  Lu  Lu2  1  0.666667  0.333333  0.564358  1
  Lu  Lu3  1  0.666667  0.333333  0.935214  1
  Co  Co4  1  0.000000  0.000000  0.499422  1
  Co  Co5  1  0.000000  0.000000  0.999772  1
  Co  Co6  1  0.832727  0.167273  0.250775  1
  Co  Co7  1  0.832727  0.665454  0.250775  1
  Co  Co8  1  0.334546  0.167273  0.250775  1
  Co  Co9  1  0.167015  0.832985  0.749382  1
  Co  Co10  1  0.167015  0.334030  0.749382  1
  Co  Co11  1  0.665970  0.832985  0.749382  1
