# generated using pymatgen
data_Dy8ErTm11Sn16
_symmetry_space_group_name_H-M   'P 1'
_cell_length_a   7.97840705
_cell_length_b   8.10992205
_cell_length_c   15.32555102
_cell_angle_alpha   89.99589848
_cell_angle_beta   89.99579457
_cell_angle_gamma   89.98814067
_symmetry_Int_Tables_number   1
_chemical_formula_structural   Dy8ErTm11Sn16
_chemical_formula_sum   'Dy8 Er1 Tm11 Sn16'
_cell_volume   991.62839963
_cell_formula_units_Z   1
loop_
 _symmetry_equiv_pos_site_id
 _symmetry_equiv_pos_as_xyz
  1  'x, y, z'
loop_
 _atom_site_type_symbol
 _atom_site_label
 _atom_site_symmetry_multiplicity
 _atom_site_fract_x
 _atom_site_fract_y
 _atom_site_fract_z
 _atom_site_occupancy
  Dy  Dy0  1  0.521483  0.320604  0.902798  1
  Dy  Dy1  1  0.021473  0.179453  0.597192  1
  Dy  Dy2  1  0.478505  0.679433  0.402798  1
  Dy  Dy3  1  0.978545  0.820591  0.097185  1
  Dy  Dy4  1  0.478548  0.679413  0.097263  1
  Dy  Dy5  1  0.978510  0.820560  0.402803  1
  Dy  Dy6  1  0.521482  0.320559  0.597187  1
  Dy  Dy7  1  0.021436  0.179463  0.902818  1
  Er  Er8  1  0.367538  0.836491  0.877427  1
  Tm  Tm9  1  0.867538  0.663469  0.622598  1
  Tm  Tm10  1  0.632493  0.163482  0.377388  1
  Tm  Tm11  1  0.132487  0.336515  0.122639  1
  Tm  Tm12  1  0.632477  0.163461  0.122591  1
  Tm  Tm13  1  0.132494  0.336528  0.377393  1
  Tm  Tm14  1  0.367511  0.836534  0.622590  1
  Tm  Tm15  1  0.867479  0.663488  0.877378  1
  Tm  Tm16  1  0.198134  0.503927  0.749949  1
  Tm  Tm17  1  0.698268  0.996005  0.749966  1
  Tm  Tm18  1  0.801797  0.495964  0.249995  1
  Tm  Tm19  1  0.301796  0.004039  0.250006  1
  Sn  Sn20  1  0.293711  0.036959  0.041870  1
  Sn  Sn21  1  0.793778  0.463221  0.458276  1
  Sn  Sn22  1  0.706214  0.963223  0.541707  1
  Sn  Sn23  1  0.206080  0.536514  0.958351  1
  Sn  Sn24  1  0.706515  0.963292  0.958334  1
  Sn  Sn25  1  0.206225  0.536766  0.541714  1
  Sn  Sn26  1  0.293771  0.036778  0.458285  1
  Sn  Sn27  1  0.793790  0.463224  0.041716  1
  Sn  Sn28  1  0.564747  0.620154  0.749920  1
  Sn  Sn29  1  0.064470  0.879731  0.749921  1
  Sn  Sn30  1  0.435381  0.379715  0.250006  1
  Sn  Sn31  1  0.935382  0.120274  0.250006  1
  Sn  Sn32  1  0.330374  0.147798  0.749939  1
  Sn  Sn33  1  0.830369  0.352353  0.749996  1
  Sn  Sn34  1  0.669586  0.852339  0.250001  1
  Sn  Sn35  1  0.169614  0.647680  0.249994  1
