# generated using pymatgen
data_Tm3CdSn3Ru2
_symmetry_space_group_name_H-M   'P 1'
_cell_length_a   7.88097400
_cell_length_b   7.88097477
_cell_length_c   3.64595800
_cell_angle_alpha   90.00000000
_cell_angle_beta   90.00000000
_cell_angle_gamma   120.00000517
_symmetry_Int_Tables_number   1
_chemical_formula_structural   Tm3CdSn3Ru2
_chemical_formula_sum   'Tm3 Cd1 Sn3 Ru2'
_cell_volume   196.11106686
_cell_formula_units_Z   1
loop_
 _symmetry_equiv_pos_site_id
 _symmetry_equiv_pos_as_xyz
  1  'x, y, z'
loop_
 _atom_site_type_symbol
 _atom_site_label
 _atom_site_symmetry_multiplicity
 _atom_site_fract_x
 _atom_site_fract_y
 _atom_site_fract_z
 _atom_site_occupancy
  Tm  Tm0  1  0.032587  0.410859  0.500000  1
  Tm  Tm1  1  0.589141  0.621727  0.500000  1
  Tm  Tm2  1  0.378273  0.967413  0.500000  1
  Cd  Cd3  1  0.666667  0.333333  0.000000  1
  Sn  Sn4  1  0.000637  0.735865  0.000000  1
  Sn  Sn5  1  0.264135  0.264773  0.000000  1
  Sn  Sn6  1  0.735227  0.999363  0.000000  1
  Ru  Ru7  1  0.333333  0.666667  0.000000  1
  Ru  Ru8  1  0.000000  0.000000  0.500000  1
