# generated using pymatgen
data_Na8Li4VFe3(Si2O5)12
_symmetry_space_group_name_H-M   'P 1'
_cell_length_a   11.30659400
_cell_length_b   11.30659437
_cell_length_c   10.21743900
_cell_angle_alpha   90.00000000
_cell_angle_beta   90.00000000
_cell_angle_gamma   101.77021440
_symmetry_Int_Tables_number   1
_chemical_formula_structural   Na8Li4VFe3(Si2O5)12
_chemical_formula_sum   'Na8 Li4 V1 Fe3 Si24 O60'
_cell_volume   1278.72344541
_cell_formula_units_Z   1
loop_
 _symmetry_equiv_pos_site_id
 _symmetry_equiv_pos_as_xyz
  1  'x, y, z'
loop_
 _atom_site_type_symbol
 _atom_site_label
 _atom_site_symmetry_multiplicity
 _atom_site_fract_x
 _atom_site_fract_y
 _atom_site_fract_z
 _atom_site_occupancy
  Na  Na0  1  0.083958  0.915238  0.251489  1
  Na  Na1  1  0.415683  0.584313  0.751546  1
  Na  Na2  1  0.915689  0.084316  0.748454  1
  Na  Na3  1  0.584763  0.416042  0.248511  1
  Na  Na4  1  0.525885  0.974114  0.250000  1
  Na  Na5  1  0.974116  0.525884  0.750000  1
  Na  Na6  1  0.474091  0.025909  0.750000  1
  Na  Na7  1  0.025864  0.474136  0.250001  1
  Li  Li8  1  0.748031  0.748029  0.999987  1
  Li  Li9  1  0.248112  0.248099  0.500229  1
  Li  Li10  1  0.251893  0.251887  0.999769  1
  Li  Li11  1  0.751974  0.751970  0.500012  1
  V  V12  1  0.335956  0.164057  0.249997  1
  Fe  Fe13  1  0.163638  0.336359  0.749999  1
  Fe  Fe14  1  0.663568  0.836430  0.750002  1
  Fe  Fe15  1  0.836424  0.663573  0.249999  1
  Si  Si16  1  0.756206  0.019244  0.012954  1
  Si  Si17  1  0.541178  0.685144  0.192872  1
  Si  Si18  1  0.814856  0.958821  0.307129  1
  Si  Si19  1  0.685087  0.541157  0.807146  1
  Si  Si20  1  0.040641  0.185134  0.307173  1
  Si  Si21  1  0.458916  0.314971  0.807245  1
  Si  Si22  1  0.185028  0.041083  0.692755  1
  Si  Si23  1  0.314866  0.459362  0.192828  1
  Si  Si24  1  0.019186  0.756053  0.986957  1
  Si  Si25  1  0.480757  0.743796  0.487047  1
  Si  Si26  1  0.958842  0.814912  0.692854  1
  Si  Si27  1  0.743947  0.480813  0.513042  1
  Si  Si28  1  0.980714  0.243875  0.012914  1
  Si  Si29  1  0.519669  0.256266  0.513496  1
  Si  Si30  1  0.801747  0.423288  0.041903  1
  Si  Si31  1  0.256125  0.519287  0.487087  1
  Si  Si32  1  0.198279  0.576823  0.957943  1
  Si  Si33  1  0.301649  0.922857  0.458337  1
  Si  Si34  1  0.577146  0.198352  0.041660  1
  Si  Si35  1  0.923177  0.301720  0.542058  1
  Si  Si36  1  0.076711  0.698253  0.458095  1
  Si  Si37  1  0.423248  0.801620  0.958008  1
  Si  Si38  1  0.698379  0.076750  0.541994  1
  Si  Si39  1  0.243733  0.980332  0.986506  1
  O  O40  1  0.909884  0.355684  0.994564  1
  O  O41  1  0.552817  0.447276  0.809664  1
  O  O42  1  0.052724  0.947183  0.690337  1
  O  O43  1  0.447228  0.552940  0.190352  1
  O  O44  1  0.675956  0.324285  0.070484  1
  O  O45  1  0.175715  0.824044  0.429517  1
  O  O46  1  0.324184  0.675773  0.929313  1
  O  O47  1  0.824227  0.175815  0.570687  1
  O  O48  1  0.883958  0.116078  0.984355  1
  O  O49  1  0.616294  0.383970  0.484540  1
  O  O50  1  0.116028  0.883707  0.015463  1
  O  O51  1  0.383922  0.616043  0.515643  1
  O  O52  1  0.663630  0.001555  0.673868  1
  O  O53  1  0.836394  0.498425  0.173831  1
  O  O54  1  0.001573  0.663605  0.326166  1
  O  O55  1  0.498443  0.836370  0.826135  1
  O  O56  1  0.336195  0.997206  0.326036  1
  O  O57  1  0.163603  0.501563  0.826142  1
  O  O58  1  0.998436  0.336397  0.673859  1
  O  O59  1  0.502800  0.163808  0.173962  1
  O  O60  1  0.279773  0.002277  0.587201  1
  O  O61  1  0.220093  0.497814  0.087139  1
  O  O62  1  0.002185  0.279907  0.412861  1
  O  O63  1  0.497722  0.220226  0.912799  1
  O  O64  1  0.251163  0.024669  0.832972  1
  O  O65  1  0.779790  0.502397  0.912826  1
  O  O66  1  0.997603  0.720209  0.587174  1
  O  O67  1  0.502384  0.779759  0.087131  1
  O  O68  1  0.663730  0.673714  0.837801  1
  O  O69  1  0.836281  0.826265  0.337782  1
  O  O70  1  0.673733  0.663718  0.162217  1
  O  O71  1  0.826283  0.836267  0.662203  1
  O  O72  1  0.336525  0.327020  0.161452  1
  O  O73  1  0.163712  0.173719  0.662246  1
  O  O74  1  0.326281  0.336287  0.837755  1
  O  O75  1  0.172985  0.163480  0.338546  1
  O  O76  1  0.644494  0.090078  0.994241  1
  O  O77  1  0.855708  0.409910  0.494612  1
  O  O78  1  0.090089  0.644293  0.005390  1
  O  O79  1  0.409922  0.855506  0.505760  1
  O  O80  1  0.355646  0.909780  0.005258  1
  O  O81  1  0.144314  0.590116  0.505435  1
  O  O82  1  0.947060  0.052772  0.309647  1
  O  O83  1  0.590220  0.144352  0.494742  1
  O  O84  1  0.407930  0.250281  0.416430  1
  O  O85  1  0.092377  0.250715  0.915480  1
  O  O86  1  0.249286  0.407627  0.584524  1
  O  O87  1  0.249722  0.092072  0.083570  1
  O  O88  1  0.592469  0.750623  0.584473  1
  O  O89  1  0.907568  0.749326  0.084501  1
  O  O90  1  0.750673  0.592427  0.415493  1
  O  O91  1  0.749377  0.907532  0.915529  1
  O  O92  1  0.524885  0.751094  0.333282  1
  O  O93  1  0.975077  0.748863  0.833198  1
  O  O94  1  0.751136  0.524924  0.666801  1
  O  O95  1  0.748906  0.975114  0.166719  1
  O  O96  1  0.475331  0.248837  0.667028  1
  O  O97  1  0.024782  0.251201  0.166713  1
  O  O98  1  0.248799  0.475218  0.333288  1
  O  O99  1  0.720241  0.997617  0.412869  1
