# generated using pymatgen
data_TlBr35
_symmetry_space_group_name_H-M   'P 1'
_cell_length_a   15.98197694
_cell_length_b   11.40028128
_cell_length_c   10.79188300
_cell_angle_alpha   88.81408278
_cell_angle_beta   66.02770512
_cell_angle_gamma   92.31545406
_symmetry_Int_Tables_number   1
_chemical_formula_structural   TlBr35
_chemical_formula_sum   'Tl1 Br35'
_cell_volume   1793.71352310
_cell_formula_units_Z   1
loop_
 _symmetry_equiv_pos_site_id
 _symmetry_equiv_pos_as_xyz
  1  'x, y, z'
loop_
 _atom_site_type_symbol
 _atom_site_label
 _atom_site_symmetry_multiplicity
 _atom_site_fract_x
 _atom_site_fract_y
 _atom_site_fract_z
 _atom_site_occupancy
  Tl  Tl0  1  0.206214  0.365335  0.467429  1
  Br  Br1  1  0.509626  0.275434  0.531050  1
  Br  Br2  1  0.756448  0.579087  0.572764  1
  Br  Br3  1  0.485610  0.694617  0.752113  1
  Br  Br4  1  0.050322  0.897377  0.856005  1
  Br  Br5  1  0.885508  0.159658  0.018040  1
  Br  Br6  1  0.643424  0.322258  0.296908  1
  Br  Br7  1  0.610224  0.334116  0.845798  1
  Br  Br8  1  0.350546  0.778040  0.718489  1
  Br  Br9  1  0.363052  0.586069  0.177963  1
  Br  Br10  1  0.645858  0.133493  0.804393  1
  Br  Br11  1  0.895752  0.545237  0.362228  1
  Br  Br12  1  0.053064  0.946403  0.625158  1
  Br  Br13  1  0.897153  0.113967  0.248009  1
  Br  Br14  1  0.868172  0.211138  0.803699  1
  Br  Br15  1  0.650623  0.049047  0.247726  1
  Br  Br16  1  0.024462  0.829605  0.101385  1
  Br  Br17  1  0.366877  0.998148  0.740787  1
  Br  Br18  1  0.892400  0.324940  0.314869  1
  Br  Br19  1  0.871849  0.921160  0.703631  1
  Br  Br20  1  0.962314  0.645055  0.757243  1
  Br  Br21  1  0.343754  0.035442  0.211525  1
  Br  Br22  1  0.353275  0.324646  0.230472  1
  Br  Br23  1  0.615755  0.608562  0.799532  1
  Br  Br24  1  0.102688  0.448399  0.364190  1
  Br  Br25  1  0.703068  0.902208  0.792806  1
  Br  Br26  1  0.907507  0.432026  0.783821  1
  Br  Br27  1  0.502294  0.041006  0.231997  1
  Br  Br28  1  0.156853  0.228912  0.676619  1
  Br  Br29  1  0.675619  0.772508  0.271830  1
  Br  Br30  1  0.849746  0.801669  0.187567  1
  Br  Br31  1  0.381560  0.221048  0.759134  1
  Br  Br32  1  0.297877  0.534200  0.561859  1
  Br  Br33  1  0.654802  0.545061  0.275733  1
  Br  Br34  1  0.132263  0.602169  0.669025  1
  Br  Br35  1  0.333441  0.791958  0.238203  1
