# generated using pymatgen
data_Ta16AlGa3Te16
_symmetry_space_group_name_H-M   'P 1'
_cell_length_a   4.85530600
_cell_length_b   11.14947410
_cell_length_c   19.32528118
_cell_angle_alpha   90.01567871
_cell_angle_beta   90.00000000
_cell_angle_gamma   90.00000000
_symmetry_Int_Tables_number   1
_chemical_formula_structural   Ta16AlGa3Te16
_chemical_formula_sum   'Ta16 Al1 Ga3 Te16'
_cell_volume   1046.15682937
_cell_formula_units_Z   1
loop_
 _symmetry_equiv_pos_site_id
 _symmetry_equiv_pos_as_xyz
  1  'x, y, z'
loop_
 _atom_site_type_symbol
 _atom_site_label
 _atom_site_symmetry_multiplicity
 _atom_site_fract_x
 _atom_site_fract_y
 _atom_site_fract_z
 _atom_site_occupancy
  Ta  Ta0  1  0.499754  0.565855  0.382386  1
  Ta  Ta1  1  0.499754  0.434145  0.617614  1
  Ta  Ta2  1  0.500004  0.065870  0.117800  1
  Ta  Ta3  1  0.500004  0.934130  0.882200  1
  Ta  Ta4  1  0.499699  0.705374  0.535506  1
  Ta  Ta5  1  0.499699  0.294626  0.464494  1
  Ta  Ta6  1  0.499969  0.205597  0.964405  1
  Ta  Ta7  1  0.499969  0.794403  0.035595  1
  Ta  Ta8  1  0.000337  0.690237  0.442040  1
  Ta  Ta9  1  0.000337  0.309763  0.557960  1
  Ta  Ta10  1  0.000028  0.190484  0.057995  1
  Ta  Ta11  1  0.000028  0.809516  0.942005  1
  Ta  Ta12  1  0.000205  0.401215  0.390772  1
  Ta  Ta13  1  0.000205  0.598785  0.609228  1
  Ta  Ta14  1  0.000001  0.901022  0.109362  1
  Ta  Ta15  1  0.000001  0.098978  0.890638  1
  Al  Al16  1  0.249741  0.500000  0.500000  1
  Ga  Ga17  1  0.750263  0.000000  0.000000  1
  Ga  Ga18  1  0.750277  0.500000  0.500000  1
  Ga  Ga19  1  0.249737  0.000000  0.000000  1
  Te  Te20  1  0.999998  0.842936  0.561761  1
  Te  Te21  1  0.999998  0.157064  0.438239  1
  Te  Te22  1  0.000000  0.342678  0.938281  1
  Te  Te23  1  0.000000  0.657322  0.061719  1
  Te  Te24  1  0.500040  0.334343  0.317705  1
  Te  Te25  1  0.500040  0.665657  0.682295  1
  Te  Te26  1  0.499994  0.834441  0.182168  1
  Te  Te27  1  0.499994  0.165559  0.817832  1
  Te  Te28  1  0.499971  0.820756  0.402831  1
  Te  Te29  1  0.499971  0.179244  0.597169  1
  Te  Te30  1  0.499997  0.320545  0.097113  1
  Te  Te31  1  0.499997  0.679455  0.902887  1
  Te  Te32  1  0.999993  0.606684  0.301692  1
  Te  Te33  1  0.999993  0.393316  0.698308  1
  Te  Te34  1  0.000002  0.106637  0.198161  1
  Te  Te35  1  0.000002  0.893363  0.801839  1
