# generated using pymatgen
data_Ba2UPa3S10
_symmetry_space_group_name_H-M   'P 1'
_cell_length_a   7.49312700
_cell_length_b   8.43545581
_cell_length_c   11.78692500
_cell_angle_alpha   89.61160221
_cell_angle_beta   90.00000000
_cell_angle_gamma   90.00000000
_symmetry_Int_Tables_number   1
_chemical_formula_structural   Ba2UPa3S10
_chemical_formula_sum   'Ba4 U2 Pa6 S20'
_cell_volume   745.01015059
_cell_formula_units_Z   2
loop_
 _symmetry_equiv_pos_site_id
 _symmetry_equiv_pos_as_xyz
  1  'x, y, z'
loop_
 _atom_site_type_symbol
 _atom_site_label
 _atom_site_symmetry_multiplicity
 _atom_site_fract_x
 _atom_site_fract_y
 _atom_site_fract_z
 _atom_site_occupancy
  Ba  Ba0  1  0.055975  0.491121  0.331967  1
  Ba  Ba1  1  0.555975  0.508879  0.168033  1
  Ba  Ba2  1  0.945868  0.509167  0.669087  1
  Ba  Ba3  1  0.445868  0.490833  0.830913  1
  U  U4  1  0.929491  0.243269  0.991719  1
  U  U5  1  0.429491  0.756731  0.508281  1
  Pa  Pa6  1  0.025396  0.998532  0.318818  1
  Pa  Pa7  1  0.525396  0.001468  0.181182  1
  Pa  Pa8  1  0.975664  0.001129  0.682597  1
  Pa  Pa9  1  0.475664  0.998871  0.817403  1
  Pa  Pa10  1  0.068707  0.756825  0.007297  1
  Pa  Pa11  1  0.568707  0.243175  0.492703  1
  S  S12  1  0.663973  0.957648  0.400988  1
  S  S13  1  0.163973  0.042352  0.099012  1
  S  S14  1  0.336105  0.046372  0.598121  1
  S  S15  1  0.836105  0.953628  0.901879  1
  S  S16  1  0.450414  0.793599  0.001720  1
  S  S17  1  0.950414  0.206401  0.498280  1
  S  S18  1  0.546523  0.206465  0.997892  1
  S  S19  1  0.046523  0.793535  0.502108  1
  S  S20  1  0.839284  0.783916  0.187435  1
  S  S21  1  0.339284  0.216084  0.312565  1
  S  S22  1  0.161421  0.214426  0.810891  1
  S  S23  1  0.661421  0.785574  0.689109  1
  S  S24  1  0.311196  0.776724  0.283769  1
  S  S25  1  0.811196  0.223276  0.216231  1
  S  S26  1  0.689167  0.224205  0.715644  1
  S  S27  1  0.189167  0.775795  0.784356  1
  S  S28  1  0.177222  0.465867  0.071766  1
  S  S29  1  0.677222  0.534133  0.428234  1
  S  S30  1  0.823595  0.541023  0.928150  1
  S  S31  1  0.323595  0.458977  0.571850  1
