# generated using pymatgen
data_Sc10Ga5Te
_symmetry_space_group_name_H-M   'P 1'
_cell_length_a   8.13053300
_cell_length_b   8.12087231
_cell_length_c   6.00734000
_cell_angle_alpha   90.00000000
_cell_angle_beta   90.00000000
_cell_angle_gamma   120.03935578
_symmetry_Int_Tables_number   1
_chemical_formula_structural   Sc10Ga5Te
_chemical_formula_sum   'Sc10 Ga5 Te1'
_cell_volume   343.36986377
_cell_formula_units_Z   1
loop_
 _symmetry_equiv_pos_site_id
 _symmetry_equiv_pos_as_xyz
  1  'x, y, z'
loop_
 _atom_site_type_symbol
 _atom_site_label
 _atom_site_symmetry_multiplicity
 _atom_site_fract_x
 _atom_site_fract_y
 _atom_site_fract_z
 _atom_site_occupancy
  Sc  Sc0  1  0.323642  0.655735  0.992973  1
  Sc  Sc1  1  0.667908  0.344265  0.507027  1
  Sc  Sc2  1  0.667908  0.344265  0.992973  1
  Sc  Sc3  1  0.323642  0.655735  0.507027  1
  Sc  Sc4  1  0.227760  0.000000  0.250000  1
  Sc  Sc5  1  0.239811  0.239535  0.750000  1
  Sc  Sc6  1  0.000276  0.760465  0.750000  1
  Sc  Sc7  1  0.015942  0.250641  0.250000  1
  Sc  Sc8  1  0.765301  0.749359  0.250000  1
  Sc  Sc9  1  0.763474  0.000000  0.750000  1
  Ga  Ga10  1  0.600600  0.604762  0.750000  1
  Ga  Ga11  1  0.995838  0.395238  0.750000  1
  Ga  Ga12  1  0.002306  0.599970  0.250000  1
  Ga  Ga13  1  0.402336  0.400030  0.250000  1
  Ga  Ga14  1  0.395981  0.000000  0.750000  1
  Te  Te15  1  0.607274  0.000000  0.250000  1
