# generated using pymatgen
data_Cd13HgAu4
_symmetry_space_group_name_H-M   'P 1'
_cell_length_a   16.68172390
_cell_length_b   16.68172365
_cell_length_c   5.89009684
_cell_angle_alpha   96.57827039
_cell_angle_beta   96.57827077
_cell_angle_gamma   13.71723220
_symmetry_Int_Tables_number   1
_chemical_formula_structural   Cd13HgAu4
_chemical_formula_sum   'Cd13 Hg1 Au4'
_cell_volume   386.08319407
_cell_formula_units_Z   1
loop_
 _symmetry_equiv_pos_site_id
 _symmetry_equiv_pos_as_xyz
  1  'x, y, z'
loop_
 _atom_site_type_symbol
 _atom_site_label
 _atom_site_symmetry_multiplicity
 _atom_site_fract_x
 _atom_site_fract_y
 _atom_site_fract_z
 _atom_site_occupancy
  Cd  Cd0  1  0.113262  0.113262  0.083166  1
  Cd  Cd1  1  0.216120  0.216120  0.105317  1
  Cd  Cd2  1  0.341322  0.341322  0.184689  1
  Cd  Cd3  1  0.448963  0.448963  0.212761  1
  Cd  Cd4  1  0.557112  0.557112  0.286115  1
  Cd  Cd5  1  0.776678  0.776678  0.387473  1
  Cd  Cd6  1  0.001624  0.001624  0.502892  1
  Cd  Cd7  1  0.213885  0.213885  0.603688  1
  Cd  Cd8  1  0.446969  0.446969  0.716232  1
  Cd  Cd9  1  0.554997  0.554997  0.792543  1
  Cd  Cd10  1  0.657673  0.657673  0.808469  1
  Cd  Cd11  1  0.774984  0.774984  0.891980  1
  Cd  Cd12  1  0.892871  0.892871  0.928395  1
  Hg  Hg13  1  0.333116  0.333116  0.672048  1
  Au  Au14  1  0.002291  0.002291  0.004169  1
  Au  Au15  1  0.666697  0.666697  0.320868  1
  Au  Au16  1  0.896607  0.896607  0.428497  1
  Au  Au17  1  0.104830  0.104830  0.570699  1
