# generated using pymatgen
data_Tb4Pr16Ir5Pt7
_symmetry_space_group_name_H-M   'P 1'
_cell_length_a   11.43585971
_cell_length_b   11.43585971
_cell_length_c   6.54544691
_cell_angle_alpha   90.06206254
_cell_angle_beta   90.06206254
_cell_angle_gamma   89.99329952
_symmetry_Int_Tables_number   1
_chemical_formula_structural   Tb4Pr16Ir5Pt7
_chemical_formula_sum   'Tb4 Pr16 Ir5 Pt7'
_cell_volume   856.00525300
_cell_formula_units_Z   1
loop_
 _symmetry_equiv_pos_site_id
 _symmetry_equiv_pos_as_xyz
  1  'x, y, z'
loop_
 _atom_site_type_symbol
 _atom_site_label
 _atom_site_symmetry_multiplicity
 _atom_site_fract_x
 _atom_site_fract_y
 _atom_site_fract_z
 _atom_site_occupancy
  Tb  Tb0  1  0.999864  0.999603  0.500400  1
  Tb  Tb1  1  0.000397  0.000136  0.999600  1
  Tb  Tb2  1  0.497994  0.501470  0.999510  1
  Tb  Tb3  1  0.498530  0.502006  0.500490  1
  Pr  Pr4  1  0.293007  0.087958  0.376494  1
  Pr  Pr5  1  0.293657  0.907909  0.877406  1
  Pr  Pr6  1  0.707004  0.087976  0.876576  1
  Pr  Pr7  1  0.706610  0.911159  0.376153  1
  Pr  Pr8  1  0.585269  0.791345  0.875953  1
  Pr  Pr9  1  0.588516  0.208020  0.376879  1
  Pr  Pr10  1  0.409698  0.790175  0.382216  1
  Pr  Pr11  1  0.411171  0.206415  0.876578  1
  Pr  Pr12  1  0.208655  0.414731  0.624047  1
  Pr  Pr13  1  0.209825  0.590302  0.117784  1
  Pr  Pr14  1  0.791980  0.411484  0.123121  1
  Pr  Pr15  1  0.793585  0.588829  0.623422  1
  Pr  Pr16  1  0.912042  0.706993  0.123506  1
  Pr  Pr17  1  0.912024  0.292996  0.623424  1
  Pr  Pr18  1  0.092091  0.706343  0.622594  1
  Pr  Pr19  1  0.088841  0.293390  0.123847  1
  Ir  Ir20  1  0.352988  0.647012  0.750000  1
  Ir  Ir21  1  0.500313  0.000205  0.118285  1
  Ir  Ir22  1  0.500145  0.001156  0.616679  1
  Ir  Ir23  1  0.998844  0.499855  0.883321  1
  Ir  Ir24  1  0.999795  0.499687  0.381715  1
  Pt  Pt25  1  0.852479  0.147521  0.250000  1
  Pt  Pt26  1  0.852153  0.852475  0.750061  1
  Pt  Pt27  1  0.147525  0.147847  0.749939  1
  Pt  Pt28  1  0.147095  0.852905  0.250000  1
  Pt  Pt29  1  0.647313  0.352687  0.750000  1
  Pt  Pt30  1  0.648847  0.648260  0.250137  1
  Pt  Pt31  1  0.351740  0.351153  0.249863  1
