# generated using pymatgen
data_Er2Pa(Ga2Co3)3
_symmetry_space_group_name_H-M   'P 1'
_cell_length_a   4.16707100
_cell_length_b   8.59200001
_cell_length_c   8.59200102
_cell_angle_alpha   60.00494440
_cell_angle_beta   90.00000000
_cell_angle_gamma   90.00000000
_symmetry_Int_Tables_number   1
_chemical_formula_structural   Er2Pa(Ga2Co3)3
_chemical_formula_sum   'Er2 Pa1 Ga6 Co9'
_cell_volume   266.42302560
_cell_formula_units_Z   1
loop_
 _symmetry_equiv_pos_site_id
 _symmetry_equiv_pos_as_xyz
  1  'x, y, z'
loop_
 _atom_site_type_symbol
 _atom_site_label
 _atom_site_symmetry_multiplicity
 _atom_site_fract_x
 _atom_site_fract_y
 _atom_site_fract_z
 _atom_site_occupancy
  Er  Er0  1  0.500000  0.333334  0.333430  1
  Er  Er1  1  0.500000  0.666570  0.666666  1
  Pa  Pa2  1  0.000000  0.999971  0.000029  1
  Ga  Ga3  1  0.000000  0.494627  0.505373  1
  Ga  Ga4  1  0.000000  0.505426  0.000003  1
  Ga  Ga5  1  0.000000  0.999997  0.494574  1
  Ga  Ga6  1  0.500000  0.722124  0.277876  1
  Ga  Ga7  1  0.500000  0.277965  0.999999  1
  Ga  Ga8  1  0.500000  0.000001  0.722035  1
  Co  Co9  1  0.000000  0.174030  0.174040  1
  Co  Co10  1  0.000000  0.174062  0.651879  1
  Co  Co11  1  0.000000  0.651829  0.174120  1
  Co  Co12  1  0.000000  0.825960  0.825970  1
  Co  Co13  1  0.000000  0.348121  0.825938  1
  Co  Co14  1  0.000000  0.825880  0.348171  1
  Co  Co15  1  0.500000  0.300408  0.699592  1
  Co  Co16  1  0.500000  0.699560  0.999963  1
  Co  Co17  1  0.500000  0.000037  0.300440  1
