# generated using pymatgen
data_PrDy7(Sc3Sn4)4
_symmetry_space_group_name_H-M   'P 1'
_cell_length_a   7.70760616
_cell_length_b   7.97382560
_cell_length_c   14.86697500
_cell_angle_alpha   90.02792278
_cell_angle_beta   89.96854072
_cell_angle_gamma   90.03695589
_symmetry_Int_Tables_number   1
_chemical_formula_structural   PrDy7(Sc3Sn4)4
_chemical_formula_sum   'Pr1 Dy7 Sc12 Sn16'
_cell_volume   913.71057650
_cell_formula_units_Z   1
loop_
 _symmetry_equiv_pos_site_id
 _symmetry_equiv_pos_as_xyz
  1  'x, y, z'
loop_
 _atom_site_type_symbol
 _atom_site_label
 _atom_site_symmetry_multiplicity
 _atom_site_fract_x
 _atom_site_fract_y
 _atom_site_fract_z
 _atom_site_occupancy
  Pr  Pr0  1  0.996088  0.175348  0.093488  1
  Dy  Dy1  1  0.004497  0.822751  0.904920  1
  Dy  Dy2  1  0.505718  0.676680  0.904829  1
  Dy  Dy3  1  0.005034  0.823112  0.594357  1
  Dy  Dy4  1  0.495020  0.323869  0.094294  1
  Dy  Dy5  1  0.994559  0.176842  0.405326  1
  Dy  Dy6  1  0.495104  0.323405  0.406830  1
  Dy  Dy7  1  0.504833  0.676976  0.594325  1
  Sc  Sc8  1  0.164820  0.496435  0.749776  1
  Sc  Sc9  1  0.834985  0.503824  0.250459  1
  Sc  Sc10  1  0.335275  0.995733  0.250448  1
  Sc  Sc11  1  0.664574  0.003603  0.749769  1
  Sc  Sc12  1  0.336201  0.161501  0.627455  1
  Sc  Sc13  1  0.663650  0.838327  0.373023  1
  Sc  Sc14  1  0.163976  0.661880  0.373371  1
  Sc  Sc15  1  0.663635  0.837712  0.127809  1
  Sc  Sc16  1  0.836213  0.338177  0.627414  1
  Sc  Sc17  1  0.336048  0.161839  0.872055  1
  Sc  Sc18  1  0.835303  0.339200  0.872310  1
  Sc  Sc19  1  0.164134  0.661543  0.127354  1
  Sn  Sn20  1  0.027169  0.124607  0.749947  1
  Sn  Sn21  1  0.972371  0.873283  0.250789  1
  Sn  Sn22  1  0.472583  0.624603  0.250269  1
  Sn  Sn23  1  0.527301  0.375583  0.749610  1
  Sn  Sn24  1  0.306984  0.850095  0.749711  1
  Sn  Sn25  1  0.690111  0.149689  0.251513  1
  Sn  Sn26  1  0.195229  0.352532  0.252083  1
  Sn  Sn27  1  0.807206  0.649941  0.749740  1
  Sn  Sn28  1  0.180521  0.457287  0.542649  1
  Sn  Sn29  1  0.819661  0.542299  0.457676  1
  Sn  Sn30  1  0.319139  0.958077  0.457660  1
  Sn  Sn31  1  0.818345  0.545109  0.041770  1
  Sn  Sn32  1  0.680549  0.042156  0.542589  1
  Sn  Sn33  1  0.181724  0.459806  0.956590  1
  Sn  Sn34  1  0.676717  0.041115  0.956152  1
  Sn  Sn35  1  0.324719  0.955062  0.041638  1
