# generated using pymatgen
data_TbDy3Co16(MoP3)4
_symmetry_space_group_name_H-M   'P 1'
_cell_length_a   3.71161700
_cell_length_b   10.43436802
_cell_length_c   11.88510002
_cell_angle_alpha   90.00615067
_cell_angle_beta   90.00000000
_cell_angle_gamma   90.00000000
_symmetry_Int_Tables_number   1
_chemical_formula_structural   TbDy3Co16(MoP3)4
_chemical_formula_sum   'Tb1 Dy3 Co16 Mo4 P12'
_cell_volume   460.29063992
_cell_formula_units_Z   1
loop_
 _symmetry_equiv_pos_site_id
 _symmetry_equiv_pos_as_xyz
  1  'x, y, z'
loop_
 _atom_site_type_symbol
 _atom_site_label
 _atom_site_symmetry_multiplicity
 _atom_site_fract_x
 _atom_site_fract_y
 _atom_site_fract_z
 _atom_site_occupancy
  Tb  Tb0  1  0.250000  0.582951  0.704247  1
  Dy  Dy1  1  0.250000  0.917065  0.204218  1
  Dy  Dy2  1  0.750000  0.417026  0.295774  1
  Dy  Dy3  1  0.750000  0.082945  0.795810  1
  Co  Co4  1  0.250000  0.406021  0.489168  1
  Co  Co5  1  0.250000  0.093944  0.989246  1
  Co  Co6  1  0.750000  0.593915  0.510527  1
  Co  Co7  1  0.750000  0.906113  0.010782  1
  Co  Co8  1  0.250000  0.221749  0.177698  1
  Co  Co9  1  0.250000  0.278147  0.677745  1
  Co  Co10  1  0.750000  0.778401  0.822337  1
  Co  Co11  1  0.750000  0.721771  0.322234  1
  Co  Co12  1  0.250000  0.887149  0.700522  1
  Co  Co13  1  0.250000  0.612972  0.200567  1
  Co  Co14  1  0.750000  0.112985  0.299416  1
  Co  Co15  1  0.750000  0.386830  0.799631  1
  Co  Co16  1  0.250000  0.465600  0.933019  1
  Co  Co17  1  0.250000  0.034288  0.432945  1
  Co  Co18  1  0.750000  0.534236  0.067084  1
  Co  Co19  1  0.750000  0.965763  0.567092  1
  Mo  Mo20  1  0.250000  0.708565  0.987655  1
  Mo  Mo21  1  0.250000  0.791516  0.487551  1
  Mo  Mo22  1  0.750000  0.291420  0.012383  1
  Mo  Mo23  1  0.750000  0.208489  0.512331  1
  P  P24  1  0.250000  0.420377  0.115208  1
  P  P25  1  0.250000  0.079582  0.615187  1
  P  P26  1  0.750000  0.579580  0.885071  1
  P  P27  1  0.750000  0.920421  0.384775  1
  P  P28  1  0.250000  0.269236  0.864851  1
  P  P29  1  0.250000  0.230821  0.364791  1
  P  P30  1  0.750000  0.730837  0.135221  1
  P  P31  1  0.750000  0.769548  0.635062  1
  P  P32  1  0.250000  0.595599  0.391250  1
  P  P33  1  0.250000  0.904380  0.891234  1
  P  P34  1  0.750000  0.404110  0.608608  1
  P  P35  1  0.750000  0.095649  0.108759  1
