# generated using pymatgen
data_Hf2GaTc3
_symmetry_space_group_name_H-M   'P 1'
_cell_length_a   5.24475400
_cell_length_b   5.24475196
_cell_length_c   8.53533100
_cell_angle_alpha   90.00000000
_cell_angle_beta   90.00000000
_cell_angle_gamma   119.99998764
_symmetry_Int_Tables_number   1
_chemical_formula_structural   Hf2GaTc3
_chemical_formula_sum   'Hf4 Ga2 Tc6'
_cell_volume   203.32984534
_cell_formula_units_Z   2
loop_
 _symmetry_equiv_pos_site_id
 _symmetry_equiv_pos_as_xyz
  1  'x, y, z'
loop_
 _atom_site_type_symbol
 _atom_site_label
 _atom_site_symmetry_multiplicity
 _atom_site_fract_x
 _atom_site_fract_y
 _atom_site_fract_z
 _atom_site_occupancy
  Hf  Hf0  1  0.333333  0.666667  0.433825  1
  Hf  Hf1  1  0.666667  0.333333  0.566175  1
  Hf  Hf2  1  0.666667  0.333333  0.933825  1
  Hf  Hf3  1  0.333333  0.666667  0.066175  1
  Ga  Ga4  1  0.000000  0.000000  0.500000  1
  Ga  Ga5  1  0.000000  0.000000  0.000000  1
  Tc  Tc6  1  0.827649  0.172351  0.250000  1
  Tc  Tc7  1  0.827649  0.655298  0.250000  1
  Tc  Tc8  1  0.344702  0.172351  0.250000  1
  Tc  Tc9  1  0.172351  0.827649  0.750000  1
  Tc  Tc10  1  0.172351  0.344702  0.750000  1
  Tc  Tc11  1  0.655298  0.827649  0.750000  1
