# generated using pymatgen
data_Zr10InCuSb6
_symmetry_space_group_name_H-M   'P 1'
_cell_length_a   8.71485300
_cell_length_b   8.71485354
_cell_length_c   5.90829600
_cell_angle_alpha   90.00000000
_cell_angle_beta   90.00000000
_cell_angle_gamma   119.99999416
_symmetry_Int_Tables_number   1
_chemical_formula_structural   Zr10InCuSb6
_chemical_formula_sum   'Zr10 In1 Cu1 Sb6'
_cell_volume   388.60918480
_cell_formula_units_Z   1
loop_
 _symmetry_equiv_pos_site_id
 _symmetry_equiv_pos_as_xyz
  1  'x, y, z'
loop_
 _atom_site_type_symbol
 _atom_site_label
 _atom_site_symmetry_multiplicity
 _atom_site_fract_x
 _atom_site_fract_y
 _atom_site_fract_z
 _atom_site_occupancy
  Zr  Zr0  1  0.666667  0.333333  0.000000  1
  Zr  Zr1  1  0.333333  0.666667  0.000000  1
  Zr  Zr2  1  0.333333  0.666667  0.500000  1
  Zr  Zr3  1  0.666667  0.333333  0.500000  1
  Zr  Zr4  1  0.725367  0.725367  0.764940  1
  Zr  Zr5  1  0.274633  0.000000  0.764940  1
  Zr  Zr6  1  0.000000  0.274633  0.764940  1
  Zr  Zr7  1  0.274633  0.274633  0.235060  1
  Zr  Zr8  1  0.725367  0.000000  0.235060  1
  Zr  Zr9  1  0.000000  0.725367  0.235060  1
  In  In10  1  0.000000  0.000000  0.500000  1
  Cu  Cu11  1  0.000000  0.000000  0.000000  1
  Sb  Sb12  1  0.383424  0.383424  0.745445  1
  Sb  Sb13  1  0.616576  0.000000  0.745445  1
  Sb  Sb14  1  0.000000  0.616576  0.745445  1
  Sb  Sb15  1  0.616576  0.616576  0.254555  1
  Sb  Sb16  1  0.383424  0.000000  0.254555  1
  Sb  Sb17  1  0.000000  0.383424  0.254555  1
