# generated using pymatgen
data_Er7Tm3Si5Ge
_symmetry_space_group_name_H-M   'P 1'
_cell_length_a   8.36658900
_cell_length_b   8.36671085
_cell_length_c   6.26588000
_cell_angle_alpha   89.99954671
_cell_angle_beta   90.00039977
_cell_angle_gamma   120.01099124
_symmetry_Int_Tables_number   1
_chemical_formula_structural   Er7Tm3Si5Ge
_chemical_formula_sum   'Er7 Tm3 Si5 Ge1'
_cell_volume   379.81121934
_cell_formula_units_Z   1
loop_
 _symmetry_equiv_pos_site_id
 _symmetry_equiv_pos_as_xyz
  1  'x, y, z'
loop_
 _atom_site_type_symbol
 _atom_site_label
 _atom_site_symmetry_multiplicity
 _atom_site_fract_x
 _atom_site_fract_y
 _atom_site_fract_z
 _atom_site_occupancy
  Er  Er0  1  0.667502  0.333183  0.500702  1
  Er  Er1  1  0.758205  0.758239  0.249960  1
  Er  Er2  1  0.242383  0.998732  0.249964  1
  Er  Er3  1  0.998805  0.242427  0.249960  1
  Er  Er4  1  0.242327  0.242359  0.750044  1
  Er  Er5  1  0.757192  0.999875  0.750034  1
  Er  Er6  1  0.999957  0.757223  0.750042  1
  Tm  Tm7  1  0.333177  0.667501  0.500702  1
  Tm  Tm8  1  0.333185  0.667500  0.999301  1
  Tm  Tm9  1  0.667509  0.333188  0.999294  1
  Si  Si10  1  0.605876  0.999844  0.249910  1
  Si  Si11  1  0.000055  0.605981  0.249905  1
  Si  Si12  1  0.606123  0.606231  0.750095  1
  Si  Si13  1  0.393956  0.999971  0.750090  1
  Si  Si14  1  0.000179  0.394060  0.750096  1
  Ge  Ge15  1  0.393568  0.393686  0.249902  1
