# generated using pymatgen
data_Dy4YLu(Si3Ru)8
_symmetry_space_group_name_H-M   'P 1'
_cell_length_a   10.10668678
_cell_length_b   10.10668701
_cell_length_c   8.14187146
_cell_angle_alpha   90.03266680
_cell_angle_beta   90.03267154
_cell_angle_gamma   132.51067420
_symmetry_Int_Tables_number   1
_chemical_formula_structural   Dy4YLu(Si3Ru)8
_chemical_formula_sum   'Dy4 Y1 Lu1 Si24 Ru8'
_cell_volume   613.05319522
_cell_formula_units_Z   1
loop_
 _symmetry_equiv_pos_site_id
 _symmetry_equiv_pos_as_xyz
  1  'x, y, z'
loop_
 _atom_site_type_symbol
 _atom_site_label
 _atom_site_symmetry_multiplicity
 _atom_site_fract_x
 _atom_site_fract_y
 _atom_site_fract_z
 _atom_site_occupancy
  Dy  Dy0  1  0.002592  0.502280  0.249369  1
  Dy  Dy1  1  0.497720  0.997408  0.750631  1
  Dy  Dy2  1  0.997408  0.497720  0.750631  1
  Dy  Dy3  1  0.502280  0.002592  0.249369  1
  Y  Y4  1  0.500000  0.500000  0.500000  1
  Lu  Lu5  1  0.000000  0.000000  0.000000  1
  Si  Si6  1  0.294135  0.705865  0.000000  1
  Si  Si7  1  0.795041  0.204959  0.500000  1
  Si  Si8  1  0.705865  0.294135  0.000000  1
  Si  Si9  1  0.204959  0.795041  0.500000  1
  Si  Si10  1  0.831879  0.831879  0.333189  1
  Si  Si11  1  0.168121  0.168121  0.666811  1
  Si  Si12  1  0.667070  0.667070  0.832757  1
  Si  Si13  1  0.332930  0.332930  0.167243  1
  Si  Si14  1  0.621325  0.386569  0.227925  1
  Si  Si15  1  0.613431  0.378675  0.772075  1
  Si  Si16  1  0.110494  0.876638  0.729044  1
  Si  Si17  1  0.123362  0.889506  0.270956  1
  Si  Si18  1  0.378675  0.613431  0.772075  1
  Si  Si19  1  0.386569  0.621325  0.227925  1
  Si  Si20  1  0.889506  0.123362  0.270956  1
  Si  Si21  1  0.876638  0.110494  0.729044  1
  Si  Si22  1  0.845204  0.611603  0.005001  1
  Si  Si23  1  0.388397  0.154796  0.994999  1
  Si  Si24  1  0.887458  0.654169  0.505352  1
  Si  Si25  1  0.345831  0.112542  0.494648  1
  Si  Si26  1  0.154796  0.388397  0.994999  1
  Si  Si27  1  0.611603  0.845204  0.005001  1
  Si  Si28  1  0.112542  0.345831  0.494648  1
  Si  Si29  1  0.654169  0.887458  0.505352  1
  Ru  Ru30  1  0.167896  0.832104  0.000000  1
  Ru  Ru31  1  0.669374  0.330626  0.500000  1
  Ru  Ru32  1  0.832104  0.167896  0.000000  1
  Ru  Ru33  1  0.330626  0.669374  0.500000  1
  Ru  Ru34  1  0.627632  0.627632  0.125164  1
  Ru  Ru35  1  0.372368  0.372368  0.874836  1
  Ru  Ru36  1  0.874743  0.874743  0.629122  1
  Ru  Ru37  1  0.125257  0.125257  0.370878  1
