# generated using pymatgen
data_Dy6Er3Tm7Cd3HgIr4
_symmetry_space_group_name_H-M   'P 1'
_cell_length_a   9.55749484
_cell_length_b   9.55549034
_cell_length_c   9.55549000
_cell_angle_alpha   60.00000116
_cell_angle_beta   60.00693879
_cell_angle_gamma   60.00693959
_symmetry_Int_Tables_number   1
_chemical_formula_structural   Dy6Er3Tm7Cd3HgIr4
_chemical_formula_sum   'Dy6 Er3 Tm7 Cd3 Hg1 Ir4'
_cell_volume   617.13554586
_cell_formula_units_Z   1
loop_
 _symmetry_equiv_pos_site_id
 _symmetry_equiv_pos_as_xyz
  1  'x, y, z'
loop_
 _atom_site_type_symbol
 _atom_site_label
 _atom_site_symmetry_multiplicity
 _atom_site_fract_x
 _atom_site_fract_y
 _atom_site_fract_z
 _atom_site_occupancy
  Dy  Dy0  1  0.187380  0.811786  0.811786  1
  Dy  Dy1  1  0.812337  0.187847  0.187847  1
  Dy  Dy2  1  0.812181  0.187119  0.811841  1
  Dy  Dy3  1  0.188108  0.811897  0.188132  1
  Dy  Dy4  1  0.812181  0.811841  0.187119  1
  Dy  Dy5  1  0.188108  0.188132  0.811897  1
  Er  Er6  1  0.599605  0.599626  0.599626  1
  Er  Er7  1  0.599779  0.599790  0.200743  1
  Er  Er8  1  0.599779  0.200743  0.599790  1
  Tm  Tm9  1  0.201327  0.599668  0.599668  1
  Tm  Tm10  1  0.062207  0.437799  0.437799  1
  Tm  Tm11  1  0.437626  0.062131  0.062131  1
  Tm  Tm12  1  0.437465  0.062399  0.437709  1
  Tm  Tm13  1  0.061933  0.437983  0.061918  1
  Tm  Tm14  1  0.437465  0.437709  0.062399  1
  Tm  Tm15  1  0.061933  0.061918  0.437983  1
  Cd  Cd16  1  0.830341  0.830114  0.508957  1
  Cd  Cd17  1  0.830341  0.508957  0.830114  1
  Cd  Cd18  1  0.508920  0.830186  0.830186  1
  Hg  Hg19  1  0.832183  0.831897  0.831897  1
  Ir  Ir20  1  0.391386  0.392210  0.392210  1
  Ir  Ir21  1  0.391515  0.392220  0.824137  1
  Ir  Ir22  1  0.391515  0.824137  0.392220  1
  Ir  Ir23  1  0.824386  0.391894  0.391894  1
