# generated using pymatgen
data_Y16Cd4Co2NiRu
_symmetry_space_group_name_H-M   'P 1'
_cell_length_a   9.60829676
_cell_length_b   9.58147800
_cell_length_c   9.58448701
_cell_angle_alpha   59.99379153
_cell_angle_beta   60.08695768
_cell_angle_gamma   60.04043009
_symmetry_Int_Tables_number   1
_chemical_formula_structural   Y16Cd4Co2NiRu
_chemical_formula_sum   'Y16 Cd4 Co2 Ni1 Ru1'
_cell_volume   624.49600728
_cell_formula_units_Z   1
loop_
 _symmetry_equiv_pos_site_id
 _symmetry_equiv_pos_as_xyz
  1  'x, y, z'
loop_
 _atom_site_type_symbol
 _atom_site_label
 _atom_site_symmetry_multiplicity
 _atom_site_fract_x
 _atom_site_fract_y
 _atom_site_fract_z
 _atom_site_occupancy
  Y  Y0  1  0.437528  0.437282  0.062578  1
  Y  Y1  1  0.064943  0.057760  0.438641  1
  Y  Y2  1  0.437453  0.061846  0.064270  1
  Y  Y3  1  0.843911  0.847928  0.850446  1
  Y  Y4  1  0.689408  0.313089  0.308088  1
  Y  Y5  1  0.063259  0.439498  0.438858  1
  Y  Y6  1  0.314462  0.687373  0.689736  1
  Y  Y7  1  0.311479  0.310498  0.689015  1
  Y  Y8  1  0.843863  0.847880  0.457758  1
  Y  Y9  1  0.689519  0.688303  0.311156  1
  Y  Y10  1  0.459412  0.845612  0.847432  1
  Y  Y11  1  0.063291  0.439474  0.058389  1
  Y  Y12  1  0.842412  0.458605  0.849438  1
  Y  Y13  1  0.437481  0.061812  0.436440  1
  Y  Y14  1  0.314374  0.687389  0.308490  1
  Y  Y15  1  0.689391  0.313181  0.689404  1
  Cd  Cd16  1  0.081628  0.757302  0.080533  1
  Cd  Cd17  1  0.081138  0.079866  0.758826  1
  Cd  Cd18  1  0.757549  0.080561  0.080945  1
  Cd  Cd19  1  0.081142  0.079871  0.080171  1
  Co  Co20  1  0.640199  0.642437  0.640659  1
  Co  Co21  1  0.640190  0.642441  0.076714  1
  Ni  Ni22  1  0.641039  0.076688  0.641131  1
  Ru  Ru23  1  0.074930  0.643302  0.640879  1
