# generated using pymatgen
data_CeThP4(IrRu)2
_symmetry_space_group_name_H-M   'P 1'
_cell_length_a   4.21834800
_cell_length_b   4.21834800
_cell_length_c   9.42387000
_cell_angle_alpha   90.00000000
_cell_angle_beta   90.00000000
_cell_angle_gamma   90.00000000
_symmetry_Int_Tables_number   1
_chemical_formula_structural   CeThP4(IrRu)2
_chemical_formula_sum   'Ce1 Th1 P4 Ir2 Ru2'
_cell_volume   167.69267634
_cell_formula_units_Z   1
loop_
 _symmetry_equiv_pos_site_id
 _symmetry_equiv_pos_as_xyz
  1  'x, y, z'
loop_
 _atom_site_type_symbol
 _atom_site_label
 _atom_site_symmetry_multiplicity
 _atom_site_fract_x
 _atom_site_fract_y
 _atom_site_fract_z
 _atom_site_occupancy
  Ce  Ce0  1  0.500000  0.000000  0.756315  1
  Th  Th1  1  0.000000  0.500000  0.245130  1
  P  P2  1  0.000000  0.000000  0.997987  1
  P  P3  1  0.500000  0.500000  0.997987  1
  P  P4  1  0.000000  0.500000  0.629588  1
  P  P5  1  0.500000  0.000000  0.372312  1
  Ir  Ir6  1  0.000000  0.500000  0.886560  1
  Ir  Ir7  1  0.500000  0.000000  0.112400  1
  Ru  Ru8  1  0.000000  0.000000  0.500860  1
  Ru  Ru9  1  0.500000  0.500000  0.500860  1
