# generated using pymatgen
data_La7NdTmPd24
_symmetry_space_group_name_H-M   'P 1'
_cell_length_a   8.60333300
_cell_length_b   8.60333300
_cell_length_c   8.60333300
_cell_angle_alpha   89.99921415
_cell_angle_beta   89.99921415
_cell_angle_gamma   89.99921414
_symmetry_Int_Tables_number   1
_chemical_formula_structural   La7NdTmPd24
_chemical_formula_sum   'La7 Nd1 Tm1 Pd24'
_cell_volume   636.79581269
_cell_formula_units_Z   1
loop_
 _symmetry_equiv_pos_site_id
 _symmetry_equiv_pos_as_xyz
  1  'x, y, z'
loop_
 _atom_site_type_symbol
 _atom_site_label
 _atom_site_symmetry_multiplicity
 _atom_site_fract_x
 _atom_site_fract_y
 _atom_site_fract_z
 _atom_site_occupancy
  La  La0  1  0.746781  0.746781  0.746781  1
  La  La1  1  0.746742  0.746742  0.253269  1
  La  La2  1  0.746742  0.253269  0.746742  1
  La  La3  1  0.253391  0.253391  0.746512  1
  La  La4  1  0.253391  0.746512  0.253391  1
  La  La5  1  0.253269  0.746742  0.746742  1
  La  La6  1  0.746512  0.253391  0.253391  1
  Nd  Nd7  1  0.252450  0.252450  0.252450  1
  Tm  Tm8  1  0.000554  0.000554  0.000554  1
  Pd  Pd9  1  0.267857  0.499685  0.000704  1
  Pd  Pd10  1  0.732171  0.499796  0.000046  1
  Pd  Pd11  1  0.000704  0.267857  0.499685  1
  Pd  Pd12  1  0.499685  0.267857  0.000704  1
  Pd  Pd13  1  0.000046  0.732171  0.499796  1
  Pd  Pd14  1  0.499796  0.732171  0.000046  1
  Pd  Pd15  1  0.499685  0.000704  0.267857  1
  Pd  Pd16  1  0.267857  0.000704  0.499685  1
  Pd  Pd17  1  0.499796  0.000046  0.732171  1
  Pd  Pd18  1  0.732171  0.000046  0.499796  1
  Pd  Pd19  1  0.000704  0.499685  0.267857  1
  Pd  Pd20  1  0.000046  0.499796  0.732171  1
  Pd  Pd21  1  0.255243  0.499215  0.499215  1
  Pd  Pd22  1  0.744666  0.500024  0.500024  1
  Pd  Pd23  1  0.499215  0.255243  0.499215  1
  Pd  Pd24  1  0.500024  0.744666  0.500024  1
  Pd  Pd25  1  0.499215  0.499215  0.255243  1
  Pd  Pd26  1  0.500024  0.500024  0.744666  1
  Pd  Pd27  1  0.317737  0.000797  0.000797  1
  Pd  Pd28  1  0.682274  0.999828  0.999828  1
  Pd  Pd29  1  0.000797  0.317737  0.000797  1
  Pd  Pd30  1  0.999828  0.682274  0.999828  1
  Pd  Pd31  1  0.000797  0.000797  0.317737  1
  Pd  Pd32  1  0.999828  0.999828  0.682274  1
