# generated using pymatgen
data_Nd2Re2TcB6
_symmetry_space_group_name_H-M   'P 1'
_cell_length_a   6.30101112
_cell_length_b   6.30101052
_cell_length_c   7.64369657
_cell_angle_alpha   90.67817823
_cell_angle_beta   90.67817721
_cell_angle_gamma   114.33935104
_symmetry_Int_Tables_number   1
_chemical_formula_structural   Nd2Re2TcB6
_chemical_formula_sum   'Nd4 Re4 Tc2 B12'
_cell_volume   276.43698821
_cell_formula_units_Z   2
loop_
 _symmetry_equiv_pos_site_id
 _symmetry_equiv_pos_as_xyz
  1  'x, y, z'
loop_
 _atom_site_type_symbol
 _atom_site_label
 _atom_site_symmetry_multiplicity
 _atom_site_fract_x
 _atom_site_fract_y
 _atom_site_fract_z
 _atom_site_occupancy
  Nd  Nd0  1  0.094380  0.441576  0.325816  1
  Nd  Nd1  1  0.558424  0.905620  0.174184  1
  Nd  Nd2  1  0.905620  0.558424  0.674184  1
  Nd  Nd3  1  0.441576  0.094380  0.825816  1
  Re  Re4  1  0.990038  0.804818  0.088466  1
  Re  Re5  1  0.195182  0.009962  0.411534  1
  Re  Re6  1  0.009962  0.195182  0.911534  1
  Re  Re7  1  0.804818  0.990038  0.588466  1
  Tc  Tc8  1  0.584114  0.415886  0.250000  1
  Tc  Tc9  1  0.415886  0.584114  0.750000  1
  B  B10  1  0.242210  0.153498  0.132152  1
  B  B11  1  0.846502  0.757790  0.367848  1
  B  B12  1  0.757790  0.846502  0.867848  1
  B  B13  1  0.153498  0.242210  0.632152  1
  B  B14  1  0.583939  0.157343  0.482086  1
  B  B15  1  0.842657  0.416061  0.017914  1
  B  B16  1  0.416061  0.842657  0.517914  1
  B  B17  1  0.157343  0.583939  0.982086  1
  B  B18  1  0.440824  0.349744  0.532570  1
  B  B19  1  0.650256  0.559176  0.967430  1
  B  B20  1  0.559176  0.650256  0.467430  1
  B  B21  1  0.349744  0.440824  0.032570  1
