# generated using pymatgen
data_Ce2ThSn3Ir2Os
_symmetry_space_group_name_H-M   'P 1'
_cell_length_a   7.49737201
_cell_length_b   7.53781619
_cell_length_c   4.13082000
_cell_angle_alpha   90.00000000
_cell_angle_beta   90.00000000
_cell_angle_gamma   120.17860578
_symmetry_Int_Tables_number   1
_chemical_formula_structural   Ce2ThSn3Ir2Os
_chemical_formula_sum   'Ce2 Th1 Sn3 Ir2 Os1'
_cell_volume   201.80739114
_cell_formula_units_Z   1
loop_
 _symmetry_equiv_pos_site_id
 _symmetry_equiv_pos_as_xyz
  1  'x, y, z'
loop_
 _atom_site_type_symbol
 _atom_site_label
 _atom_site_symmetry_multiplicity
 _atom_site_fract_x
 _atom_site_fract_y
 _atom_site_fract_z
 _atom_site_occupancy
  Ce  Ce0  1  0.410003  0.410384  0.500000  1
  Ce  Ce1  1  0.589997  0.000381  0.500000  1
  Th  Th2  1  0.000000  0.588239  0.500000  1
  Sn  Sn3  1  0.745588  0.749498  0.000000  1
  Sn  Sn4  1  0.254412  0.003911  0.000000  1
  Sn  Sn5  1  0.000000  0.246130  0.000000  1
  Ir  Ir6  1  0.669704  0.336734  0.000000  1
  Ir  Ir7  1  0.330296  0.667032  0.000000  1
  Os  Os8  1  0.000000  0.997688  0.500000  1
