# generated using pymatgen
data_Dy(YTe2)2
_symmetry_space_group_name_H-M   'P 1'
_cell_length_a   4.34649500
_cell_length_b   7.51747930
_cell_length_c   7.48833182
_cell_angle_alpha   71.64502642
_cell_angle_beta   90.00000000
_cell_angle_gamma   90.00000000
_symmetry_Int_Tables_number   1
_chemical_formula_structural   Dy(YTe2)2
_chemical_formula_sum   'Dy1 Y2 Te4'
_cell_volume   232.23055390
_cell_formula_units_Z   1
loop_
 _symmetry_equiv_pos_site_id
 _symmetry_equiv_pos_as_xyz
  1  'x, y, z'
loop_
 _atom_site_type_symbol
 _atom_site_label
 _atom_site_symmetry_multiplicity
 _atom_site_fract_x
 _atom_site_fract_y
 _atom_site_fract_z
 _atom_site_occupancy
  Dy  Dy0  1  0.000000  0.500000  0.500000  1
  Y  Y1  1  0.000000  0.000000  0.000000  1
  Y  Y2  1  0.500000  0.500000  0.000000  1
  Te  Te3  1  0.500000  0.756609  0.257428  1
  Te  Te4  1  0.000000  0.249384  0.250734  1
  Te  Te5  1  0.500000  0.243391  0.742572  1
  Te  Te6  1  0.000000  0.750616  0.749266  1
