# generated using pymatgen
data_Tb3Nd3RuI10
_symmetry_space_group_name_H-M   'P 1'
_cell_length_a   7.88408693
_cell_length_b   9.90021360
_cell_length_c   9.92980224
_cell_angle_alpha   107.09742024
_cell_angle_beta   96.45198695
_cell_angle_gamma   104.81454882
_symmetry_Int_Tables_number   1
_chemical_formula_structural   Tb3Nd3RuI10
_chemical_formula_sum   'Tb3 Nd3 Ru1 I10'
_cell_volume   701.27759533
_cell_formula_units_Z   1
loop_
 _symmetry_equiv_pos_site_id
 _symmetry_equiv_pos_as_xyz
  1  'x, y, z'
loop_
 _atom_site_type_symbol
 _atom_site_label
 _atom_site_symmetry_multiplicity
 _atom_site_fract_x
 _atom_site_fract_y
 _atom_site_fract_z
 _atom_site_occupancy
  Tb  Tb0  1  0.649235  0.872495  0.831985  1
  Tb  Tb1  1  0.351162  0.124965  0.167767  1
  Tb  Tb2  1  0.031502  0.723319  0.917868  1
  Nd  Nd3  1  0.116120  0.042288  0.760357  1
  Nd  Nd4  1  0.882725  0.956490  0.238873  1
  Nd  Nd5  1  0.967520  0.282312  0.083069  1
  Ru  Ru6  1  0.999544  0.000037  0.999933  1
  I  I7  1  0.354822  0.446485  0.272440  1
  I  I8  1  0.655747  0.554419  0.731294  1
  I  I9  1  0.736430  0.910854  0.543382  1
  I  I10  1  0.087098  0.374999  0.818198  1
  I  I11  1  0.915708  0.629213  0.175995  1
  I  I12  1  0.449510  0.816810  0.087527  1
  I  I13  1  0.545197  0.180380  0.909568  1
  I  I14  1  0.774774  0.257154  0.347092  1
  I  I15  1  0.220432  0.739608  0.658138  1
  I  I16  1  0.262472  0.088171  0.456516  1
