# generated using pymatgen
data_Ho3MgAl2Si2Pd
_symmetry_space_group_name_H-M   'P 1'
_cell_length_a   6.98599800
_cell_length_b   6.92697382
_cell_length_c   4.27643300
_cell_angle_alpha   90.00000000
_cell_angle_beta   90.00000000
_cell_angle_gamma   120.28226274
_symmetry_Int_Tables_number   1
_chemical_formula_structural   Ho3MgAl2Si2Pd
_chemical_formula_sum   'Ho3 Mg1 Al2 Si2 Pd1'
_cell_volume   178.70718654
_cell_formula_units_Z   1
loop_
 _symmetry_equiv_pos_site_id
 _symmetry_equiv_pos_as_xyz
  1  'x, y, z'
loop_
 _atom_site_type_symbol
 _atom_site_label
 _atom_site_symmetry_multiplicity
 _atom_site_fract_x
 _atom_site_fract_y
 _atom_site_fract_z
 _atom_site_occupancy
  Ho  Ho0  1  0.416232  0.000000  0.000000  1
  Ho  Ho1  1  0.999332  0.419344  0.000000  1
  Ho  Ho2  1  0.579988  0.580655  0.000000  1
  Mg  Mg3  1  0.760061  0.000000  0.499999  1
  Al  Al4  1  0.241867  0.238342  0.499999  1
  Al  Al5  1  0.003525  0.761657  0.499999  1
  Si  Si6  1  0.663063  0.340156  0.499999  1
  Si  Si7  1  0.322907  0.659843  0.499999  1
  Pd  Pd8  1  0.013023  0.000000  0.000000  1
