# generated using pymatgen
data_BaFeP2O7
_symmetry_space_group_name_H-M   'P 1'
_cell_length_a   5.43344112
_cell_length_b   7.53795117
_cell_length_c   7.70443611
_cell_angle_alpha   103.14167863
_cell_angle_beta   91.88150687
_cell_angle_gamma   93.52938551
_symmetry_Int_Tables_number   1
_chemical_formula_structural   BaFeP2O7
_chemical_formula_sum   'Ba2 Fe2 P4 O14'
_cell_volume   306.34769412
_cell_formula_units_Z   2
loop_
 _symmetry_equiv_pos_site_id
 _symmetry_equiv_pos_as_xyz
  1  'x, y, z'
loop_
 _atom_site_type_symbol
 _atom_site_label
 _atom_site_symmetry_multiplicity
 _atom_site_fract_x
 _atom_site_fract_y
 _atom_site_fract_z
 _atom_site_occupancy
  Ba  Ba0  1  0.208972  0.778475  0.934419  1
  Ba  Ba1  1  0.791028  0.221525  0.065581  1
  Fe  Fe2  1  0.803465  0.380981  0.602765  1
  Fe  Fe3  1  0.196535  0.619019  0.397235  1
  P  P4  1  0.295623  0.268912  0.786492  1
  P  P5  1  0.704377  0.731088  0.213508  1
  P  P6  1  0.290574  0.191487  0.399264  1
  P  P7  1  0.709426  0.808513  0.600736  1
  O  O8  1  0.217410  0.025628  0.253477  1
  O  O9  1  0.070432  0.387903  0.801829  1
  O  O10  1  0.711276  0.849178  0.077254  1
  O  O11  1  0.540115  0.385661  0.799038  1
  O  O12  1  0.441776  0.728031  0.605624  1
  O  O13  1  0.558224  0.271969  0.394376  1
  O  O14  1  0.268845  0.131394  0.589002  1
  O  O15  1  0.105168  0.343906  0.407499  1
  O  O16  1  0.782590  0.974372  0.746523  1
  O  O17  1  0.459885  0.614339  0.200962  1
  O  O18  1  0.894832  0.656094  0.592501  1
  O  O19  1  0.288724  0.150822  0.922746  1
  O  O20  1  0.731155  0.868606  0.410998  1
  O  O21  1  0.929568  0.612097  0.198171  1
