# generated using pymatgen
data_YbEr2(SiPd)3
_symmetry_space_group_name_H-M   'P 1'
_cell_length_a   4.31916600
_cell_length_b   7.41127300
_cell_length_c   20.97328900
_cell_angle_alpha   90.00000000
_cell_angle_beta   90.00000000
_cell_angle_gamma   90.00000000
_symmetry_Int_Tables_number   1
_chemical_formula_structural   YbEr2(SiPd)3
_chemical_formula_sum   'Yb4 Er8 Si12 Pd12'
_cell_volume   671.36585257
_cell_formula_units_Z   4
loop_
 _symmetry_equiv_pos_site_id
 _symmetry_equiv_pos_as_xyz
  1  'x, y, z'
loop_
 _atom_site_type_symbol
 _atom_site_label
 _atom_site_symmetry_multiplicity
 _atom_site_fract_x
 _atom_site_fract_y
 _atom_site_fract_z
 _atom_site_occupancy
  Yb  Yb0  1  0.250000  0.704004  0.332385  1
  Yb  Yb1  1  0.750000  0.295996  0.667615  1
  Yb  Yb2  1  0.750000  0.204004  0.167615  1
  Yb  Yb3  1  0.250000  0.795996  0.832385  1
  Er  Er4  1  0.250000  0.795106  0.166262  1
  Er  Er5  1  0.750000  0.204894  0.833738  1
  Er  Er6  1  0.750000  0.295106  0.333738  1
  Er  Er7  1  0.250000  0.704894  0.666262  1
  Er  Er8  1  0.250000  0.706220  0.000438  1
  Er  Er9  1  0.750000  0.293780  0.999562  1
  Er  Er10  1  0.750000  0.206220  0.499562  1
  Er  Er11  1  0.250000  0.793780  0.500438  1
  Si  Si12  1  0.250000  0.086789  0.065438  1
  Si  Si13  1  0.750000  0.913211  0.934562  1
  Si  Si14  1  0.750000  0.586789  0.434562  1
  Si  Si15  1  0.250000  0.413211  0.565438  1
  Si  Si16  1  0.250000  0.088349  0.273910  1
  Si  Si17  1  0.750000  0.911651  0.726090  1
  Si  Si18  1  0.750000  0.588349  0.226090  1
  Si  Si19  1  0.250000  0.411651  0.773910  1
  Si  Si20  1  0.250000  0.090362  0.395672  1
  Si  Si21  1  0.750000  0.909638  0.604328  1
  Si  Si22  1  0.750000  0.590362  0.104328  1
  Si  Si23  1  0.250000  0.409638  0.895672  1
  Pd  Pd24  1  0.250000  0.415650  0.237004  1
  Pd  Pd25  1  0.750000  0.584350  0.762996  1
  Pd  Pd26  1  0.750000  0.915650  0.262996  1
  Pd  Pd27  1  0.250000  0.084350  0.737004  1
  Pd  Pd28  1  0.250000  0.417845  0.436484  1
  Pd  Pd29  1  0.750000  0.582155  0.563516  1
  Pd  Pd30  1  0.750000  0.917845  0.063516  1
  Pd  Pd31  1  0.250000  0.082155  0.936484  1
  Pd  Pd32  1  0.250000  0.417632  0.092805  1
  Pd  Pd33  1  0.750000  0.582368  0.907195  1
  Pd  Pd34  1  0.750000  0.917632  0.407195  1
  Pd  Pd35  1  0.250000  0.082368  0.592805  1
