# generated using pymatgen
data_Li4Er3ZrPt4
_symmetry_space_group_name_H-M   'P 1'
_cell_length_a   3.91106400
_cell_length_b   6.93477123
_cell_length_c   8.40753543
_cell_angle_alpha   89.32255649
_cell_angle_beta   90.00000000
_cell_angle_gamma   90.00000000
_symmetry_Int_Tables_number   1
_chemical_formula_structural   Li4Er3ZrPt4
_chemical_formula_sum   'Li4 Er3 Zr1 Pt4'
_cell_volume   228.01604603
_cell_formula_units_Z   1
loop_
 _symmetry_equiv_pos_site_id
 _symmetry_equiv_pos_as_xyz
  1  'x, y, z'
loop_
 _atom_site_type_symbol
 _atom_site_label
 _atom_site_symmetry_multiplicity
 _atom_site_fract_x
 _atom_site_fract_y
 _atom_site_fract_z
 _atom_site_occupancy
  Li  Li0  1  0.750000  0.620972  0.444266  1
  Li  Li1  1  0.250000  0.374307  0.559329  1
  Li  Li2  1  0.750000  0.128127  0.057031  1
  Li  Li3  1  0.250000  0.873988  0.939608  1
  Er  Er4  1  0.250000  0.453174  0.176297  1
  Er  Er5  1  0.750000  0.045453  0.683039  1
  Er  Er6  1  0.250000  0.948221  0.321925  1
  Zr  Zr7  1  0.750000  0.553676  0.821866  1
  Pt  Pt8  1  0.750000  0.240486  0.375240  1
  Pt  Pt9  1  0.250000  0.745440  0.634061  1
  Pt  Pt10  1  0.750000  0.740890  0.116011  1
  Pt  Pt11  1  0.250000  0.275267  0.871328  1
