# generated using pymatgen
data_Y6HoTm13Pt16
_symmetry_space_group_name_H-M   'P 1'
_cell_length_a   7.44116913
_cell_length_b   7.51375610
_cell_length_c   14.62203400
_cell_angle_alpha   90.00055666
_cell_angle_beta   89.98935113
_cell_angle_gamma   89.96904840
_symmetry_Int_Tables_number   1
_chemical_formula_structural   Y6HoTm13Pt16
_chemical_formula_sum   'Y6 Ho1 Tm13 Pt16'
_cell_volume   817.53430902
_cell_formula_units_Z   1
loop_
 _symmetry_equiv_pos_site_id
 _symmetry_equiv_pos_as_xyz
  1  'x, y, z'
loop_
 _atom_site_type_symbol
 _atom_site_label
 _atom_site_symmetry_multiplicity
 _atom_site_fract_x
 _atom_site_fract_y
 _atom_site_fract_z
 _atom_site_occupancy
  Y  Y0  1  0.501332  0.320294  0.592881  1
  Y  Y1  1  0.001142  0.179677  0.907117  1
  Y  Y2  1  0.000887  0.178834  0.592621  1
  Y  Y3  1  0.501217  0.320418  0.907045  1
  Y  Y4  1  0.498725  0.679833  0.407075  1
  Y  Y5  1  0.998918  0.820296  0.092895  1
  Ho  Ho6  1  0.498585  0.679455  0.093389  1
  Tm  Tm7  1  0.681118  0.989978  0.250321  1
  Tm  Tm8  1  0.181181  0.510172  0.250366  1
  Tm  Tm9  1  0.818913  0.490053  0.749801  1
  Tm  Tm10  1  0.318905  0.009867  0.749991  1
  Tm  Tm11  1  0.656052  0.832847  0.622210  1
  Tm  Tm12  1  0.156011  0.667370  0.877658  1
  Tm  Tm13  1  0.843801  0.332490  0.377567  1
  Tm  Tm14  1  0.343668  0.167409  0.122731  1
  Tm  Tm15  1  0.343139  0.167047  0.377722  1
  Tm  Tm16  1  0.843946  0.332519  0.122729  1
  Tm  Tm17  1  0.155394  0.667958  0.621932  1
  Tm  Tm18  1  0.655980  0.832373  0.877796  1
  Tm  Tm19  1  0.997754  0.819610  0.406622  1
  Pt  Pt20  1  0.817805  0.642725  0.251287  1
  Pt  Pt21  1  0.316420  0.857907  0.249965  1
  Pt  Pt22  1  0.683562  0.141407  0.749822  1
  Pt  Pt23  1  0.183560  0.358712  0.749774  1
  Pt  Pt24  1  0.546964  0.384321  0.249840  1
  Pt  Pt25  1  0.046279  0.115449  0.250697  1
  Pt  Pt26  1  0.953322  0.883392  0.749962  1
  Pt  Pt27  1  0.453221  0.616667  0.749850  1
  Pt  Pt28  1  0.818260  0.535766  0.541168  1
  Pt  Pt29  1  0.318297  0.965120  0.958500  1
  Pt  Pt30  1  0.685010  0.032091  0.457235  1
  Pt  Pt31  1  0.183016  0.466786  0.042508  1
  Pt  Pt32  1  0.181006  0.468286  0.456929  1
  Pt  Pt33  1  0.681553  0.033501  0.042406  1
  Pt  Pt34  1  0.317584  0.964863  0.541169  1
  Pt  Pt35  1  0.817477  0.534502  0.958419  1
