# generated using pymatgen
data_Cs2Rb5TaIn3As5
_symmetry_space_group_name_H-M   'P 1'
_cell_length_a   8.78519738
_cell_length_b   9.65357265
_cell_length_c   14.95187579
_cell_angle_alpha   85.28025459
_cell_angle_beta   82.28770750
_cell_angle_gamma   86.27086035
_symmetry_Int_Tables_number   1
_chemical_formula_structural   Cs2Rb5TaIn3As5
_chemical_formula_sum   'Cs4 Rb10 Ta2 In6 As10'
_cell_volume   1250.44235454
_cell_formula_units_Z   2
loop_
 _symmetry_equiv_pos_site_id
 _symmetry_equiv_pos_as_xyz
  1  'x, y, z'
loop_
 _atom_site_type_symbol
 _atom_site_label
 _atom_site_symmetry_multiplicity
 _atom_site_fract_x
 _atom_site_fract_y
 _atom_site_fract_z
 _atom_site_occupancy
  Cs  Cs0  1  0.758502  0.978668  0.531650  1
  Cs  Cs1  1  0.241498  0.021332  0.468350  1
  Cs  Cs2  1  0.843960  0.362467  0.645941  1
  Cs  Cs3  1  0.156040  0.637533  0.354059  1
  Rb  Rb4  1  0.823885  0.810385  0.129158  1
  Rb  Rb5  1  0.176115  0.189615  0.870842  1
  Rb  Rb6  1  0.274138  0.256332  0.245950  1
  Rb  Rb7  1  0.725862  0.743668  0.754050  1
  Rb  Rb8  1  0.742398  0.496674  0.973793  1
  Rb  Rb9  1  0.257602  0.503326  0.026207  1
  Rb  Rb10  1  0.679591  0.081629  0.887456  1
  Rb  Rb11  1  0.320409  0.918371  0.112544  1
  Rb  Rb12  1  0.649867  0.659485  0.388751  1
  Rb  Rb13  1  0.350133  0.340515  0.611249  1
  Ta  Ta14  1  0.648517  0.394586  0.221238  1
  Ta  Ta15  1  0.351483  0.605414  0.778762  1
  In  In16  1  0.903348  0.276850  0.369748  1
  In  In17  1  0.096652  0.723150  0.630252  1
  In  In18  1  0.954352  0.183460  0.126166  1
  In  In19  1  0.045648  0.816540  0.873834  1
  In  In20  1  0.640783  0.044251  0.294235  1
  In  In21  1  0.359217  0.955749  0.705765  1
  As  As22  1  0.488571  0.600056  0.182402  1
  As  As23  1  0.511429  0.399944  0.817598  1
  As  As24  1  0.925704  0.453792  0.204114  1
  As  As25  1  0.074296  0.546208  0.795886  1
  As  As26  1  0.575247  0.299122  0.384048  1
  As  As27  1  0.424753  0.700878  0.615952  1
  As  As28  1  0.630707  0.195410  0.121478  1
  As  As29  1  0.369293  0.804590  0.878522  1
  As  As30  1  0.975871  0.001516  0.292179  1
  As  As31  1  0.024129  0.998484  0.707821  1
