# generated using pymatgen
data_Y4Th(Pd2Pt)5
_symmetry_space_group_name_H-M   'P 1'
_cell_length_a   4.18092700
_cell_length_b   4.15404300
_cell_length_c   20.61702500
_cell_angle_alpha   90.00000000
_cell_angle_beta   90.00000000
_cell_angle_gamma   90.00000000
_symmetry_Int_Tables_number   1
_chemical_formula_structural   Y4Th(Pd2Pt)5
_chemical_formula_sum   'Y4 Th1 Pd10 Pt5'
_cell_volume   358.07134703
_cell_formula_units_Z   1
loop_
 _symmetry_equiv_pos_site_id
 _symmetry_equiv_pos_as_xyz
  1  'x, y, z'
loop_
 _atom_site_type_symbol
 _atom_site_label
 _atom_site_symmetry_multiplicity
 _atom_site_fract_x
 _atom_site_fract_y
 _atom_site_fract_z
 _atom_site_occupancy
  Y  Y0  1  0.000000  0.000000  0.202319  1
  Y  Y1  1  0.000000  0.000000  0.399706  1
  Y  Y2  1  0.000000  0.000000  0.600294  1
  Y  Y3  1  0.000000  0.000000  0.797681  1
  Th  Th4  1  0.000000  0.000000  0.000000  1
  Pd  Pd5  1  0.500000  0.500000  0.200877  1
  Pd  Pd6  1  0.500000  0.500000  0.400280  1
  Pd  Pd7  1  0.500000  0.500000  0.599720  1
  Pd  Pd8  1  0.500000  0.500000  0.799123  1
  Pd  Pd9  1  0.500000  0.000000  0.500000  1
  Pd  Pd10  1  0.000000  0.500000  0.101593  1
  Pd  Pd11  1  0.000000  0.500000  0.300606  1
  Pd  Pd12  1  0.000000  0.500000  0.500000  1
  Pd  Pd13  1  0.000000  0.500000  0.699394  1
  Pd  Pd14  1  0.000000  0.500000  0.898407  1
  Pt  Pt15  1  0.500000  0.500000  0.000000  1
  Pt  Pt16  1  0.500000  0.000000  0.101760  1
  Pt  Pt17  1  0.500000  0.000000  0.300517  1
  Pt  Pt18  1  0.500000  0.000000  0.699483  1
  Pt  Pt19  1  0.500000  0.000000  0.898240  1
