# generated using pymatgen
data_Yb7Nb4FeO18
_symmetry_space_group_name_H-M   'P 1'
_cell_length_a   5.71944061
_cell_length_b   5.68140386
_cell_length_c   13.78445300
_cell_angle_alpha   89.04723565
_cell_angle_beta   88.89813267
_cell_angle_gamma   58.44078696
_symmetry_Int_Tables_number   1
_chemical_formula_structural   Yb7Nb4FeO18
_chemical_formula_sum   'Yb7 Nb4 Fe1 O18'
_cell_volume   381.58911289
_cell_formula_units_Z   1
loop_
 _symmetry_equiv_pos_site_id
 _symmetry_equiv_pos_as_xyz
  1  'x, y, z'
loop_
 _atom_site_type_symbol
 _atom_site_label
 _atom_site_symmetry_multiplicity
 _atom_site_fract_x
 _atom_site_fract_y
 _atom_site_fract_z
 _atom_site_occupancy
  Yb  Yb0  1  0.990630  0.996153  0.998890  1
  Yb  Yb1  1  0.957674  0.979371  0.730388  1
  Yb  Yb2  1  0.640564  0.617167  0.411455  1
  Yb  Yb3  1  0.297863  0.293510  0.078943  1
  Yb  Yb4  1  0.976451  0.957341  0.248469  1
  Yb  Yb5  1  0.614569  0.649294  0.902466  1
  Yb  Yb6  1  0.299156  0.295088  0.574045  1
  Nb  Nb7  1  0.676934  0.659135  0.165425  1
  Nb  Nb8  1  0.315350  0.353615  0.837761  1
  Nb  Nb9  1  0.665264  0.669946  0.660241  1
  Nb  Nb10  1  0.342182  0.320377  0.342106  1
  Fe  Fe11  1  0.999772  0.992128  0.498823  1
  O  O12  1  0.745127  0.938255  0.593956  1
  O  O13  1  0.435107  0.613666  0.260442  1
  O  O14  1  0.071451  0.313007  0.922275  1
  O  O15  1  0.727906  0.168292  0.383326  1
  O  O16  1  0.436236  0.821360  0.056693  1
  O  O17  1  0.073014  0.497049  0.718346  1
  O  O18  1  0.245087  0.588822  0.447855  1
  O  O19  1  0.896322  0.281465  0.128375  1
  O  O20  1  0.553108  0.968966  0.781678  1
  O  O21  1  0.295575  0.879390  0.616683  1
  O  O22  1  0.957894  0.553612  0.291265  1
  O  O23  1  0.564733  0.269576  0.947688  1
  O  O24  1  0.831367  0.405612  0.559028  1
  O  O25  1  0.498178  0.074887  0.223482  1
  O  O26  1  0.174769  0.745732  0.865690  1
  O  O27  1  0.283746  0.079972  0.423475  1
  O  O28  1  0.956217  0.730133  0.110548  1
  O  O29  1  0.621365  0.430694  0.756086  1
