# generated using pymatgen
data_Tm8Re(B8Os)3
_symmetry_space_group_name_H-M   'P 1'
_cell_length_a   3.62664000
_cell_length_b   9.07860465
_cell_length_c   11.45319500
_cell_angle_alpha   90.08059993
_cell_angle_beta   90.00000000
_cell_angle_gamma   90.00000000
_symmetry_Int_Tables_number   1
_chemical_formula_structural   Tm8Re(B8Os)3
_chemical_formula_sum   'Tm8 Re1 B24 Os3'
_cell_volume   377.09413406
_cell_formula_units_Z   1
loop_
 _symmetry_equiv_pos_site_id
 _symmetry_equiv_pos_as_xyz
  1  'x, y, z'
loop_
 _atom_site_type_symbol
 _atom_site_label
 _atom_site_symmetry_multiplicity
 _atom_site_fract_x
 _atom_site_fract_y
 _atom_site_fract_z
 _atom_site_occupancy
  Tm  Tm0  1  0.000000  0.321715  0.414938  1
  Tm  Tm1  1  0.000000  0.681007  0.588215  1
  Tm  Tm2  1  0.000000  0.821862  0.083463  1
  Tm  Tm3  1  0.000000  0.176999  0.913183  1
  Tm  Tm4  1  0.000000  0.943309  0.372183  1
  Tm  Tm5  1  0.000000  0.055972  0.627586  1
  Tm  Tm6  1  0.000000  0.442924  0.127508  1
  Tm  Tm7  1  0.000000  0.556515  0.872923  1
  Re  Re8  1  0.000000  0.862712  0.821517  1
  B  B9  1  0.500000  0.553632  0.433685  1
  B  B10  1  0.500000  0.446552  0.566594  1
  B  B11  1  0.500000  0.053416  0.066929  1
  B  B12  1  0.500000  0.947319  0.933618  1
  B  B13  1  0.500000  0.748979  0.419857  1
  B  B14  1  0.500000  0.251143  0.580013  1
  B  B15  1  0.500000  0.248643  0.080311  1
  B  B16  1  0.500000  0.750823  0.919692  1
  B  B17  1  0.500000  0.791000  0.265674  1
  B  B18  1  0.500000  0.208703  0.733540  1
  B  B19  1  0.500000  0.291430  0.234372  1
  B  B20  1  0.500000  0.707959  0.765637  1
  B  B21  1  0.500000  0.630705  0.184884  1
  B  B22  1  0.500000  0.368820  0.814715  1
  B  B23  1  0.500000  0.131316  0.315281  1
  B  B24  1  0.500000  0.869054  0.685028  1
  B  B25  1  0.500000  0.982266  0.212748  1
  B  B26  1  0.500000  0.018731  0.787204  1
  B  B27  1  0.500000  0.482072  0.287738  1
  B  B28  1  0.500000  0.517839  0.712737  1
  B  B29  1  0.500000  0.604446  0.029579  1
  B  B30  1  0.500000  0.393849  0.970941  1
  B  B31  1  0.500000  0.105864  0.470405  1
  B  B32  1  0.500000  0.894766  0.528644  1
  Os  Os33  1  0.000000  0.637186  0.321493  1
  Os  Os34  1  0.000000  0.362832  0.677955  1
  Os  Os35  1  0.000000  0.137645  0.179207  1
