# generated using pymatgen
data_DyTmB6Ir7Rh2
_symmetry_space_group_name_H-M   'P 1'
_cell_length_a   5.62676500
_cell_length_b   5.62676434
_cell_length_c   8.63016600
_cell_angle_alpha   90.00000000
_cell_angle_beta   90.00000000
_cell_angle_gamma   119.83450243
_symmetry_Int_Tables_number   1
_chemical_formula_structural   DyTmB6Ir7Rh2
_chemical_formula_sum   'Dy1 Tm1 B6 Ir7 Rh2'
_cell_volume   237.02225706
_cell_formula_units_Z   1
loop_
 _symmetry_equiv_pos_site_id
 _symmetry_equiv_pos_as_xyz
  1  'x, y, z'
loop_
 _atom_site_type_symbol
 _atom_site_label
 _atom_site_symmetry_multiplicity
 _atom_site_fract_x
 _atom_site_fract_y
 _atom_site_fract_z
 _atom_site_occupancy
  Dy  Dy0  1  0.000000  0.000000  0.702972  1
  Tm  Tm1  1  0.000000  0.000000  0.296563  1
  B  B2  1  0.667568  0.332432  0.000174  1
  B  B3  1  0.332432  0.667568  0.000174  1
  B  B4  1  0.666793  0.333207  0.667822  1
  B  B5  1  0.333207  0.666793  0.667822  1
  B  B6  1  0.333233  0.666767  0.332037  1
  B  B7  1  0.666767  0.333233  0.332037  1
  Ir  Ir8  1  0.500000  0.000000  0.835896  1
  Ir  Ir9  1  0.000000  0.500000  0.835896  1
  Ir  Ir10  1  0.500000  0.000000  0.164611  1
  Ir  Ir11  1  0.000000  0.500000  0.164611  1
  Ir  Ir12  1  0.500000  0.500000  0.499662  1
  Ir  Ir13  1  0.500000  0.000000  0.499647  1
  Ir  Ir14  1  0.000000  0.500000  0.499647  1
  Rh  Rh15  1  0.500000  0.500000  0.836092  1
  Rh  Rh16  1  0.500000  0.500000  0.164337  1
