# generated using pymatgen
data_Dy12Ho3Pa(CdCo)4
_symmetry_space_group_name_H-M   'P 1'
_cell_length_a   9.44302614
_cell_length_b   9.54370738
_cell_length_c   9.43544272
_cell_angle_alpha   60.51015608
_cell_angle_beta   59.98337715
_cell_angle_gamma   60.34486232
_symmetry_Int_Tables_number   1
_chemical_formula_structural   Dy12Ho3Pa(CdCo)4
_chemical_formula_sum   'Dy12 Ho3 Pa1 Cd4 Co4'
_cell_volume   605.05493614
_cell_formula_units_Z   1
loop_
 _symmetry_equiv_pos_site_id
 _symmetry_equiv_pos_as_xyz
  1  'x, y, z'
loop_
 _atom_site_type_symbol
 _atom_site_label
 _atom_site_symmetry_multiplicity
 _atom_site_fract_x
 _atom_site_fract_y
 _atom_site_fract_z
 _atom_site_occupancy
  Dy  Dy0  1  0.543449  0.149302  0.153217  1
  Dy  Dy1  1  0.152857  0.148621  0.545066  1
  Dy  Dy2  1  0.937801  0.936094  0.562524  1
  Dy  Dy3  1  0.308757  0.691907  0.311043  1
  Dy  Dy4  1  0.563702  0.935299  0.937509  1
  Dy  Dy5  1  0.563754  0.935902  0.562440  1
  Dy  Dy6  1  0.688290  0.691608  0.311453  1
  Dy  Dy7  1  0.561141  0.560935  0.939161  1
  Dy  Dy8  1  0.938637  0.560993  0.939354  1
  Dy  Dy9  1  0.310391  0.692108  0.687542  1
  Dy  Dy10  1  0.153837  0.149127  0.153662  1
  Dy  Dy11  1  0.311652  0.314169  0.687043  1
  Ho  Ho12  1  0.687559  0.314265  0.687185  1
  Ho  Ho13  1  0.688319  0.312371  0.311379  1
  Ho  Ho14  1  0.939520  0.560987  0.559650  1
  Pa  Pa15  1  0.164677  0.506465  0.164171  1
  Cd  Cd16  1  0.919145  0.242006  0.919370  1
  Cd  Cd17  1  0.920608  0.916629  0.920999  1
  Cd  Cd18  1  0.920232  0.915751  0.243785  1
  Cd  Cd19  1  0.241708  0.916495  0.921074  1
  Co  Co20  1  0.344256  0.374878  0.936610  1
  Co  Co21  1  0.359323  0.923480  0.357690  1
  Co  Co22  1  0.936169  0.375335  0.344066  1
  Co  Co23  1  0.344217  0.375273  0.344005  1
