# generated using pymatgen
data_TmLu3(MgIr)4
_symmetry_space_group_name_H-M   'P 1'
_cell_length_a   6.99797240
_cell_length_b   4.04229700
_cell_length_c   8.57369000
_cell_angle_alpha   90.00000000
_cell_angle_beta   90.42043102
_cell_angle_gamma   90.00000000
_symmetry_Int_Tables_number   1
_chemical_formula_structural   TmLu3(MgIr)4
_chemical_formula_sum   'Tm1 Lu3 Mg4 Ir4'
_cell_volume   242.52500876
_cell_formula_units_Z   1
loop_
 _symmetry_equiv_pos_site_id
 _symmetry_equiv_pos_as_xyz
  1  'x, y, z'
loop_
 _atom_site_type_symbol
 _atom_site_label
 _atom_site_symmetry_multiplicity
 _atom_site_fract_x
 _atom_site_fract_y
 _atom_site_fract_z
 _atom_site_occupancy
  Tm  Tm0  1  0.540686  0.750000  0.672160  1
  Lu  Lu1  1  0.959255  0.250000  0.171827  1
  Lu  Lu2  1  0.458762  0.250000  0.327601  1
  Lu  Lu3  1  0.041264  0.750000  0.828920  1
  Mg  Mg4  1  0.865020  0.250000  0.557812  1
  Mg  Mg5  1  0.365205  0.250000  0.941708  1
  Mg  Mg6  1  0.134471  0.750000  0.441205  1
  Mg  Mg7  1  0.634910  0.750000  0.058644  1
  Ir  Ir8  1  0.752767  0.250000  0.867072  1
  Ir  Ir9  1  0.249570  0.250000  0.633639  1
  Ir  Ir10  1  0.249236  0.750000  0.133762  1
  Ir  Ir11  1  0.748855  0.750000  0.365651  1
