# generated using pymatgen
data_TbHo7V4O20
_symmetry_space_group_name_H-M   'P 1'
_cell_length_a   3.71660100
_cell_length_b   10.33012236
_cell_length_c   11.24561445
_cell_angle_alpha   89.94152592
_cell_angle_beta   90.00000000
_cell_angle_gamma   90.00000000
_symmetry_Int_Tables_number   1
_chemical_formula_structural   TbHo7V4O20
_chemical_formula_sum   'Tb1 Ho7 V4 O20'
_cell_volume   431.75201070
_cell_formula_units_Z   1
loop_
 _symmetry_equiv_pos_site_id
 _symmetry_equiv_pos_as_xyz
  1  'x, y, z'
loop_
 _atom_site_type_symbol
 _atom_site_label
 _atom_site_symmetry_multiplicity
 _atom_site_fract_x
 _atom_site_fract_y
 _atom_site_fract_z
 _atom_site_occupancy
  Tb  Tb0  1  0.250000  0.121084  0.273166  1
  Ho  Ho1  1  0.250000  0.136848  0.944691  1
  Ho  Ho2  1  0.750000  0.363498  0.445625  1
  Ho  Ho3  1  0.750000  0.377696  0.772760  1
  Ho  Ho4  1  0.250000  0.622149  0.227224  1
  Ho  Ho5  1  0.250000  0.636663  0.555471  1
  Ho  Ho6  1  0.750000  0.862386  0.053987  1
  Ho  Ho7  1  0.750000  0.878001  0.727283  1
  V  V8  1  0.250000  0.168295  0.617423  1
  V  V9  1  0.750000  0.332351  0.116426  1
  V  V10  1  0.250000  0.667795  0.882835  1
  V  V11  1  0.750000  0.831419  0.383451  1
  O  O12  1  0.750000  0.004409  0.893952  1
  O  O13  1  0.250000  0.004351  0.652646  1
  O  O14  1  0.250000  0.228042  0.456874  1
  O  O15  1  0.750000  0.232629  0.615051  1
  O  O16  1  0.750000  0.246986  0.268546  1
  O  O17  1  0.250000  0.255279  0.768423  1
  O  O18  1  0.250000  0.267660  0.113639  1
  O  O19  1  0.750000  0.273066  0.955460  1
  O  O20  1  0.750000  0.496144  0.151735  1
  O  O21  1  0.250000  0.495907  0.394579  1
  O  O22  1  0.750000  0.504601  0.605749  1
  O  O23  1  0.250000  0.504327  0.846949  1
  O  O24  1  0.250000  0.726104  0.043978  1
  O  O25  1  0.750000  0.732464  0.885133  1
  O  O26  1  0.750000  0.745057  0.231799  1
  O  O27  1  0.250000  0.755375  0.731763  1
  O  O28  1  0.250000  0.766926  0.385598  1
  O  O29  1  0.750000  0.772811  0.544361  1
  O  O30  1  0.750000  0.995424  0.349406  1
  O  O31  1  0.250000  0.994254  0.104016  1
