# generated using pymatgen
data_Np3Sn3IrPt2
_symmetry_space_group_name_H-M   'P 1'
_cell_length_a   7.53327882
_cell_length_b   7.52995320
_cell_length_c   4.05870700
_cell_angle_alpha   90.00000000
_cell_angle_beta   90.00000000
_cell_angle_gamma   119.96329299
_symmetry_Int_Tables_number   1
_chemical_formula_structural   Np3Sn3IrPt2
_chemical_formula_sum   'Np3 Sn3 Ir1 Pt2'
_cell_volume   199.45970425
_cell_formula_units_Z   1
loop_
 _symmetry_equiv_pos_site_id
 _symmetry_equiv_pos_as_xyz
  1  'x, y, z'
loop_
 _atom_site_type_symbol
 _atom_site_label
 _atom_site_symmetry_multiplicity
 _atom_site_fract_x
 _atom_site_fract_y
 _atom_site_fract_z
 _atom_site_occupancy
  Np  Np0  1  0.990302  0.579184  0.500000  1
  Np  Np1  1  0.588707  0.009735  0.500000  1
  Np  Np2  1  0.421272  0.411640  0.500000  1
  Sn  Sn3  1  0.998833  0.254519  0.000000  1
  Sn  Sn4  1  0.745523  0.744153  0.000000  1
  Sn  Sn5  1  0.255898  0.001414  0.000000  1
  Ir  Ir6  1  0.666425  0.333136  0.000000  1
  Pt  Pt7  1  0.333139  0.666383  0.000000  1
  Pt  Pt8  1  0.999901  0.999836  0.500000  1
