# generated using pymatgen
data_YbPr2Pa(Al3Ir)6
_symmetry_space_group_name_H-M   'P 1'
_cell_length_a   7.60514193
_cell_length_b   7.60759989
_cell_length_c   9.51875400
_cell_angle_alpha   90.00000000
_cell_angle_beta   90.00000000
_cell_angle_gamma   119.39521948
_symmetry_Int_Tables_number   1
_chemical_formula_structural   YbPr2Pa(Al3Ir)6
_chemical_formula_sum   'Yb1 Pr2 Pa1 Al18 Ir6'
_cell_volume   479.82211097
_cell_formula_units_Z   1
loop_
 _symmetry_equiv_pos_site_id
 _symmetry_equiv_pos_as_xyz
  1  'x, y, z'
loop_
 _atom_site_type_symbol
 _atom_site_label
 _atom_site_symmetry_multiplicity
 _atom_site_fract_x
 _atom_site_fract_y
 _atom_site_fract_z
 _atom_site_occupancy
  Yb  Yb0  1  0.673704  0.993594  0.250000  1
  Pr  Pr1  1  0.003365  0.328986  0.750000  1
  Pr  Pr2  1  0.329886  0.004487  0.750000  1
  Pa  Pa3  1  0.996584  0.673679  0.250000  1
  Al  Al4  1  0.133213  0.130235  0.250000  1
  Al  Al5  1  0.868790  0.870893  0.750000  1
  Al  Al6  1  0.999807  0.332199  0.079085  1
  Al  Al7  1  0.996392  0.664227  0.926461  1
  Al  Al8  1  0.996392  0.664227  0.573539  1
  Al  Al9  1  0.340866  0.003978  0.421255  1
  Al  Al10  1  0.999807  0.332199  0.420915  1
  Al  Al11  1  0.664947  0.997243  0.568017  1
  Al  Al12  1  0.664947  0.997243  0.931983  1
  Al  Al13  1  0.340866  0.003978  0.078745  1
  Al  Al14  1  0.332998  0.333382  0.545335  1
  Al  Al15  1  0.663473  0.666199  0.447517  1
  Al  Al16  1  0.663473  0.666199  0.052483  1
  Al  Al17  1  0.332998  0.333382  0.954665  1
  Al  Al18  1  0.338450  0.548171  0.250000  1
  Al  Al19  1  0.659574  0.453404  0.750000  1
  Al  Al20  1  0.550048  0.345404  0.250000  1
  Al  Al21  1  0.453740  0.662267  0.750000  1
  Ir  Ir22  1  0.673484  0.331288  0.003278  1
  Ir  Ir23  1  0.325858  0.670926  0.003757  1
  Ir  Ir24  1  0.325858  0.670926  0.496243  1
  Ir  Ir25  1  0.673484  0.331288  0.496722  1
  Ir  Ir26  1  0.998498  0.995000  0.005613  1
  Ir  Ir27  1  0.998498  0.995000  0.494387  1
