# generated using pymatgen
data_La2Eu2Si10NiPt5
_symmetry_space_group_name_H-M   'P 1'
_cell_length_a   8.29523041
_cell_length_b   8.30641086
_cell_length_c   8.30641074
_cell_angle_alpha   137.46200512
_cell_angle_beta   105.27954216
_cell_angle_gamma   89.99982179
_symmetry_Int_Tables_number   1
_chemical_formula_structural   La2Eu2Si10NiPt5
_chemical_formula_sum   'La2 Eu2 Si10 Ni1 Pt5'
_cell_volume   356.34254656
_cell_formula_units_Z   1
loop_
 _symmetry_equiv_pos_site_id
 _symmetry_equiv_pos_as_xyz
  1  'x, y, z'
loop_
 _atom_site_type_symbol
 _atom_site_label
 _atom_site_symmetry_multiplicity
 _atom_site_fract_x
 _atom_site_fract_y
 _atom_site_fract_z
 _atom_site_occupancy
  La  La0  1  0.107111  0.873896  0.237832  1
  La  La1  1  0.892889  0.130721  0.766785  1
  Eu  Eu2  1  0.636347  0.369406  0.264546  1
  Eu  Eu3  1  0.363653  0.628199  0.733059  1
  Si  Si4  1  0.000000  0.746609  0.746609  1
  Si  Si5  1  0.000000  0.254049  0.254049  1
  Si  Si6  1  0.274518  0.023120  0.752486  1
  Si  Si7  1  0.725482  0.477969  0.748602  1
  Si  Si8  1  0.726718  0.976798  0.247378  1
  Si  Si9  1  0.273282  0.520660  0.250081  1
  Si  Si10  1  0.750955  0.617339  0.155431  1
  Si  Si11  1  0.249045  0.404476  0.866384  1
  Si  Si12  1  0.464201  0.098944  0.341801  1
  Si  Si13  1  0.535799  0.877600  0.634743  1
  Ni  Ni14  1  0.500000  0.754281  0.254281  1
  Pt  Pt15  1  0.500000  0.245442  0.745442  1
  Pt  Pt16  1  0.023789  0.637836  0.388416  1
  Pt  Pt17  1  0.976211  0.364628  0.614048  1
  Pt  Pt18  1  0.247235  0.134729  0.110534  1
  Pt  Pt19  1  0.752765  0.863299  0.887494  1
