# generated using pymatgen
data_Dy4Er4ReRu3C8
_symmetry_space_group_name_H-M   'P 1'
_cell_length_a   5.08104800
_cell_length_b   6.48577626
_cell_length_c   9.76504038
_cell_angle_alpha   89.96770361
_cell_angle_beta   90.00000000
_cell_angle_gamma   90.00000000
_symmetry_Int_Tables_number   1
_chemical_formula_structural   Dy4Er4ReRu3C8
_chemical_formula_sum   'Dy4 Er4 Re1 Ru3 C8'
_cell_volume   321.80236765
_cell_formula_units_Z   1
loop_
 _symmetry_equiv_pos_site_id
 _symmetry_equiv_pos_as_xyz
  1  'x, y, z'
loop_
 _atom_site_type_symbol
 _atom_site_label
 _atom_site_symmetry_multiplicity
 _atom_site_fract_x
 _atom_site_fract_y
 _atom_site_fract_z
 _atom_site_occupancy
  Dy  Dy0  1  0.250000  0.470054  0.215851  1
  Dy  Dy1  1  0.250000  0.968628  0.283218  1
  Dy  Dy2  1  0.750000  0.530532  0.785520  1
  Dy  Dy3  1  0.750000  0.029737  0.715268  1
  Er  Er4  1  0.250000  0.825501  0.944011  1
  Er  Er5  1  0.250000  0.324514  0.555680  1
  Er  Er6  1  0.750000  0.175284  0.055670  1
  Er  Er7  1  0.750000  0.679916  0.442849  1
  Re  Re8  1  0.750000  0.220327  0.366435  1
  Ru  Ru9  1  0.250000  0.280463  0.864827  1
  Ru  Ru10  1  0.250000  0.779999  0.634988  1
  Ru  Ru11  1  0.750000  0.721361  0.132708  1
  C  C12  1  0.250000  0.045219  0.741762  1
  C  C13  1  0.250000  0.545076  0.757955  1
  C  C14  1  0.750000  0.954904  0.260507  1
  C  C15  1  0.750000  0.453963  0.242294  1
  C  C16  1  0.250000  0.671581  0.447652  1
  C  C17  1  0.250000  0.171162  0.052383  1
  C  C18  1  0.750000  0.325135  0.553588  1
  C  C19  1  0.750000  0.826643  0.946835  1
