# generated using pymatgen
data_Mn7Cd3Fe4(P2O7)8
_symmetry_space_group_name_H-M   'P 1'
_cell_length_a   6.62575442
_cell_length_b   6.62889711
_cell_length_c   24.41387055
_cell_angle_alpha   90.05040911
_cell_angle_beta   90.00882315
_cell_angle_gamma   97.56835089
_symmetry_Int_Tables_number   1
_chemical_formula_structural   Mn7Cd3Fe4(P2O7)8
_chemical_formula_sum   'Mn7 Cd3 Fe4 P16 O56'
_cell_volume   1062.95067033
_cell_formula_units_Z   1
loop_
 _symmetry_equiv_pos_site_id
 _symmetry_equiv_pos_as_xyz
  1  'x, y, z'
loop_
 _atom_site_type_symbol
 _atom_site_label
 _atom_site_symmetry_multiplicity
 _atom_site_fract_x
 _atom_site_fract_y
 _atom_site_fract_z
 _atom_site_occupancy
  Mn  Mn0  1  0.697095  0.697873  0.500826  1
  Mn  Mn1  1  0.302895  0.303143  0.999495  1
  Mn  Mn2  1  0.077919  0.079337  0.500561  1
  Mn  Mn3  1  0.922201  0.921964  0.999706  1
  Mn  Mn4  1  0.709710  0.294416  0.749168  1
  Mn  Mn5  1  0.296094  0.704094  0.250167  1
  Mn  Mn6  1  0.040194  0.330148  0.639520  1
  Cd  Cd7  1  0.960797  0.669663  0.138890  1
  Cd  Cd8  1  0.667001  0.961301  0.861236  1
  Cd  Cd9  1  0.330223  0.039203  0.361608  1
  Fe  Fe10  1  0.265496  0.579695  0.878742  1
  Fe  Fe11  1  0.732541  0.420201  0.379989  1
  Fe  Fe12  1  0.419058  0.730783  0.621099  1
  Fe  Fe13  1  0.579911  0.266911  0.120098  1
  P  P14  1  0.207830  0.302973  0.769689  1
  P  P15  1  0.794280  0.697436  0.271513  1
  P  P16  1  0.697617  0.790660  0.729533  1
  P  P17  1  0.302624  0.205685  0.228706  1
  P  P18  1  0.748623  0.475390  0.883411  1
  P  P19  1  0.250108  0.525013  0.384262  1
  P  P20  1  0.525953  0.251794  0.616754  1
  P  P21  1  0.474984  0.749432  0.115868  1
  P  P22  1  0.194929  0.603500  0.505029  1
  P  P23  1  0.803916  0.396649  0.003898  1
  P  P24  1  0.396415  0.803989  0.995234  1
  P  P25  1  0.601502  0.196512  0.495861  1
  P  P26  1  0.929402  0.830388  0.624047  1
  P  P27  1  0.072607  0.170025  0.122887  1
  P  P28  1  0.168659  0.073546  0.875445  1
  P  P29  1  0.829564  0.927535  0.377346  1
  O  O30  1  0.245258  0.501056  0.803481  1
  O  O31  1  0.750033  0.499603  0.305086  1
  O  O32  1  0.500070  0.743691  0.695817  1
  O  O33  1  0.500491  0.249436  0.195013  1
  O  O34  1  0.010448  0.035525  0.598154  1
  O  O35  1  0.995529  0.969697  0.094090  1
  O  O36  1  0.969035  0.997093  0.904517  1
  O  O37  1  0.029681  0.004854  0.406201  1
  O  O38  1  0.035307  0.307527  0.727907  1
  O  O39  1  0.972049  0.691411  0.231858  1
  O  O40  1  0.690423  0.970472  0.768468  1
  O  O41  1  0.308570  0.028282  0.268416  1
  O  O42  1  0.763331  0.608460  0.757205  1
  O  O43  1  0.237132  0.389490  0.255605  1
  O  O44  1  0.394760  0.237545  0.744563  1
  O  O45  1  0.610734  0.763066  0.244505  1
  O  O46  1  0.695998  0.384037  0.944241  1
  O  O47  1  0.301758  0.615250  0.445264  1
  O  O48  1  0.606914  0.306283  0.555021  1
  O  O49  1  0.383732  0.697133  0.055011  1
  O  O50  1  0.387231  0.689826  0.538560  1
  O  O51  1  0.612203  0.308995  0.037422  1
  O  O52  1  0.308711  0.612301  0.961689  1
  O  O53  1  0.690198  0.387905  0.462411  1
  O  O54  1  0.092930  0.680694  0.626569  1
  O  O55  1  0.904538  0.313599  0.126002  1
  O  O56  1  0.311876  0.905096  0.872549  1
  O  O57  1  0.686062  0.095551  0.374144  1
  O  O58  1  0.730276  0.729287  0.596263  1
  O  O59  1  0.271374  0.275907  0.096086  1
  O  O60  1  0.275220  0.272158  0.902267  1
  O  O61  1  0.723599  0.729040  0.404197  1
  O  O62  1  0.966878  0.579344  0.885765  1
  O  O63  1  0.031599  0.421989  0.386011  1
  O  O64  1  0.430537  0.030657  0.615891  1
  O  O65  1  0.577965  0.967877  0.113936  1
  O  O66  1  0.367923  0.400895  0.626721  1
  O  O67  1  0.625275  0.592344  0.124716  1
  O  O68  1  0.590480  0.624630  0.874536  1
  O  O69  1  0.407339  0.375041  0.375259  1
  O  O70  1  0.031919  0.747731  0.504628  1
  O  O71  1  0.968367  0.254095  0.003248  1
  O  O72  1  0.254092  0.968671  0.995696  1
  O  O73  1  0.745606  0.033513  0.497636  1
  O  O74  1  0.107922  0.389992  0.521412  1
  O  O75  1  0.889656  0.610573  0.020237  1
  O  O76  1  0.610609  0.889573  0.978989  1
  O  O77  1  0.388762  0.108595  0.478691  1
  O  O78  1  0.112454  0.126283  0.813785  1
  O  O79  1  0.885942  0.874444  0.315878  1
  O  O80  1  0.875146  0.881215  0.685795  1
  O  O81  1  0.125367  0.113953  0.184379  1
  O  O82  1  0.714038  0.299748  0.653059  1
  O  O83  1  0.295537  0.708910  0.155091  1
  O  O84  1  0.710059  0.295609  0.844261  1
  O  O85  1  0.290911  0.704787  0.345209  1
