# generated using pymatgen
data_LiTa6(CS2)3
_symmetry_space_group_name_H-M   'P 1'
_cell_length_a   5.72077434
_cell_length_b   5.72077383
_cell_length_c   9.24748547
_cell_angle_alpha   83.85516299
_cell_angle_beta   83.85516668
_cell_angle_gamma   119.51649935
_symmetry_Int_Tables_number   1
_chemical_formula_structural   LiTa6(CS2)3
_chemical_formula_sum   'Li1 Ta6 C3 S6'
_cell_volume   257.34884176
_cell_formula_units_Z   1
loop_
 _symmetry_equiv_pos_site_id
 _symmetry_equiv_pos_as_xyz
  1  'x, y, z'
loop_
 _atom_site_type_symbol
 _atom_site_label
 _atom_site_symmetry_multiplicity
 _atom_site_fract_x
 _atom_site_fract_y
 _atom_site_fract_z
 _atom_site_occupancy
  Li  Li0  1  0.000000  0.000000  0.000000  1
  Ta  Ta1  1  0.124796  0.124796  0.627996  1
  Ta  Ta2  1  0.458053  0.791375  0.628815  1
  Ta  Ta3  1  0.791375  0.458053  0.628815  1
  Ta  Ta4  1  0.208625  0.541947  0.371185  1
  Ta  Ta5  1  0.541947  0.208625  0.371185  1
  Ta  Ta6  1  0.875204  0.875204  0.372004  1
  C  C7  1  0.166889  0.833111  0.500000  1
  C  C8  1  0.500000  0.500000  0.500000  1
  C  C9  1  0.833111  0.166889  0.500000  1
  S  S10  1  0.270996  0.270996  0.190711  1
  S  S11  1  0.601725  0.936627  0.190869  1
  S  S12  1  0.936627  0.601725  0.190869  1
  S  S13  1  0.063373  0.398275  0.809131  1
  S  S14  1  0.398275  0.063373  0.809131  1
  S  S15  1  0.729004  0.729004  0.809289  1
