# generated using pymatgen
data_Y7ErRe2(B12Os)2
_symmetry_space_group_name_H-M   'P 1'
_cell_length_a   3.67117600
_cell_length_b   9.17213048
_cell_length_c   11.56169501
_cell_angle_alpha   90.14561985
_cell_angle_beta   90.00000000
_cell_angle_gamma   90.00000000
_symmetry_Int_Tables_number   1
_chemical_formula_structural   Y7ErRe2(B12Os)2
_chemical_formula_sum   'Y7 Er1 Re2 B24 Os2'
_cell_volume   389.30997902
_cell_formula_units_Z   1
loop_
 _symmetry_equiv_pos_site_id
 _symmetry_equiv_pos_as_xyz
  1  'x, y, z'
loop_
 _atom_site_type_symbol
 _atom_site_label
 _atom_site_symmetry_multiplicity
 _atom_site_fract_x
 _atom_site_fract_y
 _atom_site_fract_z
 _atom_site_occupancy
  Y  Y0  1  0.000000  0.320959  0.412488  1
  Y  Y1  1  0.000000  0.678985  0.587700  1
  Y  Y2  1  0.000000  0.824447  0.084566  1
  Y  Y3  1  0.000000  0.175546  0.915208  1
  Y  Y4  1  0.000000  0.943352  0.370654  1
  Y  Y5  1  0.000000  0.056635  0.629471  1
  Y  Y6  1  0.000000  0.442705  0.128420  1
  Er  Er7  1  0.000000  0.557612  0.870765  1
  Re  Re8  1  0.000000  0.138476  0.179423  1
  Re  Re9  1  0.000000  0.860430  0.820596  1
  B  B10  1  0.500000  0.553867  0.432871  1
  B  B11  1  0.500000  0.446179  0.567312  1
  B  B12  1  0.500000  0.053232  0.067063  1
  B  B13  1  0.500000  0.946509  0.932826  1
  B  B14  1  0.500000  0.748306  0.418528  1
  B  B15  1  0.500000  0.251814  0.581539  1
  B  B16  1  0.500000  0.248439  0.081200  1
  B  B17  1  0.500000  0.750818  0.918616  1
  B  B18  1  0.500000  0.790347  0.265918  1
  B  B19  1  0.500000  0.209899  0.734136  1
  B  B20  1  0.500000  0.291357  0.234540  1
  B  B21  1  0.500000  0.708060  0.765742  1
  B  B22  1  0.500000  0.631011  0.186321  1
  B  B23  1  0.500000  0.369656  0.813845  1
  B  B24  1  0.500000  0.131480  0.314464  1
  B  B25  1  0.500000  0.868357  0.685665  1
  B  B26  1  0.500000  0.983108  0.212299  1
  B  B27  1  0.500000  0.016772  0.787740  1
  B  B28  1  0.500000  0.483423  0.288149  1
  B  B29  1  0.500000  0.516844  0.712371  1
  B  B30  1  0.500000  0.603178  0.028165  1
  B  B31  1  0.500000  0.397419  0.970595  1
  B  B32  1  0.500000  0.103915  0.471372  1
  B  B33  1  0.500000  0.896088  0.528686  1
  Os  Os34  1  0.000000  0.637408  0.321891  1
  Os  Os35  1  0.000000  0.363367  0.678854  1
