# generated using pymatgen
data_Tb5Y2RhI12
_symmetry_space_group_name_H-M   'P 1'
_cell_length_a   9.83037878
_cell_length_b   9.82641032
_cell_length_c   9.81761469
_cell_angle_alpha   106.90450438
_cell_angle_beta   106.93794462
_cell_angle_gamma   106.96342310
_symmetry_Int_Tables_number   1
_chemical_formula_structural   Tb5Y2RhI12
_chemical_formula_sum   'Tb5 Y2 Rh1 I12'
_cell_volume   791.18931800
_cell_formula_units_Z   1
loop_
 _symmetry_equiv_pos_site_id
 _symmetry_equiv_pos_as_xyz
  1  'x, y, z'
loop_
 _atom_site_type_symbol
 _atom_site_label
 _atom_site_symmetry_multiplicity
 _atom_site_fract_x
 _atom_site_fract_y
 _atom_site_fract_z
 _atom_site_occupancy
  Tb  Tb0  1  0.976769  0.703748  0.904958  1
  Tb  Tb1  1  0.703787  0.904994  0.976647  1
  Tb  Tb2  1  0.095129  0.023115  0.296570  1
  Tb  Tb3  1  0.023166  0.296221  0.094788  1
  Tb  Tb4  1  0.296149  0.095004  0.023032  1
  Y  Y5  1  0.499971  0.499991  0.499929  1
  Y  Y6  1  0.904946  0.976825  0.703236  1
  Rh  Rh7  1  0.000068  0.999932  0.000519  1
  I  I8  1  0.536138  0.837499  0.612799  1
  I  I9  1  0.837361  0.613120  0.535749  1
  I  I10  1  0.612641  0.535609  0.836893  1
  I  I11  1  0.464405  0.162899  0.387228  1
  I  I12  1  0.162832  0.387294  0.464306  1
  I  I13  1  0.387331  0.464392  0.162950  1
  I  I14  1  0.676194  0.224625  0.070663  1
  I  I15  1  0.224037  0.070478  0.676198  1
  I  I16  1  0.070663  0.676213  0.224528  1
  I  I17  1  0.323755  0.775314  0.929233  1
  I  I18  1  0.775477  0.929418  0.324589  1
  I  I19  1  0.929180  0.323309  0.775185  1
