# generated using pymatgen
data_LiTbB6Os
_symmetry_space_group_name_H-M   'P 1'
_cell_length_a   3.52255100
_cell_length_b   8.86686000
_cell_length_c   11.23996800
_cell_angle_alpha   90.00000000
_cell_angle_beta   90.00000000
_cell_angle_gamma   90.00000000
_symmetry_Int_Tables_number   1
_chemical_formula_structural   LiTbB6Os
_chemical_formula_sum   'Li4 Tb4 B24 Os4'
_cell_volume   351.06878465
_cell_formula_units_Z   4
loop_
 _symmetry_equiv_pos_site_id
 _symmetry_equiv_pos_as_xyz
  1  'x, y, z'
loop_
 _atom_site_type_symbol
 _atom_site_label
 _atom_site_symmetry_multiplicity
 _atom_site_fract_x
 _atom_site_fract_y
 _atom_site_fract_z
 _atom_site_occupancy
  Li  Li0  1  0.000000  0.944199  0.371801  1
  Li  Li1  1  0.000000  0.055801  0.628199  1
  Li  Li2  1  0.000000  0.444199  0.128199  1
  Li  Li3  1  0.000000  0.555801  0.871801  1
  Tb  Tb4  1  0.000000  0.320804  0.413442  1
  Tb  Tb5  1  0.000000  0.679196  0.586558  1
  Tb  Tb6  1  0.000000  0.820804  0.086558  1
  Tb  Tb7  1  0.000000  0.179196  0.913442  1
  B  B8  1  0.500000  0.554385  0.432258  1
  B  B9  1  0.500000  0.445615  0.567742  1
  B  B10  1  0.500000  0.054385  0.067742  1
  B  B11  1  0.500000  0.945615  0.932258  1
  B  B12  1  0.500000  0.758846  0.417192  1
  B  B13  1  0.500000  0.241154  0.582808  1
  B  B14  1  0.500000  0.258846  0.082808  1
  B  B15  1  0.500000  0.741154  0.917192  1
  B  B16  1  0.500000  0.794572  0.264152  1
  B  B17  1  0.500000  0.205428  0.735847  1
  B  B18  1  0.500000  0.294572  0.235848  1
  B  B19  1  0.500000  0.705428  0.764153  1
  B  B20  1  0.500000  0.624914  0.181719  1
  B  B21  1  0.500000  0.375086  0.818281  1
  B  B22  1  0.500000  0.124914  0.318281  1
  B  B23  1  0.500000  0.875086  0.681719  1
  B  B24  1  0.500000  0.978897  0.214315  1
  B  B25  1  0.500000  0.021103  0.785685  1
  B  B26  1  0.500000  0.478897  0.285685  1
  B  B27  1  0.500000  0.521103  0.714315  1
  B  B28  1  0.500000  0.592261  0.025499  1
  B  B29  1  0.500000  0.407739  0.974501  1
  B  B30  1  0.500000  0.092261  0.474501  1
  B  B31  1  0.500000  0.907739  0.525499  1
  Os  Os32  1  0.000000  0.640945  0.318480  1
  Os  Os33  1  0.000000  0.359055  0.681520  1
  Os  Os34  1  0.000000  0.140945  0.181520  1
  Os  Os35  1  0.000000  0.859055  0.818480  1
