# generated using pymatgen
data_TbYRh6
_symmetry_space_group_name_H-M   'P 1'
_cell_length_a   5.27196600
_cell_length_b   5.27198637
_cell_length_c   17.56699500
_cell_angle_alpha   90.00004151
_cell_angle_beta   90.00000000
_cell_angle_gamma   119.99987221
_symmetry_Int_Tables_number   1
_chemical_formula_structural   TbYRh6
_chemical_formula_sum   'Tb3 Y3 Rh18'
_cell_volume   422.83949722
_cell_formula_units_Z   3
loop_
 _symmetry_equiv_pos_site_id
 _symmetry_equiv_pos_as_xyz
  1  'x, y, z'
loop_
 _atom_site_type_symbol
 _atom_site_label
 _atom_site_symmetry_multiplicity
 _atom_site_fract_x
 _atom_site_fract_y
 _atom_site_fract_z
 _atom_site_occupancy
  Tb  Tb0  1  0.666668  0.333334  0.041845  1
  Tb  Tb1  1  0.666672  0.333344  0.250007  1
  Tb  Tb2  1  0.333328  0.666657  0.750002  1
  Y  Y3  1  0.666667  0.333333  0.458154  1
  Y  Y4  1  0.333334  0.666667  0.541850  1
  Y  Y5  1  0.333333  0.666666  0.958153  1
  Rh  Rh6  1  0.000000  0.000000  0.999988  1
  Rh  Rh7  1  0.167234  0.334467  0.125978  1
  Rh  Rh8  1  0.167238  0.832774  0.125981  1
  Rh  Rh9  1  0.665535  0.832774  0.125981  1
  Rh  Rh10  1  0.000001  0.000002  0.250014  1
  Rh  Rh11  1  0.333331  0.666662  0.250012  1
  Rh  Rh12  1  0.167228  0.832784  0.374013  1
  Rh  Rh13  1  0.665556  0.832784  0.374013  1
  Rh  Rh14  1  0.167223  0.334446  0.374016  1
  Rh  Rh15  1  0.999999  0.999998  0.499999  1
  Rh  Rh16  1  0.832781  0.665561  0.625993  1
  Rh  Rh17  1  0.334437  0.167214  0.625996  1
  Rh  Rh18  1  0.832778  0.167214  0.625996  1
  Rh  Rh19  1  0.999999  0.999998  0.749995  1
  Rh  Rh20  1  0.666670  0.333339  0.750006  1
  Rh  Rh21  1  0.334456  0.167223  0.874000  1
  Rh  Rh22  1  0.832768  0.167223  0.874000  1
  Rh  Rh23  1  0.832772  0.665543  0.874003  1
