# generated using pymatgen
data_CdSi5Bi2AsPd20
_symmetry_space_group_name_H-M   'P 1'
_cell_length_a   8.69686560
_cell_length_b   8.75364365
_cell_length_c   8.75364324
_cell_angle_alpha   59.57134711
_cell_angle_beta   60.21433360
_cell_angle_gamma   60.21433451
_symmetry_Int_Tables_number   1
_chemical_formula_structural   CdSi5Bi2AsPd20
_chemical_formula_sum   'Cd1 Si5 Bi2 As1 Pd20'
_cell_volume   471.18256059
_cell_formula_units_Z   1
loop_
 _symmetry_equiv_pos_site_id
 _symmetry_equiv_pos_as_xyz
  1  'x, y, z'
loop_
 _atom_site_type_symbol
 _atom_site_label
 _atom_site_symmetry_multiplicity
 _atom_site_fract_x
 _atom_site_fract_y
 _atom_site_fract_z
 _atom_site_occupancy
  Cd  Cd0  1  0.001539  0.998461  0.998461  1
  Si  Si1  1  0.269792  0.730208  0.730208  1
  Si  Si2  1  0.269416  0.730584  0.269501  1
  Si  Si3  1  0.730499  0.269501  0.730584  1
  Si  Si4  1  0.269416  0.269501  0.730584  1
  Si  Si5  1  0.730499  0.730584  0.269501  1
  Bi  Bi6  1  0.249776  0.250224  0.250224  1
  Bi  Bi7  1  0.749776  0.750224  0.750224  1
  As  As8  1  0.731963  0.268037  0.268037  1
  Pd  Pd9  1  0.375937  0.385684  0.385684  1
  Pd  Pd10  1  0.616806  0.617773  0.617773  1
  Pd  Pd11  1  0.382227  0.383194  0.852351  1
  Pd  Pd12  1  0.382227  0.852351  0.383194  1
  Pd  Pd13  1  0.614316  0.624063  0.147306  1
  Pd  Pd14  1  0.614316  0.147306  0.624063  1
  Pd  Pd15  1  0.852694  0.385684  0.385684  1
  Pd  Pd16  1  0.147649  0.617773  0.617773  1
  Pd  Pd17  1  0.343056  0.998821  0.998821  1
  Pd  Pd18  1  0.659303  0.998821  0.998821  1
  Pd  Pd19  1  0.001179  0.340697  0.656944  1
  Pd  Pd20  1  0.001179  0.656944  0.340697  1
  Pd  Pd21  1  0.006751  0.343729  0.993249  1
  Pd  Pd22  1  0.656271  0.993249  0.343729  1
  Pd  Pd23  1  0.999369  0.659174  0.000631  1
  Pd  Pd24  1  0.340826  0.000631  0.659174  1
  Pd  Pd25  1  0.006751  0.993249  0.343729  1
  Pd  Pd26  1  0.999369  0.000631  0.659174  1
  Pd  Pd27  1  0.656271  0.343729  0.993249  1
  Pd  Pd28  1  0.340826  0.659174  0.000631  1
