# generated using pymatgen
data_SrNdMnFeO6
_symmetry_space_group_name_H-M   'P 1'
_cell_length_a   5.51003476
_cell_length_b   7.77407794
_cell_length_c   5.53523500
_cell_angle_alpha   89.99995605
_cell_angle_beta   89.99991716
_cell_angle_gamma   90.10670749
_symmetry_Int_Tables_number   1
_chemical_formula_structural   SrNdMnFeO6
_chemical_formula_sum   'Sr2 Nd2 Mn2 Fe2 O12'
_cell_volume   237.10381377
_cell_formula_units_Z   2
loop_
 _symmetry_equiv_pos_site_id
 _symmetry_equiv_pos_as_xyz
  1  'x, y, z'
loop_
 _atom_site_type_symbol
 _atom_site_label
 _atom_site_symmetry_multiplicity
 _atom_site_fract_x
 _atom_site_fract_y
 _atom_site_fract_z
 _atom_site_occupancy
  Sr  Sr0  1  0.996538  0.250312  0.023197  1
  Sr  Sr1  1  0.496538  0.750311  0.476802  1
  Nd  Nd2  1  0.510782  0.250163  0.539061  1
  Nd  Nd3  1  0.010781  0.750164  0.960938  1
  Mn  Mn4  1  0.500095  0.000094  0.001766  1
  Mn  Mn5  1  0.000094  0.500094  0.498234  1
  Fe  Fe6  1  0.000562  0.000303  0.495115  1
  Fe  Fe7  1  0.500561  0.500303  0.004885  1
  O  O8  1  0.578084  0.754287  0.006820  1
  O  O9  1  0.078084  0.254287  0.493179  1
  O  O10  1  0.219897  0.961301  0.211039  1
  O  O11  1  0.719898  0.461302  0.288960  1
  O  O12  1  0.209575  0.538740  0.219193  1
  O  O13  1  0.709574  0.038739  0.280807  1
  O  O14  1  0.945715  0.745662  0.517657  1
  O  O15  1  0.445716  0.245662  0.982345  1
  O  O16  1  0.264973  0.532554  0.726445  1
  O  O17  1  0.764974  0.032554  0.773556  1
  O  O18  1  0.273779  0.966585  0.734199  1
  O  O19  1  0.773776  0.466583  0.765799  1
