# generated using pymatgen
data_La4Pr12Cd4Ir3Au
_symmetry_space_group_name_H-M   'P 1'
_cell_length_a   10.07128254
_cell_length_b   10.07128073
_cell_length_c   10.07128105
_cell_angle_alpha   60.17486015
_cell_angle_beta   60.17486480
_cell_angle_gamma   60.17485917
_symmetry_Int_Tables_number   1
_chemical_formula_structural   La4Pr12Cd4Ir3Au
_chemical_formula_sum   'La4 Pr12 Cd4 Ir3 Au1'
_cell_volume   725.19645899
_cell_formula_units_Z   1
loop_
 _symmetry_equiv_pos_site_id
 _symmetry_equiv_pos_as_xyz
  1  'x, y, z'
loop_
 _atom_site_type_symbol
 _atom_site_label
 _atom_site_symmetry_multiplicity
 _atom_site_fract_x
 _atom_site_fract_y
 _atom_site_fract_z
 _atom_site_occupancy
  La  La0  1  0.345391  0.345391  0.345391  1
  La  La1  1  0.356156  0.356156  0.946499  1
  La  La2  1  0.356156  0.946499  0.356156  1
  La  La3  1  0.946499  0.356156  0.356156  1
  Pr  Pr4  1  0.800910  0.190572  0.190572  1
  Pr  Pr5  1  0.189197  0.810223  0.810223  1
  Pr  Pr6  1  0.190572  0.800910  0.190572  1
  Pr  Pr7  1  0.810223  0.189197  0.810223  1
  Pr  Pr8  1  0.190572  0.190572  0.800910  1
  Pr  Pr9  1  0.810223  0.810223  0.189197  1
  Pr  Pr10  1  0.940017  0.563731  0.563731  1
  Pr  Pr11  1  0.563024  0.939166  0.939166  1
  Pr  Pr12  1  0.563731  0.940017  0.563731  1
  Pr  Pr13  1  0.939166  0.563024  0.939166  1
  Pr  Pr14  1  0.563731  0.563731  0.940017  1
  Pr  Pr15  1  0.939166  0.939166  0.563024  1
  Cd  Cd16  1  0.581259  0.581259  0.581259  1
  Cd  Cd17  1  0.579889  0.579889  0.258918  1
  Cd  Cd18  1  0.579889  0.258918  0.579889  1
  Cd  Cd19  1  0.258918  0.579889  0.579889  1
  Ir  Ir20  1  0.140794  0.140794  0.570659  1
  Ir  Ir21  1  0.140794  0.570659  0.140794  1
  Ir  Ir22  1  0.570659  0.140794  0.140794  1
  Au  Au23  1  0.143063  0.143063  0.143063  1
