# generated using pymatgen
data_Sm5Pb3Br
_symmetry_space_group_name_H-M   'P 1'
_cell_length_a   9.48040400
_cell_length_b   9.48040476
_cell_length_c   6.81800500
_cell_angle_alpha   90.00000000
_cell_angle_beta   90.00000000
_cell_angle_gamma   120.00000433
_symmetry_Int_Tables_number   1
_chemical_formula_structural   Sm5Pb3Br
_chemical_formula_sum   'Sm10 Pb6 Br2'
_cell_volume   530.69091453
_cell_formula_units_Z   2
loop_
 _symmetry_equiv_pos_site_id
 _symmetry_equiv_pos_as_xyz
  1  'x, y, z'
loop_
 _atom_site_type_symbol
 _atom_site_label
 _atom_site_symmetry_multiplicity
 _atom_site_fract_x
 _atom_site_fract_y
 _atom_site_fract_z
 _atom_site_occupancy
  Sm  Sm0  1  0.733523  0.000000  0.750000  1
  Sm  Sm1  1  0.000000  0.266477  0.250000  1
  Sm  Sm2  1  0.733523  0.733523  0.250000  1
  Sm  Sm3  1  0.333333  0.666667  0.500000  1
  Sm  Sm4  1  0.333333  0.666667  0.000000  1
  Sm  Sm5  1  0.666667  0.333333  0.500000  1
  Sm  Sm6  1  0.666667  0.333333  0.000000  1
  Sm  Sm7  1  0.266477  0.000000  0.250000  1
  Sm  Sm8  1  0.266477  0.266477  0.750000  1
  Sm  Sm9  1  0.000000  0.733523  0.750000  1
  Pb  Pb10  1  0.387244  0.000000  0.750000  1
  Pb  Pb11  1  0.612756  0.000000  0.250000  1
  Pb  Pb12  1  0.000000  0.612756  0.250000  1
  Pb  Pb13  1  0.612756  0.612756  0.750000  1
  Pb  Pb14  1  0.000000  0.387244  0.750000  1
  Pb  Pb15  1  0.387244  0.387244  0.250000  1
  Br  Br16  1  0.000000  0.000000  0.500000  1
  Br  Br17  1  0.000000  0.000000  0.000000  1
