# generated using pymatgen
data_Ce8MgScSn6
_symmetry_space_group_name_H-M   'P 1'
_cell_length_a   9.02910976
_cell_length_b   9.02910938
_cell_length_c   9.02911074
_cell_angle_alpha   96.64820696
_cell_angle_beta   96.64820486
_cell_angle_gamma   140.21529398
_symmetry_Int_Tables_number   1
_chemical_formula_structural   Ce8MgScSn6
_chemical_formula_sum   'Ce8 Mg1 Sc1 Sn6'
_cell_volume   442.92679616
_cell_formula_units_Z   1
loop_
 _symmetry_equiv_pos_site_id
 _symmetry_equiv_pos_as_xyz
  1  'x, y, z'
loop_
 _atom_site_type_symbol
 _atom_site_label
 _atom_site_symmetry_multiplicity
 _atom_site_fract_x
 _atom_site_fract_y
 _atom_site_fract_z
 _atom_site_occupancy
  Ce  Ce0  1  0.098823  0.235479  0.332152  1
  Ce  Ce1  1  0.903326  0.766670  0.667848  1
  Ce  Ce2  1  0.764521  0.096674  0.863343  1
  Ce  Ce3  1  0.401177  0.733330  0.136657  1
  Ce  Ce4  1  0.233330  0.901177  0.136657  1
  Ce  Ce5  1  0.596674  0.264521  0.863343  1
  Ce  Ce6  1  0.735479  0.598823  0.332152  1
  Ce  Ce7  1  0.266670  0.403326  0.667848  1
  Mg  Mg8  1  0.750000  0.250000  0.500000  1
  Sc  Sc9  1  0.250000  0.750000  0.500000  1
  Sn  Sn10  1  0.152023  0.652023  0.799553  1
  Sn  Sn11  1  0.852470  0.352470  0.200447  1
  Sn  Sn12  1  0.347977  0.147530  0.500000  1
  Sn  Sn13  1  0.647530  0.847977  0.500000  1
  Sn  Sn14  1  0.250000  0.250000  0.000000  1
  Sn  Sn15  1  0.750000  0.750000  0.000000  1
