# generated using pymatgen
data_Th2Mn22C3
_symmetry_space_group_name_H-M   'P 1'
_cell_length_a   6.51829918
_cell_length_b   7.82173791
_cell_length_c   7.83742523
_cell_angle_alpha   99.34468345
_cell_angle_beta   114.72405416
_cell_angle_gamma   65.52667821
_symmetry_Int_Tables_number   1
_chemical_formula_structural   Th2Mn22C3
_chemical_formula_sum   'Th2 Mn22 C3'
_cell_volume   330.31872250
_cell_formula_units_Z   1
loop_
 _symmetry_equiv_pos_site_id
 _symmetry_equiv_pos_as_xyz
  1  'x, y, z'
loop_
 _atom_site_type_symbol
 _atom_site_label
 _atom_site_symmetry_multiplicity
 _atom_site_fract_x
 _atom_site_fract_y
 _atom_site_fract_z
 _atom_site_occupancy
  Th  Th0  1  0.373394  0.748861  0.248861  1
  Th  Th1  1  0.626606  0.251139  0.751139  1
  Mn  Mn2  1  0.000000  0.500000  0.000000  1
  Mn  Mn3  1  0.000000  0.500000  0.500000  1
  Mn  Mn4  1  0.500000  0.000000  0.000000  1
  Mn  Mn5  1  0.000000  0.000000  0.500000  1
  Mn  Mn6  1  0.129118  0.249076  0.749076  1
  Mn  Mn7  1  0.870882  0.750924  0.250924  1
  Mn  Mn8  1  0.175395  0.177591  0.416341  1
  Mn  Mn9  1  0.436646  0.916341  0.677591  1
  Mn  Mn10  1  0.852656  0.823733  0.920527  1
  Mn  Mn11  1  0.255861  0.420527  0.323733  1
  Mn  Mn12  1  0.184115  0.576615  0.826533  1
  Mn  Mn13  1  0.434197  0.326533  0.076615  1
  Mn  Mn14  1  0.847883  0.088487  0.171735  1
  Mn  Mn15  1  0.264635  0.671735  0.588487  1
  Mn  Mn16  1  0.824605  0.822409  0.583659  1
  Mn  Mn17  1  0.563354  0.083659  0.322409  1
  Mn  Mn18  1  0.147344  0.176267  0.079473  1
  Mn  Mn19  1  0.744139  0.579473  0.676267  1
  Mn  Mn20  1  0.815885  0.423385  0.173467  1
  Mn  Mn21  1  0.565803  0.673467  0.923385  1
  Mn  Mn22  1  0.152117  0.911513  0.828265  1
  Mn  Mn23  1  0.735365  0.328265  0.411513  1
  C  C24  1  0.500000  0.500000  0.500000  1
  C  C25  1  0.000000  0.000000  0.000000  1
  C  C26  1  0.500000  0.000000  0.500000  1
