# generated using pymatgen
data_Y5Tm11MgAg3Rh4
_symmetry_space_group_name_H-M   'P 1'
_cell_length_a   9.49309389
_cell_length_b   9.49339853
_cell_length_c   9.49311160
_cell_angle_alpha   60.04090947
_cell_angle_beta   60.01958884
_cell_angle_gamma   60.02038225
_symmetry_Int_Tables_number   1
_chemical_formula_structural   Y5Tm11MgAg3Rh4
_chemical_formula_sum   'Y5 Tm11 Mg1 Ag3 Rh4'
_cell_volume   605.32467492
_cell_formula_units_Z   1
loop_
 _symmetry_equiv_pos_site_id
 _symmetry_equiv_pos_as_xyz
  1  'x, y, z'
loop_
 _atom_site_type_symbol
 _atom_site_label
 _atom_site_symmetry_multiplicity
 _atom_site_fract_x
 _atom_site_fract_y
 _atom_site_fract_z
 _atom_site_occupancy
  Y  Y0  1  0.813658  0.186538  0.186551  1
  Y  Y1  1  0.814006  0.185802  0.813730  1
  Y  Y2  1  0.185925  0.811998  0.186539  1
  Y  Y3  1  0.814005  0.813731  0.185807  1
  Y  Y4  1  0.185912  0.186541  0.812000  1
  Tm  Tm5  1  0.601569  0.599282  0.599276  1
  Tm  Tm6  1  0.599767  0.599172  0.203707  1
  Tm  Tm7  1  0.599757  0.203704  0.599181  1
  Tm  Tm8  1  0.186504  0.604885  0.604881  1
  Tm  Tm9  1  0.060986  0.437628  0.437630  1
  Tm  Tm10  1  0.434391  0.064304  0.064304  1
  Tm  Tm11  1  0.434257  0.063944  0.436494  1
  Tm  Tm12  1  0.061016  0.438099  0.061628  1
  Tm  Tm13  1  0.434262  0.436500  0.063939  1
  Tm  Tm14  1  0.061019  0.061616  0.438109  1
  Tm  Tm15  1  0.185786  0.811933  0.811930  1
  Mg  Mg16  1  0.537448  0.821126  0.821128  1
  Ag  Ag17  1  0.833647  0.833336  0.833333  1
  Ag  Ag18  1  0.832812  0.834015  0.500803  1
  Ag  Ag19  1  0.832809  0.500799  0.834014  1
  Rh  Rh20  1  0.389083  0.394555  0.394539  1
  Rh  Rh21  1  0.389712  0.397596  0.820036  1
  Rh  Rh22  1  0.389705  0.820053  0.397583  1
  Rh  Rh23  1  0.821963  0.392846  0.392857  1
