# generated using pymatgen
data_Tb2Ho6CdInPd2
_symmetry_space_group_name_H-M   'P 1'
_cell_length_a   9.68831203
_cell_length_b   9.68831149
_cell_length_c   9.71440300
_cell_angle_alpha   59.91087661
_cell_angle_beta   59.91087845
_cell_angle_gamma   59.88294158
_symmetry_Int_Tables_number   1
_chemical_formula_structural   Tb2Ho6CdInPd2
_chemical_formula_sum   'Tb4 Ho12 Cd2 In2 Pd4'
_cell_volume   643.31894086
_cell_formula_units_Z   2
loop_
 _symmetry_equiv_pos_site_id
 _symmetry_equiv_pos_as_xyz
  1  'x, y, z'
loop_
 _atom_site_type_symbol
 _atom_site_label
 _atom_site_symmetry_multiplicity
 _atom_site_fract_x
 _atom_site_fract_y
 _atom_site_fract_z
 _atom_site_occupancy
  Tb  Tb0  1  0.353063  0.353063  0.352999  1
  Tb  Tb1  1  0.353063  0.353063  0.940875  1
  Tb  Tb2  1  0.354038  0.938488  0.353738  1
  Tb  Tb3  1  0.938488  0.354038  0.353738  1
  Ho  Ho4  1  0.810489  0.189987  0.189415  1
  Ho  Ho5  1  0.189987  0.810489  0.810107  1
  Ho  Ho6  1  0.189987  0.810489  0.189415  1
  Ho  Ho7  1  0.810489  0.189987  0.810107  1
  Ho  Ho8  1  0.188685  0.188685  0.811315  1
  Ho  Ho9  1  0.809360  0.809360  0.190640  1
  Ho  Ho10  1  0.936304  0.565796  0.565394  1
  Ho  Ho11  1  0.565796  0.936304  0.932505  1
  Ho  Ho12  1  0.565796  0.936304  0.565394  1
  Ho  Ho13  1  0.936304  0.565796  0.932505  1
  Ho  Ho14  1  0.566096  0.566096  0.933904  1
  Ho  Ho15  1  0.935634  0.935634  0.564366  1
  Cd  Cd16  1  0.581893  0.250874  0.583616  1
  Cd  Cd17  1  0.250874  0.581893  0.583616  1
  In  In18  1  0.582405  0.582405  0.583819  1
  In  In19  1  0.582405  0.582405  0.251371  1
  Pd  Pd20  1  0.143244  0.143244  0.144274  1
  Pd  Pd21  1  0.143244  0.143244  0.569238  1
  Pd  Pd22  1  0.142799  0.569553  0.143823  1
  Pd  Pd23  1  0.569553  0.142799  0.143823  1
