# generated using pymatgen
data_Li3Nd4ScPt4
_symmetry_space_group_name_H-M   'P 1'
_cell_length_a   4.16090300
_cell_length_b   7.29395419
_cell_length_c   8.73535165
_cell_angle_alpha   88.86161345
_cell_angle_beta   90.00000000
_cell_angle_gamma   90.00000000
_symmetry_Int_Tables_number   1
_chemical_formula_structural   Li3Nd4ScPt4
_chemical_formula_sum   'Li3 Nd4 Sc1 Pt4'
_cell_volume   265.06066848
_cell_formula_units_Z   1
loop_
 _symmetry_equiv_pos_site_id
 _symmetry_equiv_pos_as_xyz
  1  'x, y, z'
loop_
 _atom_site_type_symbol
 _atom_site_label
 _atom_site_symmetry_multiplicity
 _atom_site_fract_x
 _atom_site_fract_y
 _atom_site_fract_z
 _atom_site_occupancy
  Li  Li0  1  0.750000  0.861395  0.933717  1
  Li  Li1  1  0.250000  0.627012  0.445341  1
  Li  Li2  1  0.750000  0.368212  0.556586  1
  Nd  Nd3  1  0.750000  0.477119  0.193212  1
  Nd  Nd4  1  0.250000  0.036027  0.678009  1
  Nd  Nd5  1  0.750000  0.952057  0.328818  1
  Nd  Nd6  1  0.250000  0.544282  0.812719  1
  Sc  Sc7  1  0.250000  0.128002  0.057620  1
  Pt  Pt8  1  0.750000  0.743689  0.617887  1
  Pt  Pt9  1  0.750000  0.252192  0.892122  1
  Pt  Pt10  1  0.250000  0.246557  0.368634  1
  Pt  Pt11  1  0.250000  0.763455  0.115334  1
