# generated using pymatgen
data_Rb4GeSb7Au8
_symmetry_space_group_name_H-M   'P 1'
_cell_length_a   4.90165200
_cell_length_b   9.05032696
_cell_length_c   12.46803600
_cell_angle_alpha   90.09696886
_cell_angle_beta   90.00000000
_cell_angle_gamma   90.00000000
_symmetry_Int_Tables_number   1
_chemical_formula_structural   Rb4GeSb7Au8
_chemical_formula_sum   'Rb4 Ge1 Sb7 Au8'
_cell_volume   553.10065083
_cell_formula_units_Z   1
loop_
 _symmetry_equiv_pos_site_id
 _symmetry_equiv_pos_as_xyz
  1  'x, y, z'
loop_
 _atom_site_type_symbol
 _atom_site_label
 _atom_site_symmetry_multiplicity
 _atom_site_fract_x
 _atom_site_fract_y
 _atom_site_fract_z
 _atom_site_occupancy
  Rb  Rb0  1  0.750000  0.743353  0.331774  1
  Rb  Rb1  1  0.250000  0.756176  0.839784  1
  Rb  Rb2  1  0.250000  0.258254  0.666092  1
  Rb  Rb3  1  0.750000  0.243488  0.164136  1
  Ge  Ge4  1  0.250000  0.386620  0.946150  1
  Sb  Sb5  1  0.250000  0.404666  0.344353  1
  Sb  Sb6  1  0.250000  0.911165  0.152603  1
  Sb  Sb7  1  0.750000  0.605177  0.044470  1
  Sb  Sb8  1  0.750000  0.594320  0.656142  1
  Sb  Sb9  1  0.750000  0.098759  0.850355  1
  Sb  Sb10  1  0.250000  0.889062  0.549777  1
  Sb  Sb11  1  0.750000  0.111752  0.453187  1
  Au  Au12  1  0.250000  0.100818  0.972002  1
  Au  Au13  1  0.750000  0.428422  0.855197  1
  Au  Au14  1  0.750000  0.933990  0.654153  1
  Au  Au15  1  0.250000  0.552318  0.141118  1
  Au  Au16  1  0.250000  0.068386  0.348273  1
  Au  Au17  1  0.750000  0.910818  0.031905  1
  Au  Au18  1  0.250000  0.585747  0.530851  1
  Au  Au19  1  0.750000  0.416709  0.467679  1
