# generated using pymatgen
data_Tb7Er3(Bi3C)2
_symmetry_space_group_name_H-M   'P 1'
_cell_length_a   9.17543200
_cell_length_b   9.17543319
_cell_length_c   6.50184200
_cell_angle_alpha   90.00000000
_cell_angle_beta   90.00000000
_cell_angle_gamma   120.00000292
_symmetry_Int_Tables_number   1
_chemical_formula_structural   Tb7Er3(Bi3C)2
_chemical_formula_sum   'Tb7 Er3 Bi6 C2'
_cell_volume   474.04560971
_cell_formula_units_Z   1
loop_
 _symmetry_equiv_pos_site_id
 _symmetry_equiv_pos_as_xyz
  1  'x, y, z'
loop_
 _atom_site_type_symbol
 _atom_site_label
 _atom_site_symmetry_multiplicity
 _atom_site_fract_x
 _atom_site_fract_y
 _atom_site_fract_z
 _atom_site_occupancy
  Tb  Tb0  1  0.666667  0.333333  0.000517  1
  Tb  Tb1  1  0.333333  0.666667  0.000517  1
  Tb  Tb2  1  0.333333  0.666667  0.499483  1
  Tb  Tb3  1  0.666667  0.333333  0.499483  1
  Tb  Tb4  1  0.209366  0.209366  0.250000  1
  Tb  Tb5  1  0.790634  0.000000  0.250000  1
  Tb  Tb6  1  0.000000  0.790634  0.250000  1
  Er  Er7  1  0.795673  0.795673  0.750000  1
  Er  Er8  1  0.204327  0.000000  0.750000  1
  Er  Er9  1  0.000000  0.204327  0.750000  1
  Bi  Bi10  1  0.400513  0.400513  0.750000  1
  Bi  Bi11  1  0.599487  0.000000  0.750000  1
  Bi  Bi12  1  0.000000  0.599487  0.750000  1
  Bi  Bi13  1  0.599163  0.599163  0.250000  1
  Bi  Bi14  1  0.400837  0.000000  0.250000  1
  Bi  Bi15  1  0.000000  0.400837  0.250000  1
  C  C16  1  0.000000  0.000000  0.996497  1
  C  C17  1  0.000000  0.000000  0.503503  1
