# generated using pymatgen
data_La10Nd6Cd4Fe3Pd
_symmetry_space_group_name_H-M   'P 1'
_cell_length_a   9.94132388
_cell_length_b   9.97988326
_cell_length_c   9.97988300
_cell_angle_alpha   60.00000419
_cell_angle_beta   59.87161478
_cell_angle_gamma   59.87161543
_symmetry_Int_Tables_number   1
_chemical_formula_structural   La10Nd6Cd4Fe3Pd
_chemical_formula_sum   'La10 Nd6 Cd4 Fe3 Pd1'
_cell_volume   698.77064797
_cell_formula_units_Z   1
loop_
 _symmetry_equiv_pos_site_id
 _symmetry_equiv_pos_as_xyz
  1  'x, y, z'
loop_
 _atom_site_type_symbol
 _atom_site_label
 _atom_site_symmetry_multiplicity
 _atom_site_fract_x
 _atom_site_fract_y
 _atom_site_fract_z
 _atom_site_occupancy
  La  La0  1  0.335979  0.352764  0.352764  1
  La  La1  1  0.335979  0.352764  0.958494  1
  La  La2  1  0.335979  0.958494  0.352764  1
  La  La3  1  0.963224  0.345592  0.345592  1
  La  La4  1  0.830090  0.188171  0.188171  1
  La  La5  1  0.189717  0.811818  0.811818  1
  La  La6  1  0.189717  0.811818  0.186647  1
  La  La7  1  0.830090  0.188171  0.793567  1
  La  La8  1  0.189717  0.186647  0.811818  1
  La  La9  1  0.830090  0.793567  0.188171  1
  Nd  Nd10  1  0.934341  0.564745  0.564745  1
  Nd  Nd11  1  0.562955  0.937199  0.937199  1
  Nd  Nd12  1  0.562955  0.937199  0.562647  1
  Nd  Nd13  1  0.934341  0.564745  0.936169  1
  Nd  Nd14  1  0.562955  0.562647  0.937199  1
  Nd  Nd15  1  0.934341  0.936169  0.564745  1
  Cd  Cd16  1  0.580177  0.580176  0.580176  1
  Cd  Cd17  1  0.580177  0.580176  0.259471  1
  Cd  Cd18  1  0.580177  0.259471  0.580176  1
  Cd  Cd19  1  0.257584  0.580805  0.580805  1
  Fe  Fe20  1  0.132843  0.138093  0.138093  1
  Fe  Fe21  1  0.132843  0.138093  0.590969  1
  Fe  Fe22  1  0.132843  0.590969  0.138093  1
  Pd  Pd23  1  0.580886  0.139704  0.139704  1
