# generated using pymatgen
data_TbDyTm2Hf3AlPt4
_symmetry_space_group_name_H-M   'P 1'
_cell_length_a   4.56226400
_cell_length_b   7.04431887
_cell_length_c   8.14760745
_cell_angle_alpha   87.14254060
_cell_angle_beta   90.00000000
_cell_angle_gamma   90.00000000
_symmetry_Int_Tables_number   1
_chemical_formula_structural   TbDyTm2Hf3AlPt4
_chemical_formula_sum   'Tb1 Dy1 Tm2 Hf3 Al1 Pt4'
_cell_volume   261.52258364
_cell_formula_units_Z   1
loop_
 _symmetry_equiv_pos_site_id
 _symmetry_equiv_pos_as_xyz
  1  'x, y, z'
loop_
 _atom_site_type_symbol
 _atom_site_label
 _atom_site_symmetry_multiplicity
 _atom_site_fract_x
 _atom_site_fract_y
 _atom_site_fract_z
 _atom_site_occupancy
  Tb  Tb0  1  0.750000  0.516811  0.815603  1
  Dy  Dy1  1  0.750000  0.038512  0.670784  1
  Tm  Tm2  1  0.250000  0.471557  0.187532  1
  Tm  Tm3  1  0.250000  0.988338  0.336456  1
  Hf  Hf4  1  0.250000  0.854914  0.924260  1
  Hf  Hf5  1  0.750000  0.137948  0.071370  1
  Hf  Hf6  1  0.750000  0.641065  0.434657  1
  Al  Al7  1  0.250000  0.358545  0.571710  1
  Pt  Pt8  1  0.250000  0.728892  0.608362  1
  Pt  Pt9  1  0.750000  0.268943  0.380650  1
  Pt  Pt10  1  0.750000  0.763083  0.103072  1
  Pt  Pt11  1  0.250000  0.231394  0.895546  1
