# generated using pymatgen
data_Hf11Th8Si16Mo
_symmetry_space_group_name_H-M   'P 1'
_cell_length_a   7.36911432
_cell_length_b   7.36911387
_cell_length_c   13.56005934
_cell_angle_alpha   89.81699850
_cell_angle_beta   90.18299924
_cell_angle_gamma   90.03828749
_symmetry_Int_Tables_number   1
_chemical_formula_structural   Hf11Th8Si16Mo
_chemical_formula_sum   'Hf11 Th8 Si16 Mo1'
_cell_volume   736.35565565
_cell_formula_units_Z   1
loop_
 _symmetry_equiv_pos_site_id
 _symmetry_equiv_pos_as_xyz
  1  'x, y, z'
loop_
 _atom_site_type_symbol
 _atom_site_label
 _atom_site_symmetry_multiplicity
 _atom_site_fract_x
 _atom_site_fract_y
 _atom_site_fract_z
 _atom_site_occupancy
  Hf  Hf0  1  0.826390  0.826390  0.500000  1
  Hf  Hf1  1  0.325013  0.673394  0.248840  1
  Hf  Hf2  1  0.673394  0.325013  0.751160  1
  Hf  Hf3  1  0.153701  0.997202  0.373599  1
  Hf  Hf4  1  0.848853  0.003210  0.877662  1
  Hf  Hf5  1  0.503112  0.653971  0.625701  1
  Hf  Hf6  1  0.346366  0.493328  0.877993  1
  Hf  Hf7  1  0.493328  0.346366  0.122007  1
  Hf  Hf8  1  0.653971  0.503112  0.374299  1
  Hf  Hf9  1  0.997202  0.153701  0.626401  1
  Hf  Hf10  1  0.003210  0.848853  0.122338  1
  Th  Th11  1  0.998635  0.341300  0.215033  1
  Th  Th12  1  0.004881  0.657873  0.717381  1
  Th  Th13  1  0.157907  0.496055  0.466527  1
  Th  Th14  1  0.500728  0.843652  0.033467  1
  Th  Th15  1  0.843652  0.500728  0.966533  1
  Th  Th16  1  0.496055  0.157907  0.533473  1
  Th  Th17  1  0.341300  0.998635  0.784967  1
  Th  Th18  1  0.657873  0.004881  0.282619  1
  Si  Si19  1  0.367171  0.298427  0.315024  1
  Si  Si20  1  0.632728  0.701220  0.815828  1
  Si  Si21  1  0.202343  0.867282  0.566241  1
  Si  Si22  1  0.132498  0.798854  0.933506  1
  Si  Si23  1  0.798854  0.132498  0.066494  1
  Si  Si24  1  0.867282  0.202343  0.433759  1
  Si  Si25  1  0.298427  0.367171  0.684976  1
  Si  Si26  1  0.701220  0.632728  0.184172  1
  Si  Si27  1  0.289805  0.049001  0.182927  1
  Si  Si28  1  0.708162  0.953976  0.685555  1
  Si  Si29  1  0.454028  0.790930  0.434473  1
  Si  Si30  1  0.208670  0.546175  0.064586  1
  Si  Si31  1  0.546175  0.208670  0.935414  1
  Si  Si32  1  0.790930  0.454028  0.565527  1
  Si  Si33  1  0.049001  0.289805  0.817073  1
  Si  Si34  1  0.953976  0.708162  0.314445  1
  Mo  Mo35  1  0.173158  0.173158  0.000000  1
