# generated using pymatgen
data_Zr9(BeAs2)2
_symmetry_space_group_name_H-M   'P 1'
_cell_length_a   12.23744200
_cell_length_b   12.23744200
_cell_length_c   3.74200900
_cell_angle_alpha   90.00000000
_cell_angle_beta   90.00000000
_cell_angle_gamma   90.00000000
_symmetry_Int_Tables_number   1
_chemical_formula_structural   Zr9(BeAs2)2
_chemical_formula_sum   'Zr18 Be4 As8'
_cell_volume   560.38450804
_cell_formula_units_Z   2
loop_
 _symmetry_equiv_pos_site_id
 _symmetry_equiv_pos_as_xyz
  1  'x, y, z'
loop_
 _atom_site_type_symbol
 _atom_site_label
 _atom_site_symmetry_multiplicity
 _atom_site_fract_x
 _atom_site_fract_y
 _atom_site_fract_z
 _atom_site_occupancy
  Zr  Zr0  1  0.000000  0.000000  0.000000  1
  Zr  Zr1  1  0.500000  0.500000  0.000000  1
  Zr  Zr2  1  0.108405  0.184160  0.500000  1
  Zr  Zr3  1  0.184160  0.891595  0.500000  1
  Zr  Zr4  1  0.815840  0.108405  0.500000  1
  Zr  Zr5  1  0.891595  0.815840  0.500000  1
  Zr  Zr6  1  0.391595  0.684160  0.500000  1
  Zr  Zr7  1  0.608405  0.315840  0.500000  1
  Zr  Zr8  1  0.684160  0.608405  0.500000  1
  Zr  Zr9  1  0.315840  0.391595  0.500000  1
  Zr  Zr10  1  0.099326  0.400674  0.000000  1
  Zr  Zr11  1  0.400674  0.900674  0.000000  1
  Zr  Zr12  1  0.599326  0.099326  0.000000  1
  Zr  Zr13  1  0.900674  0.599326  0.000000  1
  Zr  Zr14  1  0.384566  0.115434  0.500000  1
  Zr  Zr15  1  0.115434  0.615434  0.500000  1
  Zr  Zr16  1  0.884566  0.384566  0.500000  1
  Zr  Zr17  1  0.615434  0.884566  0.500000  1
  Be  Be18  1  0.256699  0.243301  0.000000  1
  Be  Be19  1  0.243301  0.743301  0.000000  1
  Be  Be20  1  0.756699  0.256699  0.000000  1
  Be  Be21  1  0.743301  0.756699  0.000000  1
  As  As22  1  0.225532  0.055754  0.000000  1
  As  As23  1  0.055754  0.774468  0.000000  1
  As  As24  1  0.944246  0.225532  0.000000  1
  As  As25  1  0.774468  0.944246  0.000000  1
  As  As26  1  0.274468  0.555754  0.000000  1
  As  As27  1  0.725532  0.444246  0.000000  1
  As  As28  1  0.555754  0.725532  0.000000  1
  As  As29  1  0.444246  0.274468  0.000000  1
