# generated using pymatgen
data_Pr4ErTc3(P3Ir4)4
_symmetry_space_group_name_H-M   'P 1'
_cell_length_a   12.71482100
_cell_length_b   12.71482039
_cell_length_c   4.06572800
_cell_angle_alpha   90.00000000
_cell_angle_beta   90.00000000
_cell_angle_gamma   120.00000418
_symmetry_Int_Tables_number   1
_chemical_formula_structural   Pr4ErTc3(P3Ir4)4
_chemical_formula_sum   'Pr4 Er1 Tc3 P12 Ir16'
_cell_volume   569.23214146
_cell_formula_units_Z   1
loop_
 _symmetry_equiv_pos_site_id
 _symmetry_equiv_pos_as_xyz
  1  'x, y, z'
loop_
 _atom_site_type_symbol
 _atom_site_label
 _atom_site_symmetry_multiplicity
 _atom_site_fract_x
 _atom_site_fract_y
 _atom_site_fract_z
 _atom_site_occupancy
  Pr  Pr0  1  0.666667  0.333333  0.000000  1
  Pr  Pr1  1  0.815727  0.815724  0.500000  1
  Pr  Pr2  1  0.184276  0.000003  0.500000  1
  Pr  Pr3  1  0.999997  0.184273  0.500000  1
  Er  Er4  1  0.333333  0.666667  0.000000  1
  Tc  Tc5  1  0.291758  0.293517  0.500000  1
  Tc  Tc6  1  0.706483  0.998242  0.500000  1
  Tc  Tc7  1  0.001758  0.708242  0.500000  1
  P  P8  1  0.692544  0.171481  0.500000  1
  P  P9  1  0.828519  0.521062  0.500000  1
  P  P10  1  0.478938  0.307456  0.500000  1
  P  P11  1  0.175125  0.693346  0.500000  1
  P  P12  1  0.518220  0.824875  0.500000  1
  P  P13  1  0.306654  0.481780  0.500000  1
  P  P14  1  0.637387  0.636412  0.000000  1
  P  P15  1  0.363588  0.000976  0.000000  1
  P  P16  1  0.999024  0.362613  0.000000  1
  P  P17  1  0.183451  0.184483  0.000000  1
  P  P18  1  0.815517  0.998968  0.000000  1
  P  P19  1  0.001032  0.816549  0.000000  1
  Ir  Ir20  1  0.802293  0.181848  0.000000  1
  Ir  Ir21  1  0.818152  0.620446  0.000000  1
  Ir  Ir22  1  0.379554  0.197707  0.000000  1
  Ir  Ir23  1  0.184642  0.802426  0.000000  1
  Ir  Ir24  1  0.617784  0.815358  0.000000  1
  Ir  Ir25  1  0.197574  0.382216  0.000000  1
  Ir  Ir26  1  0.454993  0.456346  0.000000  1
  Ir  Ir27  1  0.543654  0.998647  0.000000  1
  Ir  Ir28  1  0.001353  0.545007  0.000000  1
  Ir  Ir29  1  0.873412  0.364802  0.500000  1
  Ir  Ir30  1  0.635198  0.508610  0.500000  1
  Ir  Ir31  1  0.491390  0.126588  0.500000  1
  Ir  Ir32  1  0.365191  0.868158  0.500000  1
  Ir  Ir33  1  0.502967  0.634809  0.500000  1
  Ir  Ir34  1  0.131842  0.497033  0.500000  1
  Ir  Ir35  1  0.000000  0.000000  0.000000  1
