# generated using pymatgen
data_Lu4TcOsC4
_symmetry_space_group_name_H-M   'P 1'
_cell_length_a   4.97401300
_cell_length_b   6.42874295
_cell_length_c   9.61809755
_cell_angle_alpha   89.70512842
_cell_angle_beta   90.00000000
_cell_angle_gamma   90.00000000
_symmetry_Int_Tables_number   1
_chemical_formula_structural   Lu4TcOsC4
_chemical_formula_sum   'Lu8 Tc2 Os2 C8'
_cell_volume   307.55047603
_cell_formula_units_Z   2
loop_
 _symmetry_equiv_pos_site_id
 _symmetry_equiv_pos_as_xyz
  1  'x, y, z'
loop_
 _atom_site_type_symbol
 _atom_site_label
 _atom_site_symmetry_multiplicity
 _atom_site_fract_x
 _atom_site_fract_y
 _atom_site_fract_z
 _atom_site_occupancy
  Lu  Lu0  1  0.250000  0.673818  0.558283  1
  Lu  Lu1  1  0.750000  0.326182  0.441717  1
  Lu  Lu2  1  0.750000  0.827517  0.058089  1
  Lu  Lu3  1  0.250000  0.172483  0.941911  1
  Lu  Lu4  1  0.250000  0.534335  0.217336  1
  Lu  Lu5  1  0.750000  0.465665  0.782664  1
  Lu  Lu6  1  0.750000  0.968385  0.713856  1
  Lu  Lu7  1  0.250000  0.031615  0.286144  1
  Tc  Tc8  1  0.250000  0.714189  0.870238  1
  Tc  Tc9  1  0.750000  0.285811  0.129762  1
  Os  Os10  1  0.750000  0.785032  0.369430  1
  Os  Os11  1  0.250000  0.214968  0.630570  1
  C  C12  1  0.250000  0.447693  0.758669  1
  C  C13  1  0.750000  0.552307  0.241331  1
  C  C14  1  0.750000  0.051607  0.258903  1
  C  C15  1  0.250000  0.948393  0.741097  1
  C  C16  1  0.250000  0.827999  0.057379  1
  C  C17  1  0.750000  0.172001  0.942621  1
  C  C18  1  0.750000  0.670731  0.557248  1
  C  C19  1  0.250000  0.329269  0.442752  1
