# generated using pymatgen
data_Ta3V(PO4)6
_symmetry_space_group_name_H-M   'P 1'
_cell_length_a   8.73649448
_cell_length_b   9.02018200
_cell_length_c   8.73274611
_cell_angle_alpha   90.00005923
_cell_angle_beta   60.09209815
_cell_angle_gamma   118.94285332
_symmetry_Int_Tables_number   1
_chemical_formula_structural   Ta3V(PO4)6
_chemical_formula_sum   'Ta3 V1 P6 O24'
_cell_volume   494.91544755
_cell_formula_units_Z   1
loop_
 _symmetry_equiv_pos_site_id
 _symmetry_equiv_pos_as_xyz
  1  'x, y, z'
loop_
 _atom_site_type_symbol
 _atom_site_label
 _atom_site_symmetry_multiplicity
 _atom_site_fract_x
 _atom_site_fract_y
 _atom_site_fract_z
 _atom_site_occupancy
  Ta  Ta0  1  0.284349  0.926353  0.357605  1
  Ta  Ta1  1  0.282475  0.423609  0.858971  1
  Ta  Ta2  1  0.714473  0.572175  0.142681  1
  V  V3  1  0.712745  0.070998  0.643696  1
  P  P4  1  0.782131  0.754352  0.749837  1
  P  P5  1  0.501763  0.247931  0.534307  1
  P  P6  1  0.504074  0.754294  0.468217  1
  P  P7  1  0.212121  0.247883  0.253789  1
  P  P8  1  0.782041  0.247586  0.964297  1
  P  P9  1  0.221484  0.753510  0.027965  1
  O  O10  1  0.655797  0.918249  0.484951  1
  O  O11  1  0.005583  0.716333  0.078654  1
  O  O12  1  0.219294  0.582296  0.002536  1
  O  O13  1  0.225731  0.779922  0.202855  1
  O  O14  1  0.986661  0.275786  0.935831  1
  O  O15  1  0.783419  0.415527  0.004773  1
  O  O16  1  0.780594  0.228165  0.794374  1
  O  O17  1  0.794965  0.717757  0.915915  1
  O  O18  1  0.983074  0.780359  0.571420  1
  O  O19  1  0.654061  0.229167  0.552405  1
  O  O20  1  0.775605  0.917207  0.738400  1
  O  O21  1  0.585226  0.583197  0.778052  1
  O  O22  1  0.589385  0.083785  0.142719  1
  O  O23  1  0.626925  0.415418  0.368021  1
  O  O24  1  0.212489  0.275736  0.076865  1
  O  O25  1  0.353362  0.275765  0.710483  1
  O  O26  1  0.633336  0.717348  0.289822  1
  O  O27  1  0.352950  0.083762  0.504911  1
  O  O28  1  0.400249  0.914861  0.857900  1
  O  O29  1  0.361798  0.583603  0.636949  1
  O  O30  1  0.228389  0.084457  0.267126  1
  O  O31  1  0.420837  0.416289  0.210797  1
  O  O32  1  0.351131  0.779461  0.445478  1
  O  O33  1  0.023615  0.226863  0.425267  1
