# generated using pymatgen
data_DyEr3Al4Ir3Au
_symmetry_space_group_name_H-M   'P 1'
_cell_length_a   4.33723700
_cell_length_b   6.82771590
_cell_length_c   7.88832698
_cell_angle_alpha   90.07127077
_cell_angle_beta   90.00000000
_cell_angle_gamma   90.00000000
_symmetry_Int_Tables_number   1
_chemical_formula_structural   DyEr3Al4Ir3Au
_chemical_formula_sum   'Dy1 Er3 Al4 Ir3 Au1'
_cell_volume   233.60017510
_cell_formula_units_Z   1
loop_
 _symmetry_equiv_pos_site_id
 _symmetry_equiv_pos_as_xyz
  1  'x, y, z'
loop_
 _atom_site_type_symbol
 _atom_site_label
 _atom_site_symmetry_multiplicity
 _atom_site_fract_x
 _atom_site_fract_y
 _atom_site_fract_z
 _atom_site_occupancy
  Dy  Dy0  1  0.250000  0.023446  0.326085  1
  Er  Er1  1  0.250000  0.540575  0.182323  1
  Er  Er2  1  0.750000  0.970848  0.679277  1
  Er  Er3  1  0.750000  0.477991  0.812752  1
  Al  Al4  1  0.250000  0.137397  0.931088  1
  Al  Al5  1  0.250000  0.642244  0.562894  1
  Al  Al6  1  0.750000  0.845909  0.060473  1
  Al  Al7  1  0.750000  0.363139  0.444553  1
  Ir  Ir8  1  0.250000  0.267942  0.619904  1
  Ir  Ir9  1  0.250000  0.765374  0.881468  1
  Ir  Ir10  1  0.750000  0.733431  0.379289  1
  Au  Au11  1  0.750000  0.231703  0.119893  1
