# generated using pymatgen
data_Sr3Y2Zr3(As3Pd4)4
_symmetry_space_group_name_H-M   'P 1'
_cell_length_a   13.65122479
_cell_length_b   13.65122409
_cell_length_c   4.16895600
_cell_angle_alpha   90.00000000
_cell_angle_beta   90.00000000
_cell_angle_gamma   119.91455569
_symmetry_Int_Tables_number   1
_chemical_formula_structural   Sr3Y2Zr3(As3Pd4)4
_chemical_formula_sum   'Sr3 Y2 Zr3 As12 Pd16'
_cell_volume   673.40205690
_cell_formula_units_Z   1
loop_
 _symmetry_equiv_pos_site_id
 _symmetry_equiv_pos_as_xyz
  1  'x, y, z'
loop_
 _atom_site_type_symbol
 _atom_site_label
 _atom_site_symmetry_multiplicity
 _atom_site_fract_x
 _atom_site_fract_y
 _atom_site_fract_z
 _atom_site_occupancy
  Sr  Sr0  1  0.186145  0.186145  0.500000  1
  Sr  Sr1  1  0.333358  0.666715  0.000000  1
  Sr  Sr2  1  0.666715  0.333358  0.000000  1
  Y  Y3  1  0.810889  0.000087  0.500000  1
  Y  Y4  1  0.000087  0.810889  0.500000  1
  Zr  Zr5  1  0.558476  0.558476  0.000000  1
  Zr  Zr6  1  0.442930  0.999024  0.000000  1
  Zr  Zr7  1  0.999024  0.442930  0.000000  1
  As  As8  1  0.824611  0.824611  0.000000  1
  As  As9  1  0.172523  0.996090  0.000000  1
  As  As10  1  0.996090  0.172523  0.000000  1
  As  As11  1  0.162374  0.477436  0.500000  1
  As  As12  1  0.522532  0.685583  0.500000  1
  As  As13  1  0.315953  0.836562  0.500000  1
  As  As14  1  0.685583  0.522532  0.500000  1
  As  As15  1  0.836562  0.315953  0.500000  1
  As  As16  1  0.477436  0.162374  0.500000  1
  As  As17  1  0.361265  0.361265  0.000000  1
  As  As18  1  0.641976  0.999982  0.000000  1
  As  As19  1  0.999982  0.641976  0.000000  1
  Pd  Pd20  1  0.725051  0.725051  0.500000  1
  Pd  Pd21  1  0.275637  0.997725  0.500000  1
  Pd  Pd22  1  0.997725  0.275637  0.500000  1
  Pd  Pd23  1  0.183799  0.378114  0.000000  1
  Pd  Pd24  1  0.628470  0.811022  0.000000  1
  Pd  Pd25  1  0.189004  0.816883  0.000000  1
  Pd  Pd26  1  0.811022  0.628470  0.000000  1
  Pd  Pd27  1  0.816883  0.189004  0.000000  1
  Pd  Pd28  1  0.378114  0.183799  0.000000  1
  Pd  Pd29  1  0.358918  0.484953  0.500000  1
  Pd  Pd30  1  0.517024  0.874010  0.500000  1
  Pd  Pd31  1  0.125568  0.642048  0.500000  1
  Pd  Pd32  1  0.874010  0.517024  0.500000  1
  Pd  Pd33  1  0.642048  0.125568  0.500000  1
  Pd  Pd34  1  0.484953  0.358918  0.500000  1
  Pd  Pd35  1  0.997267  0.997267  0.000000  1
