# generated using pymatgen
data_Nd2Th(AgSn)4
_symmetry_space_group_name_H-M   'P 1'
_cell_length_a   8.94191289
_cell_length_b   8.94191242
_cell_length_c   8.94191249
_cell_angle_alpha   149.36811657
_cell_angle_beta   130.88801992
_cell_angle_gamma   58.99977583
_symmetry_Int_Tables_number   1
_chemical_formula_structural   Nd2Th(AgSn)4
_chemical_formula_sum   'Nd2 Th1 Ag4 Sn4'
_cell_volume   273.23857833
_cell_formula_units_Z   1
loop_
 _symmetry_equiv_pos_site_id
 _symmetry_equiv_pos_as_xyz
  1  'x, y, z'
loop_
 _atom_site_type_symbol
 _atom_site_label
 _atom_site_symmetry_multiplicity
 _atom_site_fract_x
 _atom_site_fract_y
 _atom_site_fract_z
 _atom_site_occupancy
  Nd  Nd0  1  0.499876  0.999876  0.500000  1
  Nd  Nd1  1  0.129228  0.129228  0.000000  1
  Th  Th2  1  0.870666  0.870666  0.000000  1
  Ag  Ag3  1  0.474658  0.669894  0.804766  1
  Ag  Ag4  1  0.865128  0.669894  0.195234  1
  Ag  Ag5  1  0.135239  0.330229  0.805010  1
  Ag  Ag6  1  0.525220  0.330229  0.194990  1
  Sn  Sn7  1  0.285013  0.785013  0.500000  1
  Sn  Sn8  1  0.715307  0.215307  0.500000  1
  Sn  Sn9  1  0.805761  0.499833  0.305929  1
  Sn  Sn10  1  0.193904  0.499833  0.694071  1
