# generated using pymatgen
data_ScCo4P3Ru
_symmetry_space_group_name_H-M   'P 1'
_cell_length_a   3.63510200
_cell_length_b   10.27097800
_cell_length_c   11.66842800
_cell_angle_alpha   90.00000000
_cell_angle_beta   90.00000000
_cell_angle_gamma   90.00000000
_symmetry_Int_Tables_number   1
_chemical_formula_structural   ScCo4P3Ru
_chemical_formula_sum   'Sc4 Co16 P12 Ru4'
_cell_volume   435.65304238
_cell_formula_units_Z   4
loop_
 _symmetry_equiv_pos_site_id
 _symmetry_equiv_pos_as_xyz
  1  'x, y, z'
loop_
 _atom_site_type_symbol
 _atom_site_label
 _atom_site_symmetry_multiplicity
 _atom_site_fract_x
 _atom_site_fract_y
 _atom_site_fract_z
 _atom_site_occupancy
  Sc  Sc0  1  0.250000  0.585039  0.703882  1
  Sc  Sc1  1  0.250000  0.914961  0.203882  1
  Sc  Sc2  1  0.750000  0.414961  0.296118  1
  Sc  Sc3  1  0.750000  0.085039  0.796118  1
  Co  Co4  1  0.250000  0.409778  0.487029  1
  Co  Co5  1  0.250000  0.090222  0.987029  1
  Co  Co6  1  0.750000  0.590222  0.512971  1
  Co  Co7  1  0.750000  0.909778  0.012971  1
  Co  Co8  1  0.250000  0.222194  0.177382  1
  Co  Co9  1  0.250000  0.277807  0.677382  1
  Co  Co10  1  0.750000  0.777807  0.822618  1
  Co  Co11  1  0.750000  0.722193  0.322618  1
  Co  Co12  1  0.250000  0.887819  0.703628  1
  Co  Co13  1  0.250000  0.612181  0.203628  1
  Co  Co14  1  0.750000  0.112181  0.296372  1
  Co  Co15  1  0.750000  0.387819  0.796372  1
  Co  Co16  1  0.250000  0.464418  0.929140  1
  Co  Co17  1  0.250000  0.035582  0.429140  1
  Co  Co18  1  0.750000  0.535582  0.070860  1
  Co  Co19  1  0.750000  0.964418  0.570860  1
  P  P20  1  0.250000  0.420158  0.114582  1
  P  P21  1  0.250000  0.079842  0.614582  1
  P  P22  1  0.750000  0.579842  0.885418  1
  P  P23  1  0.750000  0.920158  0.385418  1
  P  P24  1  0.250000  0.266198  0.865917  1
  P  P25  1  0.250000  0.233802  0.365917  1
  P  P26  1  0.750000  0.733802  0.134083  1
  P  P27  1  0.750000  0.766198  0.634083  1
  P  P28  1  0.250000  0.593187  0.388586  1
  P  P29  1  0.250000  0.906813  0.888586  1
  P  P30  1  0.750000  0.406813  0.611414  1
  P  P31  1  0.750000  0.093187  0.111414  1
  Ru  Ru32  1  0.250000  0.718413  0.993118  1
  Ru  Ru33  1  0.250000  0.781587  0.493118  1
  Ru  Ru34  1  0.750000  0.281587  0.006882  1
  Ru  Ru35  1  0.750000  0.218413  0.506882  1
