# generated using pymatgen
data_SrTh2TiSb5
_symmetry_space_group_name_H-M   'P 1'
_cell_length_a   9.45055543
_cell_length_b   9.47331061
_cell_length_c   6.38661600
_cell_angle_alpha   90.00000000
_cell_angle_beta   90.00000000
_cell_angle_gamma   120.07968815
_symmetry_Int_Tables_number   1
_chemical_formula_structural   SrTh2TiSb5
_chemical_formula_sum   'Sr2 Th4 Ti2 Sb10'
_cell_volume   494.77899340
_cell_formula_units_Z   2
loop_
 _symmetry_equiv_pos_site_id
 _symmetry_equiv_pos_as_xyz
  1  'x, y, z'
loop_
 _atom_site_type_symbol
 _atom_site_label
 _atom_site_symmetry_multiplicity
 _atom_site_fract_x
 _atom_site_fract_y
 _atom_site_fract_z
 _atom_site_occupancy
  Sr  Sr0  1  0.617380  0.621066  0.750000  1
  Sr  Sr1  1  0.617380  0.996315  0.250000  1
  Th  Th2  1  0.390838  0.002546  0.750000  1
  Th  Th3  1  0.390838  0.388292  0.250000  1
  Th  Th4  1  0.996790  0.615195  0.250000  1
  Th  Th5  1  0.996790  0.381594  0.750000  1
  Ti  Ti6  1  0.995454  0.997726  0.000000  1
  Ti  Ti7  1  0.995454  0.997726  0.500000  1
  Sb  Sb8  1  0.666983  0.333492  0.500000  1
  Sb  Sb9  1  0.320765  0.660382  0.000000  1
  Sb  Sb10  1  0.750026  0.004719  0.750000  1
  Sb  Sb11  1  0.750026  0.745309  0.250000  1
  Sb  Sb12  1  0.320765  0.660382  0.500000  1
  Sb  Sb13  1  0.666983  0.333492  0.000000  1
  Sb  Sb14  1  0.253793  0.002106  0.250000  1
  Sb  Sb15  1  0.253793  0.251687  0.750000  1
  Sb  Sb16  1  0.007970  0.747371  0.750000  1
  Sb  Sb17  1  0.007970  0.260599  0.250000  1
