# generated using pymatgen
data_NdU3(Al3Ir)6
_symmetry_space_group_name_H-M   'P 1'
_cell_length_a   7.59885526
_cell_length_b   7.61698537
_cell_length_c   9.43372600
_cell_angle_alpha   90.00000000
_cell_angle_beta   90.00000000
_cell_angle_gamma   119.50723964
_symmetry_Int_Tables_number   1
_chemical_formula_structural   NdU3(Al3Ir)6
_chemical_formula_sum   'Nd1 U3 Al18 Ir6'
_cell_volume   475.20420586
_cell_formula_units_Z   1
loop_
 _symmetry_equiv_pos_site_id
 _symmetry_equiv_pos_as_xyz
  1  'x, y, z'
loop_
 _atom_site_type_symbol
 _atom_site_label
 _atom_site_symmetry_multiplicity
 _atom_site_fract_x
 _atom_site_fract_y
 _atom_site_fract_z
 _atom_site_occupancy
  Nd  Nd0  1  0.995448  0.669660  0.750000  1
  U  U1  1  0.004340  0.328627  0.250000  1
  U  U2  1  0.670001  0.996477  0.750000  1
  U  U3  1  0.330316  0.004700  0.250000  1
  Al  Al4  1  0.127247  0.129281  0.750000  1
  Al  Al5  1  0.869596  0.870507  0.250000  1
  Al  Al6  1  0.003058  0.335071  0.573061  1
  Al  Al7  1  0.997702  0.664815  0.423241  1
  Al  Al8  1  0.997702  0.664815  0.076759  1
  Al  Al9  1  0.335180  0.002276  0.926874  1
  Al  Al10  1  0.003058  0.335071  0.926939  1
  Al  Al11  1  0.663868  0.997363  0.073759  1
  Al  Al12  1  0.663868  0.997363  0.426241  1
  Al  Al13  1  0.335180  0.002276  0.573126  1
  Al  Al14  1  0.335159  0.335008  0.054320  1
  Al  Al15  1  0.665576  0.665798  0.946356  1
  Al  Al16  1  0.665576  0.665798  0.553644  1
  Al  Al17  1  0.335159  0.335008  0.445680  1
  Al  Al18  1  0.342294  0.548826  0.750000  1
  Al  Al19  1  0.659088  0.453113  0.250000  1
  Al  Al20  1  0.546024  0.337115  0.750000  1
  Al  Al21  1  0.451384  0.660155  0.250000  1
  Ir  Ir22  1  0.672380  0.326962  0.498637  1
  Ir  Ir23  1  0.328305  0.672299  0.498369  1
  Ir  Ir24  1  0.328305  0.672299  0.001631  1
  Ir  Ir25  1  0.672380  0.326962  0.001363  1
  Ir  Ir26  1  0.000902  0.001178  0.497742  1
  Ir  Ir27  1  0.000902  0.001178  0.002258  1
