# generated using pymatgen
data_Y10GaBiPb4
_symmetry_space_group_name_H-M   'P 1'
_cell_length_a   9.01232386
_cell_length_b   9.00449346
_cell_length_c   6.64138600
_cell_angle_alpha   90.00000000
_cell_angle_beta   90.00000000
_cell_angle_gamma   119.99455058
_symmetry_Int_Tables_number   1
_chemical_formula_structural   Y10GaBiPb4
_chemical_formula_sum   'Y10 Ga1 Bi1 Pb4'
_cell_volume   466.77681485
_cell_formula_units_Z   1
loop_
 _symmetry_equiv_pos_site_id
 _symmetry_equiv_pos_as_xyz
  1  'x, y, z'
loop_
 _atom_site_type_symbol
 _atom_site_label
 _atom_site_symmetry_multiplicity
 _atom_site_fract_x
 _atom_site_fract_y
 _atom_site_fract_z
 _atom_site_occupancy
  Y  Y0  1  0.658684  0.337032  0.997453  1
  Y  Y1  1  0.332652  0.656095  0.997340  1
  Y  Y2  1  0.332652  0.656095  0.502660  1
  Y  Y3  1  0.658684  0.337032  0.502547  1
  Y  Y4  1  0.756301  0.751926  0.750000  1
  Y  Y5  1  0.241687  0.012290  0.750000  1
  Y  Y6  1  0.016520  0.245097  0.750000  1
  Y  Y7  1  0.238716  0.239718  0.250000  1
  Y  Y8  1  0.761372  0.000506  0.250000  1
  Y  Y9  1  0.999382  0.761174  0.250000  1
  Ga  Ga10  1  0.397303  0.396869  0.750000  1
  Bi  Bi11  1  0.610011  0.001974  0.750000  1
  Pb  Pb12  1  0.002270  0.607470  0.750000  1
  Pb  Pb13  1  0.605030  0.606639  0.250000  1
  Pb  Pb14  1  0.393578  0.996807  0.250000  1
  Pb  Pb15  1  0.995156  0.393275  0.250000  1
