# generated using pymatgen
data_Sc6UGa5Ru12
_symmetry_space_group_name_H-M   'P 1'
_cell_length_a   4.44293200
_cell_length_b   6.35194400
_cell_length_c   13.25459700
_cell_angle_alpha   90.00000000
_cell_angle_beta   90.00002586
_cell_angle_gamma   90.00000000
_symmetry_Int_Tables_number   1
_chemical_formula_structural   Sc6UGa5Ru12
_chemical_formula_sum   'Sc6 U1 Ga5 Ru12'
_cell_volume   374.06136530
_cell_formula_units_Z   1
loop_
 _symmetry_equiv_pos_site_id
 _symmetry_equiv_pos_as_xyz
  1  'x, y, z'
loop_
 _atom_site_type_symbol
 _atom_site_label
 _atom_site_symmetry_multiplicity
 _atom_site_fract_x
 _atom_site_fract_y
 _atom_site_fract_z
 _atom_site_occupancy
  Sc  Sc0  1  0.000000  0.500001  0.000000  1
  Sc  Sc1  1  0.500019  0.000000  0.182815  1
  Sc  Sc2  1  0.999982  0.500001  0.334233  1
  Sc  Sc3  1  0.500001  0.000000  0.500000  1
  Sc  Sc4  1  0.000018  0.500001  0.665767  1
  Sc  Sc5  1  0.499981  0.000000  0.817185  1
  U  U6  1  0.000000  0.000000  0.000000  1
  Ga  Ga7  1  0.500005  0.500001  0.168638  1
  Ga  Ga8  1  0.000007  0.000000  0.337525  1
  Ga  Ga9  1  0.500001  0.500001  0.500000  1
  Ga  Ga10  1  0.999993  0.000000  0.662475  1
  Ga  Ga11  1  0.499997  0.500001  0.831362  1
  Ru  Ru12  1  0.500001  0.242266  0.000000  1
  Ru  Ru13  1  0.500001  0.757734  0.000000  1
  Ru  Ru14  1  0.000016  0.245254  0.162547  1
  Ru  Ru15  1  0.000016  0.754746  0.162547  1
  Ru  Ru16  1  0.499984  0.256892  0.334838  1
  Ru  Ru17  1  0.499984  0.743107  0.334838  1
  Ru  Ru18  1  0.000000  0.250880  0.500000  1
  Ru  Ru19  1  0.000000  0.749120  0.500000  1
  Ru  Ru20  1  0.500017  0.256892  0.665162  1
  Ru  Ru21  1  0.500017  0.743107  0.665162  1
  Ru  Ru22  1  0.999984  0.245254  0.837453  1
  Ru  Ru23  1  0.999984  0.754746  0.837453  1
