# generated using pymatgen
data_Y17Lu3(Ir2Ru)4
_symmetry_space_group_name_H-M   'P 1'
_cell_length_a   10.84704200
_cell_length_b   10.84704200
_cell_length_c   6.44960700
_cell_angle_alpha   90.00000000
_cell_angle_beta   90.00000000
_cell_angle_gamma   90.00000000
_symmetry_Int_Tables_number   1
_chemical_formula_structural   Y17Lu3(Ir2Ru)4
_chemical_formula_sum   'Y17 Lu3 Ir8 Ru4'
_cell_volume   758.84992525
_cell_formula_units_Z   1
loop_
 _symmetry_equiv_pos_site_id
 _symmetry_equiv_pos_as_xyz
  1  'x, y, z'
loop_
 _atom_site_type_symbol
 _atom_site_label
 _atom_site_symmetry_multiplicity
 _atom_site_fract_x
 _atom_site_fract_y
 _atom_site_fract_z
 _atom_site_occupancy
  Y  Y0  1  0.292274  0.086800  0.378087  1
  Y  Y1  1  0.292372  0.913303  0.878142  1
  Y  Y2  1  0.707628  0.086697  0.878142  1
  Y  Y3  1  0.707726  0.913200  0.378087  1
  Y  Y4  1  0.586764  0.792723  0.878143  1
  Y  Y5  1  0.587076  0.206656  0.377910  1
  Y  Y6  1  0.412924  0.793344  0.377910  1
  Y  Y7  1  0.413236  0.207277  0.878143  1
  Y  Y8  1  0.206656  0.412924  0.622090  1
  Y  Y9  1  0.207277  0.586764  0.121857  1
  Y  Y10  1  0.792723  0.413236  0.121857  1
  Y  Y11  1  0.793344  0.587076  0.622090  1
  Y  Y12  1  0.913303  0.707628  0.121858  1
  Y  Y13  1  0.913200  0.292274  0.621913  1
  Y  Y14  1  0.086800  0.707726  0.621913  1
  Y  Y15  1  0.086697  0.292372  0.121858  1
  Y  Y16  1  0.500000  0.500000  0.500000  1
  Lu  Lu17  1  0.000000  0.000000  0.500000  1
  Lu  Lu18  1  0.000000  0.000000  0.000000  1
  Lu  Lu19  1  0.500000  0.500000  0.000000  1
  Ir  Ir20  1  0.850191  0.149822  0.249914  1
  Ir  Ir21  1  0.850178  0.850191  0.750086  1
  Ir  Ir22  1  0.149822  0.149809  0.750086  1
  Ir  Ir23  1  0.149809  0.850178  0.249914  1
  Ir  Ir24  1  0.651315  0.348631  0.752633  1
  Ir  Ir25  1  0.651369  0.651315  0.247367  1
  Ir  Ir26  1  0.348631  0.348685  0.247367  1
  Ir  Ir27  1  0.348685  0.651369  0.752633  1
  Ru  Ru28  1  0.500000  0.000000  0.123761  1
  Ru  Ru29  1  0.500000  0.000000  0.623727  1
  Ru  Ru30  1  0.000000  0.500000  0.876239  1
  Ru  Ru31  1  0.000000  0.500000  0.376273  1
