# generated using pymatgen
data_La7Pa(ZnIr)8
_symmetry_space_group_name_H-M   'P 1'
_cell_length_a   4.01977100
_cell_length_b   7.47091806
_cell_length_c   16.73086510
_cell_angle_alpha   89.81979479
_cell_angle_beta   90.00000000
_cell_angle_gamma   90.00000000
_symmetry_Int_Tables_number   1
_chemical_formula_structural   La7Pa(ZnIr)8
_chemical_formula_sum   'La7 Pa1 Zn8 Ir8'
_cell_volume   502.44847811
_cell_formula_units_Z   1
loop_
 _symmetry_equiv_pos_site_id
 _symmetry_equiv_pos_as_xyz
  1  'x, y, z'
loop_
 _atom_site_type_symbol
 _atom_site_label
 _atom_site_symmetry_multiplicity
 _atom_site_fract_x
 _atom_site_fract_y
 _atom_site_fract_z
 _atom_site_occupancy
  La  La0  1  0.250000  0.051748  0.715673  1
  La  La1  1  0.250000  0.549934  0.783209  1
  La  La2  1  0.250000  0.671841  0.560757  1
  La  La3  1  0.750000  0.828269  0.059780  1
  La  La4  1  0.250000  0.172578  0.940150  1
  La  La5  1  0.750000  0.451296  0.217360  1
  La  La6  1  0.750000  0.945007  0.284408  1
  Pa  Pa7  1  0.750000  0.328582  0.441003  1
  Zn  Zn8  1  0.250000  0.119308  0.149139  1
  Zn  Zn9  1  0.250000  0.989304  0.439089  1
  Zn  Zn10  1  0.750000  0.877479  0.849993  1
  Zn  Zn11  1  0.750000  0.001167  0.556603  1
  Zn  Zn12  1  0.250000  0.498724  0.059204  1
  Zn  Zn13  1  0.750000  0.377453  0.647624  1
  Zn  Zn14  1  0.750000  0.502033  0.940842  1
  Zn  Zn15  1  0.250000  0.615852  0.350653  1
  Ir  Ir16  1  0.750000  0.255073  0.812044  1
  Ir  Ir17  1  0.250000  0.257185  0.330685  1
  Ir  Ir18  1  0.250000  0.740439  0.934303  1
  Ir  Ir19  1  0.250000  0.253683  0.552624  1
  Ir  Ir20  1  0.250000  0.749269  0.186403  1
  Ir  Ir21  1  0.750000  0.741118  0.435094  1
  Ir  Ir22  1  0.750000  0.261337  0.067575  1
  Ir  Ir23  1  0.750000  0.761321  0.685785  1
