# generated using pymatgen
data_Ca2Ag3RuO6
_symmetry_space_group_name_H-M   'P 1'
_cell_length_a   5.84570600
_cell_length_b   5.84570782
_cell_length_c   18.92219200
_cell_angle_alpha   90.00000000
_cell_angle_beta   90.00000000
_cell_angle_gamma   119.99998970
_symmetry_Int_Tables_number   1
_chemical_formula_structural   Ca2Ag3RuO6
_chemical_formula_sum   'Ca6 Ag9 Ru3 O18'
_cell_volume   559.98474438
_cell_formula_units_Z   3
loop_
 _symmetry_equiv_pos_site_id
 _symmetry_equiv_pos_as_xyz
  1  'x, y, z'
loop_
 _atom_site_type_symbol
 _atom_site_label
 _atom_site_symmetry_multiplicity
 _atom_site_fract_x
 _atom_site_fract_y
 _atom_site_fract_z
 _atom_site_occupancy
  Ca  Ca0  1  0.107254  0.892746  0.333333  1
  Ca  Ca1  1  0.107254  0.214508  0.666667  1
  Ca  Ca2  1  0.785492  0.892746  0.000000  1
  Ca  Ca3  1  0.773910  0.226090  0.333333  1
  Ca  Ca4  1  0.773910  0.547820  0.666667  1
  Ca  Ca5  1  0.452180  0.226090  0.000000  1
  Ag  Ag6  1  0.442153  0.221076  0.500000  1
  Ag  Ag7  1  0.778924  0.221076  0.833333  1
  Ag  Ag8  1  0.778924  0.557847  0.166667  1
  Ag  Ag9  1  0.147202  0.573601  0.500000  1
  Ag  Ag10  1  0.426399  0.573601  0.833333  1
  Ag  Ag11  1  0.426399  0.852798  0.166667  1
  Ag  Ag12  1  0.732917  0.866457  0.500000  1
  Ag  Ag13  1  0.133543  0.866457  0.833333  1
  Ag  Ag14  1  0.133543  0.267083  0.166667  1
  Ru  Ru15  1  0.441228  0.558772  0.333333  1
  Ru  Ru16  1  0.441228  0.882458  0.666667  1
  Ru  Ru17  1  0.117542  0.558772  0.000000  1
  O  O18  1  0.729132  0.559062  0.276329  1
  O  O19  1  0.440938  0.170069  0.609662  1
  O  O20  1  0.829931  0.270868  0.942996  1
  O  O21  1  0.729132  0.170069  0.723671  1
  O  O22  1  0.440938  0.270868  0.390338  1
  O  O23  1  0.829931  0.559062  0.057004  1
  O  O24  1  0.441230  0.848058  0.276830  1
  O  O25  1  0.151942  0.593172  0.610163  1
  O  O26  1  0.406828  0.558770  0.943497  1
  O  O27  1  0.441230  0.593172  0.723170  1
  O  O28  1  0.151942  0.558770  0.389837  1
  O  O29  1  0.406828  0.848058  0.056503  1
  O  O30  1  0.152400  0.270383  0.276799  1
  O  O31  1  0.729617  0.882017  0.610132  1
  O  O32  1  0.117983  0.847600  0.943465  1
  O  O33  1  0.152400  0.882017  0.723201  1
  O  O34  1  0.729617  0.847600  0.389868  1
  O  O35  1  0.117983  0.270383  0.056535  1
