# generated using pymatgen
data_Tb2Si6Ni3Ir7
_symmetry_space_group_name_H-M   'P 1'
_cell_length_a   3.86893700
_cell_length_b   10.98607600
_cell_length_c   12.40763600
_cell_angle_alpha   90.00000000
_cell_angle_beta   90.00000000
_cell_angle_gamma   90.00000000
_symmetry_Int_Tables_number   1
_chemical_formula_structural   Tb2Si6Ni3Ir7
_chemical_formula_sum   'Tb4 Si12 Ni6 Ir14'
_cell_volume   527.37956930
_cell_formula_units_Z   2
loop_
 _symmetry_equiv_pos_site_id
 _symmetry_equiv_pos_as_xyz
  1  'x, y, z'
loop_
 _atom_site_type_symbol
 _atom_site_label
 _atom_site_symmetry_multiplicity
 _atom_site_fract_x
 _atom_site_fract_y
 _atom_site_fract_z
 _atom_site_occupancy
  Tb  Tb0  1  0.250000  0.591702  0.705630  1
  Tb  Tb1  1  0.250000  0.908298  0.205630  1
  Tb  Tb2  1  0.750000  0.410415  0.296071  1
  Tb  Tb3  1  0.750000  0.089585  0.796071  1
  Si  Si4  1  0.250000  0.408994  0.105946  1
  Si  Si5  1  0.250000  0.091006  0.605946  1
  Si  Si6  1  0.750000  0.583291  0.890599  1
  Si  Si7  1  0.750000  0.916709  0.390599  1
  Si  Si8  1  0.250000  0.273554  0.879662  1
  Si  Si9  1  0.250000  0.226446  0.379662  1
  Si  Si10  1  0.750000  0.721064  0.121684  1
  Si  Si11  1  0.750000  0.778936  0.621684  1
  Si  Si12  1  0.250000  0.597879  0.387043  1
  Si  Si13  1  0.250000  0.902121  0.887043  1
  Si  Si14  1  0.750000  0.401836  0.616444  1
  Si  Si15  1  0.750000  0.098164  0.116444  1
  Ni  Ni16  1  0.750000  0.108411  0.306587  1
  Ni  Ni17  1  0.750000  0.391589  0.806587  1
  Ni  Ni18  1  0.250000  0.469060  0.929677  1
  Ni  Ni19  1  0.250000  0.030940  0.429677  1
  Ni  Ni20  1  0.750000  0.524307  0.063839  1
  Ni  Ni21  1  0.750000  0.975693  0.563839  1
  Ir  Ir22  1  0.250000  0.710015  0.982740  1
  Ir  Ir23  1  0.250000  0.789985  0.482740  1
  Ir  Ir24  1  0.750000  0.284838  0.010586  1
  Ir  Ir25  1  0.750000  0.215162  0.510586  1
  Ir  Ir26  1  0.250000  0.409050  0.489383  1
  Ir  Ir27  1  0.250000  0.090950  0.989383  1
  Ir  Ir28  1  0.750000  0.594458  0.515544  1
  Ir  Ir29  1  0.750000  0.905542  0.015544  1
  Ir  Ir30  1  0.250000  0.215311  0.186975  1
  Ir  Ir31  1  0.250000  0.284689  0.686975  1
  Ir  Ir32  1  0.750000  0.779278  0.818106  1
  Ir  Ir33  1  0.750000  0.720722  0.318106  1
  Ir  Ir34  1  0.250000  0.896349  0.693483  1
  Ir  Ir35  1  0.250000  0.603651  0.193483  1
