# generated using pymatgen
data_TcMo11P4
_symmetry_space_group_name_H-M   'P 1'
_cell_length_a   7.34941267
_cell_length_b   7.34941268
_cell_length_c   7.37158270
_cell_angle_alpha   96.28448370
_cell_angle_beta   96.28449358
_cell_angle_gamma   141.41251399
_symmetry_Int_Tables_number   1
_chemical_formula_structural   TcMo11P4
_chemical_formula_sum   'Tc1 Mo11 P4'
_cell_volume   234.31581293
_cell_formula_units_Z   1
loop_
 _symmetry_equiv_pos_site_id
 _symmetry_equiv_pos_as_xyz
  1  'x, y, z'
loop_
 _atom_site_type_symbol
 _atom_site_label
 _atom_site_symmetry_multiplicity
 _atom_site_fract_x
 _atom_site_fract_y
 _atom_site_fract_z
 _atom_site_occupancy
  Tc  Tc0  1  0.918592  0.918592  0.403757  1
  Mo  Mo1  1  0.069048  0.472879  0.000135  1
  Mo  Mo2  1  0.472879  0.069048  0.000135  1
  Mo  Mo3  1  0.518101  0.518101  0.592592  1
  Mo  Mo4  1  0.003619  0.357675  0.355459  1
  Mo  Mo5  1  0.650839  0.002504  0.644301  1
  Mo  Mo6  1  0.357675  0.003619  0.355459  1
  Mo  Mo7  1  0.002504  0.650839  0.644301  1
  Mo  Mo8  1  0.141378  0.141378  0.811882  1
  Mo  Mo9  1  0.862721  0.677289  0.001817  1
  Mo  Mo10  1  0.677289  0.862721  0.001817  1
  Mo  Mo11  1  0.310863  0.310863  0.183706  1
  P  P12  1  0.505977  0.211975  0.709338  1
  P  P13  1  0.792561  0.503980  0.292979  1
  P  P14  1  0.211975  0.505977  0.709338  1
  P  P15  1  0.503980  0.792561  0.292979  1
