# generated using pymatgen
data_Tb2Er3ReRuC7
_symmetry_space_group_name_H-M   'P 1'
_cell_length_a   8.24824727
_cell_length_b   8.23171526
_cell_length_c   3.46027700
_cell_angle_alpha   90.00000000
_cell_angle_beta   90.00000000
_cell_angle_gamma   122.18481672
_symmetry_Int_Tables_number   1
_chemical_formula_structural   Tb2Er3ReRuC7
_chemical_formula_sum   'Tb2 Er3 Re1 Ru1 C7'
_cell_volume   198.84049905
_cell_formula_units_Z   1
loop_
 _symmetry_equiv_pos_site_id
 _symmetry_equiv_pos_as_xyz
  1  'x, y, z'
loop_
 _atom_site_type_symbol
 _atom_site_label
 _atom_site_symmetry_multiplicity
 _atom_site_fract_x
 _atom_site_fract_y
 _atom_site_fract_z
 _atom_site_occupancy
  Tb  Tb0  1  0.501106  0.499735  0.000000  1
  Tb  Tb1  1  0.073204  0.333290  0.500000  1
  Er  Er2  1  0.921001  0.660913  0.500000  1
  Er  Er3  1  0.661812  0.924095  0.500000  1
  Er  Er4  1  0.341016  0.078240  0.500000  1
  Re  Re5  1  0.284337  0.715862  0.000000  1
  Ru  Ru6  1  0.713139  0.286930  0.000000  1
  C  C7  1  0.630576  0.370081  0.500000  1
  C  C8  1  0.372737  0.627859  0.500000  1
  C  C9  1  0.000328  0.000162  0.000000  1
  C  C10  1  0.172568  0.167929  0.000000  1
  C  C11  1  0.829162  0.830469  0.000000  1
  C  C12  1  0.001283  0.505433  0.000000  1
  C  C13  1  0.497733  0.999001  0.000000  1
