# generated using pymatgen
data_NaTbCo3P7Ru9
_symmetry_space_group_name_H-M   'P 1'
_cell_length_a   9.33319500
_cell_length_b   9.33319528
_cell_length_c   3.81599000
_cell_angle_alpha   90.00000000
_cell_angle_beta   90.00000000
_cell_angle_gamma   120.00000256
_symmetry_Int_Tables_number   1
_chemical_formula_structural   NaTbCo3P7Ru9
_chemical_formula_sum   'Na1 Tb1 Co3 P7 Ru9'
_cell_volume   287.87141382
_cell_formula_units_Z   1
loop_
 _symmetry_equiv_pos_site_id
 _symmetry_equiv_pos_as_xyz
  1  'x, y, z'
loop_
 _atom_site_type_symbol
 _atom_site_label
 _atom_site_symmetry_multiplicity
 _atom_site_fract_x
 _atom_site_fract_y
 _atom_site_fract_z
 _atom_site_occupancy
  Na  Na0  1  0.000000  0.000000  0.000000  1
  Tb  Tb1  1  0.333333  0.666667  0.500000  1
  Co  Co2  1  0.824230  0.600495  0.000000  1
  Co  Co3  1  0.399505  0.223736  0.000000  1
  Co  Co4  1  0.776264  0.175770  0.000000  1
  P  P5  1  0.781953  0.729997  0.500000  1
  P  P6  1  0.270003  0.051957  0.500000  1
  P  P7  1  0.948043  0.218047  0.500000  1
  P  P8  1  0.666667  0.333333  0.000000  1
  P  P9  1  0.079580  0.639810  0.000000  1
  P  P10  1  0.360190  0.439770  0.000000  1
  P  P11  1  0.560230  0.920420  0.000000  1
  Ru  Ru12  1  0.087396  0.394783  0.000000  1
  Ru  Ru13  1  0.605217  0.692613  0.000000  1
  Ru  Ru14  1  0.307387  0.912604  0.000000  1
  Ru  Ru15  1  0.053473  0.771816  0.500000  1
  Ru  Ru16  1  0.228184  0.281656  0.500000  1
  Ru  Ru17  1  0.718344  0.946527  0.500000  1
  Ru  Ru18  1  0.868484  0.417706  0.500000  1
  Ru  Ru19  1  0.582294  0.450777  0.500000  1
  Ru  Ru20  1  0.549223  0.131516  0.500000  1
