# generated using pymatgen
data_Sm2BeCoSi4
_symmetry_space_group_name_H-M   'P 1'
_cell_length_a   8.46744971
_cell_length_b   8.46745044
_cell_length_c   3.98747600
_cell_angle_alpha   90.00000000
_cell_angle_beta   90.00000000
_cell_angle_gamma   152.00038594
_symmetry_Int_Tables_number   1
_chemical_formula_structural   Sm2BeCoSi4
_chemical_formula_sum   'Sm2 Be1 Co1 Si4'
_cell_volume   134.21688674
_cell_formula_units_Z   1
loop_
 _symmetry_equiv_pos_site_id
 _symmetry_equiv_pos_as_xyz
  1  'x, y, z'
loop_
 _atom_site_type_symbol
 _atom_site_label
 _atom_site_symmetry_multiplicity
 _atom_site_fract_x
 _atom_site_fract_y
 _atom_site_fract_z
 _atom_site_occupancy
  Sm  Sm0  1  0.112698  0.887302  0.250000  1
  Sm  Sm1  1  0.898507  0.101493  0.750000  1
  Be  Be2  1  0.672843  0.327157  0.750000  1
  Co  Co3  1  0.316801  0.683199  0.250000  1
  Si  Si4  1  0.754097  0.245903  0.250000  1
  Si  Si5  1  0.252085  0.747915  0.750000  1
  Si  Si6  1  0.537726  0.462274  0.750000  1
  Si  Si7  1  0.455242  0.544758  0.250000  1
