# generated using pymatgen
data_SmDy2Cr(Co4P3)2
_symmetry_space_group_name_H-M   'P 1'
_cell_length_a   3.69347000
_cell_length_b   10.53231200
_cell_length_c   12.20343300
_cell_angle_alpha   90.00000000
_cell_angle_beta   90.00000000
_cell_angle_gamma   90.00000000
_symmetry_Int_Tables_number   1
_chemical_formula_structural   SmDy2Cr(Co4P3)2
_chemical_formula_sum   'Sm2 Dy4 Cr2 Co16 P12'
_cell_volume   474.72304288
_cell_formula_units_Z   2
loop_
 _symmetry_equiv_pos_site_id
 _symmetry_equiv_pos_as_xyz
  1  'x, y, z'
loop_
 _atom_site_type_symbol
 _atom_site_label
 _atom_site_symmetry_multiplicity
 _atom_site_fract_x
 _atom_site_fract_y
 _atom_site_fract_z
 _atom_site_occupancy
  Sm  Sm0  1  0.000000  0.500000  0.523246  1
  Sm  Sm1  1  0.500000  0.000000  0.476754  1
  Dy  Dy2  1  0.500000  0.817730  0.204250  1
  Dy  Dy3  1  0.500000  0.182270  0.204250  1
  Dy  Dy4  1  0.000000  0.682270  0.795750  1
  Dy  Dy5  1  0.000000  0.317730  0.795750  1
  Cr  Cr6  1  0.500000  0.500000  0.155077  1
  Cr  Cr7  1  0.000000  0.000000  0.844923  1
  Co  Co8  1  0.500000  0.500000  0.704275  1
  Co  Co9  1  0.000000  0.000000  0.295725  1
  Co  Co10  1  0.000000  0.500000  0.987182  1
  Co  Co11  1  0.500000  0.000000  0.012818  1
  Co  Co12  1  0.500000  0.332526  0.992914  1
  Co  Co13  1  0.500000  0.667474  0.992914  1
  Co  Co14  1  0.000000  0.167474  0.007086  1
  Co  Co15  1  0.000000  0.832526  0.007086  1
  Co  Co16  1  0.500000  0.295736  0.430126  1
  Co  Co17  1  0.500000  0.704264  0.430126  1
  Co  Co18  1  0.000000  0.204264  0.569874  1
  Co  Co19  1  0.000000  0.795736  0.569874  1
  Co  Co20  1  0.500000  0.879641  0.709902  1
  Co  Co21  1  0.500000  0.120359  0.709902  1
  Co  Co22  1  0.000000  0.620359  0.290098  1
  Co  Co23  1  0.000000  0.379641  0.290098  1
  P  P24  1  0.500000  0.500000  0.883100  1
  P  P25  1  0.000000  0.000000  0.116900  1
  P  P26  1  0.500000  0.500000  0.342700  1
  P  P27  1  0.000000  0.000000  0.657300  1
  P  P28  1  0.500000  0.309311  0.616834  1
  P  P29  1  0.500000  0.690689  0.616834  1
  P  P30  1  0.000000  0.190689  0.383166  1
  P  P31  1  0.000000  0.809311  0.383166  1
  P  P32  1  0.500000  0.847536  0.892637  1
  P  P33  1  0.500000  0.152464  0.892637  1
  P  P34  1  0.000000  0.652464  0.107363  1
  P  P35  1  0.000000  0.347536  0.107363  1
