# generated using pymatgen
data_Li4Ac2DyPb4
_symmetry_space_group_name_H-M   'P 1'
_cell_length_a   4.95774398
_cell_length_b   7.24174138
_cell_length_c   9.16349017
_cell_angle_alpha   113.27476605
_cell_angle_beta   105.69500520
_cell_angle_gamma   89.99999742
_symmetry_Int_Tables_number   1
_chemical_formula_structural   Li4Ac2DyPb4
_chemical_formula_sum   'Li4 Ac2 Dy1 Pb4'
_cell_volume   288.81937264
_cell_formula_units_Z   1
loop_
 _symmetry_equiv_pos_site_id
 _symmetry_equiv_pos_as_xyz
  1  'x, y, z'
loop_
 _atom_site_type_symbol
 _atom_site_label
 _atom_site_symmetry_multiplicity
 _atom_site_fract_x
 _atom_site_fract_y
 _atom_site_fract_z
 _atom_site_occupancy
  Li  Li0  1  0.671523  0.982971  0.343047  1
  Li  Li1  1  0.328477  0.017029  0.656953  1
  Li  Li2  1  0.328477  0.639925  0.656953  1
  Li  Li3  1  0.671523  0.360075  0.343047  1
  Ac  Ac4  1  0.131037  0.631037  0.262075  1
  Ac  Ac5  1  0.868963  0.368963  0.737925  1
  Dy  Dy6  1  0.000000  0.000000  0.000000  1
  Pb  Pb7  1  0.500000  0.717078  0.000000  1
  Pb  Pb8  1  0.500000  0.282922  0.000000  1
  Pb  Pb9  1  0.792850  0.792850  0.585700  1
  Pb  Pb10  1  0.207150  0.207150  0.414300  1
