# generated using pymatgen
data_Nd3NiSn6
_symmetry_space_group_name_H-M   'P 1'
_cell_length_a   8.84994215
_cell_length_b   8.84994300
_cell_length_c   13.34220100
_cell_angle_alpha   90.00000000
_cell_angle_beta   90.00000000
_cell_angle_gamma   149.84441305
_symmetry_Int_Tables_number   1
_chemical_formula_structural   Nd3NiSn6
_chemical_formula_sum   'Nd6 Ni2 Sn12'
_cell_volume   524.94603647
_cell_formula_units_Z   2
loop_
 _symmetry_equiv_pos_site_id
 _symmetry_equiv_pos_as_xyz
  1  'x, y, z'
loop_
 _atom_site_type_symbol
 _atom_site_label
 _atom_site_symmetry_multiplicity
 _atom_site_fract_x
 _atom_site_fract_y
 _atom_site_fract_z
 _atom_site_occupancy
  Nd  Nd0  1  0.897974  0.102026  0.090216  1
  Nd  Nd1  1  0.102026  0.897974  0.590216  1
  Nd  Nd2  1  0.898174  0.101826  0.750000  1
  Nd  Nd3  1  0.102026  0.897974  0.909784  1
  Nd  Nd4  1  0.101826  0.898174  0.250000  1
  Nd  Nd5  1  0.897974  0.102026  0.409784  1
  Ni  Ni6  1  0.305070  0.694930  0.250000  1
  Ni  Ni7  1  0.694930  0.305070  0.750000  1
  Sn  Sn8  1  0.755147  0.244853  0.573119  1
  Sn  Sn9  1  0.433794  0.566206  0.577086  1
  Sn  Sn10  1  0.566206  0.433794  0.422914  1
  Sn  Sn11  1  0.737018  0.262982  0.250000  1
  Sn  Sn12  1  0.262982  0.737018  0.750000  1
  Sn  Sn13  1  0.244853  0.755147  0.073119  1
  Sn  Sn14  1  0.244853  0.755147  0.426881  1
  Sn  Sn15  1  0.566206  0.433794  0.077086  1
  Sn  Sn16  1  0.454980  0.545020  0.250000  1
  Sn  Sn17  1  0.545020  0.454980  0.750000  1
  Sn  Sn18  1  0.755147  0.244853  0.926881  1
  Sn  Sn19  1  0.433794  0.566206  0.922914  1
