# generated using pymatgen
data_Dy3Ho(TmBi)6
_symmetry_space_group_name_H-M   'P 1'
_cell_length_a   8.20949300
_cell_length_b   9.44109700
_cell_length_c   12.00943700
_cell_angle_alpha   90.00000000
_cell_angle_beta   90.00000000
_cell_angle_gamma   90.00000000
_symmetry_Int_Tables_number   1
_chemical_formula_structural   Dy3Ho(TmBi)6
_chemical_formula_sum   'Dy6 Ho2 Tm12 Bi12'
_cell_volume   930.81086678
_cell_formula_units_Z   2
loop_
 _symmetry_equiv_pos_site_id
 _symmetry_equiv_pos_as_xyz
  1  'x, y, z'
loop_
 _atom_site_type_symbol
 _atom_site_label
 _atom_site_symmetry_multiplicity
 _atom_site_fract_x
 _atom_site_fract_y
 _atom_site_fract_z
 _atom_site_occupancy
  Dy  Dy0  1  0.186418  0.750000  0.718615  1
  Dy  Dy1  1  0.686418  0.750000  0.781385  1
  Dy  Dy2  1  0.813561  0.250000  0.281413  1
  Dy  Dy3  1  0.313561  0.250000  0.218587  1
  Dy  Dy4  1  0.353691  0.750000  0.216331  1
  Dy  Dy5  1  0.853691  0.750000  0.283669  1
  Ho  Ho6  1  0.646350  0.250000  0.783838  1
  Ho  Ho7  1  0.146350  0.250000  0.716162  1
  Tm  Tm8  1  0.024920  0.750000  0.988921  1
  Tm  Tm9  1  0.524920  0.750000  0.511079  1
  Tm  Tm10  1  0.975155  0.250000  0.011105  1
  Tm  Tm11  1  0.475155  0.250000  0.488895  1
  Tm  Tm12  1  0.306942  0.434703  0.940633  1
  Tm  Tm13  1  0.806942  0.065297  0.559367  1
  Tm  Tm14  1  0.693004  0.934664  0.059453  1
  Tm  Tm15  1  0.193004  0.565336  0.440547  1
  Tm  Tm16  1  0.693004  0.565336  0.059453  1
  Tm  Tm17  1  0.193004  0.934664  0.440547  1
  Tm  Tm18  1  0.306942  0.065297  0.940633  1
  Tm  Tm19  1  0.806942  0.434703  0.559367  1
  Bi  Bi20  1  0.433668  0.004031  0.672566  1
  Bi  Bi21  1  0.933668  0.495969  0.827434  1
  Bi  Bi22  1  0.566357  0.503935  0.327459  1
  Bi  Bi23  1  0.066357  0.996065  0.172541  1
  Bi  Bi24  1  0.566357  0.996065  0.327459  1
  Bi  Bi25  1  0.066357  0.503935  0.172541  1
  Bi  Bi26  1  0.433668  0.495969  0.672566  1
  Bi  Bi27  1  0.933668  0.004031  0.827434  1
  Bi  Bi28  1  0.406349  0.750000  0.957650  1
  Bi  Bi29  1  0.906349  0.750000  0.542350  1
  Bi  Bi30  1  0.593615  0.250000  0.042176  1
  Bi  Bi31  1  0.093615  0.250000  0.457824  1
