# generated using pymatgen
data_Ce8Zn3Si12H
_symmetry_space_group_name_H-M   'P 1'
_cell_length_a   8.04708000
_cell_length_b   8.04708025
_cell_length_c   8.47898500
_cell_angle_alpha   90.00000000
_cell_angle_beta   90.00000000
_cell_angle_gamma   119.99999895
_symmetry_Int_Tables_number   1
_chemical_formula_structural   Ce8Zn3Si12H
_chemical_formula_sum   'Ce8 Zn3 Si12 H1'
_cell_volume   475.50069356
_cell_formula_units_Z   1
loop_
 _symmetry_equiv_pos_site_id
 _symmetry_equiv_pos_as_xyz
  1  'x, y, z'
loop_
 _atom_site_type_symbol
 _atom_site_label
 _atom_site_symmetry_multiplicity
 _atom_site_fract_x
 _atom_site_fract_y
 _atom_site_fract_z
 _atom_site_occupancy
  Ce  Ce0  1  0.000000  0.000000  0.260047  1
  Ce  Ce1  1  0.000000  0.000000  0.763742  1
  Ce  Ce2  1  0.499865  0.500135  0.258558  1
  Ce  Ce3  1  0.499865  0.999730  0.258558  1
  Ce  Ce4  1  0.000270  0.500135  0.258558  1
  Ce  Ce5  1  0.496283  0.503717  0.763921  1
  Ce  Ce6  1  0.496283  0.992565  0.763921  1
  Ce  Ce7  1  0.007435  0.503717  0.763921  1
  Zn  Zn8  1  0.333333  0.666667  0.498475  1
  Zn  Zn9  1  0.666667  0.333333  0.511844  1
  Zn  Zn10  1  0.666667  0.333333  0.006086  1
  Si  Si11  1  0.165059  0.834941  0.509279  1
  Si  Si12  1  0.165059  0.330118  0.509279  1
  Si  Si13  1  0.669882  0.834941  0.509279  1
  Si  Si14  1  0.833588  0.166412  0.512710  1
  Si  Si15  1  0.833588  0.667175  0.512710  1
  Si  Si16  1  0.332825  0.166412  0.512710  1
  Si  Si17  1  0.837352  0.162648  0.010386  1
  Si  Si18  1  0.837352  0.674704  0.010386  1
  Si  Si19  1  0.325296  0.162648  0.010386  1
  Si  Si20  1  0.177461  0.822539  0.013018  1
  Si  Si21  1  0.177461  0.354924  0.013018  1
  Si  Si22  1  0.645076  0.822539  0.013018  1
  H  H23  1  0.333333  0.666667  0.756188  1
