# generated using pymatgen
data_Dy5Ho5Ru4
_symmetry_space_group_name_H-M   'P 1'
_cell_length_a   6.32991628
_cell_length_b   7.27539969
_cell_length_c   8.46385562
_cell_angle_alpha   96.68753536
_cell_angle_beta   112.03683530
_cell_angle_gamma   89.95555141
_symmetry_Int_Tables_number   1
_chemical_formula_structural   Dy5Ho5Ru4
_chemical_formula_sum   'Dy5 Ho5 Ru4'
_cell_volume   358.45822969
_cell_formula_units_Z   1
loop_
 _symmetry_equiv_pos_site_id
 _symmetry_equiv_pos_as_xyz
  1  'x, y, z'
loop_
 _atom_site_type_symbol
 _atom_site_label
 _atom_site_symmetry_multiplicity
 _atom_site_fract_x
 _atom_site_fract_y
 _atom_site_fract_z
 _atom_site_occupancy
  Dy  Dy0  1  0.977777  0.915753  0.186582  1
  Dy  Dy1  1  0.791269  0.584132  0.813258  1
  Dy  Dy2  1  0.022398  0.084385  0.813418  1
  Dy  Dy3  1  0.208586  0.415744  0.186748  1
  Dy  Dy4  1  0.640913  0.814667  0.434921  1
  Ho  Ho5  1  0.206010  0.685247  0.565422  1
  Ho  Ho6  1  0.359120  0.185318  0.565210  1
  Ho  Ho7  1  0.794145  0.314723  0.434661  1
  Ho  Ho8  1  0.419294  0.749779  0.999691  1
  Ho  Ho9  1  0.580597  0.250173  0.000105  1
  Ru  Ru10  1  0.822868  0.576037  0.220264  1
  Ru  Ru11  1  0.602334  0.924408  0.779733  1
  Ru  Ru12  1  0.177215  0.423826  0.779619  1
  Ru  Ru13  1  0.397473  0.075807  0.220368  1
