# generated using pymatgen
data_Er6TiAl23(CoOs3)2
_symmetry_space_group_name_H-M   'P 1'
_cell_length_a   8.79933100
_cell_length_b   8.79933059
_cell_length_c   9.44473600
_cell_angle_alpha   90.00000000
_cell_angle_beta   90.00000000
_cell_angle_gamma   119.99999777
_symmetry_Int_Tables_number   1
_chemical_formula_structural   Er6TiAl23(CoOs3)2
_chemical_formula_sum   'Er6 Ti1 Al23 Co2 Os6'
_cell_volume   633.31496970
_cell_formula_units_Z   1
loop_
 _symmetry_equiv_pos_site_id
 _symmetry_equiv_pos_as_xyz
  1  'x, y, z'
loop_
 _atom_site_type_symbol
 _atom_site_label
 _atom_site_symmetry_multiplicity
 _atom_site_fract_x
 _atom_site_fract_y
 _atom_site_fract_z
 _atom_site_occupancy
  Er  Er0  1  0.195031  0.390064  0.251113  1
  Er  Er1  1  0.805770  0.611539  0.747232  1
  Er  Er2  1  0.609936  0.804969  0.251113  1
  Er  Er3  1  0.388461  0.194230  0.747232  1
  Er  Er4  1  0.195031  0.804969  0.251113  1
  Er  Er5  1  0.805770  0.194230  0.747232  1
  Ti  Ti6  1  0.333333  0.666667  0.990641  1
  Al  Al7  1  0.666667  0.333333  0.983727  1
  Al  Al8  1  0.666667  0.333333  0.517695  1
  Al  Al9  1  0.333333  0.666667  0.481164  1
  Al  Al10  1  0.159233  0.318466  0.575670  1
  Al  Al11  1  0.840551  0.681102  0.424385  1
  Al  Al12  1  0.681534  0.840767  0.575670  1
  Al  Al13  1  0.841031  0.682063  0.077553  1
  Al  Al14  1  0.318898  0.159449  0.424385  1
  Al  Al15  1  0.155439  0.310878  0.925045  1
  Al  Al16  1  0.159233  0.840767  0.575670  1
  Al  Al17  1  0.317937  0.158969  0.077553  1
  Al  Al18  1  0.840551  0.159449  0.424385  1
  Al  Al19  1  0.689122  0.844561  0.925045  1
  Al  Al20  1  0.841031  0.158969  0.077553  1
  Al  Al21  1  0.155439  0.844561  0.925045  1
  Al  Al22  1  0.560978  0.121954  0.253688  1
  Al  Al23  1  0.440992  0.881985  0.748871  1
  Al  Al24  1  0.878046  0.439022  0.253688  1
  Al  Al25  1  0.118015  0.559008  0.748871  1
  Al  Al26  1  0.560978  0.439022  0.253688  1
  Al  Al27  1  0.440992  0.559008  0.748871  1
  Al  Al28  1  0.000000  0.000000  0.250548  1
  Al  Al29  1  0.000000  0.000000  0.749219  1
  Co  Co30  1  0.000000  0.000000  0.000779  1
  Co  Co31  1  0.000000  0.000000  0.499597  1
  Os  Os32  1  0.499313  0.998627  0.002861  1
  Os  Os33  1  0.001373  0.500687  0.002861  1
  Os  Os34  1  0.499847  0.999695  0.502459  1
  Os  Os35  1  0.499313  0.500687  0.002861  1
  Os  Os36  1  0.000305  0.500153  0.502459  1
  Os  Os37  1  0.499847  0.500153  0.502459  1
