# generated using pymatgen
data_AcPr5(Sn5Pd6)2
_symmetry_space_group_name_H-M   'P 1'
_cell_length_a   4.52723300
_cell_length_b   9.75146800
_cell_length_c   14.10610900
_cell_angle_alpha   90.00000000
_cell_angle_beta   90.00000000
_cell_angle_gamma   90.00000000
_symmetry_Int_Tables_number   1
_chemical_formula_structural   AcPr5(Sn5Pd6)2
_chemical_formula_sum   'Ac1 Pr5 Sn10 Pd12'
_cell_volume   622.74476001
_cell_formula_units_Z   1
loop_
 _symmetry_equiv_pos_site_id
 _symmetry_equiv_pos_as_xyz
  1  'x, y, z'
loop_
 _atom_site_type_symbol
 _atom_site_label
 _atom_site_symmetry_multiplicity
 _atom_site_fract_x
 _atom_site_fract_y
 _atom_site_fract_z
 _atom_site_occupancy
  Ac  Ac0  1  0.000000  0.230570  0.000000  1
  Pr  Pr1  1  0.500000  0.771009  0.500000  1
  Pr  Pr2  1  0.000000  0.247417  0.324982  1
  Pr  Pr3  1  0.500000  0.754534  0.178024  1
  Pr  Pr4  1  0.000000  0.247417  0.675018  1
  Pr  Pr5  1  0.500000  0.754534  0.821976  1
  Sn  Sn6  1  0.000000  0.527166  0.120532  1
  Sn  Sn7  1  0.500000  0.479344  0.381696  1
  Sn  Sn8  1  0.000000  0.527166  0.879468  1
  Sn  Sn9  1  0.500000  0.479344  0.618304  1
  Sn  Sn10  1  0.000000  0.871909  0.328332  1
  Sn  Sn11  1  0.500000  0.122883  0.177983  1
  Sn  Sn12  1  0.000000  0.871909  0.671668  1
  Sn  Sn13  1  0.500000  0.122883  0.822017  1
  Sn  Sn14  1  0.000000  0.803819  0.000000  1
  Sn  Sn15  1  0.500000  0.196842  0.500000  1
  Pd  Pd16  1  0.000000  0.987038  0.145728  1
  Pd  Pd17  1  0.500000  0.008241  0.358493  1
  Pd  Pd18  1  0.000000  0.987038  0.854272  1
  Pd  Pd19  1  0.500000  0.008241  0.641507  1
  Pd  Pd20  1  0.500000  0.979867  0.000000  1
  Pd  Pd21  1  0.000000  0.016345  0.500000  1
  Pd  Pd22  1  0.000000  0.596077  0.308714  1
  Pd  Pd23  1  0.500000  0.403044  0.192349  1
  Pd  Pd24  1  0.000000  0.596077  0.691286  1
  Pd  Pd25  1  0.500000  0.403044  0.807651  1
  Pd  Pd26  1  0.500000  0.498466  0.000000  1
  Pd  Pd27  1  0.000000  0.507771  0.500000  1
