# generated using pymatgen
data_Ti3Al3(CuRu2)2
_symmetry_space_group_name_H-M   'P 1'
_cell_length_a   4.29525700
_cell_length_b   6.14750900
_cell_length_c   12.79628300
_cell_angle_alpha   90.00000000
_cell_angle_beta   90.00002229
_cell_angle_gamma   90.00000000
_symmetry_Int_Tables_number   1
_chemical_formula_structural   Ti3Al3(CuRu2)2
_chemical_formula_sum   'Ti6 Al6 Cu4 Ru8'
_cell_volume   337.88752976
_cell_formula_units_Z   2
loop_
 _symmetry_equiv_pos_site_id
 _symmetry_equiv_pos_as_xyz
  1  'x, y, z'
loop_
 _atom_site_type_symbol
 _atom_site_label
 _atom_site_symmetry_multiplicity
 _atom_site_fract_x
 _atom_site_fract_y
 _atom_site_fract_z
 _atom_site_occupancy
  Ti  Ti0  1  0.000051  0.000000  0.005016  1
  Ti  Ti1  1  0.500193  0.499999  0.167872  1
  Ti  Ti2  1  0.000194  0.000000  0.332126  1
  Ti  Ti3  1  0.500057  0.499999  0.495011  1
  Ti  Ti4  1  0.999804  0.000000  0.660063  1
  Ti  Ti5  1  0.499807  0.499999  0.839881  1
  Al  Al6  1  0.999999  0.499999  0.000325  1
  Al  Al7  1  0.500156  0.000000  0.166629  1
  Al  Al8  1  0.000153  0.499999  0.333346  1
  Al  Al9  1  0.500000  0.000000  0.499647  1
  Al  Al10  1  0.999766  0.499999  0.669683  1
  Al  Al11  1  0.499766  0.000000  0.830379  1
  Cu  Cu12  1  0.499774  0.250877  0.664647  1
  Cu  Cu13  1  0.499774  0.749122  0.664647  1
  Cu  Cu14  1  0.999779  0.249412  0.835387  1
  Cu  Cu15  1  0.999779  0.750586  0.835387  1
  Ru  Ru16  1  0.500042  0.250882  0.994906  1
  Ru  Ru17  1  0.500042  0.749118  0.994906  1
  Ru  Ru18  1  0.000193  0.250890  0.164677  1
  Ru  Ru19  1  0.000193  0.749108  0.164677  1
  Ru  Ru20  1  0.500191  0.249154  0.335334  1
  Ru  Ru21  1  0.500191  0.750845  0.335334  1
  Ru  Ru22  1  0.000041  0.249101  0.505058  1
  Ru  Ru23  1  0.000041  0.750897  0.505058  1
