# generated using pymatgen
data_Sm4IrPd(RhO7)2
_symmetry_space_group_name_H-M   'P 1'
_cell_length_a   7.33144745
_cell_length_b   7.32629578
_cell_length_c   7.32629500
_cell_angle_alpha   60.25986197
_cell_angle_beta   60.25319747
_cell_angle_gamma   60.25318709
_symmetry_Int_Tables_number   1
_chemical_formula_structural   Sm4IrPd(RhO7)2
_chemical_formula_sum   'Sm4 Ir1 Pd1 Rh2 O14'
_cell_volume   279.86411948
_cell_formula_units_Z   1
loop_
 _symmetry_equiv_pos_site_id
 _symmetry_equiv_pos_as_xyz
  1  'x, y, z'
loop_
 _atom_site_type_symbol
 _atom_site_label
 _atom_site_symmetry_multiplicity
 _atom_site_fract_x
 _atom_site_fract_y
 _atom_site_fract_z
 _atom_site_occupancy
  Sm  Sm0  1  0.625000  0.125000  0.125000  1
  Sm  Sm1  1  0.125000  0.625000  0.125000  1
  Sm  Sm2  1  0.125000  0.125000  0.625000  1
  Sm  Sm3  1  0.125000  0.125000  0.125000  1
  Ir  Ir4  1  0.125000  0.625000  0.625000  1
  Pd  Pd5  1  0.625000  0.625000  0.625000  1
  Rh  Rh6  1  0.625000  0.125000  0.625000  1
  Rh  Rh7  1  0.625000  0.625000  0.125000  1
  O  O8  1  0.715610  0.710612  0.285235  1
  O  O9  1  0.290236  0.295981  0.708981  1
  O  O10  1  0.715610  0.285235  0.710612  1
  O  O11  1  0.290236  0.708981  0.295981  1
  O  O12  1  0.286130  0.709551  0.709551  1
  O  O13  1  0.713834  0.290997  0.290997  1
  O  O14  1  0.534390  0.539388  0.964765  1
  O  O15  1  0.959764  0.954019  0.541019  1
  O  O16  1  0.534390  0.964765  0.539388  1
  O  O17  1  0.959764  0.541019  0.954019  1
  O  O18  1  0.963870  0.540449  0.540449  1
  O  O19  1  0.536166  0.959003  0.959003  1
  O  O20  1  0.248955  0.250595  0.250595  1
  O  O21  1  0.001045  0.999405  0.999405  1
