# generated using pymatgen
data_Re2Tc2Ir3Ru
_symmetry_space_group_name_H-M   'P 1'
_cell_length_a   5.49393051
_cell_length_b   5.53757222
_cell_length_c   4.37912800
_cell_angle_alpha   90.00000000
_cell_angle_beta   90.00000000
_cell_angle_gamma   119.54760855
_symmetry_Int_Tables_number   1
_chemical_formula_structural   Re2Tc2Ir3Ru
_chemical_formula_sum   'Re2 Tc2 Ir3 Ru1'
_cell_volume   115.89978066
_cell_formula_units_Z   1
loop_
 _symmetry_equiv_pos_site_id
 _symmetry_equiv_pos_as_xyz
  1  'x, y, z'
loop_
 _atom_site_type_symbol
 _atom_site_label
 _atom_site_symmetry_multiplicity
 _atom_site_fract_x
 _atom_site_fract_y
 _atom_site_fract_z
 _atom_site_occupancy
  Re  Re0  1  0.164772  0.334638  0.250000  1
  Re  Re1  1  0.832998  0.664526  0.750000  1
  Tc  Tc2  1  0.331036  0.664336  0.750000  1
  Tc  Tc3  1  0.670090  0.335070  0.250000  1
  Ir  Ir4  1  0.665988  0.831941  0.250000  1
  Ir  Ir5  1  0.165727  0.831112  0.250000  1
  Ir  Ir6  1  0.333412  0.167525  0.750000  1
  Ru  Ru7  1  0.835977  0.170851  0.750000  1
