# generated using pymatgen
data_Tm2B8IrOs
_symmetry_space_group_name_H-M   'P 1'
_cell_length_a   3.54844000
_cell_length_b   5.93598325
_cell_length_c   11.50758527
_cell_angle_alpha   90.11978654
_cell_angle_beta   90.00000000
_cell_angle_gamma   90.00000000
_symmetry_Int_Tables_number   1
_chemical_formula_structural   Tm2B8IrOs
_chemical_formula_sum   'Tm4 B16 Ir2 Os2'
_cell_volume   242.38926718
_cell_formula_units_Z   2
loop_
 _symmetry_equiv_pos_site_id
 _symmetry_equiv_pos_as_xyz
  1  'x, y, z'
loop_
 _atom_site_type_symbol
 _atom_site_label
 _atom_site_symmetry_multiplicity
 _atom_site_fract_x
 _atom_site_fract_y
 _atom_site_fract_z
 _atom_site_occupancy
  Tm  Tm0  1  0.500000  0.130113  0.648192  1
  Tm  Tm1  1  0.500000  0.869887  0.351808  1
  Tm  Tm2  1  0.500000  0.630915  0.849763  1
  Tm  Tm3  1  0.500000  0.369085  0.150237  1
  B  B4  1  0.000000  0.475054  0.691990  1
  B  B5  1  0.000000  0.524946  0.308010  1
  B  B6  1  0.000000  0.976470  0.806598  1
  B  B7  1  0.000000  0.023530  0.193402  1
  B  B8  1  0.000000  0.291587  0.811999  1
  B  B9  1  0.000000  0.708413  0.188001  1
  B  B10  1  0.000000  0.790852  0.686715  1
  B  B11  1  0.000000  0.209148  0.313285  1
  B  B12  1  0.000000  0.364014  0.970529  1
  B  B13  1  0.000000  0.635986  0.029471  1
  B  B14  1  0.000000  0.864325  0.529953  1
  B  B15  1  0.000000  0.135675  0.470047  1
  B  B16  1  0.000000  0.387133  0.546734  1
  B  B17  1  0.000000  0.612867  0.453266  1
  B  B18  1  0.000000  0.887110  0.952276  1
  B  B19  1  0.000000  0.112890  0.047724  1
  Ir  Ir20  1  0.500000  0.145033  0.903282  1
  Ir  Ir21  1  0.500000  0.854967  0.096718  1
  Os  Os22  1  0.500000  0.642434  0.594074  1
  Os  Os23  1  0.500000  0.357566  0.405926  1
