# generated using pymatgen
data_Pu2I5
_symmetry_space_group_name_H-M   'P 1'
_cell_length_a   4.43713700
_cell_length_b   9.23967958
_cell_length_c   14.99629800
_cell_angle_alpha   86.86648272
_cell_angle_beta   90.00000000
_cell_angle_gamma   90.00000000
_symmetry_Int_Tables_number   1
_chemical_formula_structural   Pu2I5
_chemical_formula_sum   'Pu4 I10'
_cell_volume   613.89485758
_cell_formula_units_Z   2
loop_
 _symmetry_equiv_pos_site_id
 _symmetry_equiv_pos_as_xyz
  1  'x, y, z'
loop_
 _atom_site_type_symbol
 _atom_site_label
 _atom_site_symmetry_multiplicity
 _atom_site_fract_x
 _atom_site_fract_y
 _atom_site_fract_z
 _atom_site_occupancy
  Pu  Pu0  1  0.250000  0.909288  0.143789  1
  Pu  Pu1  1  0.750000  0.090712  0.856211  1
  Pu  Pu2  1  0.250000  0.426230  0.649142  1
  Pu  Pu3  1  0.750000  0.573770  0.350858  1
  I  I4  1  0.250000  0.369052  0.282233  1
  I  I5  1  0.750000  0.630948  0.717767  1
  I  I6  1  0.250000  0.857480  0.928832  1
  I  I7  1  0.750000  0.142520  0.071168  1
  I  I8  1  0.750000  0.312656  0.514876  1
  I  I9  1  0.250000  0.687344  0.485124  1
  I  I10  1  0.750000  0.929644  0.306545  1
  I  I11  1  0.250000  0.070356  0.693455  1
  I  I12  1  0.750000  0.656259  0.129442  1
  I  I13  1  0.250000  0.343741  0.870558  1
