# generated using pymatgen
data_K4Ba2TiAs4
_symmetry_space_group_name_H-M   'P 1'
_cell_length_a   10.49096379
_cell_length_b   10.49096411
_cell_length_c   8.11742270
_cell_angle_alpha   89.12624117
_cell_angle_beta   89.12623703
_cell_angle_gamma   120.00399527
_symmetry_Int_Tables_number   1
_chemical_formula_structural   K4Ba2TiAs4
_chemical_formula_sum   'K8 Ba4 Ti2 As8'
_cell_volume   773.32133696
_cell_formula_units_Z   2
loop_
 _symmetry_equiv_pos_site_id
 _symmetry_equiv_pos_as_xyz
  1  'x, y, z'
loop_
 _atom_site_type_symbol
 _atom_site_label
 _atom_site_symmetry_multiplicity
 _atom_site_fract_x
 _atom_site_fract_y
 _atom_site_fract_z
 _atom_site_occupancy
  K  K0  1  0.055152  0.526456  0.618719  1
  K  K1  1  0.526456  0.055152  0.118719  1
  K  K2  1  0.274573  0.133526  0.816436  1
  K  K3  1  0.870425  0.726432  0.775827  1
  K  K4  1  0.861874  0.145693  0.796654  1
  K  K5  1  0.726432  0.870425  0.275827  1
  K  K6  1  0.133526  0.274573  0.316436  1
  K  K7  1  0.145693  0.861874  0.296654  1
  Ba  Ba8  1  0.468058  0.941017  0.614100  1
  Ba  Ba9  1  0.466360  0.524773  0.619860  1
  Ba  Ba10  1  0.941017  0.468058  0.114100  1
  Ba  Ba11  1  0.524773  0.466360  0.119860  1
  Ti  Ti12  1  0.668342  0.336308  0.511405  1
  Ti  Ti13  1  0.336308  0.668342  0.011405  1
  As  As14  1  0.667137  0.345044  0.822338  1
  As  As15  1  0.345044  0.667137  0.322338  1
  As  As16  1  0.594827  0.791878  0.891888  1
  As  As17  1  0.204717  0.402382  0.923588  1
  As  As18  1  0.201422  0.793522  0.910176  1
  As  As19  1  0.402382  0.204717  0.423588  1
  As  As20  1  0.791878  0.594827  0.391888  1
  As  As21  1  0.793522  0.201422  0.410176  1
