# generated using pymatgen
data_Li4YNi9As6P
_symmetry_space_group_name_H-M   'P 1'
_cell_length_a   9.38121859
_cell_length_b   9.42580758
_cell_length_c   3.79471700
_cell_angle_alpha   90.00000000
_cell_angle_beta   90.00000000
_cell_angle_gamma   120.07681378
_symmetry_Int_Tables_number   1
_chemical_formula_structural   Li4YNi9As6P
_chemical_formula_sum   'Li4 Y1 Ni9 As6 P1'
_cell_volume   290.36961845
_cell_formula_units_Z   1
loop_
 _symmetry_equiv_pos_site_id
 _symmetry_equiv_pos_as_xyz
  1  'x, y, z'
loop_
 _atom_site_type_symbol
 _atom_site_label
 _atom_site_symmetry_multiplicity
 _atom_site_fract_x
 _atom_site_fract_y
 _atom_site_fract_z
 _atom_site_occupancy
  Li  Li0  1  0.894689  0.785805  0.500000  1
  Li  Li1  1  0.890540  0.105762  0.500000  1
  Li  Li2  1  0.217167  0.102945  0.500000  1
  Li  Li3  1  0.667767  0.333798  0.500000  1
  Y  Y4  1  0.331733  0.669486  0.000000  1
  Ni  Ni5  1  0.712625  0.884102  0.000000  1
  Ni  Ni6  1  0.168790  0.287252  0.000000  1
  Ni  Ni7  1  0.125728  0.833957  0.000000  1
  Ni  Ni8  1  0.624240  0.573035  0.000000  1
  Ni  Ni9  1  0.947370  0.376757  0.000000  1
  Ni  Ni10  1  0.420541  0.042846  0.000000  1
  Ni  Ni11  1  0.552684  0.951787  0.500000  1
  Ni  Ni12  1  0.392769  0.433898  0.500000  1
  Ni  Ni13  1  0.053234  0.618254  0.500000  1
  As  As14  1  0.592716  0.715223  0.500000  1
  As  As15  1  0.122087  0.408089  0.500000  1
  As  As16  1  0.000982  0.999912  0.000000  1
  As  As17  1  0.877966  0.579726  0.000000  1
  As  As18  1  0.698241  0.125040  0.000000  1
  As  As19  1  0.424119  0.296737  0.000000  1
  P  P20  1  0.284009  0.875589  0.500000  1
