# generated using pymatgen
data_La3Tb5(Tm3Si4)4
_symmetry_space_group_name_H-M   'P 1'
_cell_length_a   7.64980017
_cell_length_b   7.64654400
_cell_length_c   14.09108700
_cell_angle_alpha   90.09225422
_cell_angle_beta   89.98790391
_cell_angle_gamma   90.04240005
_symmetry_Int_Tables_number   1
_chemical_formula_structural   La3Tb5(Tm3Si4)4
_chemical_formula_sum   'La3 Tb5 Tm12 Si16'
_cell_volume   824.25025001
_cell_formula_units_Z   1
loop_
 _symmetry_equiv_pos_site_id
 _symmetry_equiv_pos_as_xyz
  1  'x, y, z'
loop_
 _atom_site_type_symbol
 _atom_site_label
 _atom_site_symmetry_multiplicity
 _atom_site_fract_x
 _atom_site_fract_y
 _atom_site_fract_z
 _atom_site_occupancy
  La  La0  1  0.853906  0.491523  0.789459  1
  La  La1  1  0.145820  0.508802  0.291048  1
  La  La2  1  0.008443  0.353807  0.040315  1
  Tb  Tb3  1  0.641606  0.993781  0.460077  1
  Tb  Tb4  1  0.359532  0.005819  0.958306  1
  Tb  Tb5  1  0.994229  0.642715  0.540998  1
  Tb  Tb6  1  0.493624  0.859699  0.209315  1
  Tb  Tb7  1  0.505674  0.139689  0.707488  1
  Tm  Tm8  1  0.491949  0.359717  0.124484  1
  Tm  Tm9  1  0.995029  0.138878  0.624854  1
  Tm  Tm10  1  0.859305  0.006864  0.873239  1
  Tm  Tm11  1  0.138721  0.991963  0.375537  1
  Tm  Tm12  1  0.509723  0.640948  0.623642  1
  Tm  Tm13  1  0.359493  0.493721  0.875189  1
  Tm  Tm14  1  0.640039  0.507930  0.377076  1
  Tm  Tm15  1  0.006197  0.859701  0.126042  1
  Tm  Tm16  1  0.319296  0.317406  0.499886  1
  Tm  Tm17  1  0.183428  0.818953  0.749269  1
  Tm  Tm18  1  0.815902  0.179888  0.250629  1
  Tm  Tm19  1  0.678750  0.684328  0.999924  1
  Si  Si20  1  0.294551  0.940974  0.562527  1
  Si  Si21  1  0.703457  0.057065  0.062513  1
  Si  Si22  1  0.935694  0.289697  0.439343  1
  Si  Si23  1  0.443374  0.203258  0.313143  1
  Si  Si24  1  0.557584  0.796014  0.811815  1
  Si  Si25  1  0.212936  0.436441  0.686803  1
  Si  Si26  1  0.783792  0.567134  0.188712  1
  Si  Si27  1  0.067213  0.715397  0.938222  1
  Si  Si28  1  0.795534  0.852058  0.683720  1
  Si  Si29  1  0.209074  0.144318  0.188327  1
  Si  Si30  1  0.841884  0.800810  0.313301  1
  Si  Si31  1  0.350043  0.706577  0.439780  1
  Si  Si32  1  0.644580  0.290743  0.937657  1
  Si  Si33  1  0.702493  0.345872  0.563077  1
  Si  Si34  1  0.300174  0.657714  0.062372  1
  Si  Si35  1  0.156950  0.199795  0.811915  1
