# generated using pymatgen
data_Pu8Si12PdRh3
_symmetry_space_group_name_H-M   'P 1'
_cell_length_a   8.22823500
_cell_length_b   8.22823478
_cell_length_c   7.94909600
_cell_angle_alpha   90.00000000
_cell_angle_beta   90.00000000
_cell_angle_gamma   120.00000489
_symmetry_Int_Tables_number   1
_chemical_formula_structural   Pu8Si12PdRh3
_chemical_formula_sum   'Pu8 Si12 Pd1 Rh3'
_cell_volume   466.08133827
_cell_formula_units_Z   1
loop_
 _symmetry_equiv_pos_site_id
 _symmetry_equiv_pos_as_xyz
  1  'x, y, z'
loop_
 _atom_site_type_symbol
 _atom_site_label
 _atom_site_symmetry_multiplicity
 _atom_site_fract_x
 _atom_site_fract_y
 _atom_site_fract_z
 _atom_site_occupancy
  Pu  Pu0  1  0.000000  0.000000  0.249834  1
  Pu  Pu1  1  0.000000  0.000000  0.750180  1
  Pu  Pu2  1  0.505294  0.494706  0.246643  1
  Pu  Pu3  1  0.505294  0.010588  0.246643  1
  Pu  Pu4  1  0.989412  0.494706  0.246643  1
  Pu  Pu5  1  0.500627  0.499373  0.752899  1
  Pu  Pu6  1  0.500627  0.001255  0.752899  1
  Pu  Pu7  1  0.998745  0.499373  0.752899  1
  Si  Si8  1  0.164076  0.835924  0.500887  1
  Si  Si9  1  0.164076  0.328150  0.500887  1
  Si  Si10  1  0.671850  0.835924  0.500887  1
  Si  Si11  1  0.835247  0.164753  0.498518  1
  Si  Si12  1  0.835247  0.670496  0.498518  1
  Si  Si13  1  0.329504  0.164753  0.498518  1
  Si  Si14  1  0.836341  0.163659  0.000804  1
  Si  Si15  1  0.836341  0.672683  0.000804  1
  Si  Si16  1  0.327317  0.163659  0.000804  1
  Si  Si17  1  0.165450  0.834550  0.999313  1
  Si  Si18  1  0.165450  0.330898  0.999313  1
  Si  Si19  1  0.669102  0.834550  0.999313  1
  Pd  Pd20  1  0.333333  0.666667  0.486798  1
  Rh  Rh21  1  0.666667  0.333333  0.505476  1
  Rh  Rh22  1  0.666667  0.333333  0.994302  1
  Rh  Rh23  1  0.333333  0.666667  0.016220  1
