# generated using pymatgen
data_UBrCl5
_symmetry_space_group_name_H-M   'P 1'
_cell_length_a   11.93781100
_cell_length_b   11.93781024
_cell_length_c   6.53072900
_cell_angle_alpha   90.00000000
_cell_angle_beta   90.00000000
_cell_angle_gamma   119.99999934
_symmetry_Int_Tables_number   1
_chemical_formula_structural   UBrCl5
_chemical_formula_sum   'U3 Br3 Cl15'
_cell_volume   806.01229590
_cell_formula_units_Z   3
loop_
 _symmetry_equiv_pos_site_id
 _symmetry_equiv_pos_as_xyz
  1  'x, y, z'
loop_
 _atom_site_type_symbol
 _atom_site_label
 _atom_site_symmetry_multiplicity
 _atom_site_fract_x
 _atom_site_fract_y
 _atom_site_fract_z
 _atom_site_occupancy
  U  U0  1  0.666667  0.333333  0.515363  1
  U  U1  1  0.333333  0.666667  0.476601  1
  U  U2  1  0.000000  0.000000  0.000577  1
  Br  Br3  1  0.229557  0.770443  0.710700  1
  Br  Br4  1  0.229557  0.459113  0.710700  1
  Br  Br5  1  0.540887  0.770443  0.710700  1
  Cl  Cl6  1  0.097662  0.902338  0.218560  1
  Cl  Cl7  1  0.097662  0.195324  0.218560  1
  Cl  Cl8  1  0.804676  0.902338  0.218560  1
  Cl  Cl9  1  0.195352  0.097675  0.782057  1
  Cl  Cl10  1  0.902325  0.804648  0.782057  1
  Cl  Cl11  1  0.902325  0.097675  0.782057  1
  Cl  Cl12  1  0.431233  0.568767  0.260027  1
  Cl  Cl13  1  0.431233  0.862465  0.260027  1
  Cl  Cl14  1  0.137535  0.568767  0.260027  1
  Cl  Cl15  1  0.861755  0.430877  0.734254  1
  Cl  Cl16  1  0.569123  0.138245  0.734254  1
  Cl  Cl17  1  0.569123  0.430877  0.734254  1
  Cl  Cl18  1  0.764310  0.235690  0.296888  1
  Cl  Cl19  1  0.764310  0.528621  0.296888  1
  Cl  Cl20  1  0.471379  0.235690  0.296888  1
