# generated using pymatgen
data_Hf16FeNi3Os4
_symmetry_space_group_name_H-M   'P 1'
_cell_length_a   8.60901266
_cell_length_b   8.61484904
_cell_length_c   8.61484900
_cell_angle_alpha   60.00000399
_cell_angle_beta   59.97757542
_cell_angle_gamma   59.97757341
_symmetry_Int_Tables_number   1
_chemical_formula_structural   Hf16FeNi3Os4
_chemical_formula_sum   'Hf16 Fe1 Ni3 Os4'
_cell_volume   451.63377203
_cell_formula_units_Z   1
loop_
 _symmetry_equiv_pos_site_id
 _symmetry_equiv_pos_as_xyz
  1  'x, y, z'
loop_
 _atom_site_type_symbol
 _atom_site_label
 _atom_site_symmetry_multiplicity
 _atom_site_fract_x
 _atom_site_fract_y
 _atom_site_fract_z
 _atom_site_occupancy
  Hf  Hf0  1  0.181168  0.606277  0.606277  1
  Hf  Hf1  1  0.605674  0.190082  0.602122  1
  Hf  Hf2  1  0.605674  0.602122  0.190082  1
  Hf  Hf3  1  0.605674  0.602122  0.602122  1
  Hf  Hf4  1  0.815766  0.813525  0.185354  1
  Hf  Hf5  1  0.185091  0.185076  0.814917  1
  Hf  Hf6  1  0.815766  0.185354  0.813525  1
  Hf  Hf7  1  0.185091  0.814917  0.185076  1
  Hf  Hf8  1  0.185091  0.814917  0.814917  1
  Hf  Hf9  1  0.815766  0.185354  0.185354  1
  Hf  Hf10  1  0.456881  0.454351  0.044384  1
  Hf  Hf11  1  0.045391  0.054367  0.450121  1
  Hf  Hf12  1  0.456881  0.044384  0.454351  1
  Hf  Hf13  1  0.045391  0.450121  0.054367  1
  Hf  Hf14  1  0.045391  0.450121  0.450121  1
  Hf  Hf15  1  0.456881  0.044384  0.044384  1
  Fe  Fe16  1  0.824200  0.391933  0.391933  1
  Ni  Ni17  1  0.389943  0.826186  0.391935  1
  Ni  Ni18  1  0.389943  0.391935  0.826186  1
  Ni  Ni19  1  0.389943  0.391935  0.391935  1
  Os  Os20  1  0.499463  0.833513  0.833513  1
  Os  Os21  1  0.832978  0.500115  0.833454  1
  Os  Os22  1  0.832978  0.833454  0.500115  1
  Os  Os23  1  0.832978  0.833454  0.833454  1
