# generated using pymatgen
data_Tb3Co5(P3Ir2)2
_symmetry_space_group_name_H-M   'P 1'
_cell_length_a   3.80819300
_cell_length_b   10.86329900
_cell_length_c   12.57511000
_cell_angle_alpha   90.00000000
_cell_angle_beta   90.00000000
_cell_angle_gamma   90.00000000
_symmetry_Int_Tables_number   1
_chemical_formula_structural   Tb3Co5(P3Ir2)2
_chemical_formula_sum   'Tb6 Co10 P12 Ir8'
_cell_volume   520.22650620
_cell_formula_units_Z   2
loop_
 _symmetry_equiv_pos_site_id
 _symmetry_equiv_pos_as_xyz
  1  'x, y, z'
loop_
 _atom_site_type_symbol
 _atom_site_label
 _atom_site_symmetry_multiplicity
 _atom_site_fract_x
 _atom_site_fract_y
 _atom_site_fract_z
 _atom_site_occupancy
  Tb  Tb0  1  0.000000  0.500000  0.521209  1
  Tb  Tb1  1  0.500000  0.000000  0.478791  1
  Tb  Tb2  1  0.500000  0.815488  0.197162  1
  Tb  Tb3  1  0.500000  0.184512  0.197162  1
  Tb  Tb4  1  0.000000  0.684512  0.802838  1
  Tb  Tb5  1  0.000000  0.315488  0.802838  1
  Co  Co6  1  0.000000  0.500000  0.992098  1
  Co  Co7  1  0.500000  0.000000  0.007902  1
  Co  Co8  1  0.500000  0.879432  0.716429  1
  Co  Co9  1  0.500000  0.120568  0.716429  1
  Co  Co10  1  0.000000  0.620568  0.283571  1
  Co  Co11  1  0.000000  0.379432  0.283571  1
  Co  Co12  1  0.500000  0.333007  0.995613  1
  Co  Co13  1  0.500000  0.666993  0.995613  1
  Co  Co14  1  0.000000  0.166993  0.004387  1
  Co  Co15  1  0.000000  0.833007  0.004387  1
  P  P16  1  0.500000  0.309564  0.624841  1
  P  P17  1  0.500000  0.690436  0.624841  1
  P  P18  1  0.000000  0.190436  0.375159  1
  P  P19  1  0.000000  0.809564  0.375159  1
  P  P20  1  0.500000  0.500000  0.894768  1
  P  P21  1  0.000000  0.000000  0.105232  1
  P  P22  1  0.500000  0.843274  0.897462  1
  P  P23  1  0.500000  0.156726  0.897462  1
  P  P24  1  0.000000  0.656726  0.102538  1
  P  P25  1  0.000000  0.343274  0.102538  1
  P  P26  1  0.500000  0.500000  0.343896  1
  P  P27  1  0.000000  0.000000  0.656104  1
  Ir  Ir28  1  0.500000  0.298487  0.426041  1
  Ir  Ir29  1  0.500000  0.701513  0.426041  1
  Ir  Ir30  1  0.000000  0.201513  0.573959  1
  Ir  Ir31  1  0.000000  0.798487  0.573959  1
  Ir  Ir32  1  0.500000  0.500000  0.159491  1
  Ir  Ir33  1  0.000000  0.000000  0.840509  1
  Ir  Ir34  1  0.500000  0.500000  0.708797  1
  Ir  Ir35  1  0.000000  0.000000  0.291203  1
