# generated using pymatgen
data_Tb7HoTi9Si16Mo3
_symmetry_space_group_name_H-M   'P 1'
_cell_length_a   7.02421746
_cell_length_b   7.02358370
_cell_length_c   12.90898118
_cell_angle_alpha   90.04545821
_cell_angle_beta   89.96623943
_cell_angle_gamma   90.00416034
_symmetry_Int_Tables_number   1
_chemical_formula_structural   Tb7HoTi9Si16Mo3
_chemical_formula_sum   'Tb7 Ho1 Ti9 Si16 Mo3'
_cell_volume   636.86658804
_cell_formula_units_Z   1
loop_
 _symmetry_equiv_pos_site_id
 _symmetry_equiv_pos_as_xyz
  1  'x, y, z'
loop_
 _atom_site_type_symbol
 _atom_site_label
 _atom_site_symmetry_multiplicity
 _atom_site_fract_x
 _atom_site_fract_y
 _atom_site_fract_z
 _atom_site_occupancy
  Tb  Tb0  1  0.340175  0.002294  0.466560  1
  Tb  Tb1  1  0.498556  0.841734  0.718191  1
  Tb  Tb2  1  0.500532  0.158723  0.216570  1
  Tb  Tb3  1  0.841816  0.498626  0.281788  1
  Tb  Tb4  1  0.158598  0.500596  0.783401  1
  Tb  Tb5  1  0.659500  0.999252  0.966987  1
  Tb  Tb6  1  0.002272  0.340181  0.533487  1
  Ho  Ho7  1  0.000136  0.658960  0.033179  1
  Ti  Ti8  1  0.673273  0.673219  0.500036  1
  Ti  Ti9  1  0.152409  0.009446  0.876370  1
  Ti  Ti10  1  0.490565  0.652921  0.125148  1
  Ti  Ti11  1  0.508500  0.346224  0.627242  1
  Ti  Ti12  1  0.653037  0.490791  0.874910  1
  Ti  Ti13  1  0.346103  0.508442  0.372735  1
  Ti  Ti14  1  0.848176  0.990979  0.374737  1
  Ti  Ti15  1  0.009376  0.152399  0.123741  1
  Ti  Ti16  1  0.991116  0.848094  0.625231  1
  Si  Si17  1  0.201660  0.129275  0.684823  1
  Si  Si18  1  0.369358  0.700717  0.934937  1
  Si  Si19  1  0.630061  0.297755  0.434933  1
  Si  Si20  1  0.701482  0.370759  0.065161  1
  Si  Si21  1  0.297757  0.630003  0.565151  1
  Si  Si22  1  0.799332  0.869805  0.184548  1
  Si  Si23  1  0.129276  0.201696  0.315142  1
  Si  Si24  1  0.870547  0.798536  0.815224  1
  Si  Si25  1  0.290320  0.952000  0.064770  1
  Si  Si26  1  0.546913  0.790058  0.314878  1
  Si  Si27  1  0.452370  0.209713  0.815378  1
  Si  Si28  1  0.790049  0.546795  0.685129  1
  Si  Si29  1  0.209175  0.452840  0.184290  1
  Si  Si30  1  0.709042  0.048321  0.565830  1
  Si  Si31  1  0.952725  0.291695  0.935378  1
  Si  Si32  1  0.048289  0.708977  0.434243  1
  Mo  Mo33  1  0.326740  0.327321  0.000042  1
  Mo  Mo34  1  0.173917  0.826622  0.249002  1
  Mo  Mo35  1  0.826847  0.174227  0.750827  1
