# generated using pymatgen
data_Cs6V2Te7Se
_symmetry_space_group_name_H-M   'P 1'
_cell_length_a   10.74352800
_cell_length_b   10.73318800
_cell_length_c   12.69845700
_cell_angle_alpha   90.00000000
_cell_angle_beta   90.00000000
_cell_angle_gamma   90.00000000
_symmetry_Int_Tables_number   1
_chemical_formula_structural   Cs6V2Te7Se
_chemical_formula_sum   'Cs12 V4 Te14 Se2'
_cell_volume   1464.28835686
_cell_formula_units_Z   2
loop_
 _symmetry_equiv_pos_site_id
 _symmetry_equiv_pos_as_xyz
  1  'x, y, z'
loop_
 _atom_site_type_symbol
 _atom_site_label
 _atom_site_symmetry_multiplicity
 _atom_site_fract_x
 _atom_site_fract_y
 _atom_site_fract_z
 _atom_site_occupancy
  Cs  Cs0  1  0.546133  0.205453  0.051084  1
  Cs  Cs1  1  0.046133  0.294547  0.448916  1
  Cs  Cs2  1  0.455357  0.796670  0.540710  1
  Cs  Cs3  1  0.955357  0.703330  0.959290  1
  Cs  Cs4  1  0.455357  0.796670  0.959290  1
  Cs  Cs5  1  0.955357  0.703330  0.540710  1
  Cs  Cs6  1  0.546133  0.205453  0.448916  1
  Cs  Cs7  1  0.046133  0.294547  0.051084  1
  Cs  Cs8  1  0.645527  0.402511  0.750000  1
  Cs  Cs9  1  0.145527  0.097489  0.750000  1
  Cs  Cs10  1  0.353510  0.585393  0.250000  1
  Cs  Cs11  1  0.853510  0.914607  0.250000  1
  V  V12  1  0.721806  0.983023  0.750000  1
  V  V13  1  0.221806  0.516977  0.750000  1
  V  V14  1  0.278429  0.024909  0.250000  1
  V  V15  1  0.778429  0.475091  0.250000  1
  Te  Te16  1  0.832108  0.051040  0.585865  1
  Te  Te17  1  0.332108  0.448960  0.914135  1
  Te  Te18  1  0.167489  0.954707  0.086434  1
  Te  Te19  1  0.667489  0.545293  0.413566  1
  Te  Te20  1  0.167489  0.954707  0.413566  1
  Te  Te21  1  0.667489  0.545293  0.086434  1
  Te  Te22  1  0.832108  0.051040  0.914135  1
  Te  Te23  1  0.332108  0.448960  0.585865  1
  Te  Te24  1  0.505065  0.071410  0.750000  1
  Te  Te25  1  0.005065  0.428590  0.750000  1
  Te  Te26  1  0.494123  0.929222  0.250000  1
  Te  Te27  1  0.994123  0.570778  0.250000  1
  Te  Te28  1  0.708833  0.749862  0.750000  1
  Te  Te29  1  0.208833  0.750138  0.750000  1
  Se  Se30  1  0.290532  0.236947  0.250000  1
  Se  Se31  1  0.790532  0.263053  0.250000  1
