# generated using pymatgen
data_Zr8Ga(Si5Mo4)3
_symmetry_space_group_name_H-M   'P 1'
_cell_length_a   6.62272519
_cell_length_b   6.78245923
_cell_length_c   12.73431907
_cell_angle_alpha   90.08661406
_cell_angle_beta   89.96034773
_cell_angle_gamma   90.00679571
_symmetry_Int_Tables_number   1
_chemical_formula_structural   Zr8Ga(Si5Mo4)3
_chemical_formula_sum   'Zr8 Ga1 Si15 Mo12'
_cell_volume   572.00398004
_cell_formula_units_Z   1
loop_
 _symmetry_equiv_pos_site_id
 _symmetry_equiv_pos_as_xyz
  1  'x, y, z'
loop_
 _atom_site_type_symbol
 _atom_site_label
 _atom_site_symmetry_multiplicity
 _atom_site_fract_x
 _atom_site_fract_y
 _atom_site_fract_z
 _atom_site_occupancy
  Zr  Zr0  1  0.995561  0.172593  0.093272  1
  Zr  Zr1  1  0.004055  0.828431  0.907123  1
  Zr  Zr2  1  0.504012  0.671005  0.907500  1
  Zr  Zr3  1  0.004724  0.831610  0.592817  1
  Zr  Zr4  1  0.495198  0.328957  0.092985  1
  Zr  Zr5  1  0.992963  0.169608  0.405541  1
  Zr  Zr6  1  0.498324  0.327725  0.405231  1
  Zr  Zr7  1  0.508792  0.672856  0.593076  1
  Ga  Ga8  1  0.172126  0.458235  0.542789  1
  Si  Si9  1  0.033144  0.126562  0.749546  1
  Si  Si10  1  0.965966  0.877998  0.248365  1
  Si  Si11  1  0.466608  0.624146  0.249448  1
  Si  Si12  1  0.530685  0.376242  0.750587  1
  Si  Si13  1  0.300562  0.860482  0.750683  1
  Si  Si14  1  0.699551  0.136994  0.249072  1
  Si  Si15  1  0.199724  0.363799  0.250622  1
  Si  Si16  1  0.801713  0.636934  0.750015  1
  Si  Si17  1  0.834672  0.541783  0.456659  1
  Si  Si18  1  0.333148  0.958800  0.457663  1
  Si  Si19  1  0.833722  0.541350  0.042972  1
  Si  Si20  1  0.666453  0.041309  0.542278  1
  Si  Si21  1  0.166068  0.457792  0.957694  1
  Si  Si22  1  0.666146  0.041090  0.957270  1
  Si  Si23  1  0.333211  0.958243  0.043400  1
  Mo  Mo24  1  0.165992  0.509975  0.753244  1
  Mo  Mo25  1  0.832745  0.488677  0.249672  1
  Mo  Mo26  1  0.333124  0.011472  0.249618  1
  Mo  Mo27  1  0.668316  0.988386  0.751030  1
  Mo  Mo28  1  0.336472  0.156965  0.626702  1
  Mo  Mo29  1  0.667940  0.835500  0.375392  1
  Mo  Mo30  1  0.165570  0.671982  0.372151  1
  Mo  Mo31  1  0.667845  0.835203  0.123489  1
  Mo  Mo32  1  0.825134  0.334788  0.624909  1
  Mo  Mo33  1  0.331430  0.163058  0.877257  1
  Mo  Mo34  1  0.830377  0.335368  0.876559  1
  Mo  Mo35  1  0.167930  0.664083  0.123368  1
