# generated using pymatgen
data_Nd2ErTm3(RuI3)2
_symmetry_space_group_name_H-M   'P 1'
_cell_length_a   4.23615200
_cell_length_b   8.99413849
_cell_length_c   12.30938024
_cell_angle_alpha   94.59899343
_cell_angle_beta   90.00000000
_cell_angle_gamma   90.00000000
_symmetry_Int_Tables_number   1
_chemical_formula_structural   Nd2ErTm3(RuI3)2
_chemical_formula_sum   'Nd2 Er1 Tm3 Ru2 I6'
_cell_volume   467.48398060
_cell_formula_units_Z   1
loop_
 _symmetry_equiv_pos_site_id
 _symmetry_equiv_pos_as_xyz
  1  'x, y, z'
loop_
 _atom_site_type_symbol
 _atom_site_label
 _atom_site_symmetry_multiplicity
 _atom_site_fract_x
 _atom_site_fract_y
 _atom_site_fract_z
 _atom_site_occupancy
  Nd  Nd0  1  0.750000  0.273050  0.603662  1
  Nd  Nd1  1  0.250000  0.727100  0.395862  1
  Er  Er2  1  0.250000  0.100699  0.815636  1
  Tm  Tm3  1  0.750000  0.882238  0.626050  1
  Tm  Tm4  1  0.250000  0.117585  0.373667  1
  Tm  Tm5  1  0.750000  0.899313  0.185486  1
  Ru  Ru6  1  0.750000  0.942069  0.405305  1
  Ru  Ru7  1  0.250000  0.057750  0.594207  1
  I  I8  1  0.750000  0.413466  0.360071  1
  I  I9  1  0.250000  0.586605  0.639902  1
  I  I10  1  0.750000  0.867435  0.890164  1
  I  I11  1  0.250000  0.131892  0.110026  1
  I  I12  1  0.750000  0.348534  0.871185  1
  I  I13  1  0.250000  0.652263  0.128777  1
