# generated using pymatgen
data_La7Tm13Pb16
_symmetry_space_group_name_H-M   'P 1'
_cell_length_a   8.28592589
_cell_length_b   8.39034190
_cell_length_c   15.77555542
_cell_angle_alpha   90.06773437
_cell_angle_beta   89.61054495
_cell_angle_gamma   90.47196167
_symmetry_Int_Tables_number   1
_chemical_formula_structural   La7Tm13Pb16
_chemical_formula_sum   'La7 Tm13 Pb16'
_cell_volume   1096.68099892
_cell_formula_units_Z   1
loop_
 _symmetry_equiv_pos_site_id
 _symmetry_equiv_pos_as_xyz
  1  'x, y, z'
loop_
 _atom_site_type_symbol
 _atom_site_label
 _atom_site_symmetry_multiplicity
 _atom_site_fract_x
 _atom_site_fract_y
 _atom_site_fract_z
 _atom_site_occupancy
  La  La0  1  0.523159  0.321114  0.401296  1
  La  La1  1  0.475682  0.678289  0.904053  1
  La  La2  1  0.977605  0.822564  0.595918  1
  La  La3  1  0.975303  0.824585  0.904505  1
  La  La4  1  0.477684  0.677499  0.596111  1
  La  La5  1  0.523789  0.320909  0.097001  1
  La  La6  1  0.020898  0.176982  0.404336  1
  Tm  Tm7  1  0.864171  0.657436  0.123290  1
  Tm  Tm8  1  0.361007  0.842997  0.376427  1
  Tm  Tm9  1  0.633894  0.157280  0.878652  1
  Tm  Tm10  1  0.137215  0.342525  0.623770  1
  Tm  Tm11  1  0.133373  0.341109  0.878300  1
  Tm  Tm12  1  0.637450  0.157686  0.622801  1
  Tm  Tm13  1  0.364871  0.844204  0.122093  1
  Tm  Tm14  1  0.863233  0.656039  0.374130  1
  Tm  Tm15  1  0.032559  0.175572  0.099932  1
  Tm  Tm16  1  0.699646  0.995578  0.248335  1
  Tm  Tm17  1  0.198097  0.505682  0.248390  1
  Tm  Tm18  1  0.801104  0.493146  0.750304  1
  Tm  Tm19  1  0.300599  0.005724  0.751116  1
  Pb  Pb20  1  0.059810  0.870788  0.248919  1
  Pb  Pb21  1  0.559149  0.631713  0.249572  1
  Pb  Pb22  1  0.439706  0.368375  0.750950  1
  Pb  Pb23  1  0.939456  0.131170  0.750467  1
  Pb  Pb24  1  0.841818  0.346098  0.245824  1
  Pb  Pb25  1  0.331017  0.147592  0.249027  1
  Pb  Pb26  1  0.664134  0.852828  0.750053  1
  Pb  Pb27  1  0.163132  0.649026  0.750251  1
  Pb  Pb28  1  0.797280  0.458994  0.956007  1
  Pb  Pb29  1  0.299386  0.044160  0.544300  1
  Pb  Pb30  1  0.712788  0.965530  0.046434  1
  Pb  Pb31  1  0.200721  0.541949  0.454985  1
  Pb  Pb32  1  0.199900  0.537468  0.044935  1
  Pb  Pb33  1  0.699705  0.954263  0.455032  1
  Pb  Pb34  1  0.291416  0.045857  0.959286  1
  Pb  Pb35  1  0.799243  0.457270  0.543198  1
