# generated using pymatgen
data_SmThCo2(As2Pd)2
_symmetry_space_group_name_H-M   'P 1'
_cell_length_a   4.28277500
_cell_length_b   4.28277500
_cell_length_c   9.63013800
_cell_angle_alpha   90.00000000
_cell_angle_beta   90.00000000
_cell_angle_gamma   90.00000000
_symmetry_Int_Tables_number   1
_chemical_formula_structural   SmThCo2(As2Pd)2
_chemical_formula_sum   'Sm1 Th1 Co2 As4 Pd2'
_cell_volume   176.63754840
_cell_formula_units_Z   1
loop_
 _symmetry_equiv_pos_site_id
 _symmetry_equiv_pos_as_xyz
  1  'x, y, z'
loop_
 _atom_site_type_symbol
 _atom_site_label
 _atom_site_symmetry_multiplicity
 _atom_site_fract_x
 _atom_site_fract_y
 _atom_site_fract_z
 _atom_site_occupancy
  Sm  Sm0  1  0.000000  0.500000  0.259748  1
  Th  Th1  1  0.500000  0.000000  0.739877  1
  Co  Co2  1  0.000000  0.500000  0.606981  1
  Co  Co3  1  0.500000  0.000000  0.395115  1
  As  As4  1  0.000000  0.000000  0.498324  1
  As  As5  1  0.500000  0.500000  0.498324  1
  As  As6  1  0.000000  0.500000  0.847945  1
  As  As7  1  0.500000  0.000000  0.155668  1
  Pd  Pd8  1  0.000000  0.000000  0.999008  1
  Pd  Pd9  1  0.500000  0.500000  0.999008  1
