# generated using pymatgen
data_Nd3(FeH6)2
_symmetry_space_group_name_H-M   'P 1'
_cell_length_a   4.75821600
_cell_length_b   4.75821469
_cell_length_c   8.22204700
_cell_angle_alpha   90.00000000
_cell_angle_beta   90.00000000
_cell_angle_gamma   119.99999519
_symmetry_Int_Tables_number   1
_chemical_formula_structural   Nd3(FeH6)2
_chemical_formula_sum   'Nd3 Fe2 H12'
_cell_volume   161.21253030
_cell_formula_units_Z   1
loop_
 _symmetry_equiv_pos_site_id
 _symmetry_equiv_pos_as_xyz
  1  'x, y, z'
loop_
 _atom_site_type_symbol
 _atom_site_label
 _atom_site_symmetry_multiplicity
 _atom_site_fract_x
 _atom_site_fract_y
 _atom_site_fract_z
 _atom_site_occupancy
  Nd  Nd0  1  0.000000  0.000000  0.000000  1
  Nd  Nd1  1  0.666667  0.333333  0.358673  1
  Nd  Nd2  1  0.333333  0.666667  0.641327  1
  Fe  Fe3  1  0.666667  0.333333  0.755758  1
  Fe  Fe4  1  0.333333  0.666667  0.244242  1
  H  H5  1  0.177151  0.822849  0.361815  1
  H  H6  1  0.645699  0.822849  0.361815  1
  H  H7  1  0.177151  0.354301  0.361815  1
  H  H8  1  0.822849  0.177151  0.638185  1
  H  H9  1  0.354301  0.177151  0.638185  1
  H  H10  1  0.822849  0.645699  0.638185  1
  H  H11  1  0.509343  0.018687  0.870684  1
  H  H12  1  0.509343  0.490657  0.870684  1
  H  H13  1  0.981313  0.490657  0.870684  1
  H  H14  1  0.490657  0.981313  0.129316  1
  H  H15  1  0.490657  0.509343  0.129316  1
  H  H16  1  0.018687  0.509343  0.129316  1
