# generated using pymatgen
data_Er6Zr4InSb5
_symmetry_space_group_name_H-M   'P 1'
_cell_length_a   8.77684304
_cell_length_b   8.77684414
_cell_length_c   6.00405300
_cell_angle_alpha   90.00000000
_cell_angle_beta   90.00000000
_cell_angle_gamma   120.07810465
_symmetry_Int_Tables_number   1
_chemical_formula_structural   Er6Zr4InSb5
_chemical_formula_sum   'Er6 Zr4 In1 Sb5'
_cell_volume   400.22989393
_cell_formula_units_Z   1
loop_
 _symmetry_equiv_pos_site_id
 _symmetry_equiv_pos_as_xyz
  1  'x, y, z'
loop_
 _atom_site_type_symbol
 _atom_site_label
 _atom_site_symmetry_multiplicity
 _atom_site_fract_x
 _atom_site_fract_y
 _atom_site_fract_z
 _atom_site_occupancy
  Er  Er0  1  0.753645  0.753645  0.750000  1
  Er  Er1  1  0.248373  0.001903  0.750000  1
  Er  Er2  1  0.001903  0.248373  0.750000  1
  Er  Er3  1  0.244501  0.244501  0.250000  1
  Er  Er4  1  0.750904  0.997725  0.250000  1
  Er  Er5  1  0.997725  0.750904  0.250000  1
  Zr  Zr6  1  0.668145  0.332711  0.999343  1
  Zr  Zr7  1  0.332711  0.668145  0.999343  1
  Zr  Zr8  1  0.332711  0.668145  0.500657  1
  Zr  Zr9  1  0.668145  0.332711  0.500657  1
  In  In10  1  0.398130  0.398130  0.750000  1
  Sb  Sb11  1  0.606995  0.000655  0.750000  1
  Sb  Sb12  1  0.000655  0.606995  0.750000  1
  Sb  Sb13  1  0.601299  0.601299  0.250000  1
  Sb  Sb14  1  0.393908  0.000250  0.250000  1
  Sb  Sb15  1  0.000250  0.393908  0.250000  1
