# generated using pymatgen
data_TbPbF7
_symmetry_space_group_name_H-M   'P 1'
_cell_length_a   5.83940800
_cell_length_b   6.15839264
_cell_length_c   8.41442742
_cell_angle_alpha   102.87587657
_cell_angle_beta   90.00000000
_cell_angle_gamma   90.00000000
_symmetry_Int_Tables_number   1
_chemical_formula_structural   TbPbF7
_chemical_formula_sum   'Tb2 Pb2 F14'
_cell_volume   294.98561171
_cell_formula_units_Z   2
loop_
 _symmetry_equiv_pos_site_id
 _symmetry_equiv_pos_as_xyz
  1  'x, y, z'
loop_
 _atom_site_type_symbol
 _atom_site_label
 _atom_site_symmetry_multiplicity
 _atom_site_fract_x
 _atom_site_fract_y
 _atom_site_fract_z
 _atom_site_occupancy
  Tb  Tb0  1  0.697426  0.653893  0.685170  1
  Tb  Tb1  1  0.197426  0.346107  0.314830  1
  Pb  Pb2  1  0.706953  0.810991  0.227297  1
  Pb  Pb3  1  0.206953  0.189009  0.772703  1
  F  F4  1  0.901210  0.466022  0.480426  1
  F  F5  1  0.401210  0.533978  0.519574  1
  F  F6  1  0.429174  0.920057  0.769767  1
  F  F7  1  0.929174  0.079943  0.230233  1
  F  F8  1  0.943076  0.949970  0.759570  1
  F  F9  1  0.443076  0.050030  0.240430  1
  F  F10  1  0.990705  0.465881  0.793281  1
  F  F11  1  0.490705  0.534119  0.206719  1
  F  F12  1  0.696281  0.758669  0.974290  1
  F  F13  1  0.196281  0.241331  0.025710  1
  F  F14  1  0.702684  0.873967  0.482042  1
  F  F15  1  0.202684  0.126033  0.517958  1
  F  F16  1  0.508852  0.382484  0.783974  1
  F  F17  1  0.008852  0.617516  0.216026  1
