# generated using pymatgen
data_Hf4Al2Re5W
_symmetry_space_group_name_H-M   'P 1'
_cell_length_a   5.27697000
_cell_length_b   5.27301356
_cell_length_c   8.62142100
_cell_angle_alpha   90.00000000
_cell_angle_beta   90.00000000
_cell_angle_gamma   120.02482344
_symmetry_Int_Tables_number   1
_chemical_formula_structural   Hf4Al2Re5W
_chemical_formula_sum   'Hf4 Al2 Re5 W1'
_cell_volume   207.70373697
_cell_formula_units_Z   1
loop_
 _symmetry_equiv_pos_site_id
 _symmetry_equiv_pos_as_xyz
  1  'x, y, z'
loop_
 _atom_site_type_symbol
 _atom_site_label
 _atom_site_symmetry_multiplicity
 _atom_site_fract_x
 _atom_site_fract_y
 _atom_site_fract_z
 _atom_site_occupancy
  Hf  Hf0  1  0.333460  0.666921  0.433325  1
  Hf  Hf1  1  0.666761  0.333522  0.936416  1
  Hf  Hf2  1  0.666761  0.333522  0.563584  1
  Hf  Hf3  1  0.333460  0.666921  0.066675  1
  Al  Al4  1  0.999157  0.998315  0.000939  1
  Al  Al5  1  0.999157  0.998315  0.499061  1
  Re  Re6  1  0.829646  0.170289  0.250000  1
  Re  Re7  1  0.340645  0.170289  0.250000  1
  Re  Re8  1  0.660650  0.830320  0.750000  1
  Re  Re9  1  0.829298  0.658595  0.250000  1
  Re  Re10  1  0.169668  0.830320  0.750000  1
  W  W11  1  0.171335  0.342672  0.750000  1
