# generated using pymatgen
data_P4IrRh
_symmetry_space_group_name_H-M   'P 1'
_cell_length_a   5.84693800
_cell_length_b   5.79246384
_cell_length_c   5.89149556
_cell_angle_alpha   68.15724989
_cell_angle_beta   90.00000000
_cell_angle_gamma   90.00000000
_symmetry_Int_Tables_number   1
_chemical_formula_structural   P4IrRh
_chemical_formula_sum   'P8 Ir2 Rh2'
_cell_volume   185.20934958
_cell_formula_units_Z   2
loop_
 _symmetry_equiv_pos_site_id
 _symmetry_equiv_pos_as_xyz
  1  'x, y, z'
loop_
 _atom_site_type_symbol
 _atom_site_label
 _atom_site_symmetry_multiplicity
 _atom_site_fract_x
 _atom_site_fract_y
 _atom_site_fract_z
 _atom_site_occupancy
  P  P0  1  0.119672  0.839265  0.869527  1
  P  P1  1  0.619672  0.160735  0.630473  1
  P  P2  1  0.880088  0.157110  0.132427  1
  P  P3  1  0.380088  0.842890  0.367573  1
  P  P4  1  0.622921  0.668459  0.186665  1
  P  P5  1  0.122921  0.331541  0.313335  1
  P  P6  1  0.376831  0.336170  0.810683  1
  P  P7  1  0.876831  0.663830  0.689317  1
  Ir  Ir8  1  0.501310  0.729524  0.789627  1
  Ir  Ir9  1  0.001310  0.270476  0.710373  1
  Rh  Rh10  1  0.499177  0.272999  0.208551  1
  Rh  Rh11  1  0.999177  0.727001  0.291449  1
