# generated using pymatgen
data_Nd7Sm(Dy3Sn4)4
_symmetry_space_group_name_H-M   'P 1'
_cell_length_a   8.14504778
_cell_length_b   8.34789840
_cell_length_c   15.70119900
_cell_angle_alpha   89.97191457
_cell_angle_beta   90.12942661
_cell_angle_gamma   90.27966900
_symmetry_Int_Tables_number   1
_chemical_formula_structural   Nd7Sm(Dy3Sn4)4
_chemical_formula_sum   'Nd7 Sm1 Dy12 Sn16'
_cell_volume   1067.57225323
_cell_formula_units_Z   1
loop_
 _symmetry_equiv_pos_site_id
 _symmetry_equiv_pos_as_xyz
  1  'x, y, z'
loop_
 _atom_site_type_symbol
 _atom_site_label
 _atom_site_symmetry_multiplicity
 _atom_site_fract_x
 _atom_site_fract_y
 _atom_site_fract_z
 _atom_site_occupancy
  Nd  Nd0  1  0.507026  0.321578  0.903587  1
  Nd  Nd1  1  0.006599  0.176212  0.596291  1
  Nd  Nd2  1  0.492916  0.677006  0.403647  1
  Nd  Nd3  1  0.991522  0.823863  0.095838  1
  Nd  Nd4  1  0.493648  0.678305  0.095503  1
  Nd  Nd5  1  0.993260  0.823403  0.403800  1
  Nd  Nd6  1  0.507530  0.322431  0.597860  1
  Sm  Sm7  1  0.010190  0.176993  0.902437  1
  Dy  Dy8  1  0.349415  0.836330  0.876951  1
  Dy  Dy9  1  0.848300  0.664249  0.625654  1
  Dy  Dy10  1  0.651308  0.165319  0.376010  1
  Dy  Dy11  1  0.150066  0.335081  0.124516  1
  Dy  Dy12  1  0.650270  0.163510  0.122871  1
  Dy  Dy13  1  0.152255  0.335422  0.375470  1
  Dy  Dy14  1  0.348065  0.834925  0.624601  1
  Dy  Dy15  1  0.849100  0.665311  0.875065  1
  Dy  Dy16  1  0.182053  0.500969  0.750460  1
  Dy  Dy17  1  0.682549  0.999613  0.750828  1
  Dy  Dy18  1  0.817731  0.498885  0.249768  1
  Dy  Dy19  1  0.316809  0.000577  0.249292  1
  Sn  Sn20  1  0.308595  0.042872  0.041028  1
  Sn  Sn21  1  0.814602  0.459920  0.458452  1
  Sn  Sn22  1  0.685707  0.957767  0.542255  1
  Sn  Sn23  1  0.184462  0.538852  0.957611  1
  Sn  Sn24  1  0.692073  0.961314  0.956791  1
  Sn  Sn25  1  0.185339  0.539955  0.542373  1
  Sn  Sn26  1  0.314178  0.041434  0.458292  1
  Sn  Sn27  1  0.815118  0.458418  0.040838  1
  Sn  Sn28  1  0.545855  0.624411  0.750845  1
  Sn  Sn29  1  0.047332  0.877551  0.750214  1
  Sn  Sn30  1  0.453708  0.375199  0.248972  1
  Sn  Sn31  1  0.952215  0.123886  0.250242  1
  Sn  Sn32  1  0.313245  0.143679  0.750771  1
  Sn  Sn33  1  0.816633  0.354134  0.751040  1
  Sn  Sn34  1  0.685122  0.856331  0.249892  1
  Sn  Sn35  1  0.185203  0.644298  0.249937  1
