# generated using pymatgen
data_HoEr(SeO3)3
_symmetry_space_group_name_H-M   'P 1'
_cell_length_a   7.06643097
_cell_length_b   8.11028022
_cell_length_c   9.06134957
_cell_angle_alpha   71.47314567
_cell_angle_beta   70.03531992
_cell_angle_gamma   66.09166989
_symmetry_Int_Tables_number   1
_chemical_formula_structural   HoEr(SeO3)3
_chemical_formula_sum   'Ho2 Er2 Se6 O18'
_cell_volume   436.39094935
_cell_formula_units_Z   2
loop_
 _symmetry_equiv_pos_site_id
 _symmetry_equiv_pos_as_xyz
  1  'x, y, z'
loop_
 _atom_site_type_symbol
 _atom_site_label
 _atom_site_symmetry_multiplicity
 _atom_site_fract_x
 _atom_site_fract_y
 _atom_site_fract_z
 _atom_site_occupancy
  Ho  Ho0  1  0.334581  0.726564  0.590861  1
  Ho  Ho1  1  0.665419  0.273436  0.409139  1
  Er  Er2  1  0.741884  0.735963  0.797400  1
  Er  Er3  1  0.258116  0.264037  0.202600  1
  Se  Se4  1  0.427156  0.775859  0.197628  1
  Se  Se5  1  0.572844  0.224141  0.802372  1
  Se  Se6  1  0.147676  0.749397  0.965463  1
  Se  Se7  1  0.852324  0.250603  0.034537  1
  Se  Se8  1  0.886408  0.760133  0.414600  1
  Se  Se9  1  0.113592  0.239867  0.585400  1
  O  O10  1  0.650036  0.791435  0.049474  1
  O  O11  1  0.349964  0.208565  0.950526  1
  O  O12  1  0.360666  0.945221  0.303741  1
  O  O13  1  0.639334  0.054779  0.696259  1
  O  O14  1  0.517606  0.594740  0.351531  1
  O  O15  1  0.482394  0.405260  0.648469  1
  O  O16  1  0.167323  0.564610  0.121065  1
  O  O17  1  0.832677  0.435390  0.878935  1
  O  O18  1  0.408889  0.710093  0.848889  1
  O  O19  1  0.591111  0.289907  0.151111  1
  O  O20  1  0.344169  0.252976  0.435350  1
  O  O21  1  0.655831  0.747024  0.564650  1
  O  O22  1  0.967272  0.292824  0.444563  1
  O  O23  1  0.032728  0.707176  0.555437  1
  O  O24  1  0.159636  0.011378  0.653959  1
  O  O25  1  0.840364  0.988622  0.346041  1
  O  O26  1  0.933500  0.306373  0.168129  1
  O  O27  1  0.066500  0.693627  0.831871  1
