# generated using pymatgen
data_SrDyHoGa8Ag3
_symmetry_space_group_name_H-M   'P 1'
_cell_length_a   4.38825605
_cell_length_b   8.48951497
_cell_length_c   8.48951460
_cell_angle_alpha   68.85312770
_cell_angle_beta   75.02180173
_cell_angle_gamma   75.02179944
_symmetry_Int_Tables_number   1
_chemical_formula_structural   SrDyHoGa8Ag3
_chemical_formula_sum   'Sr1 Dy1 Ho1 Ga8 Ag3'
_cell_volume   280.11816818
_cell_formula_units_Z   1
loop_
 _symmetry_equiv_pos_site_id
 _symmetry_equiv_pos_as_xyz
  1  'x, y, z'
loop_
 _atom_site_type_symbol
 _atom_site_label
 _atom_site_symmetry_multiplicity
 _atom_site_fract_x
 _atom_site_fract_y
 _atom_site_fract_z
 _atom_site_occupancy
  Sr  Sr0  1  0.500059  0.499941  0.499941  1
  Dy  Dy1  1  0.200550  0.799450  0.799450  1
  Ho  Ho2  1  0.799493  0.200507  0.200507  1
  Ga  Ga3  1  0.353717  0.362587  0.929976  1
  Ga  Ga4  1  0.646270  0.637231  0.070231  1
  Ga  Ga5  1  0.353717  0.929976  0.362587  1
  Ga  Ga6  1  0.646270  0.070231  0.637231  1
  Ga  Ga7  1  0.162636  0.470822  0.203906  1
  Ga  Ga8  1  0.837461  0.528979  0.796098  1
  Ga  Ga9  1  0.162636  0.203906  0.470822  1
  Ga  Ga10  1  0.837461  0.796098  0.528979  1
  Ag  Ag11  1  0.499916  0.000084  0.000084  1
  Ag  Ag12  1  0.999906  0.809667  0.190520  1
  Ag  Ag13  1  0.999906  0.190520  0.809667  1
