# generated using pymatgen
data_Sm3LuCo18(P6Ru)2
_symmetry_space_group_name_H-M   'P 1'
_cell_length_a   3.68513700
_cell_length_b   10.36261293
_cell_length_c   11.79089258
_cell_angle_alpha   90.11165916
_cell_angle_beta   90.00000000
_cell_angle_gamma   90.00000000
_symmetry_Int_Tables_number   1
_chemical_formula_structural   Sm3LuCo18(P6Ru)2
_chemical_formula_sum   'Sm3 Lu1 Co18 P12 Ru2'
_cell_volume   450.26560447
_cell_formula_units_Z   1
loop_
 _symmetry_equiv_pos_site_id
 _symmetry_equiv_pos_as_xyz
  1  'x, y, z'
loop_
 _atom_site_type_symbol
 _atom_site_label
 _atom_site_symmetry_multiplicity
 _atom_site_fract_x
 _atom_site_fract_y
 _atom_site_fract_z
 _atom_site_occupancy
  Sm  Sm0  1  0.250000  0.582884  0.702225  1
  Sm  Sm1  1  0.250000  0.917755  0.202277  1
  Sm  Sm2  1  0.750000  0.413397  0.295466  1
  Lu  Lu3  1  0.750000  0.085927  0.796302  1
  Co  Co4  1  0.750000  0.283992  0.007659  1
  Co  Co5  1  0.750000  0.215205  0.508626  1
  Co  Co6  1  0.250000  0.405639  0.489281  1
  Co  Co7  1  0.250000  0.095297  0.984732  1
  Co  Co8  1  0.750000  0.591754  0.509007  1
  Co  Co9  1  0.750000  0.910124  0.007492  1
  Co  Co10  1  0.250000  0.219329  0.175481  1
  Co  Co11  1  0.250000  0.277493  0.677066  1
  Co  Co12  1  0.750000  0.779737  0.823116  1
  Co  Co13  1  0.750000  0.721712  0.323736  1
  Co  Co14  1  0.250000  0.889551  0.703223  1
  Co  Co15  1  0.250000  0.613935  0.200635  1
  Co  Co16  1  0.750000  0.116344  0.302242  1
  Co  Co17  1  0.750000  0.380748  0.801138  1
  Co  Co18  1  0.250000  0.462772  0.931848  1
  Co  Co19  1  0.250000  0.035350  0.435387  1
  Co  Co20  1  0.750000  0.531795  0.067664  1
  Co  Co21  1  0.750000  0.969475  0.571563  1
  P  P22  1  0.250000  0.416247  0.110148  1
  P  P23  1  0.250000  0.082965  0.614973  1
  P  P24  1  0.750000  0.578339  0.887903  1
  P  P25  1  0.750000  0.921472  0.390099  1
  P  P26  1  0.250000  0.268630  0.867491  1
  P  P27  1  0.250000  0.226869  0.369738  1
  P  P28  1  0.750000  0.726031  0.132112  1
  P  P29  1  0.750000  0.774336  0.632622  1
  P  P30  1  0.250000  0.597128  0.391370  1
  P  P31  1  0.250000  0.906610  0.890099  1
  P  P32  1  0.750000  0.394933  0.607695  1
  P  P33  1  0.750000  0.104988  0.107453  1
  Ru  Ru34  1  0.250000  0.714893  0.989675  1
  Ru  Ru35  1  0.250000  0.786346  0.492457  1
