# generated using pymatgen
data_Lu4Al6RuRh
_symmetry_space_group_name_H-M   'P 1'
_cell_length_a   5.44585400
_cell_length_b   5.44585458
_cell_length_c   8.69514200
_cell_angle_alpha   90.00000000
_cell_angle_beta   90.00000000
_cell_angle_gamma   120.00000863
_symmetry_Int_Tables_number   1
_chemical_formula_structural   Lu4Al6RuRh
_chemical_formula_sum   'Lu4 Al6 Ru1 Rh1'
_cell_volume   223.32601005
_cell_formula_units_Z   1
loop_
 _symmetry_equiv_pos_site_id
 _symmetry_equiv_pos_as_xyz
  1  'x, y, z'
loop_
 _atom_site_type_symbol
 _atom_site_label
 _atom_site_symmetry_multiplicity
 _atom_site_fract_x
 _atom_site_fract_y
 _atom_site_fract_z
 _atom_site_occupancy
  Lu  Lu0  1  0.333333  0.666667  0.057617  1
  Lu  Lu1  1  0.666667  0.333333  0.554358  1
  Lu  Lu2  1  0.333333  0.666667  0.445642  1
  Lu  Lu3  1  0.666667  0.333333  0.942383  1
  Al  Al4  1  0.835723  0.671445  0.250265  1
  Al  Al5  1  0.164277  0.835723  0.749735  1
  Al  Al6  1  0.671445  0.835723  0.749735  1
  Al  Al7  1  0.328555  0.164277  0.250265  1
  Al  Al8  1  0.835723  0.164277  0.250265  1
  Al  Al9  1  0.164277  0.328555  0.749735  1
  Ru  Ru10  1  0.000000  0.000000  0.000000  1
  Rh  Rh11  1  0.000000  0.000000  0.500000  1
