# generated using pymatgen
data_Sr3CaEu(AlSb3)2
_symmetry_space_group_name_H-M   'P 1'
_cell_length_a   4.60068800
_cell_length_b   12.55282195
_cell_length_c   14.44782345
_cell_angle_alpha   90.21469412
_cell_angle_beta   90.00000000
_cell_angle_gamma   90.00000000
_symmetry_Int_Tables_number   1
_chemical_formula_structural   Sr3CaEu(AlSb3)2
_chemical_formula_sum   'Sr6 Ca2 Eu2 Al4 Sb12'
_cell_volume   834.37931321
_cell_formula_units_Z   2
loop_
 _symmetry_equiv_pos_site_id
 _symmetry_equiv_pos_as_xyz
  1  'x, y, z'
loop_
 _atom_site_type_symbol
 _atom_site_label
 _atom_site_symmetry_multiplicity
 _atom_site_fract_x
 _atom_site_fract_y
 _atom_site_fract_z
 _atom_site_occupancy
  Sr  Sr0  1  0.500000  0.090715  0.747786  1
  Sr  Sr1  1  0.500000  0.409704  0.248746  1
  Sr  Sr2  1  0.500000  0.330481  0.518381  1
  Sr  Sr3  1  0.500000  0.908091  0.253126  1
  Sr  Sr4  1  0.500000  0.171486  0.017195  1
  Sr  Sr5  1  0.500000  0.827565  0.981941  1
  Ca  Ca6  1  0.500000  0.499278  0.999890  1
  Ca  Ca7  1  0.500000  0.999745  0.500203  1
  Eu  Eu8  1  0.500000  0.668727  0.482073  1
  Eu  Eu9  1  0.500000  0.591869  0.751665  1
  Al  Al10  1  0.000000  0.174018  0.211067  1
  Al  Al11  1  0.000000  0.824023  0.786698  1
  Al  Al12  1  0.000000  0.672783  0.289149  1
  Al  Al13  1  0.000000  0.330076  0.711058  1
  Sb  Sb14  1  0.000000  0.841866  0.411517  1
  Sb  Sb15  1  0.000000  0.155983  0.592196  1
  Sb  Sb16  1  0.000000  0.650934  0.903608  1
  Sb  Sb17  1  0.000000  0.345616  0.092109  1
  Sb  Sb18  1  0.500000  0.341647  0.818347  1
  Sb  Sb19  1  0.500000  0.660903  0.180322  1
  Sb  Sb20  1  0.500000  0.835671  0.678373  1
  Sb  Sb21  1  0.500000  0.160998  0.319590  1
  Sb  Sb22  1  0.000000  0.522414  0.603523  1
  Sb  Sb23  1  0.000000  0.487866  0.401969  1
  Sb  Sb24  1  0.000000  0.013382  0.899673  1
  Sb  Sb25  1  0.000000  0.984158  0.099794  1
