# generated using pymatgen
data_Nd8Cu7P12Pd5
_symmetry_space_group_name_H-M   'P 1'
_cell_length_a   4.02592200
_cell_length_b   10.97426586
_cell_length_c   13.26861148
_cell_angle_alpha   89.91713617
_cell_angle_beta   90.00000000
_cell_angle_gamma   90.00000000
_symmetry_Int_Tables_number   1
_chemical_formula_structural   Nd8Cu7P12Pd5
_chemical_formula_sum   'Nd8 Cu7 P12 Pd5'
_cell_volume   586.22705401
_cell_formula_units_Z   1
loop_
 _symmetry_equiv_pos_site_id
 _symmetry_equiv_pos_as_xyz
  1  'x, y, z'
loop_
 _atom_site_type_symbol
 _atom_site_label
 _atom_site_symmetry_multiplicity
 _atom_site_fract_x
 _atom_site_fract_y
 _atom_site_fract_z
 _atom_site_occupancy
  Nd  Nd0  1  0.250000  0.933304  0.792663  1
  Nd  Nd1  1  0.750000  0.432386  0.708475  1
  Nd  Nd2  1  0.250000  0.567112  0.292743  1
  Nd  Nd3  1  0.750000  0.067563  0.208710  1
  Nd  Nd4  1  0.250000  0.841069  0.501049  1
  Nd  Nd5  1  0.750000  0.341093  0.997273  1
  Nd  Nd6  1  0.250000  0.657693  0.000883  1
  Nd  Nd7  1  0.750000  0.157009  0.498794  1
  Cu  Cu8  1  0.750000  0.768673  0.171597  1
  Cu  Cu9  1  0.250000  0.230112  0.828944  1
  Cu  Cu10  1  0.750000  0.731691  0.671685  1
  Cu  Cu11  1  0.250000  0.862557  0.274609  1
  Cu  Cu12  1  0.750000  0.366978  0.220161  1
  Cu  Cu13  1  0.250000  0.638170  0.775012  1
  Cu  Cu14  1  0.750000  0.138351  0.725110  1
  P  P15  1  0.250000  0.233405  0.651299  1
  P  P16  1  0.750000  0.732319  0.848946  1
  P  P17  1  0.250000  0.266626  0.146701  1
  P  P18  1  0.750000  0.766221  0.349012  1
  P  P19  1  0.250000  0.601568  0.600229  1
  P  P20  1  0.750000  0.100096  0.900100  1
  P  P21  1  0.250000  0.898138  0.099443  1
  P  P22  1  0.750000  0.400232  0.400577  1
  P  P23  1  0.250000  0.051980  0.369297  1
  P  P24  1  0.750000  0.557152  0.131620  1
  P  P25  1  0.250000  0.442803  0.867605  1
  P  P26  1  0.750000  0.942915  0.632193  1
  Pd  Pd27  1  0.250000  0.398478  0.513587  1
  Pd  Pd28  1  0.750000  0.893214  0.990406  1
  Pd  Pd29  1  0.250000  0.104800  0.011014  1
  Pd  Pd30  1  0.750000  0.604654  0.491456  1
  Pd  Pd31  1  0.250000  0.271635  0.328808  1
