# generated using pymatgen
data_Sr4CeEuO8
_symmetry_space_group_name_H-M   'P 1'
_cell_length_a   3.60748500
_cell_length_b   6.12094095
_cell_length_c   10.39103256
_cell_angle_alpha   88.94433970
_cell_angle_beta   90.00000000
_cell_angle_gamma   90.00000000
_symmetry_Int_Tables_number   1
_chemical_formula_structural   Sr4CeEuO8
_chemical_formula_sum   'Sr4 Ce1 Eu1 O8'
_cell_volume   229.40755173
_cell_formula_units_Z   1
loop_
 _symmetry_equiv_pos_site_id
 _symmetry_equiv_pos_as_xyz
  1  'x, y, z'
loop_
 _atom_site_type_symbol
 _atom_site_label
 _atom_site_symmetry_multiplicity
 _atom_site_fract_x
 _atom_site_fract_y
 _atom_site_fract_z
 _atom_site_occupancy
  Sr  Sr0  1  0.500000  0.435097  0.180812  1
  Sr  Sr1  1  0.500000  0.564903  0.819188  1
  Sr  Sr2  1  0.500000  0.935820  0.323082  1
  Sr  Sr3  1  0.500000  0.064180  0.676918  1
  Ce  Ce4  1  0.000000  0.000000  0.000000  1
  Eu  Eu5  1  0.000000  0.500000  0.500000  1
  O  O6  1  0.500000  0.270451  0.457005  1
  O  O7  1  0.500000  0.729549  0.542995  1
  O  O8  1  0.500000  0.771960  0.043242  1
  O  O9  1  0.500000  0.228040  0.956758  1
  O  O10  1  0.000000  0.645439  0.303739  1
  O  O11  1  0.000000  0.354561  0.696261  1
  O  O12  1  0.000000  0.858038  0.806128  1
  O  O13  1  0.000000  0.141962  0.193872  1
