# generated using pymatgen
data_Ho2Er2MnV3B16
_symmetry_space_group_name_H-M   'P 1'
_cell_length_a   3.43039700
_cell_length_b   5.95606304
_cell_length_c   11.52467717
_cell_angle_alpha   89.90214848
_cell_angle_beta   90.00000000
_cell_angle_gamma   90.00000000
_symmetry_Int_Tables_number   1
_chemical_formula_structural   Ho2Er2MnV3B16
_chemical_formula_sum   'Ho2 Er2 Mn1 V3 B16'
_cell_volume   235.46795121
_cell_formula_units_Z   1
loop_
 _symmetry_equiv_pos_site_id
 _symmetry_equiv_pos_as_xyz
  1  'x, y, z'
loop_
 _atom_site_type_symbol
 _atom_site_label
 _atom_site_symmetry_multiplicity
 _atom_site_fract_x
 _atom_site_fract_y
 _atom_site_fract_z
 _atom_site_occupancy
  Ho  Ho0  1  0.000000  0.625201  0.350794  1
  Ho  Ho1  1  0.000000  0.375584  0.650418  1
  Er  Er2  1  0.000000  0.124518  0.152006  1
  Er  Er3  1  0.000000  0.875917  0.846876  1
  Mn  Mn4  1  0.000000  0.875297  0.581029  1
  V  V5  1  0.000000  0.627355  0.082629  1
  V  V6  1  0.000000  0.372700  0.914928  1
  V  V7  1  0.000000  0.125061  0.420315  1
  B  B8  1  0.500000  0.786339  0.186701  1
  B  B9  1  0.500000  0.212904  0.812481  1
  B  B10  1  0.500000  0.284309  0.315667  1
  B  B11  1  0.500000  0.720113  0.681935  1
  B  B12  1  0.500000  0.865326  0.032571  1
  B  B13  1  0.500000  0.134583  0.966938  1
  B  B14  1  0.500000  0.364707  0.469170  1
  B  B15  1  0.500000  0.638639  0.533366  1
  B  B16  1  0.500000  0.884115  0.455499  1
  B  B17  1  0.500000  0.109742  0.548954  1
  B  B18  1  0.500000  0.384177  0.047477  1
  B  B19  1  0.500000  0.615473  0.951771  1
  B  B20  1  0.500000  0.976138  0.308898  1
  B  B21  1  0.500000  0.020372  0.690558  1
  B  B22  1  0.500000  0.475323  0.193245  1
  B  B23  1  0.500000  0.526104  0.805771  1
