# generated using pymatgen
data_Ho20Si15Au
_symmetry_space_group_name_H-M   'P 1'
_cell_length_a   7.41078592
_cell_length_b   7.65992448
_cell_length_c   14.56690197
_cell_angle_alpha   89.91058462
_cell_angle_beta   89.50904094
_cell_angle_gamma   90.17636504
_symmetry_Int_Tables_number   1
_chemical_formula_structural   Ho20Si15Au
_chemical_formula_sum   'Ho20 Si15 Au1'
_cell_volume   826.87032186
_cell_formula_units_Z   1
loop_
 _symmetry_equiv_pos_site_id
 _symmetry_equiv_pos_as_xyz
  1  'x, y, z'
loop_
 _atom_site_type_symbol
 _atom_site_label
 _atom_site_symmetry_multiplicity
 _atom_site_fract_x
 _atom_site_fract_y
 _atom_site_fract_z
 _atom_site_occupancy
  Ho  Ho0  1  0.648929  0.991513  0.249973  1
  Ho  Ho1  1  0.151222  0.511153  0.248333  1
  Ho  Ho2  1  0.847167  0.488484  0.751082  1
  Ho  Ho3  1  0.349354  0.011630  0.750323  1
  Ho  Ho4  1  0.975573  0.820590  0.100546  1
  Ho  Ho5  1  0.472300  0.683869  0.401277  1
  Ho  Ho6  1  0.522963  0.318119  0.900267  1
  Ho  Ho7  1  0.028752  0.182293  0.598077  1
  Ho  Ho8  1  0.028028  0.178919  0.900489  1
  Ho  Ho9  1  0.528390  0.316831  0.597779  1
  Ho  Ho10  1  0.475821  0.682041  0.100742  1
  Ho  Ho11  1  0.970411  0.816942  0.400530  1
  Ho  Ho12  1  0.676290  0.822382  0.877133  1
  Ho  Ho13  1  0.180642  0.680178  0.621693  1
  Ho  Ho14  1  0.820071  0.325993  0.123620  1
  Ho  Ho15  1  0.318218  0.177864  0.376812  1
  Ho  Ho16  1  0.322554  0.178019  0.124071  1
  Ho  Ho17  1  0.820156  0.320842  0.377098  1
  Ho  Ho18  1  0.179925  0.675052  0.877255  1
  Ho  Ho19  1  0.681178  0.821334  0.622277  1
  Si  Si20  1  0.767873  0.630350  0.252657  1
  Si  Si21  1  0.268036  0.871915  0.251407  1
  Si  Si22  1  0.732598  0.125678  0.748422  1
  Si  Si23  1  0.230252  0.372697  0.746656  1
  Si  Si24  1  0.021268  0.104855  0.250307  1
  Si  Si25  1  0.523603  0.395658  0.252495  1
  Si  Si26  1  0.474190  0.605165  0.747127  1
  Si  Si27  1  0.976863  0.893191  0.748061  1
  Si  Si28  1  0.353476  0.971542  0.540010  1
  Si  Si29  1  0.650217  0.028563  0.041869  1
  Si  Si30  1  0.147813  0.469926  0.459895  1
  Si  Si31  1  0.160261  0.471059  0.042508  1
  Si  Si32  1  0.646372  0.029161  0.459208  1
  Si  Si33  1  0.350405  0.968407  0.961483  1
  Si  Si34  1  0.854037  0.529828  0.539247  1
  Au  Au35  1  0.844791  0.527955  0.959269  1
