# generated using pymatgen
data_SmHoMn5(PRh)7
_symmetry_space_group_name_H-M   'P 1'
_cell_length_a   9.45570653
_cell_length_b   9.45177266
_cell_length_c   3.81077700
_cell_angle_alpha   90.00000000
_cell_angle_beta   90.00000000
_cell_angle_gamma   120.06708262
_symmetry_Int_Tables_number   1
_chemical_formula_structural   SmHoMn5(PRh)7
_chemical_formula_sum   'Sm1 Ho1 Mn5 P7 Rh7'
_cell_volume   294.75246962
_cell_formula_units_Z   1
loop_
 _symmetry_equiv_pos_site_id
 _symmetry_equiv_pos_as_xyz
  1  'x, y, z'
loop_
 _atom_site_type_symbol
 _atom_site_label
 _atom_site_symmetry_multiplicity
 _atom_site_fract_x
 _atom_site_fract_y
 _atom_site_fract_z
 _atom_site_occupancy
  Sm  Sm0  1  0.333662  0.666685  0.500000  1
  Ho  Ho1  1  0.666898  0.333692  0.000000  1
  Mn  Mn2  1  0.269293  0.155796  0.000000  1
  Mn  Mn3  1  0.842804  0.112906  0.000000  1
  Mn  Mn4  1  0.889657  0.731112  0.000000  1
  Mn  Mn5  1  0.776881  0.878794  0.500000  1
  Mn  Mn6  1  0.121852  0.896812  0.500000  1
  P  P7  1  0.298634  0.406243  0.000000  1
  P  P8  1  0.595260  0.891873  0.000000  1
  P  P9  1  0.110349  0.702550  0.000000  1
  P  P10  1  0.397860  0.120287  0.500000  1
  P  P11  1  0.877632  0.275429  0.500000  1
  P  P12  1  0.723909  0.605757  0.500000  1
  P  P13  1  0.997362  0.999848  0.000000  1
  Rh  Rh14  1  0.062246  0.427067  0.000000  1
  Rh  Rh15  1  0.574316  0.636143  0.000000  1
  Rh  Rh16  1  0.364884  0.937831  0.000000  1
  Rh  Rh17  1  0.443966  0.388408  0.500000  1
  Rh  Rh18  1  0.612275  0.054728  0.500000  1
  Rh  Rh19  1  0.944537  0.555866  0.500000  1
  Rh  Rh20  1  0.095721  0.222176  0.500000  1
