# generated using pymatgen
data_Tb7Y(ZrGa5)4
_symmetry_space_group_name_H-M   'P 1'
_cell_length_a   6.01435944
_cell_length_b   9.47262609
_cell_length_c   11.38783224
_cell_angle_alpha   90.01584976
_cell_angle_beta   90.02944401
_cell_angle_gamma   90.00544679
_symmetry_Int_Tables_number   1
_chemical_formula_structural   Tb7Y(ZrGa5)4
_chemical_formula_sum   'Tb7 Y1 Zr4 Ga20'
_cell_volume   648.78493833
_cell_formula_units_Z   1
loop_
 _symmetry_equiv_pos_site_id
 _symmetry_equiv_pos_as_xyz
  1  'x, y, z'
loop_
 _atom_site_type_symbol
 _atom_site_label
 _atom_site_symmetry_multiplicity
 _atom_site_fract_x
 _atom_site_fract_y
 _atom_site_fract_z
 _atom_site_occupancy
  Tb  Tb0  1  0.612782  0.991284  0.852547  1
  Tb  Tb1  1  0.112552  0.008999  0.647409  1
  Tb  Tb2  1  0.387373  0.491144  0.147560  1
  Tb  Tb3  1  0.112605  0.491076  0.647281  1
  Tb  Tb4  1  0.387386  0.008775  0.147500  1
  Tb  Tb5  1  0.887452  0.990902  0.352522  1
  Tb  Tb6  1  0.612863  0.508820  0.852617  1
  Y  Y7  1  0.887249  0.509027  0.352482  1
  Zr  Zr8  1  0.857130  0.750035  0.076665  1
  Zr  Zr9  1  0.643128  0.749989  0.576632  1
  Zr  Zr10  1  0.142986  0.250020  0.923461  1
  Zr  Zr11  1  0.356537  0.249944  0.423255  1
  Ga  Ga12  1  0.875816  0.052578  0.087945  1
  Ga  Ga13  1  0.623988  0.447438  0.588089  1
  Ga  Ga14  1  0.124256  0.552498  0.911958  1
  Ga  Ga15  1  0.375860  0.947230  0.412043  1
  Ga  Ga16  1  0.124247  0.947478  0.911959  1
  Ga  Ga17  1  0.375649  0.552593  0.412038  1
  Ga  Ga18  1  0.875906  0.447526  0.088016  1
  Ga  Ga19  1  0.624133  0.052661  0.587997  1
  Ga  Ga20  1  0.165468  0.749923  0.252996  1
  Ga  Ga21  1  0.334873  0.750034  0.752879  1
  Ga  Ga22  1  0.834798  0.250043  0.746899  1
  Ga  Ga23  1  0.665232  0.249994  0.247234  1
  Ga  Ga24  1  0.385176  0.749977  0.003208  1
  Ga  Ga25  1  0.114937  0.750026  0.503415  1
  Ga  Ga26  1  0.614811  0.250088  0.996918  1
  Ga  Ga27  1  0.884996  0.250115  0.496510  1
  Ga  Ga28  1  0.601847  0.749856  0.295037  1
  Ga  Ga29  1  0.897920  0.749968  0.795214  1
  Ga  Ga30  1  0.397911  0.250033  0.704989  1
  Ga  Ga31  1  0.102136  0.249927  0.204727  1
