# generated using pymatgen
data_Li2Mn3PtO8
_symmetry_space_group_name_H-M   'P 1'
_cell_length_a   6.03770141
_cell_length_b   6.13376191
_cell_length_c   8.36985375
_cell_angle_alpha   88.63478974
_cell_angle_beta   90.05183001
_cell_angle_gamma   86.81013425
_symmetry_Int_Tables_number   1
_chemical_formula_structural   Li2Mn3PtO8
_chemical_formula_sum   'Li4 Mn6 Pt2 O16'
_cell_volume   309.39880143
_cell_formula_units_Z   2
loop_
 _symmetry_equiv_pos_site_id
 _symmetry_equiv_pos_as_xyz
  1  'x, y, z'
loop_
 _atom_site_type_symbol
 _atom_site_label
 _atom_site_symmetry_multiplicity
 _atom_site_fract_x
 _atom_site_fract_y
 _atom_site_fract_z
 _atom_site_occupancy
  Li  Li0  1  0.013423  0.264968  0.125737  1
  Li  Li1  1  0.513379  0.765261  0.625767  1
  Li  Li2  1  0.986685  0.734735  0.874234  1
  Li  Li3  1  0.486567  0.235061  0.374238  1
  Mn  Mn4  1  0.750085  0.250066  0.749975  1
  Mn  Mn5  1  0.749582  0.749858  0.249944  1
  Mn  Mn6  1  0.250268  0.249903  0.749981  1
  Mn  Mn7  1  0.999884  0.499895  0.499712  1
  Mn  Mn8  1  0.500183  0.000430  0.000207  1
  Mn  Mn9  1  0.249981  0.750006  0.250080  1
  Pt  Pt10  1  0.999989  0.999603  0.500055  1
  Pt  Pt11  1  0.499911  0.500453  0.999931  1
  O  O12  1  0.009609  0.541226  0.265706  1
  O  O13  1  0.509796  0.041346  0.766067  1
  O  O14  1  0.990425  0.458499  0.733891  1
  O  O15  1  0.490299  0.958818  0.234335  1
  O  O16  1  0.245631  0.756834  0.481571  1
  O  O17  1  0.745667  0.257759  0.981482  1
  O  O18  1  0.782780  0.757329  0.487384  1
  O  O19  1  0.282985  0.258051  0.987410  1
  O  O20  1  0.019643  0.982918  0.256054  1
  O  O21  1  0.519736  0.483271  0.755863  1
  O  O22  1  0.980262  0.016740  0.744143  1
  O  O23  1  0.480335  0.517013  0.243979  1
  O  O24  1  0.217110  0.241833  0.512583  1
  O  O25  1  0.717107  0.742686  0.012650  1
  O  O26  1  0.754296  0.242250  0.518476  1
  O  O27  1  0.254379  0.743186  0.018544  1
