# generated using pymatgen
data_Tb12Th4Mg3ZnRu4
_symmetry_space_group_name_H-M   'P 1'
_cell_length_a   9.74412567
_cell_length_b   9.74412605
_cell_length_c   9.74412574
_cell_angle_alpha   60.08196151
_cell_angle_beta   60.08195764
_cell_angle_gamma   60.08196007
_symmetry_Int_Tables_number   1
_chemical_formula_structural   Tb12Th4Mg3ZnRu4
_chemical_formula_sum   'Tb12 Th4 Mg3 Zn1 Ru4'
_cell_volume   655.41972229
_cell_formula_units_Z   1
loop_
 _symmetry_equiv_pos_site_id
 _symmetry_equiv_pos_as_xyz
  1  'x, y, z'
loop_
 _atom_site_type_symbol
 _atom_site_label
 _atom_site_symmetry_multiplicity
 _atom_site_fract_x
 _atom_site_fract_y
 _atom_site_fract_z
 _atom_site_occupancy
  Tb  Tb0  1  0.062067  0.437412  0.437412  1
  Tb  Tb1  1  0.438213  0.061328  0.061328  1
  Tb  Tb2  1  0.437412  0.062067  0.437412  1
  Tb  Tb3  1  0.061328  0.438213  0.061328  1
  Tb  Tb4  1  0.437412  0.437412  0.062067  1
  Tb  Tb5  1  0.061328  0.061328  0.438213  1
  Tb  Tb6  1  0.180164  0.814222  0.814222  1
  Tb  Tb7  1  0.812075  0.186271  0.186271  1
  Tb  Tb8  1  0.814222  0.180164  0.814222  1
  Tb  Tb9  1  0.186271  0.812075  0.186271  1
  Tb  Tb10  1  0.814222  0.814222  0.180164  1
  Tb  Tb11  1  0.186271  0.186271  0.812075  1
  Th  Th12  1  0.595683  0.595683  0.595683  1
  Th  Th13  1  0.597831  0.597831  0.208764  1
  Th  Th14  1  0.597831  0.208764  0.597831  1
  Th  Th15  1  0.208764  0.597831  0.597831  1
  Mg  Mg16  1  0.829615  0.829615  0.514780  1
  Mg  Mg17  1  0.829615  0.514780  0.829615  1
  Mg  Mg18  1  0.514780  0.829615  0.829615  1
  Zn  Zn19  1  0.833461  0.833461  0.833461  1
  Ru  Ru20  1  0.393370  0.393370  0.393370  1
  Ru  Ru21  1  0.394709  0.394709  0.818647  1
  Ru  Ru22  1  0.394709  0.818647  0.394709  1
  Ru  Ru23  1  0.818647  0.394709  0.394709  1
