# generated using pymatgen
data_Fe4Si2Mo3W3C
_symmetry_space_group_name_H-M   'P 1'
_cell_length_a   7.77818269
_cell_length_b   7.78113263
_cell_length_c   7.78001257
_cell_angle_alpha   59.97115507
_cell_angle_beta   60.00778931
_cell_angle_gamma   60.01253819
_symmetry_Int_Tables_number   1
_chemical_formula_structural   Fe4Si2Mo3W3C
_chemical_formula_sum   'Fe8 Si4 Mo6 W6 C2'
_cell_volume   332.93401298
_cell_formula_units_Z   2
loop_
 _symmetry_equiv_pos_site_id
 _symmetry_equiv_pos_as_xyz
  1  'x, y, z'
loop_
 _atom_site_type_symbol
 _atom_site_label
 _atom_site_symmetry_multiplicity
 _atom_site_fract_x
 _atom_site_fract_y
 _atom_site_fract_z
 _atom_site_occupancy
  Fe  Fe0  1  0.917639  0.245964  0.917981  1
  Fe  Fe1  1  0.331583  0.004036  0.332019  1
  Fe  Fe2  1  0.332196  0.332617  0.331323  1
  Fe  Fe3  1  0.003874  0.331920  0.331924  1
  Fe  Fe4  1  0.918295  0.917427  0.246404  1
  Fe  Fe5  1  0.246137  0.917383  0.918677  1
  Fe  Fe6  1  0.332125  0.332573  0.003596  1
  Fe  Fe7  1  0.917719  0.918080  0.918076  1
  Si  Si8  1  0.125616  0.125000  0.625000  1
  Si  Si9  1  0.124618  0.625000  0.125000  1
  Si  Si10  1  0.125096  0.125569  0.124545  1
  Si  Si11  1  0.625210  0.124431  0.125455  1
  Mo  Mo12  1  0.302803  0.696332  0.696997  1
  Mo  Mo13  1  0.304343  0.304947  0.695466  1
  Mo  Mo14  1  0.554756  0.945053  0.554534  1
  Mo  Mo15  1  0.946132  0.553668  0.553003  1
  Mo  Mo16  1  0.553276  0.946581  0.946664  1
  Mo  Mo17  1  0.696520  0.303419  0.303336  1
  W  W18  1  0.945511  0.554404  0.946030  1
  W  W19  1  0.304868  0.694704  0.305240  1
  W  W20  1  0.554812  0.555296  0.944760  1
  W  W21  1  0.694957  0.304740  0.695147  1
  W  W22  1  0.695945  0.695596  0.303970  1
  W  W23  1  0.944844  0.945260  0.554853  1
  C  C24  1  0.750543  0.749722  0.750319  1
  C  C25  1  0.500585  0.500278  0.499681  1
