# generated using pymatgen
data_TbEr11TlCo4Os
_symmetry_space_group_name_H-M   'P 1'
_cell_length_a   8.23772288
_cell_length_b   8.23772196
_cell_length_c   8.22710421
_cell_angle_alpha   111.51101768
_cell_angle_beta   110.66376901
_cell_angle_gamma   106.34163662
_symmetry_Int_Tables_number   1
_chemical_formula_structural   TbEr11TlCo4Os
_chemical_formula_sum   'Tb1 Er11 Tl1 Co4 Os1'
_cell_volume   428.48271993
_cell_formula_units_Z   1
loop_
 _symmetry_equiv_pos_site_id
 _symmetry_equiv_pos_as_xyz
  1  'x, y, z'
loop_
 _atom_site_type_symbol
 _atom_site_label
 _atom_site_symmetry_multiplicity
 _atom_site_fract_x
 _atom_site_fract_y
 _atom_site_fract_z
 _atom_site_occupancy
  Tb  Tb0  1  0.182156  0.281426  0.463582  1
  Er  Er1  1  0.818538  0.720584  0.539121  1
  Er  Er2  1  0.181527  0.720251  0.901778  1
  Er  Er3  1  0.817790  0.279904  0.097695  1
  Er  Er4  1  0.314684  0.621749  0.306418  1
  Er  Er5  1  0.686316  0.378703  0.693634  1
  Er  Er6  1  0.314931  0.007319  0.693634  1
  Er  Er7  1  0.684669  0.991734  0.306418  1
  Er  Er8  1  0.414899  0.220268  0.193810  1
  Er  Er9  1  0.586728  0.780567  0.806897  1
  Er  Er10  1  0.026331  0.220169  0.806897  1
  Er  Er11  1  0.973543  0.778912  0.193810  1
  Tl  Tl12  1  0.500050  0.499303  0.999353  1
  Co  Co13  1  0.110046  0.612332  0.499144  1
  Co  Co14  1  0.886812  0.389097  0.499144  1
  Co  Co15  1  0.376845  0.998858  0.375702  1
  Co  Co16  1  0.624070  0.000346  0.624415  1
  Os  Os17  1  0.000065  0.998480  0.998543  1
