# generated using pymatgen
data_La2Al6(GaIr)3
_symmetry_space_group_name_H-M   'P 1'
_cell_length_a   7.63587487
_cell_length_b   7.63587532
_cell_length_c   9.74521500
_cell_angle_alpha   90.00000000
_cell_angle_beta   90.00000000
_cell_angle_gamma   119.36765275
_symmetry_Int_Tables_number   1
_chemical_formula_structural   La2Al6(GaIr)3
_chemical_formula_sum   'La4 Al12 Ga6 Ir6'
_cell_volume   495.19000879
_cell_formula_units_Z   2
loop_
 _symmetry_equiv_pos_site_id
 _symmetry_equiv_pos_as_xyz
  1  'x, y, z'
loop_
 _atom_site_type_symbol
 _atom_site_label
 _atom_site_symmetry_multiplicity
 _atom_site_fract_x
 _atom_site_fract_y
 _atom_site_fract_z
 _atom_site_occupancy
  La  La0  1  0.996436  0.669620  0.250000  1
  La  La1  1  0.003564  0.330380  0.750000  1
  La  La2  1  0.669620  0.996436  0.250000  1
  La  La3  1  0.330380  0.003564  0.750000  1
  Al  Al4  1  0.004498  0.335138  0.072066  1
  Al  Al5  1  0.995502  0.664862  0.927934  1
  Al  Al6  1  0.995502  0.664862  0.572066  1
  Al  Al7  1  0.335138  0.004498  0.427934  1
  Al  Al8  1  0.004498  0.335138  0.427934  1
  Al  Al9  1  0.664862  0.995502  0.572066  1
  Al  Al10  1  0.664862  0.995502  0.927934  1
  Al  Al11  1  0.335138  0.004498  0.072066  1
  Al  Al12  1  0.334818  0.334818  0.546431  1
  Al  Al13  1  0.665182  0.665182  0.453569  1
  Al  Al14  1  0.665182  0.665182  0.046431  1
  Al  Al15  1  0.334818  0.334818  0.953569  1
  Ga  Ga16  1  0.130667  0.130667  0.250000  1
  Ga  Ga17  1  0.869333  0.869333  0.750000  1
  Ga  Ga18  1  0.338544  0.543901  0.250000  1
  Ga  Ga19  1  0.661456  0.456099  0.750000  1
  Ga  Ga20  1  0.543901  0.338544  0.250000  1
  Ga  Ga21  1  0.456099  0.661456  0.750000  1
  Ir  Ir22  1  0.670394  0.329606  0.000000  1
  Ir  Ir23  1  0.329606  0.670394  0.000000  1
  Ir  Ir24  1  0.329606  0.670394  0.500000  1
  Ir  Ir25  1  0.670394  0.329606  0.500000  1
  Ir  Ir26  1  0.000000  0.000000  0.000000  1
  Ir  Ir27  1  0.000000  0.000000  0.500000  1
