# generated using pymatgen
data_HoV2(Ni10B3)2
_symmetry_space_group_name_H-M   'P 1'
_cell_length_a   7.46461593
_cell_length_b   7.46461645
_cell_length_c   7.46461600
_cell_angle_alpha   60.00000198
_cell_angle_beta   59.99999967
_cell_angle_gamma   60.00000209
_symmetry_Int_Tables_number   1
_chemical_formula_structural   HoV2(Ni10B3)2
_chemical_formula_sum   'Ho1 V2 Ni20 B6'
_cell_volume   294.10841472
_cell_formula_units_Z   1
loop_
 _symmetry_equiv_pos_site_id
 _symmetry_equiv_pos_as_xyz
  1  'x, y, z'
loop_
 _atom_site_type_symbol
 _atom_site_label
 _atom_site_symmetry_multiplicity
 _atom_site_fract_x
 _atom_site_fract_y
 _atom_site_fract_z
 _atom_site_occupancy
  Ho  Ho0  1  0.750000  0.750000  0.750000  1
  V  V1  1  0.000000  0.000000  0.000000  1
  V  V2  1  0.250000  0.250000  0.250000  1
  Ni  Ni3  1  0.607584  0.607584  0.177248  1
  Ni  Ni4  1  0.607584  0.177248  0.607584  1
  Ni  Ni5  1  0.177248  0.607584  0.607584  1
  Ni  Ni6  1  0.607584  0.607584  0.607584  1
  Ni  Ni7  1  0.377704  0.377704  0.866890  1
  Ni  Ni8  1  0.377704  0.866890  0.377704  1
  Ni  Ni9  1  0.866890  0.377704  0.377704  1
  Ni  Ni10  1  0.377704  0.377704  0.377704  1
  Ni  Ni11  1  0.002521  0.002521  0.336755  1
  Ni  Ni12  1  0.658202  0.002521  0.336755  1
  Ni  Ni13  1  0.002521  0.658202  0.336755  1
  Ni  Ni14  1  0.658202  0.336755  0.002521  1
  Ni  Ni15  1  0.002521  0.336755  0.002521  1
  Ni  Ni16  1  0.002521  0.336755  0.658202  1
  Ni  Ni17  1  0.336755  0.658202  0.002521  1
  Ni  Ni18  1  0.336755  0.002521  0.658202  1
  Ni  Ni19  1  0.336755  0.002521  0.002521  1
  Ni  Ni20  1  0.002521  0.002521  0.658202  1
  Ni  Ni21  1  0.002521  0.658202  0.002521  1
  Ni  Ni22  1  0.658202  0.002521  0.002521  1
  B  B23  1  0.732198  0.732198  0.267802  1
  B  B24  1  0.267802  0.732198  0.267802  1
  B  B25  1  0.732198  0.267802  0.267802  1
  B  B26  1  0.267802  0.267802  0.732198  1
  B  B27  1  0.732198  0.267802  0.732198  1
  B  B28  1  0.267802  0.732198  0.732198  1
