# generated using pymatgen
data_DyEr3Mn4F28
_symmetry_space_group_name_H-M   'P 1'
_cell_length_a   5.42179420
_cell_length_b   8.66868567
_cell_length_c   11.66647547
_cell_angle_alpha   62.51184702
_cell_angle_beta   89.96861812
_cell_angle_gamma   89.98592488
_symmetry_Int_Tables_number   1
_chemical_formula_structural   DyEr3Mn4F28
_chemical_formula_sum   'Dy1 Er3 Mn4 F28'
_cell_volume   486.42014218
_cell_formula_units_Z   1
loop_
 _symmetry_equiv_pos_site_id
 _symmetry_equiv_pos_as_xyz
  1  'x, y, z'
loop_
 _atom_site_type_symbol
 _atom_site_label
 _atom_site_symmetry_multiplicity
 _atom_site_fract_x
 _atom_site_fract_y
 _atom_site_fract_z
 _atom_site_occupancy
  Dy  Dy0  1  0.761755  0.811257  0.764537  1
  Er  Er1  1  0.262534  0.189988  0.735485  1
  Er  Er2  1  0.237704  0.188923  0.235635  1
  Er  Er3  1  0.737868  0.811351  0.264483  1
  Mn  Mn4  1  0.759463  0.272874  0.956712  1
  Mn  Mn5  1  0.258703  0.725840  0.542250  1
  Mn  Mn6  1  0.240977  0.726321  0.044622  1
  Mn  Mn7  1  0.740032  0.274819  0.456234  1
  F  F8  1  0.432357  0.704849  0.923060  1
  F  F9  1  0.932920  0.295716  0.577367  1
  F  F10  1  0.566986  0.294637  0.077796  1
  F  F11  1  0.067086  0.704343  0.420972  1
  F  F12  1  0.453775  0.280616  0.540989  1
  F  F13  1  0.954604  0.719521  0.960623  1
  F  F14  1  0.546312  0.719694  0.458449  1
  F  F15  1  0.045987  0.279037  0.041435  1
  F  F16  1  0.775232  0.511784  0.861940  1
  F  F17  1  0.273925  0.486480  0.637541  1
  F  F18  1  0.226340  0.486654  0.139080  1
  F  F19  1  0.725321  0.513847  0.361348  1
  F  F20  1  0.757212  0.035326  0.047304  1
  F  F21  1  0.256879  0.963421  0.452436  1
  F  F22  1  0.242779  0.963681  0.953552  1
  F  F23  1  0.742281  0.037141  0.546553  1
  F  F24  1  0.980154  0.726463  0.632433  1
  F  F25  1  0.481091  0.272811  0.865868  1
  F  F26  1  0.017891  0.273182  0.365288  1
  F  F27  1  0.519512  0.727093  0.135056  1
  F  F28  1  0.051040  0.743267  0.170961  1
  F  F29  1  0.549309  0.256998  0.330165  1
  F  F30  1  0.949990  0.255703  0.830480  1
  F  F31  1  0.446743  0.742316  0.669205  1
  F  F32  1  0.409353  0.970281  0.229023  1
  F  F33  1  0.909416  0.029719  0.271232  1
  F  F34  1  0.591792  0.033011  0.771459  1
  F  F35  1  0.094677  0.971036  0.728425  1
