# generated using pymatgen
data_LaNd15(LuSn4)4
_symmetry_space_group_name_H-M   'P 1'
_cell_length_a   8.18679618
_cell_length_b   8.37323114
_cell_length_c   15.87170800
_cell_angle_alpha   90.00379772
_cell_angle_beta   89.98793448
_cell_angle_gamma   89.99011989
_symmetry_Int_Tables_number   1
_chemical_formula_structural   LaNd15(LuSn4)4
_chemical_formula_sum   'La1 Nd15 Lu4 Sn16'
_cell_volume   1088.00453679
_cell_formula_units_Z   1
loop_
 _symmetry_equiv_pos_site_id
 _symmetry_equiv_pos_as_xyz
  1  'x, y, z'
loop_
 _atom_site_type_symbol
 _atom_site_label
 _atom_site_symmetry_multiplicity
 _atom_site_fract_x
 _atom_site_fract_y
 _atom_site_fract_z
 _atom_site_occupancy
  La  La0  1  0.016308  0.181258  0.403269  1
  Nd  Nd1  1  0.364860  0.838161  0.121224  1
  Nd  Nd2  1  0.135436  0.338012  0.621512  1
  Nd  Nd3  1  0.482697  0.680685  0.902249  1
  Nd  Nd4  1  0.864727  0.661894  0.121059  1
  Nd  Nd5  1  0.134996  0.337922  0.878499  1
  Nd  Nd6  1  0.482592  0.680712  0.597967  1
  Nd  Nd7  1  0.635366  0.162112  0.621945  1
  Nd  Nd8  1  0.864602  0.661617  0.378519  1
  Nd  Nd9  1  0.017449  0.180769  0.097723  1
  Nd  Nd10  1  0.982707  0.819342  0.902266  1
  Nd  Nd11  1  0.635215  0.161772  0.878521  1
  Nd  Nd12  1  0.517291  0.319637  0.097120  1
  Nd  Nd13  1  0.364626  0.838313  0.378134  1
  Nd  Nd14  1  0.982803  0.818828  0.597977  1
  Nd  Nd15  1  0.517805  0.319875  0.402154  1
  Lu  Lu16  1  0.197838  0.501876  0.249564  1
  Lu  Lu17  1  0.697702  0.998209  0.249519  1
  Lu  Lu18  1  0.302592  0.001629  0.750209  1
  Lu  Lu19  1  0.802334  0.498465  0.750064  1
  Sn  Sn20  1  0.793700  0.465515  0.545097  1
  Sn  Sn21  1  0.703357  0.962747  0.456262  1
  Sn  Sn22  1  0.676318  0.851186  0.750129  1
  Sn  Sn23  1  0.206908  0.536563  0.455650  1
  Sn  Sn24  1  0.294242  0.034880  0.955268  1
  Sn  Sn25  1  0.822148  0.351922  0.248773  1
  Sn  Sn26  1  0.794327  0.464906  0.955270  1
  Sn  Sn27  1  0.560450  0.615190  0.249910  1
  Sn  Sn28  1  0.205599  0.535166  0.044370  1
  Sn  Sn29  1  0.439167  0.385318  0.750286  1
  Sn  Sn30  1  0.176204  0.648798  0.750077  1
  Sn  Sn31  1  0.939476  0.114707  0.750024  1
  Sn  Sn32  1  0.296364  0.033240  0.545796  1
  Sn  Sn33  1  0.706014  0.965280  0.044624  1
  Sn  Sn34  1  0.325095  0.149105  0.249361  1
  Sn  Sn35  1  0.060684  0.884390  0.249609  1
