# generated using pymatgen
data_Mg(PaPd4)3
_symmetry_space_group_name_H-M   'P 1'
_cell_length_a   5.76142300
_cell_length_b   5.76142353
_cell_length_c   9.68267000
_cell_angle_alpha   90.00000000
_cell_angle_beta   90.00000000
_cell_angle_gamma   120.00000271
_symmetry_Int_Tables_number   1
_chemical_formula_structural   Mg(PaPd4)3
_chemical_formula_sum   'Mg1 Pa3 Pd12'
_cell_volume   278.34621129
_cell_formula_units_Z   1
loop_
 _symmetry_equiv_pos_site_id
 _symmetry_equiv_pos_as_xyz
  1  'x, y, z'
loop_
 _atom_site_type_symbol
 _atom_site_label
 _atom_site_symmetry_multiplicity
 _atom_site_fract_x
 _atom_site_fract_y
 _atom_site_fract_z
 _atom_site_occupancy
  Mg  Mg0  1  0.333333  0.666667  0.750000  1
  Pa  Pa1  1  0.000000  0.000000  0.511234  1
  Pa  Pa2  1  0.000000  0.000000  0.988766  1
  Pa  Pa3  1  0.666667  0.333333  0.250000  1
  Pd  Pd4  1  0.500040  0.499960  0.502387  1
  Pd  Pd5  1  0.500040  0.000080  0.502387  1
  Pd  Pd6  1  0.999920  0.499960  0.502387  1
  Pd  Pd7  1  0.500040  0.499960  0.997613  1
  Pd  Pd8  1  0.500040  0.000080  0.997613  1
  Pd  Pd9  1  0.999920  0.499960  0.997613  1
  Pd  Pd10  1  0.168146  0.831854  0.250000  1
  Pd  Pd11  1  0.168146  0.336294  0.250000  1
  Pd  Pd12  1  0.663706  0.831854  0.250000  1
  Pd  Pd13  1  0.828893  0.171107  0.750000  1
  Pd  Pd14  1  0.828893  0.657783  0.750000  1
  Pd  Pd15  1  0.342217  0.171107  0.750000  1
