# generated using pymatgen
data_Dy(ScNi6)2
_symmetry_space_group_name_H-M   'P 1'
_cell_length_a   4.76642287
_cell_length_b   4.77792900
_cell_length_c   10.06375801
_cell_angle_alpha   85.25126430
_cell_angle_beta   80.44631253
_cell_angle_gamma   60.07962782
_symmetry_Int_Tables_number   1
_chemical_formula_structural   Dy(ScNi6)2
_chemical_formula_sum   'Dy1 Sc2 Ni12'
_cell_volume   195.88689764
_cell_formula_units_Z   1
loop_
 _symmetry_equiv_pos_site_id
 _symmetry_equiv_pos_as_xyz
  1  'x, y, z'
loop_
 _atom_site_type_symbol
 _atom_site_label
 _atom_site_symmetry_multiplicity
 _atom_site_fract_x
 _atom_site_fract_y
 _atom_site_fract_z
 _atom_site_occupancy
  Dy  Dy0  1  0.000000  0.000000  0.000000  1
  Sc  Sc1  1  0.870235  0.000000  0.357388  1
  Sc  Sc2  1  0.129765  0.000000  0.642612  1
  Ni  Ni3  1  0.333323  0.333355  0.000000  1
  Ni  Ni4  1  0.666677  0.666645  0.000000  1
  Ni  Ni5  1  0.425855  0.000000  0.202585  1
  Ni  Ni6  1  0.574145  0.000000  0.797415  1
  Ni  Ni7  1  0.929543  0.501900  0.202076  1
  Ni  Ni8  1  0.431443  0.498100  0.202076  1
  Ni  Ni9  1  0.070457  0.498100  0.797924  1
  Ni  Ni10  1  0.568557  0.501900  0.797924  1
  Ni  Ni11  1  0.190934  0.334405  0.407325  1
  Ni  Ni12  1  0.525338  0.665595  0.407325  1
  Ni  Ni13  1  0.809066  0.665595  0.592675  1
  Ni  Ni14  1  0.474662  0.334405  0.592675  1
