# generated using pymatgen
data_Zr8Ti2CuSn6As
_symmetry_space_group_name_H-M   'P 1'
_cell_length_a   8.62521700
_cell_length_b   8.62521772
_cell_length_c   5.83926200
_cell_angle_alpha   90.00000000
_cell_angle_beta   90.00000000
_cell_angle_gamma   120.00000875
_symmetry_Int_Tables_number   1
_chemical_formula_structural   Zr8Ti2CuSn6As
_chemical_formula_sum   'Zr8 Ti2 Cu1 Sn6 As1'
_cell_volume   376.20854181
_cell_formula_units_Z   1
loop_
 _symmetry_equiv_pos_site_id
 _symmetry_equiv_pos_as_xyz
  1  'x, y, z'
loop_
 _atom_site_type_symbol
 _atom_site_label
 _atom_site_symmetry_multiplicity
 _atom_site_fract_x
 _atom_site_fract_y
 _atom_site_fract_z
 _atom_site_occupancy
  Zr  Zr0  1  0.262798  0.000000  0.747085  1
  Zr  Zr1  1  0.737202  0.000000  0.252915  1
  Zr  Zr2  1  0.000000  0.262798  0.747085  1
  Zr  Zr3  1  0.000000  0.737202  0.252915  1
  Zr  Zr4  1  0.737202  0.737202  0.747085  1
  Zr  Zr5  1  0.262798  0.262798  0.252915  1
  Zr  Zr6  1  0.333333  0.666667  0.500000  1
  Zr  Zr7  1  0.666667  0.333333  0.500000  1
  Ti  Ti8  1  0.666667  0.333333  0.000000  1
  Ti  Ti9  1  0.333333  0.666667  0.000000  1
  Cu  Cu10  1  0.000000  0.000000  0.000000  1
  Sn  Sn11  1  0.608084  0.000000  0.760951  1
  Sn  Sn12  1  0.391916  0.000000  0.239049  1
  Sn  Sn13  1  0.000000  0.608084  0.760951  1
  Sn  Sn14  1  0.000000  0.391916  0.239049  1
  Sn  Sn15  1  0.391916  0.391916  0.760951  1
  Sn  Sn16  1  0.608084  0.608084  0.239049  1
  As  As17  1  0.000000  0.000000  0.500000  1
