# generated using pymatgen
data_Yb12MgAlGa11Sb7O48
_symmetry_space_group_name_H-M   'P 1'
_cell_length_a   10.66498910
_cell_length_b   10.66498581
_cell_length_c   10.66498400
_cell_angle_alpha   109.47846739
_cell_angle_beta   109.46762871
_cell_angle_gamma   109.46764383
_symmetry_Int_Tables_number   1
_chemical_formula_structural   Yb12MgAlGa11Sb7O48
_chemical_formula_sum   'Yb12 Mg1 Al1 Ga11 Sb7 O48'
_cell_volume   933.81015682
_cell_formula_units_Z   1
loop_
 _symmetry_equiv_pos_site_id
 _symmetry_equiv_pos_as_xyz
  1  'x, y, z'
loop_
 _atom_site_type_symbol
 _atom_site_label
 _atom_site_symmetry_multiplicity
 _atom_site_fract_x
 _atom_site_fract_y
 _atom_site_fract_z
 _atom_site_occupancy
  Yb  Yb0  1  0.239177  0.360054  0.119303  1
  Yb  Yb1  1  0.375115  0.749630  0.125028  1
  Yb  Yb2  1  0.360562  0.119576  0.238902  1
  Yb  Yb3  1  0.875018  0.625711  0.250310  1
  Yb  Yb4  1  0.119216  0.238546  0.359558  1
  Yb  Yb5  1  0.749951  0.124688  0.374547  1
  Yb  Yb6  1  0.250272  0.875351  0.625424  1
  Yb  Yb7  1  0.880779  0.761219  0.639958  1
  Yb  Yb8  1  0.124919  0.374544  0.749593  1
  Yb  Yb9  1  0.641556  0.880890  0.764090  1
  Yb  Yb10  1  0.624990  0.250414  0.874966  1
  Yb  Yb11  1  0.760938  0.640685  0.880749  1
  Mg  Mg12  1  0.998383  0.999331  0.000836  1
  Al  Al13  1  0.748946  0.874928  0.120514  1
  Ga  Ga14  1  0.880404  0.249272  0.124069  1
  Ga  Ga15  1  0.624856  0.373757  0.250594  1
  Ga  Ga16  1  0.123788  0.880108  0.248934  1
  Ga  Ga17  1  0.625919  0.749037  0.375558  1
  Ga  Ga18  1  0.251228  0.624814  0.374099  1
  Ga  Ga19  1  0.748746  0.375234  0.625878  1
  Ga  Ga20  1  0.373712  0.251583  0.625007  1
  Ga  Ga21  1  0.875919  0.119090  0.750019  1
  Ga  Ga22  1  0.375421  0.625934  0.748637  1
  Ga  Ga23  1  0.249337  0.123825  0.880175  1
  Ga  Ga24  1  0.120224  0.751379  0.876762  1
  Sb  Sb25  1  0.501292  0.999429  0.000205  1
  Sb  Sb26  1  0.500732  0.501832  0.000615  1
  Sb  Sb27  1  0.999678  0.499778  0.999805  1
  Sb  Sb28  1  0.499972  0.000007  0.500046  1
  Sb  Sb29  1  0.000146  0.499926  0.500158  1
  Sb  Sb30  1  0.998618  0.998862  0.497775  1
  Sb  Sb31  1  0.500290  0.500190  0.499960  1
  O  O32  1  0.323414  0.902011  0.025438  1
  O  O33  1  0.213438  0.122444  0.030865  1
  O  O34  1  0.704122  0.685724  0.090147  1
  O  O35  1  0.877456  0.406863  0.084492  1
  O  O36  1  0.974270  0.678048  0.097268  1
  O  O37  1  0.620605  0.415692  0.094366  1
  O  O38  1  0.598911  0.915320  0.120304  1
  O  O39  1  0.031533  0.214295  0.122931  1
  O  O40  1  0.472373  0.592865  0.178787  1
  O  O41  1  0.205750  0.583176  0.177329  1
  O  O42  1  0.124277  0.032011  0.214696  1
  O  O43  1  0.584007  0.177073  0.205567  1
  O  O44  1  0.474178  0.380677  0.295809  1
  O  O45  1  0.320974  0.910529  0.293535  1
  O  O46  1  0.896037  0.015421  0.314335  1
  O  O47  1  0.911194  0.293177  0.321324  1
  O  O48  1  0.296074  0.473776  0.380873  1
  O  O49  1  0.586502  0.906264  0.379968  1
  O  O50  1  0.821462  0.527016  0.406745  1
  O  O51  1  0.084403  0.877259  0.406596  1
  O  O52  1  0.822318  0.793264  0.417236  1
  O  O53  1  0.093591  0.619398  0.413311  1
  O  O54  1  0.592988  0.178506  0.472288  1
  O  O55  1  0.381264  0.296441  0.474309  1
  O  O56  1  0.619154  0.704420  0.526512  1
  O  O57  1  0.407048  0.821498  0.527599  1
  O  O58  1  0.906297  0.380392  0.586686  1
  O  O59  1  0.175824  0.204799  0.580739  1
  O  O60  1  0.915131  0.121702  0.591774  1
  O  O61  1  0.178812  0.472491  0.592874  1
  O  O62  1  0.413476  0.094435  0.619799  1
  O  O63  1  0.704414  0.526506  0.619211  1
  O  O64  1  0.089181  0.706463  0.679295  1
  O  O65  1  0.097311  0.975816  0.677713  1
  O  O66  1  0.679023  0.088954  0.706155  1
  O  O67  1  0.526792  0.619603  0.704425  1
  O  O68  1  0.416576  0.822304  0.793772  1
  O  O69  1  0.876776  0.968610  0.786778  1
  O  O70  1  0.793742  0.416818  0.822473  1
  O  O71  1  0.527837  0.408414  0.821946  1
  O  O72  1  0.968834  0.786451  0.877595  1
  O  O73  1  0.407199  0.084199  0.878268  1
  O  O74  1  0.379537  0.586513  0.905852  1
  O  O75  1  0.024590  0.321316  0.901812  1
  O  O76  1  0.122414  0.593458  0.915971  1
  O  O77  1  0.294698  0.321438  0.910708  1
  O  O78  1  0.678457  0.098233  0.974504  1
  O  O79  1  0.785620  0.878278  0.976930  1
