# generated using pymatgen
data_Ti6Al5Rh12Au
_symmetry_space_group_name_H-M   'P 1'
_cell_length_a   4.23651500
_cell_length_b   6.49384200
_cell_length_c   12.66772700
_cell_angle_alpha   90.00008935
_cell_angle_beta   90.00003162
_cell_angle_gamma   90.00000000
_symmetry_Int_Tables_number   1
_chemical_formula_structural   Ti6Al5Rh12Au
_chemical_formula_sum   'Ti6 Al5 Rh12 Au1'
_cell_volume   348.50511895
_cell_formula_units_Z   1
loop_
 _symmetry_equiv_pos_site_id
 _symmetry_equiv_pos_as_xyz
  1  'x, y, z'
loop_
 _atom_site_type_symbol
 _atom_site_label
 _atom_site_symmetry_multiplicity
 _atom_site_fract_x
 _atom_site_fract_y
 _atom_site_fract_z
 _atom_site_occupancy
  Ti  Ti0  1  0.000000  0.500000  0.000009  1
  Ti  Ti1  1  0.500002  0.000000  0.158548  1
  Ti  Ti2  1  0.000001  0.500001  0.335519  1
  Ti  Ti3  1  0.500000  0.999999  0.499993  1
  Ti  Ti4  1  0.000000  0.500000  0.664468  1
  Ti  Ti5  1  0.499997  0.000000  0.841465  1
  Al  Al6  1  0.500002  0.500000  0.171430  1
  Al  Al7  1  0.000001  0.000000  0.331735  1
  Al  Al8  1  0.500000  0.500000  0.499995  1
  Al  Al9  1  0.000000  0.000000  0.668269  1
  Al  Al10  1  0.499999  0.500000  0.828572  1
  Rh  Rh11  1  0.500001  0.274530  0.000030  1
  Rh  Rh12  1  0.499999  0.725474  0.000030  1
  Rh  Rh13  1  0.000000  0.259721  0.173422  1
  Rh  Rh14  1  0.000001  0.740277  0.173423  1
  Rh  Rh15  1  0.500001  0.247254  0.335149  1
  Rh  Rh16  1  0.500001  0.752745  0.335149  1
  Rh  Rh17  1  0.000000  0.247337  0.499992  1
  Rh  Rh18  1  0.000000  0.752662  0.499991  1
  Rh  Rh19  1  0.499998  0.247302  0.664815  1
  Rh  Rh20  1  0.500000  0.752699  0.664815  1
  Rh  Rh21  1  0.000000  0.259789  0.826575  1
  Rh  Rh22  1  0.000000  0.740212  0.826577  1
  Au  Au23  1  0.000000  0.000001  0.000032  1
