# generated using pymatgen
data_Rb4Nb2O7
_symmetry_space_group_name_H-M   'P 1'
_cell_length_a   6.57904743
_cell_length_b   6.57904716
_cell_length_c   7.86926867
_cell_angle_alpha   80.92959096
_cell_angle_beta   80.92959270
_cell_angle_gamma   62.00888171
_symmetry_Int_Tables_number   1
_chemical_formula_structural   Rb4Nb2O7
_chemical_formula_sum   'Rb4 Nb2 O7'
_cell_volume   295.63656620
_cell_formula_units_Z   1
loop_
 _symmetry_equiv_pos_site_id
 _symmetry_equiv_pos_as_xyz
  1  'x, y, z'
loop_
 _atom_site_type_symbol
 _atom_site_label
 _atom_site_symmetry_multiplicity
 _atom_site_fract_x
 _atom_site_fract_y
 _atom_site_fract_z
 _atom_site_occupancy
  Rb  Rb0  1  0.683920  0.683920  0.312718  1
  Rb  Rb1  1  0.316080  0.316080  0.687282  1
  Rb  Rb2  1  0.000000  0.000000  0.500000  1
  Rb  Rb3  1  0.000000  0.000000  0.000000  1
  Nb  Nb4  1  0.637590  0.637590  0.802031  1
  Nb  Nb5  1  0.362410  0.362410  0.197969  1
  O  O6  1  0.788198  0.788198  0.863035  1
  O  O7  1  0.399748  0.844581  0.670913  1
  O  O8  1  0.211802  0.211802  0.136965  1
  O  O9  1  0.155419  0.600252  0.329087  1
  O  O10  1  0.844581  0.399748  0.670913  1
  O  O11  1  0.500000  0.500000  0.000000  1
  O  O12  1  0.600252  0.155419  0.329087  1
