# generated using pymatgen
data_Y13Th3(MgIr)4
_symmetry_space_group_name_H-M   'P 1'
_cell_length_a   9.82018890
_cell_length_b   9.82910873
_cell_length_c   9.82910900
_cell_angle_alpha   60.00000247
_cell_angle_beta   59.96995109
_cell_angle_gamma   59.96995417
_symmetry_Int_Tables_number   1
_chemical_formula_structural   Y13Th3(MgIr)4
_chemical_formula_sum   'Y13 Th3 Mg4 Ir4'
_cell_volume   670.55707930
_cell_formula_units_Z   1
loop_
 _symmetry_equiv_pos_site_id
 _symmetry_equiv_pos_as_xyz
  1  'x, y, z'
loop_
 _atom_site_type_symbol
 _atom_site_label
 _atom_site_symmetry_multiplicity
 _atom_site_fract_x
 _atom_site_fract_y
 _atom_site_fract_z
 _atom_site_occupancy
  Y  Y0  1  0.203918  0.598694  0.598694  1
  Y  Y1  1  0.062533  0.438184  0.438184  1
  Y  Y2  1  0.437417  0.062852  0.062852  1
  Y  Y3  1  0.437417  0.062852  0.436879  1
  Y  Y4  1  0.062533  0.438184  0.061098  1
  Y  Y5  1  0.437417  0.436879  0.062852  1
  Y  Y6  1  0.062533  0.061098  0.438184  1
  Y  Y7  1  0.186395  0.813873  0.813873  1
  Y  Y8  1  0.814320  0.185418  0.185418  1
  Y  Y9  1  0.814320  0.185418  0.814845  1
  Y  Y10  1  0.186395  0.813873  0.185860  1
  Y  Y11  1  0.814320  0.814845  0.185418  1
  Y  Y12  1  0.186395  0.185860  0.813873  1
  Th  Th13  1  0.595664  0.598145  0.598145  1
  Th  Th14  1  0.595664  0.598145  0.208046  1
  Th  Th15  1  0.595664  0.208046  0.598145  1
  Mg  Mg16  1  0.830858  0.829578  0.829578  1
  Mg  Mg17  1  0.830858  0.829578  0.509987  1
  Mg  Mg18  1  0.830858  0.509987  0.829578  1
  Mg  Mg19  1  0.508745  0.830419  0.830419  1
  Ir  Ir20  1  0.395461  0.391532  0.391532  1
  Ir  Ir21  1  0.395461  0.391532  0.821474  1
  Ir  Ir22  1  0.395461  0.821474  0.391532  1
  Ir  Ir23  1  0.819386  0.393538  0.393538  1
