# generated using pymatgen
data_Tm5Lu3Sc11Si16Tc
_symmetry_space_group_name_H-M   'P 1'
_cell_length_a   6.96695297
_cell_length_b   7.30388423
_cell_length_c   13.80309940
_cell_angle_alpha   89.99086154
_cell_angle_beta   89.97415096
_cell_angle_gamma   90.11236694
_symmetry_Int_Tables_number   1
_chemical_formula_structural   Tm5Lu3Sc11Si16Tc
_chemical_formula_sum   'Tm5 Lu3 Sc11 Si16 Tc1'
_cell_volume   702.38057096
_cell_formula_units_Z   1
loop_
 _symmetry_equiv_pos_site_id
 _symmetry_equiv_pos_as_xyz
  1  'x, y, z'
loop_
 _atom_site_type_symbol
 _atom_site_label
 _atom_site_symmetry_multiplicity
 _atom_site_fract_x
 _atom_site_fract_y
 _atom_site_fract_z
 _atom_site_occupancy
  Tm  Tm0  1  0.992793  0.817546  0.599047  1
  Tm  Tm1  1  0.511478  0.322398  0.094796  1
  Tm  Tm2  1  0.011974  0.178630  0.407000  1
  Tm  Tm3  1  0.511347  0.322547  0.404956  1
  Tm  Tm4  1  0.487879  0.673372  0.597163  1
  Lu  Lu5  1  0.011949  0.178753  0.093091  1
  Lu  Lu6  1  0.992803  0.817081  0.900829  1
  Lu  Lu7  1  0.487662  0.673588  0.902758  1
  Sc  Sc8  1  0.841556  0.495722  0.249885  1
  Sc  Sc9  1  0.342094  0.004318  0.249910  1
  Sc  Sc10  1  0.656806  0.994051  0.750164  1
  Sc  Sc11  1  0.326070  0.178299  0.627729  1
  Sc  Sc12  1  0.672140  0.824332  0.374422  1
  Sc  Sc13  1  0.172278  0.674241  0.376682  1
  Sc  Sc14  1  0.672141  0.824343  0.125369  1
  Sc  Sc15  1  0.827310  0.330857  0.628720  1
  Sc  Sc16  1  0.326071  0.178312  0.872463  1
  Sc  Sc17  1  0.827293  0.330811  0.871459  1
  Sc  Sc18  1  0.172202  0.674490  0.123144  1
  Si  Si19  1  0.028238  0.115170  0.750254  1
  Si  Si20  1  0.973258  0.888576  0.249809  1
  Si  Si21  1  0.469463  0.613463  0.249896  1
  Si  Si22  1  0.517848  0.398003  0.750355  1
  Si  Si23  1  0.284353  0.858186  0.750588  1
  Si  Si24  1  0.718258  0.131970  0.249672  1
  Si  Si25  1  0.214664  0.368521  0.249672  1
  Si  Si26  1  0.793664  0.631934  0.750503  1
  Si  Si27  1  0.156904  0.466757  0.547514  1
  Si  Si28  1  0.841451  0.535370  0.463471  1
  Si  Si29  1  0.344296  0.965307  0.463133  1
  Si  Si30  1  0.841726  0.535397  0.036418  1
  Si  Si31  1  0.659441  0.034350  0.539846  1
  Si  Si32  1  0.157391  0.467525  0.952336  1
  Si  Si33  1  0.660123  0.033366  0.959981  1
  Si  Si34  1  0.343583  0.965242  0.036707  1
  Tc  Tc35  1  0.151490  0.497168  0.750259  1
