# generated using pymatgen
data_Dy8Nb11Si16Hg
_symmetry_space_group_name_H-M   'P 1'
_cell_length_a   7.09810568
_cell_length_b   7.09810562
_cell_length_c   13.04566187
_cell_angle_alpha   89.79126077
_cell_angle_beta   90.20873795
_cell_angle_gamma   89.73041469
_symmetry_Int_Tables_number   1
_chemical_formula_structural   Dy8Nb11Si16Hg
_chemical_formula_sum   'Dy8 Nb11 Si16 Hg1'
_cell_volume   657.26489609
_cell_formula_units_Z   1
loop_
 _symmetry_equiv_pos_site_id
 _symmetry_equiv_pos_as_xyz
  1  'x, y, z'
loop_
 _atom_site_type_symbol
 _atom_site_label
 _atom_site_symmetry_multiplicity
 _atom_site_fract_x
 _atom_site_fract_y
 _atom_site_fract_z
 _atom_site_occupancy
  Dy  Dy0  1  0.998233  0.657260  0.033078  1
  Dy  Dy1  1  0.999112  0.344579  0.532558  1
  Dy  Dy2  1  0.657260  0.998233  0.966922  1
  Dy  Dy3  1  0.159370  0.502584  0.783959  1
  Dy  Dy4  1  0.842984  0.497032  0.283527  1
  Dy  Dy5  1  0.502584  0.159370  0.216041  1
  Dy  Dy6  1  0.497032  0.842984  0.716473  1
  Dy  Dy7  1  0.344579  0.999112  0.467442  1
  Nb  Nb8  1  0.348634  0.501889  0.376881  1
  Nb  Nb9  1  0.849403  0.991868  0.376346  1
  Nb  Nb10  1  0.008565  0.152517  0.126642  1
  Nb  Nb11  1  0.991868  0.849403  0.623654  1
  Nb  Nb12  1  0.501889  0.348634  0.623119  1
  Nb  Nb13  1  0.152517  0.008565  0.873358  1
  Nb  Nb14  1  0.829087  0.172604  0.750838  1
  Nb  Nb15  1  0.172604  0.829087  0.249162  1
  Nb  Nb16  1  0.328047  0.328047  0.000000  1
  Nb  Nb17  1  0.495255  0.649708  0.123420  1
  Nb  Nb18  1  0.649708  0.495255  0.876580  1
  Si  Si19  1  0.064326  0.712667  0.434071  1
  Si  Si20  1  0.953566  0.293065  0.937216  1
  Si  Si21  1  0.712667  0.064326  0.565929  1
  Si  Si22  1  0.207676  0.455181  0.187515  1
  Si  Si23  1  0.795514  0.541771  0.693755  1
  Si  Si24  1  0.455181  0.207676  0.812485  1
  Si  Si25  1  0.541771  0.795514  0.306245  1
  Si  Si26  1  0.293065  0.953566  0.062784  1
  Si  Si27  1  0.798187  0.865270  0.183125  1
  Si  Si28  1  0.276586  0.627469  0.572485  1
  Si  Si29  1  0.706267  0.365799  0.067723  1
  Si  Si30  1  0.627469  0.276586  0.427515  1
  Si  Si31  1  0.365799  0.706267  0.932277  1
  Si  Si32  1  0.134148  0.202969  0.317986  1
  Si  Si33  1  0.202969  0.134148  0.682014  1
  Si  Si34  1  0.865270  0.798187  0.816875  1
  Hg  Hg35  1  0.670808  0.670808  0.500000  1
