# generated using pymatgen
data_Tm3MgIr8
_symmetry_space_group_name_H-M   'P 1'
_cell_length_a   5.30840800
_cell_length_b   5.30840784
_cell_length_c   8.61363200
_cell_angle_alpha   90.00000000
_cell_angle_beta   90.00000000
_cell_angle_gamma   120.00000098
_symmetry_Int_Tables_number   1
_chemical_formula_structural   Tm3MgIr8
_chemical_formula_sum   'Tm3 Mg1 Ir8'
_cell_volume   210.20619839
_cell_formula_units_Z   1
loop_
 _symmetry_equiv_pos_site_id
 _symmetry_equiv_pos_as_xyz
  1  'x, y, z'
loop_
 _atom_site_type_symbol
 _atom_site_label
 _atom_site_symmetry_multiplicity
 _atom_site_fract_x
 _atom_site_fract_y
 _atom_site_fract_z
 _atom_site_occupancy
  Tm  Tm0  1  0.333333  0.666667  0.078209  1
  Tm  Tm1  1  0.666667  0.333333  0.559160  1
  Tm  Tm2  1  0.666667  0.333333  0.930777  1
  Mg  Mg3  1  0.333333  0.666667  0.439366  1
  Ir  Ir4  1  0.000000  0.000000  0.997702  1
  Ir  Ir5  1  0.000000  0.000000  0.498001  1
  Ir  Ir6  1  0.829923  0.659848  0.250044  1
  Ir  Ir7  1  0.171113  0.828887  0.748884  1
  Ir  Ir8  1  0.657773  0.828887  0.748884  1
  Ir  Ir9  1  0.340152  0.170077  0.250044  1
  Ir  Ir10  1  0.829923  0.170077  0.250044  1
  Ir  Ir11  1  0.171113  0.342227  0.748884  1
