# generated using pymatgen
data_Nd2Co17Si8Os
_symmetry_space_group_name_H-M   'P 1'
_cell_length_a   7.94933820
_cell_length_b   7.99843190
_cell_length_c   7.96881584
_cell_angle_alpha   121.89526471
_cell_angle_beta   121.69863724
_cell_angle_gamma   86.95331214
_symmetry_Int_Tables_number   1
_chemical_formula_structural   Nd2Co17Si8Os
_chemical_formula_sum   'Nd2 Co17 Si8 Os1'
_cell_volume   347.88151566
_cell_formula_units_Z   1
loop_
 _symmetry_equiv_pos_site_id
 _symmetry_equiv_pos_as_xyz
  1  'x, y, z'
loop_
 _atom_site_type_symbol
 _atom_site_label
 _atom_site_symmetry_multiplicity
 _atom_site_fract_x
 _atom_site_fract_y
 _atom_site_fract_z
 _atom_site_occupancy
  Nd  Nd0  1  0.749832  0.750710  0.000826  1
  Nd  Nd1  1  0.249006  0.249884  0.999174  1
  Co  Co2  1  0.447964  0.949842  0.758657  1
  Co  Co3  1  0.189307  0.691184  0.241343  1
  Co  Co4  1  0.547616  0.043449  0.236142  1
  Co  Co5  1  0.947944  0.191171  0.500000  1
  Co  Co6  1  0.198269  0.928743  0.128907  1
  Co  Co7  1  0.800490  0.069504  0.870303  1
  Co  Co8  1  0.430187  0.699200  0.129697  1
  Co  Co9  1  0.569362  0.299836  0.871093  1
  Co  Co10  1  0.700908  0.572946  0.264223  1
  Co  Co11  1  0.300223  0.430179  0.732154  1
  Co  Co12  1  0.936684  0.808722  0.735777  1
  Co  Co13  1  0.312034  0.549182  0.500000  1
  Co  Co14  1  0.811474  0.307307  0.763858  1
  Co  Co15  1  0.002737  0.502555  0.500000  1
  Co  Co16  1  0.500030  0.000669  0.500000  1
  Co  Co17  1  0.068069  0.198025  0.267846  1
  Co  Co18  1  0.051360  0.811486  0.500000  1
  Si  Si19  1  0.290766  0.789338  0.834568  1
  Si  Si20  1  0.052867  0.545705  0.842065  1
  Si  Si21  1  0.541002  0.716469  0.500000  1
  Si  Si22  1  0.790639  0.954166  0.500000  1
  Si  Si23  1  0.445191  0.284613  0.500000  1
  Si  Si24  1  0.956197  0.454769  0.165432  1
  Si  Si25  1  0.710802  0.203640  0.157935  1
  Si  Si26  1  0.209503  0.046611  0.500000  1
  Os  Os27  1  0.689536  0.450096  0.500000  1
