# generated using pymatgen
data_Y7LuMg2(SiB4)4
_symmetry_space_group_name_H-M   'P 1'
_cell_length_a   7.16657603
_cell_length_b   7.16665903
_cell_length_c   7.84085501
_cell_angle_alpha   89.99695295
_cell_angle_beta   89.99717446
_cell_angle_gamma   89.99019832
_symmetry_Int_Tables_number   1
_chemical_formula_structural   Y7LuMg2(SiB4)4
_chemical_formula_sum   'Y7 Lu1 Mg2 Si4 B16'
_cell_volume   402.70949577
_cell_formula_units_Z   1
loop_
 _symmetry_equiv_pos_site_id
 _symmetry_equiv_pos_as_xyz
  1  'x, y, z'
loop_
 _atom_site_type_symbol
 _atom_site_label
 _atom_site_symmetry_multiplicity
 _atom_site_fract_x
 _atom_site_fract_y
 _atom_site_fract_z
 _atom_site_occupancy
  Y  Y0  1  0.317066  0.817064  0.765973  1
  Y  Y1  1  0.317182  0.817177  0.233997  1
  Y  Y2  1  0.816809  0.683063  0.233817  1
  Y  Y3  1  0.816748  0.683007  0.765978  1
  Y  Y4  1  0.683172  0.183172  0.766220  1
  Y  Y5  1  0.183003  0.316751  0.765977  1
  Y  Y6  1  0.183059  0.316805  0.233819  1
  Lu  Lu7  1  0.683062  0.183063  0.229396  1
  Mg  Mg8  1  0.999166  0.000482  0.499252  1
  Mg  Mg9  1  0.500467  0.499174  0.499265  1
  Si  Si10  1  0.114576  0.614577  0.499685  1
  Si  Si11  1  0.883158  0.383157  0.497759  1
  Si  Si12  1  0.386475  0.116346  0.498315  1
  Si  Si13  1  0.616347  0.886472  0.498315  1
  B  B14  1  0.173014  0.040065  0.000689  1
  B  B15  1  0.826146  0.961062  0.000915  1
  B  B16  1  0.959484  0.173713  0.000620  1
  B  B17  1  0.326979  0.539437  0.000573  1
  B  B18  1  0.039438  0.826979  0.000573  1
  B  B19  1  0.673719  0.459481  0.000619  1
  B  B20  1  0.540065  0.673014  0.000688  1
  B  B21  1  0.461062  0.326140  0.000914  1
  B  B22  1  0.089511  0.589509  0.000408  1
  B  B23  1  0.910337  0.410338  0.000395  1
  B  B24  1  0.410867  0.089594  0.001428  1
  B  B25  1  0.589596  0.910868  0.001428  1
  B  B26  1  0.998595  0.000746  0.163008  1
  B  B27  1  0.999926  0.000226  0.838480  1
  B  B28  1  0.500227  0.499924  0.838479  1
  B  B29  1  0.500746  0.498594  0.163011  1
