# generated using pymatgen
data_Y3U2P12Ru19
_symmetry_space_group_name_H-M   'P 1'
_cell_length_a   12.58202600
_cell_length_b   12.57372247
_cell_length_c   3.94221000
_cell_angle_alpha   90.00000000
_cell_angle_beta   90.00000000
_cell_angle_gamma   120.02184785
_symmetry_Int_Tables_number   1
_chemical_formula_structural   Y3U2P12Ru19
_chemical_formula_sum   'Y3 U2 P12 Ru19'
_cell_volume   539.99430793
_cell_formula_units_Z   1
loop_
 _symmetry_equiv_pos_site_id
 _symmetry_equiv_pos_as_xyz
  1  'x, y, z'
loop_
 _atom_site_type_symbol
 _atom_site_label
 _atom_site_symmetry_multiplicity
 _atom_site_fract_x
 _atom_site_fract_y
 _atom_site_fract_z
 _atom_site_occupancy
  Y  Y0  1  0.189647  0.000000  0.500000  1
  Y  Y1  1  0.668839  0.335194  0.000000  1
  Y  Y2  1  0.333644  0.664806  0.000000  1
  U  U3  1  0.002027  0.184556  0.500000  1
  U  U4  1  0.817470  0.815444  0.500000  1
  P  P5  1  0.005709  0.820601  0.000000  1
  P  P6  1  0.185108  0.179399  0.000000  1
  P  P7  1  0.814864  0.000000  0.000000  1
  P  P8  1  0.691169  0.170921  0.500000  1
  P  P9  1  0.828539  0.521471  0.500000  1
  P  P10  1  0.479087  0.307618  0.500000  1
  P  P11  1  0.171468  0.692382  0.500000  1
  P  P12  1  0.520248  0.829079  0.500000  1
  P  P13  1  0.307068  0.478529  0.500000  1
  P  P14  1  0.998808  0.374098  0.000000  1
  P  P15  1  0.624710  0.625902  0.000000  1
  P  P16  1  0.373853  0.000000  0.000000  1
  Ru  Ru17  1  0.995651  0.554333  0.000000  1
  Ru  Ru18  1  0.441318  0.445667  0.000000  1
  Ru  Ru19  1  0.556839  0.000000  0.000000  1
  Ru  Ru20  1  0.998305  0.717618  0.500000  1
  Ru  Ru21  1  0.280686  0.282382  0.500000  1
  Ru  Ru22  1  0.717804  0.000000  0.500000  1
  Ru  Ru23  1  0.813002  0.183519  0.000000  1
  Ru  Ru24  1  0.816547  0.632656  0.000000  1
  Ru  Ru25  1  0.378680  0.194273  0.000000  1
  Ru  Ru26  1  0.184409  0.805727  0.000000  1
  Ru  Ru27  1  0.629483  0.816481  0.000000  1
  Ru  Ru28  1  0.183892  0.367344  0.000000  1
  Ru  Ru29  1  0.872032  0.363600  0.500000  1
  Ru  Ru30  1  0.634686  0.510348  0.500000  1
  Ru  Ru31  1  0.491273  0.125628  0.500000  1
  Ru  Ru32  1  0.365645  0.874372  0.500000  1
  Ru  Ru33  1  0.508432  0.636400  0.500000  1
  Ru  Ru34  1  0.124338  0.489652  0.500000  1
  Ru  Ru35  1  0.994721  0.000000  0.000000  1
