# generated using pymatgen
data_TmTa5Re5Si6Mo
_symmetry_space_group_name_H-M   'P 1'
_cell_length_a   7.64140131
_cell_length_b   7.60353293
_cell_length_c   7.63780373
_cell_angle_alpha   126.77401278
_cell_angle_beta   125.42664560
_cell_angle_gamma   79.81713438
_symmetry_Int_Tables_number   1
_chemical_formula_structural   TmTa5Re5Si6Mo
_chemical_formula_sum   'Tm1 Ta5 Re5 Si6 Mo1'
_cell_volume   279.62532668
_cell_formula_units_Z   1
loop_
 _symmetry_equiv_pos_site_id
 _symmetry_equiv_pos_as_xyz
  1  'x, y, z'
loop_
 _atom_site_type_symbol
 _atom_site_label
 _atom_site_symmetry_multiplicity
 _atom_site_fract_x
 _atom_site_fract_y
 _atom_site_fract_z
 _atom_site_occupancy
  Tm  Tm0  1  0.536655  0.066470  0.029534  1
  Ta  Ta1  1  0.461237  0.492761  0.532240  1
  Ta  Ta2  1  0.944223  0.485369  0.040505  1
  Ta  Ta3  1  0.056024  0.103397  0.547927  1
  Ta  Ta4  1  0.744719  0.906061  0.660139  1
  Ta  Ta5  1  0.253752  0.910208  0.158100  1
  Re  Re6  1  0.008310  0.246354  0.252124  1
  Re  Re7  1  0.088064  0.749381  0.587057  1
  Re  Re8  1  0.901241  0.499373  0.652590  1
  Re  Re9  1  0.663634  0.750849  0.162729  1
  Re  Re10  1  0.346170  0.498820  0.097575  1
  Si  Si11  1  0.732653  0.483207  0.250910  1
  Si  Si12  1  0.275271  0.538722  0.762894  1
  Si  Si13  1  0.320436  0.820647  0.478573  1
  Si  Si14  1  0.675780  0.161040  0.504759  1
  Si  Si15  1  0.842395  0.822144  0.000937  1
  Si  Si16  1  0.156379  0.161155  0.987030  1
  Mo  Mo17  1  0.493058  0.246240  0.736574  1
