# generated using pymatgen
data_LaPr3(Mo2O7)2
_symmetry_space_group_name_H-M   'P 1'
_cell_length_a   7.56744885
_cell_length_b   7.55924384
_cell_length_c   7.57426970
_cell_angle_alpha   119.97757077
_cell_angle_beta   119.99333303
_cell_angle_gamma   90.03403248
_symmetry_Int_Tables_number   1
_chemical_formula_structural   LaPr3(Mo2O7)2
_chemical_formula_sum   'La1 Pr3 Mo4 O14'
_cell_volume   306.41889923
_cell_formula_units_Z   1
loop_
 _symmetry_equiv_pos_site_id
 _symmetry_equiv_pos_as_xyz
  1  'x, y, z'
loop_
 _atom_site_type_symbol
 _atom_site_label
 _atom_site_symmetry_multiplicity
 _atom_site_fract_x
 _atom_site_fract_y
 _atom_site_fract_z
 _atom_site_occupancy
  La  La0  1  0.375000  0.125000  0.750000  1
  Pr  Pr1  1  0.375000  0.625000  0.750000  1
  Pr  Pr2  1  0.375000  0.625000  0.250000  1
  Pr  Pr3  1  0.875000  0.625000  0.250000  1
  Mo  Mo4  1  0.875000  0.625000  0.750000  1
  Mo  Mo5  1  0.375000  0.125000  0.250000  1
  Mo  Mo6  1  0.875000  0.125000  0.250000  1
  Mo  Mo7  1  0.875000  0.125000  0.750000  1
  O  O8  1  0.787567  0.201223  0.999653  1
  O  O9  1  0.547557  0.463524  0.497807  1
  O  O10  1  0.206018  0.207362  0.002048  1
  O  O11  1  0.956749  0.457468  0.500470  1
  O  O12  1  0.799921  0.797433  0.584358  1
  O  O13  1  0.537945  0.033429  0.085995  1
  O  O14  1  0.250003  0.749935  0.499839  1
  O  O15  1  0.950079  0.452567  0.915642  1
  O  O16  1  0.962433  0.048777  0.500347  1
  O  O17  1  0.543982  0.042638  0.497952  1
  O  O18  1  0.212055  0.216571  0.414005  1
  O  O19  1  0.499997  0.500065  0.000161  1
  O  O20  1  0.793251  0.792532  0.999530  1
  O  O21  1  0.202443  0.786476  0.002193  1
