# generated using pymatgen
data_Ho14Er2In4RuRh3
_symmetry_space_group_name_H-M   'P 1'
_cell_length_a   9.61388728
_cell_length_b   9.61999372
_cell_length_c   9.61604367
_cell_angle_alpha   59.92424740
_cell_angle_beta   59.88106685
_cell_angle_gamma   59.98057686
_symmetry_Int_Tables_number   1
_chemical_formula_structural   Ho14Er2In4RuRh3
_chemical_formula_sum   'Ho14 Er2 In4 Ru1 Rh3'
_cell_volume   627.84285292
_cell_formula_units_Z   1
loop_
 _symmetry_equiv_pos_site_id
 _symmetry_equiv_pos_as_xyz
  1  'x, y, z'
loop_
 _atom_site_type_symbol
 _atom_site_label
 _atom_site_symmetry_multiplicity
 _atom_site_fract_x
 _atom_site_fract_y
 _atom_site_fract_z
 _atom_site_occupancy
  Ho  Ho0  1  0.188339  0.192791  0.810615  1
  Ho  Ho1  1  0.437618  0.061014  0.062041  1
  Ho  Ho2  1  0.438425  0.061193  0.437489  1
  Ho  Ho3  1  0.059677  0.438440  0.059017  1
  Ho  Ho4  1  0.648654  0.049491  0.650171  1
  Ho  Ho5  1  0.192325  0.808146  0.809726  1
  Ho  Ho6  1  0.061118  0.059320  0.439067  1
  Ho  Ho7  1  0.809694  0.193441  0.189387  1
  Ho  Ho8  1  0.809826  0.809134  0.191872  1
  Ho  Ho9  1  0.649922  0.650119  0.047284  1
  Ho  Ho10  1  0.653105  0.650456  0.651649  1
  Ho  Ho11  1  0.062396  0.435410  0.439447  1
  Ho  Ho12  1  0.046884  0.648410  0.649976  1
  Ho  Ho13  1  0.809149  0.193734  0.809620  1
  Er  Er14  1  0.442859  0.436711  0.059885  1
  Er  Er15  1  0.191338  0.808612  0.191608  1
  In  In16  1  0.418464  0.747290  0.418021  1
  In  In17  1  0.416729  0.416861  0.749537  1
  In  In18  1  0.749643  0.417249  0.416680  1
  In  In19  1  0.415973  0.417626  0.417024  1
  Ru  Ru20  1  0.856718  0.424589  0.859275  1
  Rh  Rh21  1  0.858498  0.860298  0.423656  1
  Rh  Rh22  1  0.423470  0.859276  0.859240  1
  Rh  Rh23  1  0.859178  0.860383  0.857717  1
