# generated using pymatgen
data_Na4Ac3LaTe8
_symmetry_space_group_name_H-M   'P 1'
_cell_length_a   9.46430360
_cell_length_b   9.41899044
_cell_length_c   9.41898900
_cell_angle_alpha   59.99999453
_cell_angle_beta   60.15824762
_cell_angle_gamma   60.15824347
_symmetry_Int_Tables_number   1
_chemical_formula_structural   Na4Ac3LaTe8
_chemical_formula_sum   'Na4 Ac3 La1 Te8'
_cell_volume   595.13698928
_cell_formula_units_Z   1
loop_
 _symmetry_equiv_pos_site_id
 _symmetry_equiv_pos_as_xyz
  1  'x, y, z'
loop_
 _atom_site_type_symbol
 _atom_site_label
 _atom_site_symmetry_multiplicity
 _atom_site_fract_x
 _atom_site_fract_y
 _atom_site_fract_z
 _atom_site_occupancy
  Na  Na0  1  0.125000  0.625000  0.125000  1
  Na  Na1  1  0.125000  0.125000  0.625000  1
  Na  Na2  1  0.625000  0.125000  0.125000  1
  Na  Na3  1  0.125000  0.125000  0.125000  1
  Ac  Ac4  1  0.625000  0.125000  0.625000  1
  Ac  Ac5  1  0.625000  0.625000  0.625000  1
  Ac  Ac6  1  0.625000  0.625000  0.125000  1
  La  La7  1  0.125000  0.625000  0.625000  1
  Te  Te8  1  0.370436  0.869613  0.379975  1
  Te  Te9  1  0.879564  0.380387  0.870025  1
  Te  Te10  1  0.879564  0.870025  0.380387  1
  Te  Te11  1  0.879564  0.870025  0.870025  1
  Te  Te12  1  0.873813  0.375395  0.375395  1
  Te  Te13  1  0.370436  0.379975  0.869613  1
  Te  Te14  1  0.370436  0.379975  0.379975  1
  Te  Te15  1  0.376187  0.874605  0.874605  1
