# generated using pymatgen
data_Sc16In6FeCu
_symmetry_space_group_name_H-M   'P 1'
_cell_length_a   9.82228900
_cell_length_b   9.82245575
_cell_length_c   6.44202200
_cell_angle_alpha   90.00154541
_cell_angle_beta   89.99754764
_cell_angle_gamma   119.99988574
_symmetry_Int_Tables_number   1
_chemical_formula_structural   Sc16In6FeCu
_chemical_formula_sum   'Sc16 In6 Fe1 Cu1'
_cell_volume   538.25258505
_cell_formula_units_Z   1
loop_
 _symmetry_equiv_pos_site_id
 _symmetry_equiv_pos_as_xyz
  1  'x, y, z'
loop_
 _atom_site_type_symbol
 _atom_site_label
 _atom_site_symmetry_multiplicity
 _atom_site_fract_x
 _atom_site_fract_y
 _atom_site_fract_z
 _atom_site_occupancy
  Sc  Sc0  1  0.523130  0.046243  0.525297  1
  Sc  Sc1  1  0.953764  0.476877  0.525297  1
  Sc  Sc2  1  0.523112  0.476895  0.525302  1
  Sc  Sc3  1  0.468228  0.936479  0.020750  1
  Sc  Sc4  1  0.063529  0.531776  0.020742  1
  Sc  Sc5  1  0.468228  0.531777  0.020722  1
  Sc  Sc6  1  0.180246  0.360453  0.738958  1
  Sc  Sc7  1  0.639541  0.819752  0.738973  1
  Sc  Sc8  1  0.180262  0.819739  0.738987  1
  Sc  Sc9  1  0.822818  0.645651  0.234683  1
  Sc  Sc10  1  0.354354  0.177184  0.234682  1
  Sc  Sc11  1  0.822818  0.177185  0.234689  1
  Sc  Sc12  1  0.666683  0.333320  0.891357  1
  Sc  Sc13  1  0.333339  0.666658  0.408906  1
  Sc  Sc14  1  0.999999  0.999993  0.508321  1
  Sc  Sc15  1  0.000002  0.999996  0.011652  1
  In  In16  1  0.836866  0.673738  0.760028  1
  In  In17  1  0.326250  0.163129  0.760033  1
  In  In18  1  0.836854  0.163148  0.759974  1
  In  In19  1  0.162987  0.326000  0.263656  1
  In  In20  1  0.674000  0.837012  0.263651  1
  In  In21  1  0.162976  0.837012  0.263621  1
  Fe  Fe22  1  0.333331  0.666662  0.802465  1
  Cu  Cu23  1  0.666680  0.333323  0.302936  1
