# generated using pymatgen
data_Dy16MgAl(AgIr2)2
_symmetry_space_group_name_H-M   'P 1'
_cell_length_a   9.61792536
_cell_length_b   9.60370621
_cell_length_c   9.60370737
_cell_angle_alpha   59.71020249
_cell_angle_beta   59.82409807
_cell_angle_gamma   59.82408378
_symmetry_Int_Tables_number   1
_chemical_formula_structural   Dy16MgAl(AgIr2)2
_chemical_formula_sum   'Dy16 Mg1 Al1 Ag2 Ir4'
_cell_volume   624.20779570
_cell_formula_units_Z   1
loop_
 _symmetry_equiv_pos_site_id
 _symmetry_equiv_pos_as_xyz
  1  'x, y, z'
loop_
 _atom_site_type_symbol
 _atom_site_label
 _atom_site_symmetry_multiplicity
 _atom_site_fract_x
 _atom_site_fract_y
 _atom_site_fract_z
 _atom_site_occupancy
  Dy  Dy0  1  0.346983  0.347346  0.347346  1
  Dy  Dy1  1  0.350956  0.350511  0.952364  1
  Dy  Dy2  1  0.350956  0.952364  0.350511  1
  Dy  Dy3  1  0.943995  0.353595  0.353595  1
  Dy  Dy4  1  0.807726  0.190440  0.190440  1
  Dy  Dy5  1  0.192382  0.807830  0.807830  1
  Dy  Dy6  1  0.186928  0.811315  0.187773  1
  Dy  Dy7  1  0.806750  0.193015  0.807072  1
  Dy  Dy8  1  0.186928  0.187773  0.811315  1
  Dy  Dy9  1  0.806750  0.807072  0.193015  1
  Dy  Dy10  1  0.932562  0.564764  0.564764  1
  Dy  Dy11  1  0.561344  0.938893  0.938893  1
  Dy  Dy12  1  0.562464  0.938905  0.564352  1
  Dy  Dy13  1  0.936549  0.562002  0.941178  1
  Dy  Dy14  1  0.562464  0.564352  0.938905  1
  Dy  Dy15  1  0.936549  0.941178  0.562002  1
  Mg  Mg16  1  0.284272  0.569246  0.569246  1
  Al  Al17  1  0.583921  0.579496  0.579496  1
  Ag  Ag18  1  0.582281  0.584186  0.251625  1
  Ag  Ag19  1  0.582281  0.251625  0.584186  1
  Ir  Ir20  1  0.139334  0.143799  0.143799  1
  Ir  Ir21  1  0.140297  0.141994  0.575891  1
  Ir  Ir22  1  0.140297  0.575891  0.141994  1
  Ir  Ir23  1  0.575032  0.142406  0.142406  1
