# generated using pymatgen
data_Ho3Er5Re2(B12Ru)2
_symmetry_space_group_name_H-M   'P 1'
_cell_length_a   3.65055200
_cell_length_b   9.11659023
_cell_length_c   11.49933500
_cell_angle_alpha   90.20866416
_cell_angle_beta   90.00000000
_cell_angle_gamma   90.00000000
_symmetry_Int_Tables_number   1
_chemical_formula_structural   Ho3Er5Re2(B12Ru)2
_chemical_formula_sum   'Ho3 Er5 Re2 B24 Ru2'
_cell_volume   382.70207736
_cell_formula_units_Z   1
loop_
 _symmetry_equiv_pos_site_id
 _symmetry_equiv_pos_as_xyz
  1  'x, y, z'
loop_
 _atom_site_type_symbol
 _atom_site_label
 _atom_site_symmetry_multiplicity
 _atom_site_fract_x
 _atom_site_fract_y
 _atom_site_fract_z
 _atom_site_occupancy
  Ho  Ho0  1  0.000000  0.320871  0.412539  1
  Ho  Ho1  1  0.000000  0.679124  0.587455  1
  Ho  Ho2  1  0.000000  0.824579  0.084521  1
  Er  Er3  1  0.000000  0.175388  0.915567  1
  Er  Er4  1  0.000000  0.943038  0.370594  1
  Er  Er5  1  0.000000  0.057010  0.629424  1
  Er  Er6  1  0.000000  0.443058  0.129180  1
  Er  Er7  1  0.000000  0.556846  0.870774  1
  Re  Re8  1  0.000000  0.138595  0.179609  1
  Re  Re9  1  0.000000  0.861569  0.820329  1
  B  B10  1  0.500000  0.553984  0.433177  1
  B  B11  1  0.500000  0.446005  0.566821  1
  B  B12  1  0.500000  0.053253  0.066583  1
  B  B13  1  0.500000  0.946928  0.933331  1
  B  B14  1  0.500000  0.749050  0.419067  1
  B  B15  1  0.500000  0.250953  0.580942  1
  B  B16  1  0.500000  0.249433  0.080694  1
  B  B17  1  0.500000  0.750561  0.919152  1
  B  B18  1  0.500000  0.791060  0.265724  1
  B  B19  1  0.500000  0.208885  0.734394  1
  B  B20  1  0.500000  0.292289  0.234890  1
  B  B21  1  0.500000  0.707705  0.765075  1
  B  B22  1  0.500000  0.630949  0.185743  1
  B  B23  1  0.500000  0.368935  0.814344  1
  B  B24  1  0.500000  0.131251  0.315129  1
  B  B25  1  0.500000  0.868755  0.684867  1
  B  B26  1  0.500000  0.982329  0.212460  1
  B  B27  1  0.500000  0.017849  0.787597  1
  B  B28  1  0.500000  0.483121  0.288053  1
  B  B29  1  0.500000  0.516866  0.711945  1
  B  B30  1  0.500000  0.602728  0.028583  1
  B  B31  1  0.500000  0.397091  0.971370  1
  B  B32  1  0.500000  0.103203  0.471605  1
  B  B33  1  0.500000  0.896800  0.528405  1
  Ru  Ru34  1  0.000000  0.638022  0.321462  1
  Ru  Ru35  1  0.000000  0.361915  0.678597  1
