# generated using pymatgen
data_YbY(CoIr)2
_symmetry_space_group_name_H-M   'P 1'
_cell_length_a   5.05185632
_cell_length_b   5.17193359
_cell_length_c   5.17193510
_cell_angle_alpha   62.47474919
_cell_angle_beta   60.76510228
_cell_angle_gamma   60.76510499
_symmetry_Int_Tables_number   1
_chemical_formula_structural   YbY(CoIr)2
_chemical_formula_sum   'Yb1 Y1 Co2 Ir2'
_cell_volume   98.36242647
_cell_formula_units_Z   1
loop_
 _symmetry_equiv_pos_site_id
 _symmetry_equiv_pos_as_xyz
  1  'x, y, z'
loop_
 _atom_site_type_symbol
 _atom_site_label
 _atom_site_symmetry_multiplicity
 _atom_site_fract_x
 _atom_site_fract_y
 _atom_site_fract_z
 _atom_site_occupancy
  Yb  Yb0  1  0.498562  0.501438  0.501438  1
  Y  Y1  1  0.250539  0.249461  0.249461  1
  Co  Co2  1  0.374394  0.874646  0.874646  1
  Co  Co3  1  0.876314  0.874646  0.874646  1
  Ir  Ir4  1  0.875095  0.873994  0.375815  1
  Ir  Ir5  1  0.875095  0.375815  0.873994  1
