# generated using pymatgen
data_Ho10Tl5In3(CuNi)2
_symmetry_space_group_name_H-M   'P 1'
_cell_length_a   8.07456807
_cell_length_b   18.10270159
_cell_length_c   3.59259800
_cell_angle_alpha   90.00000000
_cell_angle_beta   90.00000000
_cell_angle_gamma   89.98209254
_symmetry_Int_Tables_number   1
_chemical_formula_structural   Ho10Tl5In3(CuNi)2
_chemical_formula_sum   'Ho10 Tl5 In3 Cu2 Ni2'
_cell_volume   525.13539960
_cell_formula_units_Z   1
loop_
 _symmetry_equiv_pos_site_id
 _symmetry_equiv_pos_as_xyz
  1  'x, y, z'
loop_
 _atom_site_type_symbol
 _atom_site_label
 _atom_site_symmetry_multiplicity
 _atom_site_fract_x
 _atom_site_fract_y
 _atom_site_fract_z
 _atom_site_occupancy
  Ho  Ho0  1  0.499159  0.499035  0.000000  1
  Ho  Ho1  1  0.000454  0.000260  0.000000  1
  Ho  Ho2  1  0.759829  0.282406  0.000000  1
  Ho  Ho3  1  0.239104  0.717359  0.000000  1
  Ho  Ho4  1  0.763487  0.779447  0.000000  1
  Ho  Ho5  1  0.236718  0.220880  0.000000  1
  Ho  Ho6  1  0.621086  0.085787  0.000000  1
  Ho  Ho7  1  0.379551  0.914739  0.000000  1
  Ho  Ho8  1  0.882126  0.588920  0.000000  1
  Ho  Ho9  1  0.118111  0.410841  0.000000  1
  Tl  Tl10  1  0.705927  0.931789  0.500000  1
  Tl  Tl11  1  0.295053  0.068804  0.500000  1
  Tl  Tl12  1  0.795899  0.433835  0.500000  1
  Tl  Tl13  1  0.200940  0.564730  0.500000  1
  Tl  Tl14  1  0.574033  0.651277  0.500000  1
  In  In15  1  0.424759  0.347822  0.500000  1
  In  In16  1  0.922702  0.151417  0.500000  1
  In  In17  1  0.077728  0.849086  0.500000  1
  Cu  Cu18  1  0.536849  0.200616  0.500000  1
  Cu  Cu19  1  0.463006  0.800798  0.500000  1
  Ni  Ni20  1  0.967490  0.698841  0.500000  1
  Ni  Ni21  1  0.035989  0.301313  0.500000  1
