# generated using pymatgen
data_Dy7Er3(AlSb2)2
_symmetry_space_group_name_H-M   'P 1'
_cell_length_a   8.87485516
_cell_length_b   8.87878065
_cell_length_c   6.38650201
_cell_angle_alpha   89.99509968
_cell_angle_beta   90.00245532
_cell_angle_gamma   120.01462875
_symmetry_Int_Tables_number   1
_chemical_formula_structural   Dy7Er3(AlSb2)2
_chemical_formula_sum   'Dy7 Er3 Al2 Sb4'
_cell_volume   435.75687317
_cell_formula_units_Z   1
loop_
 _symmetry_equiv_pos_site_id
 _symmetry_equiv_pos_as_xyz
  1  'x, y, z'
loop_
 _atom_site_type_symbol
 _atom_site_label
 _atom_site_symmetry_multiplicity
 _atom_site_fract_x
 _atom_site_fract_y
 _atom_site_fract_z
 _atom_site_occupancy
  Dy  Dy0  1  0.008626  0.765970  0.750068  1
  Dy  Dy1  1  0.008626  0.242656  0.249932  1
  Dy  Dy2  1  0.755374  0.756461  0.249965  1
  Dy  Dy3  1  0.755374  0.998913  0.750035  1
  Dy  Dy4  1  0.241814  0.232351  0.750077  1
  Dy  Dy5  1  0.241814  0.009463  0.249923  1
  Dy  Dy6  1  0.335837  0.667919  0.500000  1
  Er  Er7  1  0.655828  0.327913  0.000000  1
  Er  Er8  1  0.655724  0.327861  0.500000  1
  Er  Er9  1  0.335899  0.667950  0.000000  1
  Al  Al10  1  0.398289  0.997550  0.750278  1
  Al  Al11  1  0.398289  0.400739  0.249722  1
  Sb  Sb12  1  0.998293  0.606057  0.249724  1
  Sb  Sb13  1  0.998293  0.392236  0.750276  1
  Sb  Sb14  1  0.605960  0.604625  0.750337  1
  Sb  Sb15  1  0.605960  0.001335  0.249663  1
