# generated using pymatgen
data_Y6Er14Zn3Cd3Ru2
_symmetry_space_group_name_H-M   'P 1'
_cell_length_a   9.49177300
_cell_length_b   9.49177278
_cell_length_c   9.61930100
_cell_angle_alpha   90.00000000
_cell_angle_beta   90.00000000
_cell_angle_gamma   120.00000426
_symmetry_Int_Tables_number   1
_chemical_formula_structural   Y6Er14Zn3Cd3Ru2
_chemical_formula_sum   'Y6 Er14 Zn3 Cd3 Ru2'
_cell_volume   750.53129211
_cell_formula_units_Z   1
loop_
 _symmetry_equiv_pos_site_id
 _symmetry_equiv_pos_as_xyz
  1  'x, y, z'
loop_
 _atom_site_type_symbol
 _atom_site_label
 _atom_site_symmetry_multiplicity
 _atom_site_fract_x
 _atom_site_fract_y
 _atom_site_fract_z
 _atom_site_occupancy
  Y  Y0  1  0.541026  0.458974  0.250000  1
  Y  Y1  1  0.541026  0.082051  0.250000  1
  Y  Y2  1  0.917949  0.458974  0.250000  1
  Y  Y3  1  0.459332  0.540668  0.750000  1
  Y  Y4  1  0.459332  0.918664  0.750000  1
  Y  Y5  1  0.081336  0.540668  0.750000  1
  Er  Er6  1  0.000000  0.000000  0.474798  1
  Er  Er7  1  0.000000  0.000000  0.025202  1
  Er  Er8  1  0.208179  0.791821  0.438409  1
  Er  Er9  1  0.208179  0.416359  0.438409  1
  Er  Er10  1  0.583641  0.791821  0.438409  1
  Er  Er11  1  0.790921  0.209079  0.557474  1
  Er  Er12  1  0.790921  0.581841  0.557474  1
  Er  Er13  1  0.418159  0.209079  0.557474  1
  Er  Er14  1  0.790921  0.209079  0.942526  1
  Er  Er15  1  0.790921  0.581841  0.942526  1
  Er  Er16  1  0.418159  0.209079  0.942526  1
  Er  Er17  1  0.208179  0.791821  0.061591  1
  Er  Er18  1  0.208179  0.416359  0.061591  1
  Er  Er19  1  0.583641  0.791821  0.061591  1
  Zn  Zn20  1  0.878741  0.121259  0.250000  1
  Zn  Zn21  1  0.878741  0.757484  0.250000  1
  Zn  Zn22  1  0.242516  0.121259  0.250000  1
  Cd  Cd23  1  0.110263  0.889737  0.750000  1
  Cd  Cd24  1  0.110263  0.220524  0.750000  1
  Cd  Cd25  1  0.779476  0.889737  0.750000  1
  Ru  Ru26  1  0.333333  0.666667  0.250000  1
  Ru  Ru27  1  0.666667  0.333333  0.750000  1
