# generated using pymatgen
data_Tb3PaNiB14
_symmetry_space_group_name_H-M   'P 1'
_cell_length_a   7.25165520
_cell_length_b   7.25409009
_cell_length_c   7.55022600
_cell_angle_alpha   90.00000000
_cell_angle_beta   90.00000000
_cell_angle_gamma   89.99554078
_symmetry_Int_Tables_number   1
_chemical_formula_structural   Tb3PaNiB14
_chemical_formula_sum   'Tb6 Pa2 Ni2 B28'
_cell_volume   397.17329625
_cell_formula_units_Z   2
loop_
 _symmetry_equiv_pos_site_id
 _symmetry_equiv_pos_as_xyz
  1  'x, y, z'
loop_
 _atom_site_type_symbol
 _atom_site_label
 _atom_site_symmetry_multiplicity
 _atom_site_fract_x
 _atom_site_fract_y
 _atom_site_fract_z
 _atom_site_occupancy
  Tb  Tb0  1  0.333858  0.807591  0.000000  1
  Tb  Tb1  1  0.693929  0.168115  0.500000  1
  Tb  Tb2  1  0.306571  0.833266  0.500000  1
  Tb  Tb3  1  0.808114  0.665820  0.000000  1
  Tb  Tb4  1  0.832923  0.693752  0.500000  1
  Tb  Tb5  1  0.167157  0.306583  0.500000  1
  Pa  Pa6  1  0.193962  0.328866  0.000000  1
  Pa  Pa7  1  0.670822  0.193566  0.000000  1
  Ni  Ni8  1  0.998891  0.998341  0.000000  1
  Ni  Ni9  1  0.499552  0.501385  0.500000  1
  B  B10  1  0.173305  0.039586  0.231907  1
  B  B11  1  0.960613  0.172558  0.232773  1
  B  B12  1  0.040124  0.824797  0.231479  1
  B  B13  1  0.674321  0.461236  0.267867  1
  B  B14  1  0.325764  0.540679  0.268406  1
  B  B15  1  0.825115  0.960519  0.232345  1
  B  B16  1  0.539883  0.674816  0.270293  1
  B  B17  1  0.460266  0.326761  0.266754  1
  B  B18  1  0.825115  0.960519  0.767655  1
  B  B19  1  0.040124  0.824797  0.768521  1
  B  B20  1  0.960613  0.172558  0.767227  1
  B  B21  1  0.325764  0.540679  0.731594  1
  B  B22  1  0.674321  0.461236  0.732133  1
  B  B23  1  0.173305  0.039586  0.768093  1
  B  B24  1  0.460266  0.326761  0.733246  1
  B  B25  1  0.539883  0.674816  0.729707  1
  B  B26  1  0.089193  0.588889  0.245879  1
  B  B27  1  0.410001  0.090918  0.242931  1
  B  B28  1  0.588658  0.911981  0.247300  1
  B  B29  1  0.909954  0.409688  0.244050  1
  B  B30  1  0.909954  0.409688  0.755950  1
  B  B31  1  0.588658  0.911981  0.752700  1
  B  B32  1  0.410001  0.090918  0.757069  1
  B  B33  1  0.089193  0.588889  0.754121  1
  B  B34  1  0.000224  0.997574  0.390345  1
  B  B35  1  0.499689  0.501357  0.110626  1
  B  B36  1  0.000224  0.997574  0.609655  1
  B  B37  1  0.499689  0.501357  0.889374  1
