# generated using pymatgen
data_NdSm2As4Pd7
_symmetry_space_group_name_H-M   'P 1'
_cell_length_a   8.24357191
_cell_length_b   8.24357306
_cell_length_c   9.74854330
_cell_angle_alpha   55.37875026
_cell_angle_beta   55.37874446
_cell_angle_gamma   29.40576130
_symmetry_Int_Tables_number   1
_chemical_formula_structural   NdSm2As4Pd7
_chemical_formula_sum   'Nd1 Sm2 As4 Pd7'
_cell_volume   263.24428862
_cell_formula_units_Z   1
loop_
 _symmetry_equiv_pos_site_id
 _symmetry_equiv_pos_as_xyz
  1  'x, y, z'
loop_
 _atom_site_type_symbol
 _atom_site_label
 _atom_site_symmetry_multiplicity
 _atom_site_fract_x
 _atom_site_fract_y
 _atom_site_fract_z
 _atom_site_occupancy
  Nd  Nd0  1  0.000000  0.000000  0.000000  1
  Sm  Sm1  1  0.677407  0.677407  0.328174  1
  Sm  Sm2  1  0.322593  0.322593  0.671826  1
  As  As3  1  0.339421  0.339421  0.256324  1
  As  As4  1  0.660579  0.660579  0.743676  1
  As  As5  1  0.893460  0.893460  0.821985  1
  As  As6  1  0.106540  0.106540  0.178015  1
  Pd  Pd7  1  0.305579  0.305579  0.027007  1
  Pd  Pd8  1  0.694421  0.694421  0.972993  1
  Pd  Pd9  1  0.511445  0.511445  0.708594  1
  Pd  Pd10  1  0.832627  0.832627  0.425914  1
  Pd  Pd11  1  0.488555  0.488555  0.291406  1
  Pd  Pd12  1  0.167373  0.167373  0.574086  1
  Pd  Pd13  1  0.000000  0.000000  0.500000  1
