# generated using pymatgen
data_TcRu(IF12)2
_symmetry_space_group_name_H-M   'P 1'
_cell_length_a   5.30329672
_cell_length_b   9.26730200
_cell_length_c   9.87216003
_cell_angle_alpha   90.00000000
_cell_angle_beta   88.68876138
_cell_angle_gamma   90.00000000
_symmetry_Int_Tables_number   1
_chemical_formula_structural   TcRu(IF12)2
_chemical_formula_sum   'Tc1 Ru1 I2 F24'
_cell_volume   485.06248837
_cell_formula_units_Z   1
loop_
 _symmetry_equiv_pos_site_id
 _symmetry_equiv_pos_as_xyz
  1  'x, y, z'
loop_
 _atom_site_type_symbol
 _atom_site_label
 _atom_site_symmetry_multiplicity
 _atom_site_fract_x
 _atom_site_fract_y
 _atom_site_fract_z
 _atom_site_occupancy
  Tc  Tc0  1  0.914706  0.750000  0.629771  1
  Ru  Ru1  1  0.583407  0.750000  0.130408  1
  I  I2  1  0.085542  0.250000  0.368968  1
  I  I3  1  0.417459  0.250000  0.870826  1
  F  F4  1  0.203400  0.750000  0.520214  1
  F  F5  1  0.793046  0.250000  0.486439  1
  F  F6  1  0.703929  0.250000  0.985343  1
  F  F7  1  0.301976  0.750000  0.019893  1
  F  F8  1  0.625828  0.750000  0.739297  1
  F  F9  1  0.380639  0.250000  0.253689  1
  F  F10  1  0.129409  0.250000  0.756808  1
  F  F11  1  0.865396  0.750000  0.240911  1
  F  F12  1  0.774981  0.607778  0.523276  1
  F  F13  1  0.233870  0.396373  0.478941  1
  F  F14  1  0.260240  0.395781  0.980232  1
  F  F15  1  0.233870  0.103627  0.478941  1
  F  F16  1  0.732991  0.606882  0.021159  1
  F  F17  1  0.774981  0.892222  0.523276  1
  F  F18  1  0.732991  0.893118  0.021159  1
  F  F19  1  0.260240  0.104219  0.980232  1
  F  F20  1  0.053921  0.607795  0.736384  1
  F  F21  1  0.936093  0.395636  0.260119  1
  F  F22  1  0.570718  0.396590  0.758943  1
  F  F23  1  0.936093  0.104364  0.260119  1
  F  F24  1  0.434819  0.606834  0.239662  1
  F  F25  1  0.053921  0.892205  0.736384  1
  F  F26  1  0.434819  0.893166  0.239662  1
  F  F27  1  0.570718  0.103410  0.758943  1
