# generated using pymatgen
data_La8PrNd3(PtI3)4
_symmetry_space_group_name_H-M   'P 1'
_cell_length_a   11.03952565
_cell_length_b   11.01707401
_cell_length_c   11.00383345
_cell_angle_alpha   109.45690473
_cell_angle_beta   109.60343745
_cell_angle_gamma   109.36269647
_symmetry_Int_Tables_number   1
_chemical_formula_structural   La8PrNd3(PtI3)4
_chemical_formula_sum   'La8 Pr1 Nd3 Pt4 I12'
_cell_volume   1030.11822240
_cell_formula_units_Z   1
loop_
 _symmetry_equiv_pos_site_id
 _symmetry_equiv_pos_as_xyz
  1  'x, y, z'
loop_
 _atom_site_type_symbol
 _atom_site_label
 _atom_site_symmetry_multiplicity
 _atom_site_fract_x
 _atom_site_fract_y
 _atom_site_fract_z
 _atom_site_occupancy
  La  La0  1  0.479954  0.752260  0.022993  1
  La  La1  1  0.755035  0.231610  0.272719  1
  La  La2  1  0.019691  0.481368  0.752233  1
  La  La3  1  0.227543  0.267804  0.745861  1
  La  La4  1  0.483391  0.228634  0.462127  1
  La  La5  1  0.457711  0.479915  0.229373  1
  La  La6  1  0.268313  0.019829  0.038966  1
  La  La7  1  0.020960  0.039883  0.269145  1
  Pr  Pr8  1  0.231163  0.460508  0.477857  1
  Nd  Nd9  1  0.039725  0.271207  0.019076  1
  Nd  Nd10  1  0.748030  0.018802  0.479706  1
  Nd  Nd11  1  0.269218  0.748838  0.230389  1
  Pt  Pt12  1  0.499155  0.999929  0.250997  1
  Pt  Pt13  1  0.248248  0.499285  0.999463  1
  Pt  Pt14  1  0.249832  0.249150  0.249414  1
  Pt  Pt15  1  0.999576  0.249748  0.500932  1
  I  I16  1  0.759401  0.743007  0.253073  1
  I  I17  1  0.993912  0.509452  0.248747  1
  I  I18  1  0.249792  0.757514  0.739678  1
  I  I19  1  0.759339  0.518495  0.509398  1
  I  I20  1  0.508761  0.249880  0.991055  1
  I  I21  1  0.743171  0.993225  0.981814  1
  I  I22  1  0.987840  0.984032  0.740649  1
  I  I23  1  0.516660  0.509507  0.757888  1
  I  I24  1  0.250351  0.988454  0.506991  1
  I  I25  1  0.742980  0.247048  0.759737  1
  I  I26  1  0.507321  0.760115  0.516427  1
  I  I27  1  0.982929  0.740503  0.993295  1
