# generated using pymatgen
data_Tb3In2Pt3Pb
_symmetry_space_group_name_H-M   'P 1'
_cell_length_a   7.68814137
_cell_length_b   7.68814125
_cell_length_c   3.94475600
_cell_angle_alpha   90.00000000
_cell_angle_beta   90.00000000
_cell_angle_gamma   119.58933542
_symmetry_Int_Tables_number   1
_chemical_formula_structural   Tb3In2Pt3Pb
_chemical_formula_sum   'Tb3 In2 Pt3 Pb1'
_cell_volume   202.75698520
_cell_formula_units_Z   1
loop_
 _symmetry_equiv_pos_site_id
 _symmetry_equiv_pos_as_xyz
  1  'x, y, z'
loop_
 _atom_site_type_symbol
 _atom_site_label
 _atom_site_symmetry_multiplicity
 _atom_site_fract_x
 _atom_site_fract_y
 _atom_site_fract_z
 _atom_site_occupancy
  Tb  Tb0  1  0.404994  0.996501  0.000000  1
  Tb  Tb1  1  0.996501  0.404994  0.000000  1
  Tb  Tb2  1  0.599072  0.599072  0.000000  1
  In  In3  1  0.999381  0.738805  0.500000  1
  In  In4  1  0.738805  0.999381  0.500000  1
  Pt  Pt5  1  0.989643  0.989643  0.000000  1
  Pt  Pt6  1  0.675250  0.335526  0.500000  1
  Pt  Pt7  1  0.335526  0.675250  0.500000  1
  Pb  Pb8  1  0.260829  0.260829  0.500000  1
