# generated using pymatgen
data_LaDy15Cd4Ni3Os
_symmetry_space_group_name_H-M   'P 1'
_cell_length_a   9.60279240
_cell_length_b   9.60279260
_cell_length_c   9.61154190
_cell_angle_alpha   59.66753918
_cell_angle_beta   59.66753504
_cell_angle_gamma   59.62881745
_symmetry_Int_Tables_number   1
_chemical_formula_structural   LaDy15Cd4Ni3Os
_chemical_formula_sum   'La1 Dy15 Cd4 Ni3 Os1'
_cell_volume   621.80122789
_cell_formula_units_Z   1
loop_
 _symmetry_equiv_pos_site_id
 _symmetry_equiv_pos_as_xyz
  1  'x, y, z'
loop_
 _atom_site_type_symbol
 _atom_site_label
 _atom_site_symmetry_multiplicity
 _atom_site_fract_x
 _atom_site_fract_y
 _atom_site_fract_z
 _atom_site_occupancy
  La  La0  1  0.595407  0.595407  0.595852  1
  Dy  Dy1  1  0.601882  0.601882  0.198272  1
  Dy  Dy2  1  0.601754  0.198480  0.601955  1
  Dy  Dy3  1  0.198480  0.601754  0.601955  1
  Dy  Dy4  1  0.063121  0.437172  0.437262  1
  Dy  Dy5  1  0.438420  0.062293  0.062618  1
  Dy  Dy6  1  0.437172  0.063121  0.437262  1
  Dy  Dy7  1  0.062293  0.438420  0.062618  1
  Dy  Dy8  1  0.437111  0.437111  0.063344  1
  Dy  Dy9  1  0.062431  0.062431  0.438516  1
  Dy  Dy10  1  0.185325  0.817419  0.817527  1
  Dy  Dy11  1  0.807624  0.189842  0.189967  1
  Dy  Dy12  1  0.817419  0.185325  0.817527  1
  Dy  Dy13  1  0.189842  0.807624  0.189967  1
  Dy  Dy14  1  0.817351  0.817351  0.185512  1
  Dy  Dy15  1  0.189841  0.189841  0.807767  1
  Cd  Cd16  1  0.830485  0.830485  0.830487  1
  Cd  Cd17  1  0.831228  0.831228  0.505182  1
  Cd  Cd18  1  0.831225  0.505140  0.831268  1
  Cd  Cd19  1  0.505140  0.831225  0.831268  1
  Ni  Ni20  1  0.388358  0.388358  0.825614  1
  Ni  Ni21  1  0.388781  0.825677  0.387316  1
  Ni  Ni22  1  0.825677  0.388781  0.387316  1
  Os  Os23  1  0.393630  0.393630  0.393626  1
