# generated using pymatgen
data_Yb11Lu(GaAu5)4
_symmetry_space_group_name_H-M   'P 1'
_cell_length_a   8.49718450
_cell_length_b   8.49718569
_cell_length_c   13.52756200
_cell_angle_alpha   90.03409217
_cell_angle_beta   89.96590783
_cell_angle_gamma   128.47830493
_symmetry_Int_Tables_number   1
_chemical_formula_structural   Yb11Lu(GaAu5)4
_chemical_formula_sum   'Yb11 Lu1 Ga4 Au20'
_cell_volume   764.61835856
_cell_formula_units_Z   1
loop_
 _symmetry_equiv_pos_site_id
 _symmetry_equiv_pos_as_xyz
  1  'x, y, z'
loop_
 _atom_site_type_symbol
 _atom_site_label
 _atom_site_symmetry_multiplicity
 _atom_site_fract_x
 _atom_site_fract_y
 _atom_site_fract_z
 _atom_site_occupancy
  Yb  Yb0  1  0.926715  0.073285  0.250342  1
  Yb  Yb1  1  0.073458  0.926542  0.749638  1
  Yb  Yb2  1  0.322074  0.677926  0.250233  1
  Yb  Yb3  1  0.678029  0.321971  0.750077  1
  Yb  Yb4  1  0.368540  0.631460  0.538491  1
  Yb  Yb5  1  0.630673  0.369327  0.038598  1
  Yb  Yb6  1  0.369247  0.630753  0.961534  1
  Yb  Yb7  1  0.881739  0.118261  0.948957  1
  Yb  Yb8  1  0.118360  0.881640  0.050923  1
  Yb  Yb9  1  0.881712  0.118288  0.551058  1
  Yb  Yb10  1  0.118098  0.881902  0.448833  1
  Lu  Lu11  1  0.631393  0.368607  0.463195  1
  Ga  Ga12  1  0.720103  0.279897  0.250059  1
  Ga  Ga13  1  0.278156  0.721844  0.748414  1
  Ga  Ga14  1  0.532928  0.467072  0.250024  1
  Ga  Ga15  1  0.466997  0.533003  0.750498  1
  Au  Au16  1  0.314974  0.061571  0.249903  1
  Au  Au17  1  0.062656  0.315271  0.749544  1
  Au  Au18  1  0.684729  0.937344  0.749544  1
  Au  Au19  1  0.938429  0.685026  0.249903  1
  Au  Au20  1  0.571968  0.002637  0.399140  1
  Au  Au21  1  0.997934  0.567479  0.600121  1
  Au  Au22  1  0.569134  0.001537  0.101734  1
  Au  Au23  1  0.001617  0.569247  0.898359  1
  Au  Au24  1  0.432521  0.002066  0.600121  1
  Au  Au25  1  0.997363  0.428032  0.399140  1
  Au  Au26  1  0.430753  0.998383  0.898359  1
  Au  Au27  1  0.998463  0.430866  0.101734  1
  Au  Au28  1  0.685733  0.742380  0.396702  1
  Au  Au29  1  0.740403  0.682992  0.603816  1
  Au  Au30  1  0.687468  0.744403  0.104195  1
  Au  Au31  1  0.744434  0.687026  0.896048  1
  Au  Au32  1  0.317008  0.259597  0.603816  1
  Au  Au33  1  0.257620  0.314267  0.396702  1
  Au  Au34  1  0.312974  0.255566  0.896048  1
  Au  Au35  1  0.255597  0.312532  0.104195  1
