# generated using pymatgen
data_Tb3In3IrRh2
_symmetry_space_group_name_H-M   'P 1'
_cell_length_a   7.59157500
_cell_length_b   7.59157592
_cell_length_c   3.92167400
_cell_angle_alpha   90.00000000
_cell_angle_beta   90.00000000
_cell_angle_gamma   120.00000907
_symmetry_Int_Tables_number   1
_chemical_formula_structural   Tb3In3IrRh2
_chemical_formula_sum   'Tb3 In3 Ir1 Rh2'
_cell_volume   195.73383594
_cell_formula_units_Z   1
loop_
 _symmetry_equiv_pos_site_id
 _symmetry_equiv_pos_as_xyz
  1  'x, y, z'
loop_
 _atom_site_type_symbol
 _atom_site_label
 _atom_site_symmetry_multiplicity
 _atom_site_fract_x
 _atom_site_fract_y
 _atom_site_fract_z
 _atom_site_occupancy
  Tb  Tb0  1  0.003208  0.591803  0.500000  1
  Tb  Tb1  1  0.408197  0.411406  0.500000  1
  Tb  Tb2  1  0.588594  0.996792  0.500000  1
  In  In3  1  0.743470  0.742907  0.000000  1
  In  In4  1  0.999437  0.256530  0.000000  1
  In  In5  1  0.257093  0.000563  0.000000  1
  Ir  Ir6  1  0.333333  0.666667  0.000000  1
  Rh  Rh7  1  0.000000  0.000000  0.500000  1
  Rh  Rh8  1  0.666667  0.333333  0.000000  1
