# generated using pymatgen
data_Rb3SnTe3
_symmetry_space_group_name_H-M   'P 1'
_cell_length_a   11.31306787
_cell_length_b   11.31306746
_cell_length_c   10.28161099
_cell_angle_alpha   85.17034192
_cell_angle_beta   85.17033951
_cell_angle_gamma   80.02713863
_symmetry_Int_Tables_number   1
_chemical_formula_structural   Rb3SnTe3
_chemical_formula_sum   'Rb12 Sn4 Te12'
_cell_volume   1288.15922794
_cell_formula_units_Z   4
loop_
 _symmetry_equiv_pos_site_id
 _symmetry_equiv_pos_as_xyz
  1  'x, y, z'
loop_
 _atom_site_type_symbol
 _atom_site_label
 _atom_site_symmetry_multiplicity
 _atom_site_fract_x
 _atom_site_fract_y
 _atom_site_fract_z
 _atom_site_occupancy
  Rb  Rb0  1  0.225012  0.248093  0.774995  1
  Rb  Rb1  1  0.751907  0.774988  0.725005  1
  Rb  Rb2  1  0.774988  0.751907  0.225005  1
  Rb  Rb3  1  0.248093  0.225012  0.274995  1
  Rb  Rb4  1  0.811103  0.367296  0.865068  1
  Rb  Rb5  1  0.632704  0.188897  0.634932  1
  Rb  Rb6  1  0.188898  0.632704  0.134932  1
  Rb  Rb7  1  0.367296  0.811103  0.365068  1
  Rb  Rb8  1  0.404263  0.595737  0.750000  1
  Rb  Rb9  1  0.595737  0.404263  0.250000  1
  Rb  Rb10  1  0.093287  0.906713  0.750000  1
  Rb  Rb11  1  0.906713  0.093287  0.250000  1
  Sn  Sn12  1  0.572856  0.080155  0.043390  1
  Sn  Sn13  1  0.919845  0.427144  0.456610  1
  Sn  Sn14  1  0.427144  0.919845  0.956610  1
  Sn  Sn15  1  0.080155  0.572856  0.543390  1
  Te  Te16  1  0.569907  0.055272  0.316484  1
  Te  Te17  1  0.944728  0.430093  0.183516  1
  Te  Te18  1  0.430093  0.944728  0.683516  1
  Te  Te19  1  0.055272  0.569907  0.816484  1
  Te  Te20  1  0.476185  0.315861  0.959666  1
  Te  Te21  1  0.684139  0.523815  0.540334  1
  Te  Te22  1  0.523815  0.684139  0.040334  1
  Te  Te23  1  0.315861  0.476185  0.459666  1
  Te  Te24  1  0.806559  0.022272  0.935037  1
  Te  Te25  1  0.977728  0.193441  0.564963  1
  Te  Te26  1  0.193441  0.977728  0.064963  1
  Te  Te27  1  0.022272  0.806559  0.435037  1
