# generated using pymatgen
data_LaEu2Co(P3Rh4)2
_symmetry_space_group_name_H-M   'P 1'
_cell_length_a   3.94073100
_cell_length_b   11.32186400
_cell_length_c   12.98649800
_cell_angle_alpha   90.00000000
_cell_angle_beta   90.00000000
_cell_angle_gamma   90.00000000
_symmetry_Int_Tables_number   1
_chemical_formula_structural   LaEu2Co(P3Rh4)2
_chemical_formula_sum   'La2 Eu4 Co2 P12 Rh16'
_cell_volume   579.41105484
_cell_formula_units_Z   2
loop_
 _symmetry_equiv_pos_site_id
 _symmetry_equiv_pos_as_xyz
  1  'x, y, z'
loop_
 _atom_site_type_symbol
 _atom_site_label
 _atom_site_symmetry_multiplicity
 _atom_site_fract_x
 _atom_site_fract_y
 _atom_site_fract_z
 _atom_site_occupancy
  La  La0  1  0.000000  0.500000  0.523121  1
  La  La1  1  0.500000  0.000000  0.476879  1
  Eu  Eu2  1  0.500000  0.819821  0.202389  1
  Eu  Eu3  1  0.500000  0.180179  0.202389  1
  Eu  Eu4  1  0.000000  0.680179  0.797611  1
  Eu  Eu5  1  0.000000  0.319821  0.797611  1
  Co  Co6  1  0.000000  0.500000  0.990717  1
  Co  Co7  1  0.500000  0.000000  0.009283  1
  P  P8  1  0.500000  0.500000  0.889160  1
  P  P9  1  0.000000  0.000000  0.110840  1
  P  P10  1  0.500000  0.500000  0.343016  1
  P  P11  1  0.000000  0.000000  0.656984  1
  P  P12  1  0.500000  0.309013  0.619631  1
  P  P13  1  0.500000  0.690987  0.619631  1
  P  P14  1  0.000000  0.190987  0.380369  1
  P  P15  1  0.000000  0.809013  0.380369  1
  P  P16  1  0.500000  0.850918  0.895901  1
  P  P17  1  0.500000  0.149082  0.895901  1
  P  P18  1  0.000000  0.649082  0.104099  1
  P  P19  1  0.000000  0.350918  0.104099  1
  Rh  Rh20  1  0.500000  0.500000  0.163689  1
  Rh  Rh21  1  0.000000  0.000000  0.836311  1
  Rh  Rh22  1  0.500000  0.500000  0.703989  1
  Rh  Rh23  1  0.000000  0.000000  0.296011  1
  Rh  Rh24  1  0.500000  0.335548  0.995976  1
  Rh  Rh25  1  0.500000  0.664452  0.995976  1
  Rh  Rh26  1  0.000000  0.164452  0.004024  1
  Rh  Rh27  1  0.000000  0.835548  0.004024  1
  Rh  Rh28  1  0.500000  0.293549  0.429974  1
  Rh  Rh29  1  0.500000  0.706451  0.429974  1
  Rh  Rh30  1  0.000000  0.206451  0.570026  1
  Rh  Rh31  1  0.000000  0.793549  0.570026  1
  Rh  Rh32  1  0.500000  0.876363  0.712466  1
  Rh  Rh33  1  0.500000  0.123637  0.712466  1
  Rh  Rh34  1  0.000000  0.623637  0.287534  1
  Rh  Rh35  1  0.000000  0.376363  0.287534  1
