# generated using pymatgen
data_TbY2In3PdPt2
_symmetry_space_group_name_H-M   'P 1'
_cell_length_a   7.80091500
_cell_length_b   7.79580923
_cell_length_c   3.78298200
_cell_angle_alpha   90.00000000
_cell_angle_beta   90.00000000
_cell_angle_gamma   120.02167176
_symmetry_Int_Tables_number   1
_chemical_formula_structural   TbY2In3PdPt2
_chemical_formula_sum   'Tb1 Y2 In3 Pd1 Pt2'
_cell_volume   199.19423881
_cell_formula_units_Z   1
loop_
 _symmetry_equiv_pos_site_id
 _symmetry_equiv_pos_as_xyz
  1  'x, y, z'
loop_
 _atom_site_type_symbol
 _atom_site_label
 _atom_site_symmetry_multiplicity
 _atom_site_fract_x
 _atom_site_fract_y
 _atom_site_fract_z
 _atom_site_occupancy
  Tb  Tb0  1  0.409872  0.000000  0.500000  1
  Y  Y1  1  0.999919  0.409424  0.500000  1
  Y  Y2  1  0.590494  0.590576  0.500000  1
  In  In3  1  0.739046  0.000000  0.000000  1
  In  In4  1  0.261084  0.261442  0.000000  1
  In  In5  1  0.999642  0.738558  0.000000  1
  Pd  Pd6  1  0.000217  0.000000  0.500000  1
  Pt  Pt7  1  0.666258  0.332789  0.000000  1
  Pt  Pt8  1  0.333468  0.667211  0.000000  1
