# generated using pymatgen
data_ReIr3Ru3W
_symmetry_space_group_name_H-M   'P 1'
_cell_length_a   5.52530227
_cell_length_b   5.51618593
_cell_length_c   4.39579300
_cell_angle_alpha   90.00000000
_cell_angle_beta   90.00000000
_cell_angle_gamma   120.22749871
_symmetry_Int_Tables_number   1
_chemical_formula_structural   ReIr3Ru3W
_chemical_formula_sum   'Re1 Ir3 Ru3 W1'
_cell_volume   115.76109935
_cell_formula_units_Z   1
loop_
 _symmetry_equiv_pos_site_id
 _symmetry_equiv_pos_as_xyz
  1  'x, y, z'
loop_
 _atom_site_type_symbol
 _atom_site_label
 _atom_site_symmetry_multiplicity
 _atom_site_fract_x
 _atom_site_fract_y
 _atom_site_fract_z
 _atom_site_occupancy
  Re  Re0  1  0.665551  0.331169  0.250000  1
  Ir  Ir1  1  0.164710  0.330924  0.250000  1
  Ir  Ir2  1  0.669820  0.836375  0.250000  1
  Ir  Ir3  1  0.833246  0.663985  0.750000  1
  Ru  Ru4  1  0.166975  0.835793  0.250000  1
  Ru  Ru5  1  0.336466  0.165808  0.750000  1
  Ru  Ru6  1  0.830981  0.167655  0.750000  1
  W  W7  1  0.332249  0.668291  0.750000  1
