# generated using pymatgen
data_Pr8Y12Si15Tc
_symmetry_space_group_name_H-M   'P 1'
_cell_length_a   7.52924450
_cell_length_b   7.83757934
_cell_length_c   14.90301600
_cell_angle_alpha   90.00000000
_cell_angle_beta   90.00000000
_cell_angle_gamma   90.41102592
_symmetry_Int_Tables_number   1
_chemical_formula_structural   Pr8Y12Si15Tc
_chemical_formula_sum   'Pr8 Y12 Si15 Tc1'
_cell_volume   879.42001121
_cell_formula_units_Z   1
loop_
 _symmetry_equiv_pos_site_id
 _symmetry_equiv_pos_as_xyz
  1  'x, y, z'
loop_
 _atom_site_type_symbol
 _atom_site_label
 _atom_site_symmetry_multiplicity
 _atom_site_fract_x
 _atom_site_fract_y
 _atom_site_fract_z
 _atom_site_occupancy
  Pr  Pr0  1  0.024256  0.179112  0.401310  1
  Pr  Pr1  1  0.523413  0.322090  0.402657  1
  Pr  Pr2  1  0.472026  0.682441  0.901723  1
  Pr  Pr3  1  0.472026  0.682441  0.598277  1
  Pr  Pr4  1  0.981797  0.822182  0.599037  1
  Pr  Pr5  1  0.981797  0.822182  0.900963  1
  Pr  Pr6  1  0.523413  0.322090  0.097343  1
  Pr  Pr7  1  0.024256  0.179112  0.098690  1
  Y  Y8  1  0.317879  0.172760  0.624901  1
  Y  Y9  1  0.679291  0.819090  0.377976  1
  Y  Y10  1  0.641542  0.984050  0.750000  1
  Y  Y11  1  0.179128  0.679135  0.376790  1
  Y  Y12  1  0.820722  0.322811  0.876827  1
  Y  Y13  1  0.820722  0.322811  0.623173  1
  Y  Y14  1  0.848259  0.489368  0.250000  1
  Y  Y15  1  0.349523  0.013548  0.250000  1
  Y  Y16  1  0.317879  0.172760  0.875099  1
  Y  Y17  1  0.179128  0.679135  0.123210  1
  Y  Y18  1  0.679291  0.819090  0.122024  1
  Y  Y19  1  0.156168  0.518063  0.750000  1
  Si  Si20  1  0.472316  0.613428  0.250000  1
  Si  Si21  1  0.023736  0.110404  0.750000  1
  Si  Si22  1  0.530061  0.388992  0.750000  1
  Si  Si23  1  0.144245  0.467720  0.538388  1
  Si  Si24  1  0.972339  0.888109  0.250000  1
  Si  Si25  1  0.730475  0.118970  0.250000  1
  Si  Si26  1  0.857277  0.527474  0.040889  1
  Si  Si27  1  0.356829  0.971229  0.040638  1
  Si  Si28  1  0.144245  0.467720  0.961612  1
  Si  Si29  1  0.647651  0.034302  0.538020  1
  Si  Si30  1  0.356829  0.971229  0.459362  1
  Si  Si31  1  0.857277  0.527474  0.459111  1
  Si  Si32  1  0.766616  0.614738  0.750000  1
  Si  Si33  1  0.231322  0.380144  0.250000  1
  Si  Si34  1  0.647651  0.034302  0.961980  1
  Tc  Tc35  1  0.268618  0.879497  0.750000  1
