# generated using pymatgen
data_CsRb15(ZrSe4)4
_symmetry_space_group_name_H-M   'P 1'
_cell_length_a   8.86552898
_cell_length_b   10.67106059
_cell_length_c   15.73073136
_cell_angle_alpha   90.41093942
_cell_angle_beta   90.33915716
_cell_angle_gamma   89.72439840
_symmetry_Int_Tables_number   1
_chemical_formula_structural   CsRb15(ZrSe4)4
_chemical_formula_sum   'Cs1 Rb15 Zr4 Se16'
_cell_volume   1488.11823416
_cell_formula_units_Z   1
loop_
 _symmetry_equiv_pos_site_id
 _symmetry_equiv_pos_as_xyz
  1  'x, y, z'
loop_
 _atom_site_type_symbol
 _atom_site_label
 _atom_site_symmetry_multiplicity
 _atom_site_fract_x
 _atom_site_fract_y
 _atom_site_fract_z
 _atom_site_occupancy
  Cs  Cs0  1  0.000000  0.000000  0.000000  1
  Rb  Rb1  1  0.500000  0.000000  0.500000  1
  Rb  Rb2  1  0.000000  0.500000  0.000000  1
  Rb  Rb3  1  0.500000  0.500000  0.500000  1
  Rb  Rb4  1  0.985664  0.750131  0.427454  1
  Rb  Rb5  1  0.484899  0.250243  0.073588  1
  Rb  Rb6  1  0.014336  0.249869  0.572546  1
  Rb  Rb7  1  0.515101  0.749757  0.926412  1
  Rb  Rb8  1  0.840703  0.054752  0.277365  1
  Rb  Rb9  1  0.339018  0.944283  0.224326  1
  Rb  Rb10  1  0.159433  0.555411  0.722601  1
  Rb  Rb11  1  0.658878  0.446024  0.776446  1
  Rb  Rb12  1  0.159297  0.945248  0.722635  1
  Rb  Rb13  1  0.660982  0.055717  0.775674  1
  Rb  Rb14  1  0.840567  0.444589  0.277399  1
  Rb  Rb15  1  0.341122  0.553976  0.223554  1
  Zr  Zr16  1  0.757193  0.749382  0.666457  1
  Zr  Zr17  1  0.242807  0.250618  0.333543  1
  Zr  Zr18  1  0.739354  0.747910  0.168120  1
  Zr  Zr19  1  0.260646  0.252090  0.831880  1
  Se  Se20  1  0.972475  0.251481  0.821661  1
  Se  Se21  1  0.530606  0.250004  0.325068  1
  Se  Se22  1  0.469394  0.749996  0.674932  1
  Se  Se23  1  0.027525  0.748519  0.178339  1
  Se  Se24  1  0.654292  0.550644  0.090150  1
  Se  Se25  1  0.155161  0.448185  0.410053  1
  Se  Se26  1  0.355366  0.055837  0.906196  1
  Se  Se27  1  0.844278  0.946284  0.591003  1
  Se  Se28  1  0.345708  0.449356  0.909850  1
  Se  Se29  1  0.844839  0.551815  0.589947  1
  Se  Se30  1  0.644634  0.944163  0.093804  1
  Se  Se31  1  0.155722  0.053716  0.408997  1
  Se  Se32  1  0.630013  0.748544  0.318720  1
  Se  Se33  1  0.129764  0.250551  0.182806  1
  Se  Se34  1  0.369987  0.251456  0.681280  1
  Se  Se35  1  0.870236  0.749449  0.817194  1
