# generated using pymatgen
data_YbPa(TcB4)2
_symmetry_space_group_name_H-M   'P 1'
_cell_length_a   3.62410500
_cell_length_b   5.96073522
_cell_length_c   11.53244816
_cell_angle_alpha   90.09862263
_cell_angle_beta   90.00000000
_cell_angle_gamma   90.00000000
_symmetry_Int_Tables_number   1
_chemical_formula_structural   YbPa(TcB4)2
_chemical_formula_sum   'Yb2 Pa2 Tc4 B16'
_cell_volume   249.12738520
_cell_formula_units_Z   2
loop_
 _symmetry_equiv_pos_site_id
 _symmetry_equiv_pos_as_xyz
  1  'x, y, z'
loop_
 _atom_site_type_symbol
 _atom_site_label
 _atom_site_symmetry_multiplicity
 _atom_site_fract_x
 _atom_site_fract_y
 _atom_site_fract_z
 _atom_site_occupancy
  Yb  Yb0  1  0.000000  0.626400  0.851938  1
  Yb  Yb1  1  0.000000  0.373600  0.148062  1
  Pa  Pa2  1  0.000000  0.128773  0.651208  1
  Pa  Pa3  1  0.000000  0.871227  0.348792  1
  Tc  Tc4  1  0.000000  0.129973  0.913499  1
  Tc  Tc5  1  0.000000  0.870027  0.086501  1
  Tc  Tc6  1  0.000000  0.640938  0.592111  1
  Tc  Tc7  1  0.000000  0.359062  0.407889  1
  B  B8  1  0.500000  0.473358  0.691496  1
  B  B9  1  0.500000  0.526642  0.308504  1
  B  B10  1  0.500000  0.979972  0.809047  1
  B  B11  1  0.500000  0.020028  0.190953  1
  B  B12  1  0.500000  0.286192  0.815646  1
  B  B13  1  0.500000  0.713808  0.184354  1
  B  B14  1  0.500000  0.787995  0.686362  1
  B  B15  1  0.500000  0.212005  0.313638  1
  B  B16  1  0.500000  0.364926  0.967847  1
  B  B17  1  0.500000  0.635074  0.032153  1
  B  B18  1  0.500000  0.865273  0.531539  1
  B  B19  1  0.500000  0.134727  0.468461  1
  B  B20  1  0.500000  0.388391  0.546705  1
  B  B21  1  0.500000  0.611609  0.453295  1
  B  B22  1  0.500000  0.886183  0.953679  1
  B  B23  1  0.500000  0.113817  0.046321  1
