# generated using pymatgen
data_NdEr2TeP2
_symmetry_space_group_name_H-M   'P 1'
_cell_length_a   4.12805000
_cell_length_b   10.28075300
_cell_length_c   7.13518200
_cell_angle_alpha   89.86868624
_cell_angle_beta   90.00000000
_cell_angle_gamma   90.00000000
_symmetry_Int_Tables_number   1
_chemical_formula_structural   NdEr2TeP2
_chemical_formula_sum   'Nd2 Er4 Te2 P4'
_cell_volume   302.81249309
_cell_formula_units_Z   2
loop_
 _symmetry_equiv_pos_site_id
 _symmetry_equiv_pos_as_xyz
  1  'x, y, z'
loop_
 _atom_site_type_symbol
 _atom_site_label
 _atom_site_symmetry_multiplicity
 _atom_site_fract_x
 _atom_site_fract_y
 _atom_site_fract_z
 _atom_site_occupancy
  Nd  Nd0  1  0.250000  0.500158  0.249768  1
  Nd  Nd1  1  0.750000  0.499842  0.750232  1
  Er  Er2  1  0.250000  0.804757  0.916255  1
  Er  Er3  1  0.750000  0.195243  0.083745  1
  Er  Er4  1  0.750000  0.803714  0.417200  1
  Er  Er5  1  0.250000  0.196286  0.582800  1
  Te  Te6  1  0.750000  0.000388  0.749360  1
  Te  Te7  1  0.250000  0.999612  0.250640  1
  P  P8  1  0.250000  0.668866  0.584224  1
  P  P9  1  0.750000  0.331134  0.415776  1
  P  P10  1  0.750000  0.669827  0.083529  1
  P  P11  1  0.250000  0.330173  0.916471  1
