# generated using pymatgen
data_CeHo(GaRu)2
_symmetry_space_group_name_H-M   'P 1'
_cell_length_a   4.64264300
_cell_length_b   6.99836709
_cell_length_c   7.14433000
_cell_angle_alpha   95.08893721
_cell_angle_beta   90.00000000
_cell_angle_gamma   90.00000000
_symmetry_Int_Tables_number   1
_chemical_formula_structural   CeHo(GaRu)2
_chemical_formula_sum   'Ce2 Ho2 Ga4 Ru4'
_cell_volume   231.21086310
_cell_formula_units_Z   2
loop_
 _symmetry_equiv_pos_site_id
 _symmetry_equiv_pos_as_xyz
  1  'x, y, z'
loop_
 _atom_site_type_symbol
 _atom_site_label
 _atom_site_symmetry_multiplicity
 _atom_site_fract_x
 _atom_site_fract_y
 _atom_site_fract_z
 _atom_site_occupancy
  Ce  Ce0  1  0.250000  0.477984  0.194983  1
  Ce  Ce1  1  0.750000  0.522016  0.805017  1
  Ho  Ho2  1  0.250000  0.969691  0.303003  1
  Ho  Ho3  1  0.750000  0.030309  0.696997  1
  Ga  Ga4  1  0.250000  0.832357  0.883866  1
  Ga  Ga5  1  0.750000  0.167643  0.116134  1
  Ga  Ga6  1  0.250000  0.293588  0.598916  1
  Ga  Ga7  1  0.750000  0.706412  0.401084  1
  Ru  Ru8  1  0.750000  0.781506  0.045415  1
  Ru  Ru9  1  0.250000  0.218494  0.954585  1
  Ru  Ru10  1  0.750000  0.344377  0.457256  1
  Ru  Ru11  1  0.250000  0.655623  0.542744  1
