# generated using pymatgen
data_Nb9VSe16
_symmetry_space_group_name_H-M   'P 1'
_cell_length_a   6.99861500
_cell_length_b   6.99861629
_cell_length_c   13.07684600
_cell_angle_alpha   90.00000000
_cell_angle_beta   90.00000000
_cell_angle_gamma   120.00000810
_symmetry_Int_Tables_number   1
_chemical_formula_structural   Nb9VSe16
_chemical_formula_sum   'Nb9 V1 Se16'
_cell_volume   554.69964994
_cell_formula_units_Z   1
loop_
 _symmetry_equiv_pos_site_id
 _symmetry_equiv_pos_as_xyz
  1  'x, y, z'
loop_
 _atom_site_type_symbol
 _atom_site_label
 _atom_site_symmetry_multiplicity
 _atom_site_fract_x
 _atom_site_fract_y
 _atom_site_fract_z
 _atom_site_occupancy
  Nb  Nb0  1  0.000000  0.000000  0.247605  1
  Nb  Nb1  1  0.000000  0.000000  0.752395  1
  Nb  Nb2  1  0.506786  0.013572  0.246975  1
  Nb  Nb3  1  0.493214  0.986428  0.753025  1
  Nb  Nb4  1  0.986428  0.493214  0.246975  1
  Nb  Nb5  1  0.013572  0.506786  0.753025  1
  Nb  Nb6  1  0.506786  0.493214  0.246975  1
  Nb  Nb7  1  0.493214  0.506786  0.753025  1
  Nb  Nb8  1  0.000000  0.000000  0.500000  1
  V  V9  1  0.000000  0.000000  0.000000  1
  Se  Se10  1  0.333333  0.666667  0.621244  1
  Se  Se11  1  0.666667  0.333333  0.378756  1
  Se  Se12  1  0.666667  0.333333  0.115724  1
  Se  Se13  1  0.333333  0.666667  0.884276  1
  Se  Se14  1  0.167028  0.334056  0.119875  1
  Se  Se15  1  0.832972  0.665944  0.880125  1
  Se  Se16  1  0.665944  0.832972  0.119875  1
  Se  Se17  1  0.831013  0.662025  0.625106  1
  Se  Se18  1  0.334056  0.167028  0.880125  1
  Se  Se19  1  0.168987  0.337975  0.374894  1
  Se  Se20  1  0.167028  0.832972  0.119875  1
  Se  Se21  1  0.337975  0.168987  0.625106  1
  Se  Se22  1  0.832972  0.167028  0.880125  1
  Se  Se23  1  0.662025  0.831013  0.374894  1
  Se  Se24  1  0.831013  0.168987  0.625106  1
  Se  Se25  1  0.168987  0.831013  0.374894  1
