# generated using pymatgen
data_Pr2Y6Cu3Si12Pd
_symmetry_space_group_name_H-M   'P 1'
_cell_length_a   8.07345900
_cell_length_b   8.07345960
_cell_length_c   8.29144000
_cell_angle_alpha   90.00000000
_cell_angle_beta   90.00000000
_cell_angle_gamma   120.00000162
_symmetry_Int_Tables_number   1
_chemical_formula_structural   Pr2Y6Cu3Si12Pd
_chemical_formula_sum   'Pr2 Y6 Cu3 Si12 Pd1'
_cell_volume   468.03669906
_cell_formula_units_Z   1
loop_
 _symmetry_equiv_pos_site_id
 _symmetry_equiv_pos_as_xyz
  1  'x, y, z'
loop_
 _atom_site_type_symbol
 _atom_site_label
 _atom_site_symmetry_multiplicity
 _atom_site_fract_x
 _atom_site_fract_y
 _atom_site_fract_z
 _atom_site_occupancy
  Pr  Pr0  1  0.000000  0.000000  0.750854  1
  Pr  Pr1  1  0.000000  0.000000  0.249415  1
  Y  Y2  1  0.499722  0.500278  0.750400  1
  Y  Y3  1  0.500305  0.499695  0.249447  1
  Y  Y4  1  0.000555  0.500278  0.750400  1
  Y  Y5  1  0.999390  0.499695  0.249447  1
  Y  Y6  1  0.499722  0.999445  0.750400  1
  Y  Y7  1  0.500305  0.000610  0.249447  1
  Cu  Cu8  1  0.666667  0.333333  0.999421  1
  Cu  Cu9  1  0.333333  0.666667  0.000233  1
  Cu  Cu10  1  0.333333  0.666667  0.500011  1
  Si  Si11  1  0.829364  0.170636  0.999941  1
  Si  Si12  1  0.170254  0.829746  0.000184  1
  Si  Si13  1  0.341271  0.170636  0.999941  1
  Si  Si14  1  0.169992  0.830008  0.499692  1
  Si  Si15  1  0.659489  0.829746  0.000184  1
  Si  Si16  1  0.832857  0.167143  0.500372  1
  Si  Si17  1  0.829364  0.658729  0.999941  1
  Si  Si18  1  0.660016  0.830008  0.499692  1
  Si  Si19  1  0.170254  0.340511  0.000184  1
  Si  Si20  1  0.334286  0.167143  0.500372  1
  Si  Si21  1  0.169992  0.339984  0.499692  1
  Si  Si22  1  0.832857  0.665714  0.500372  1
  Pd  Pd23  1  0.666667  0.333333  0.499958  1
