# generated using pymatgen
data_Y2Si4Ir5Rh
_symmetry_space_group_name_H-M   'P 1'
_cell_length_a   6.65877160
_cell_length_b   6.65877102
_cell_length_c   6.65533201
_cell_angle_alpha   130.25305584
_cell_angle_beta   114.26971547
_cell_angle_gamma   86.75240500
_symmetry_Int_Tables_number   1
_chemical_formula_structural   Y2Si4Ir5Rh
_chemical_formula_sum   'Y2 Si4 Ir5 Rh1'
_cell_volume   195.83249797
_cell_formula_units_Z   1
loop_
 _symmetry_equiv_pos_site_id
 _symmetry_equiv_pos_as_xyz
  1  'x, y, z'
loop_
 _atom_site_type_symbol
 _atom_site_label
 _atom_site_symmetry_multiplicity
 _atom_site_fract_x
 _atom_site_fract_y
 _atom_site_fract_z
 _atom_site_occupancy
  Y  Y0  1  0.249468  0.537525  0.286993  1
  Y  Y1  1  0.750532  0.462475  0.713007  1
  Si  Si2  1  0.079355  0.883169  0.804697  1
  Si  Si3  1  0.920645  0.116831  0.195303  1
  Si  Si4  1  0.578472  0.774658  0.195303  1
  Si  Si5  1  0.421528  0.225342  0.804697  1
  Ir  Ir6  1  0.715776  0.999405  0.716355  1
  Ir  Ir7  1  0.216951  0.500579  0.716355  1
  Ir  Ir8  1  0.284224  0.000595  0.283645  1
  Ir  Ir9  1  0.783049  0.499421  0.283645  1
  Ir  Ir10  1  0.000000  0.000000  0.500000  1
  Rh  Rh11  1  0.500000  0.000000  0.000000  1
