# generated using pymatgen
data_Lu3HfAl17SiRh6
_symmetry_space_group_name_H-M   'P 1'
_cell_length_a   7.49760415
_cell_length_b   7.49028721
_cell_length_c   9.30305400
_cell_angle_alpha   90.00000000
_cell_angle_beta   90.00000000
_cell_angle_gamma   119.61631049
_symmetry_Int_Tables_number   1
_chemical_formula_structural   Lu3HfAl17SiRh6
_chemical_formula_sum   'Lu3 Hf1 Al17 Si1 Rh6'
_cell_volume   454.19601390
_cell_formula_units_Z   1
loop_
 _symmetry_equiv_pos_site_id
 _symmetry_equiv_pos_as_xyz
  1  'x, y, z'
loop_
 _atom_site_type_symbol
 _atom_site_label
 _atom_site_symmetry_multiplicity
 _atom_site_fract_x
 _atom_site_fract_y
 _atom_site_fract_z
 _atom_site_occupancy
  Lu  Lu0  1  0.007136  0.322512  0.750000  1
  Lu  Lu1  1  0.671267  0.995790  0.250000  1
  Lu  Lu2  1  0.324065  0.007849  0.750000  1
  Hf  Hf3  1  0.995267  0.671017  0.250000  1
  Al  Al4  1  0.122182  0.120127  0.250000  1
  Al  Al5  1  0.999497  0.337253  0.079408  1
  Al  Al6  1  0.000583  0.663509  0.926697  1
  Al  Al7  1  0.000583  0.663509  0.573303  1
  Al  Al8  1  0.332074  0.997387  0.420420  1
  Al  Al9  1  0.999497  0.337253  0.420592  1
  Al  Al10  1  0.662994  0.999460  0.576968  1
  Al  Al11  1  0.662994  0.999460  0.923032  1
  Al  Al12  1  0.332074  0.997387  0.079580  1
  Al  Al13  1  0.336153  0.336199  0.551274  1
  Al  Al14  1  0.670750  0.668412  0.437699  1
  Al  Al15  1  0.670750  0.668412  0.062301  1
  Al  Al16  1  0.336153  0.336199  0.948726  1
  Al  Al17  1  0.334894  0.550803  0.250000  1
  Al  Al18  1  0.664796  0.450751  0.750000  1
  Al  Al19  1  0.554838  0.341642  0.250000  1
  Al  Al20  1  0.447962  0.662457  0.750000  1
  Si  Si21  1  0.868372  0.867289  0.750000  1
  Rh  Rh22  1  0.674173  0.328969  0.000510  1
  Rh  Rh23  1  0.329475  0.674463  0.001103  1
  Rh  Rh24  1  0.329475  0.674463  0.498897  1
  Rh  Rh25  1  0.674173  0.328969  0.499490  1
  Rh  Rh26  1  0.998912  0.999228  0.993943  1
  Rh  Rh27  1  0.998912  0.999228  0.506057  1
