# generated using pymatgen
data_Dy5SiP11Ru6Rh13
_symmetry_space_group_name_H-M   'P 1'
_cell_length_a   12.64722349
_cell_length_b   12.69245201
_cell_length_c   3.95022100
_cell_angle_alpha   90.00000000
_cell_angle_beta   90.00000000
_cell_angle_gamma   120.22091190
_symmetry_Int_Tables_number   1
_chemical_formula_structural   Dy5SiP11Ru6Rh13
_chemical_formula_sum   'Dy5 Si1 P11 Ru6 Rh13'
_cell_volume   547.92570421
_cell_formula_units_Z   1
loop_
 _symmetry_equiv_pos_site_id
 _symmetry_equiv_pos_as_xyz
  1  'x, y, z'
loop_
 _atom_site_type_symbol
 _atom_site_label
 _atom_site_symmetry_multiplicity
 _atom_site_fract_x
 _atom_site_fract_y
 _atom_site_fract_z
 _atom_site_occupancy
  Dy  Dy0  1  0.668383  0.331780  0.000000  1
  Dy  Dy1  1  0.331781  0.666756  0.000000  1
  Dy  Dy2  1  0.813951  0.001479  0.500000  1
  Dy  Dy3  1  0.183087  0.185391  0.500000  1
  Dy  Dy4  1  0.998419  0.812179  0.500000  1
  Si  Si5  1  0.685215  0.520793  0.500000  1
  P  P6  1  0.635686  0.999489  0.000000  1
  P  P7  1  0.364495  0.363605  0.000000  1
  P  P8  1  0.999262  0.631971  0.000000  1
  P  P9  1  0.833268  0.310514  0.500000  1
  P  P10  1  0.315911  0.834092  0.500000  1
  P  P11  1  0.518881  0.692795  0.500000  1
  P  P12  1  0.180221  0.998704  0.000000  1
  P  P13  1  0.818179  0.818602  0.000000  1
  P  P14  1  0.997023  0.179903  0.000000  1
  P  P15  1  0.478854  0.167575  0.500000  1
  P  P16  1  0.166129  0.480583  0.500000  1
  Ru  Ru17  1  0.513360  0.874739  0.500000  1
  Ru  Ru18  1  0.716350  0.720476  0.500000  1
  Ru  Ru19  1  0.002013  0.285121  0.500000  1
  Ru  Ru20  1  0.004450  0.452263  0.000000  1
  Ru  Ru21  1  0.818437  0.195372  0.000000  1
  Ru  Ru22  1  0.281955  0.998697  0.500000  1
  Rh  Rh23  1  0.621485  0.803825  0.000000  1
  Rh  Rh24  1  0.183395  0.376139  0.000000  1
  Rh  Rh25  1  0.375642  0.180398  0.000000  1
  Rh  Rh26  1  0.194520  0.817520  0.000000  1
  Rh  Rh27  1  0.807886  0.625357  0.000000  1
  Rh  Rh28  1  0.873164  0.509240  0.500000  1
  Rh  Rh29  1  0.483270  0.356161  0.500000  1
  Rh  Rh30  1  0.637923  0.130150  0.500000  1
  Rh  Rh31  1  0.130570  0.640889  0.500000  1
  Rh  Rh32  1  0.361805  0.492693  0.500000  1
  Rh  Rh33  1  0.000033  0.999848  0.000000  1
  Rh  Rh34  1  0.453734  0.001105  0.000000  1
  Rh  Rh35  1  0.551265  0.543796  0.000000  1
