# generated using pymatgen
data_Eu2Er3Ge2P10Ir19
_symmetry_space_group_name_H-M   'P 1'
_cell_length_a   12.86281100
_cell_length_b   12.79233882
_cell_length_c   3.98827500
_cell_angle_alpha   90.00000000
_cell_angle_beta   90.00000000
_cell_angle_gamma   119.81892874
_symmetry_Int_Tables_number   1
_chemical_formula_structural   Eu2Er3Ge2P10Ir19
_chemical_formula_sum   'Eu2 Er3 Ge2 P10 Ir19'
_cell_volume   569.36542754
_cell_formula_units_Z   1
loop_
 _symmetry_equiv_pos_site_id
 _symmetry_equiv_pos_as_xyz
  1  'x, y, z'
loop_
 _atom_site_type_symbol
 _atom_site_label
 _atom_site_symmetry_multiplicity
 _atom_site_fract_x
 _atom_site_fract_y
 _atom_site_fract_z
 _atom_site_occupancy
  Eu  Eu0  1  0.819996  0.816555  0.500000  1
  Eu  Eu1  1  0.180004  0.996559  0.500000  1
  Er  Er2  1  0.662828  0.328989  0.000000  1
  Er  Er3  1  0.337172  0.666162  0.000000  1
  Er  Er4  1  0.000000  0.186370  0.500000  1
  Ge  Ge5  1  0.640060  0.640123  0.000000  1
  Ge  Ge6  1  0.359940  0.000062  0.000000  1
  P  P7  1  0.683150  0.166974  0.500000  1
  P  P8  1  0.818576  0.510121  0.500000  1
  P  P9  1  0.479472  0.311823  0.500000  1
  P  P10  1  0.181424  0.691544  0.500000  1
  P  P11  1  0.520528  0.832352  0.500000  1
  P  P12  1  0.316850  0.483823  0.500000  1
  P  P13  1  0.000000  0.357771  0.000000  1
  P  P14  1  0.176492  0.178153  0.000000  1
  P  P15  1  0.823508  0.001660  0.000000  1
  P  P16  1  0.000000  0.812950  0.000000  1
  Ir  Ir17  1  0.815038  0.183615  0.000000  1
  Ir  Ir18  1  0.824435  0.611769  0.000000  1
  Ir  Ir19  1  0.380083  0.210438  0.000000  1
  Ir  Ir20  1  0.175565  0.787334  0.000000  1
  Ir  Ir21  1  0.619917  0.830354  0.000000  1
  Ir  Ir22  1  0.184962  0.368578  0.000000  1
  Ir  Ir23  1  0.436848  0.462083  0.000000  1
  Ir  Ir24  1  0.563152  0.025235  0.000000  1
  Ir  Ir25  1  0.000000  0.534954  0.000000  1
  Ir  Ir26  1  0.276639  0.283519  0.500000  1
  Ir  Ir27  1  0.723361  0.006881  0.500000  1
  Ir  Ir28  1  0.000000  0.705084  0.500000  1
  Ir  Ir29  1  0.860169  0.356519  0.500000  1
  Ir  Ir30  1  0.632707  0.503218  0.500000  1
  Ir  Ir31  1  0.493016  0.138008  0.500000  1
  Ir  Ir32  1  0.367293  0.870510  0.500000  1
  Ir  Ir33  1  0.506984  0.644991  0.500000  1
  Ir  Ir34  1  0.139831  0.496350  0.500000  1
  Ir  Ir35  1  0.000000  0.998571  0.000000  1
