# generated using pymatgen
data_KBa3As8Ir7Ru
_symmetry_space_group_name_H-M   'P 1'
_cell_length_a   7.15499091
_cell_length_b   9.18218423
_cell_length_c   8.21537362
_cell_angle_alpha   63.45915254
_cell_angle_beta   73.24081795
_cell_angle_gamma   97.36132022
_symmetry_Int_Tables_number   1
_chemical_formula_structural   KBa3As8Ir7Ru
_chemical_formula_sum   'K1 Ba3 As8 Ir7 Ru1'
_cell_volume   441.05458463
_cell_formula_units_Z   1
loop_
 _symmetry_equiv_pos_site_id
 _symmetry_equiv_pos_as_xyz
  1  'x, y, z'
loop_
 _atom_site_type_symbol
 _atom_site_label
 _atom_site_symmetry_multiplicity
 _atom_site_fract_x
 _atom_site_fract_y
 _atom_site_fract_z
 _atom_site_occupancy
  K  K0  1  0.999739  0.999951  0.000522  1
  Ba  Ba1  1  0.998223  0.495052  0.752223  1
  Ba  Ba2  1  0.002312  0.998916  0.499567  1
  Ba  Ba3  1  0.998681  0.505566  0.247643  1
  As  As4  1  0.286837  0.321163  0.517359  1
  As  As5  1  0.287464  0.321398  0.018513  1
  As  As6  1  0.289144  0.822732  0.263848  1
  As  As7  1  0.290385  0.822539  0.769308  1
  As  As8  1  0.712043  0.676419  0.483571  1
  As  As9  1  0.709749  0.682469  0.980498  1
  As  As10  1  0.712420  0.179668  0.232337  1
  As  As11  1  0.712632  0.174176  0.734478  1
  Ir  Ir12  1  0.498757  0.623830  0.314839  1
  Ir  Ir13  1  0.500664  0.623860  0.811301  1
  Ir  Ir14  1  0.501835  0.126262  0.062400  1
  Ir  Ir15  1  0.502550  0.126779  0.560110  1
  Ir  Ir16  1  0.499296  0.371998  0.688872  1
  Ir  Ir17  1  0.498562  0.377135  0.187096  1
  Ir  Ir18  1  0.499831  0.874710  0.437722  1
  Ru  Ru19  1  0.498876  0.875375  0.937794  1
