# generated using pymatgen
data_TbY2SnPd3Pb2
_symmetry_space_group_name_H-M   'P 1'
_cell_length_a   7.80628300
_cell_length_b   7.84128595
_cell_length_c   3.88275100
_cell_angle_alpha   90.00000000
_cell_angle_beta   90.00000000
_cell_angle_gamma   119.85244814
_symmetry_Int_Tables_number   1
_chemical_formula_structural   TbY2SnPd3Pb2
_chemical_formula_sum   'Tb1 Y2 Sn1 Pd3 Pb2'
_cell_volume   206.13206750
_cell_formula_units_Z   1
loop_
 _symmetry_equiv_pos_site_id
 _symmetry_equiv_pos_as_xyz
  1  'x, y, z'
loop_
 _atom_site_type_symbol
 _atom_site_label
 _atom_site_symmetry_multiplicity
 _atom_site_fract_x
 _atom_site_fract_y
 _atom_site_fract_z
 _atom_site_occupancy
  Tb  Tb0  1  0.402086  0.000000  0.500000  1
  Y  Y1  1  0.996616  0.395123  0.500000  1
  Y  Y2  1  0.601493  0.604877  0.500000  1
  Sn  Sn3  1  0.734748  0.000000  0.000000  1
  Pd  Pd4  1  0.989150  0.000000  0.500000  1
  Pd  Pd5  1  0.341500  0.673070  0.000000  1
  Pd  Pd6  1  0.668432  0.326930  0.000000  1
  Pb  Pb7  1  0.999706  0.733439  0.000000  1
  Pb  Pb8  1  0.266268  0.266561  0.000000  1
