# generated using pymatgen
data_Sr4La3Er(In4Au3)4
_symmetry_space_group_name_H-M   'P 1'
_cell_length_a   15.45011500
_cell_length_b   15.32235184
_cell_length_c   4.46605300
_cell_angle_alpha   90.00000000
_cell_angle_beta   90.00000000
_cell_angle_gamma   120.27621810
_symmetry_Int_Tables_number   1
_chemical_formula_structural   Sr4La3Er(In4Au3)4
_chemical_formula_sum   'Sr4 La3 Er1 In16 Au12'
_cell_volume   913.05326380
_cell_formula_units_Z   1
loop_
 _symmetry_equiv_pos_site_id
 _symmetry_equiv_pos_as_xyz
  1  'x, y, z'
loop_
 _atom_site_type_symbol
 _atom_site_label
 _atom_site_symmetry_multiplicity
 _atom_site_fract_x
 _atom_site_fract_y
 _atom_site_fract_z
 _atom_site_occupancy
  Sr  Sr0  1  0.335802  0.671332  0.000000  1
  Sr  Sr1  1  0.664471  0.328668  0.000000  1
  Sr  Sr2  1  0.001800  0.820284  0.500000  1
  Sr  Sr3  1  0.181516  0.179716  0.500000  1
  La  La4  1  0.000860  0.452249  0.000000  1
  La  La5  1  0.548611  0.547751  0.000000  1
  La  La6  1  0.815855  0.000000  0.500000  1
  Er  Er7  1  0.449584  0.000000  0.000000  1
  In  In8  1  0.182556  0.378431  0.000000  1
  In  In9  1  0.625716  0.808442  0.000000  1
  In  In10  1  0.377571  0.179025  0.000000  1
  In  In11  1  0.198545  0.820975  0.000000  1
  In  In12  1  0.804126  0.621569  0.000000  1
  In  In13  1  0.817275  0.191558  0.000000  1
  In  In14  1  0.282192  0.000000  0.500000  1
  In  In15  1  0.998501  0.283112  0.500000  1
  In  In16  1  0.715389  0.716888  0.500000  1
  In  In17  1  0.351605  0.474114  0.500000  1
  In  In18  1  0.523262  0.877285  0.500000  1
  In  In19  1  0.476792  0.346760  0.500000  1
  In  In20  1  0.130032  0.653240  0.500000  1
  In  In21  1  0.877491  0.525886  0.500000  1
  In  In22  1  0.645978  0.122715  0.500000  1
  In  In23  1  0.998359  0.000000  0.000000  1
  Au  Au24  1  0.174271  0.493802  0.500000  1
  Au  Au25  1  0.508957  0.682058  0.500000  1
  Au  Au26  1  0.487252  0.160349  0.500000  1
  Au  Au27  1  0.326903  0.839651  0.500000  1
  Au  Au28  1  0.680469  0.506198  0.500000  1
  Au  Au29  1  0.826898  0.317942  0.500000  1
  Au  Au30  1  0.174587  0.000000  0.000000  1
  Au  Au31  1  0.000211  0.176365  0.000000  1
  Au  Au32  1  0.823845  0.823635  0.000000  1
  Au  Au33  1  0.648912  0.000000  0.000000  1
  Au  Au34  1  0.001545  0.659284  0.000000  1
  Au  Au35  1  0.342261  0.340716  0.000000  1
