# generated using pymatgen
data_LaPr3(Si4Tc3)2
_symmetry_space_group_name_H-M   'P 1'
_cell_length_a   8.20351562
_cell_length_b   5.74216621
_cell_length_c   7.05947081
_cell_angle_alpha   76.93295815
_cell_angle_beta   89.88775897
_cell_angle_gamma   89.90302452
_symmetry_Int_Tables_number   1
_chemical_formula_structural   LaPr3(Si4Tc3)2
_chemical_formula_sum   'La1 Pr3 Si8 Tc6'
_cell_volume   323.93138288
_cell_formula_units_Z   1
loop_
 _symmetry_equiv_pos_site_id
 _symmetry_equiv_pos_as_xyz
  1  'x, y, z'
loop_
 _atom_site_type_symbol
 _atom_site_label
 _atom_site_symmetry_multiplicity
 _atom_site_fract_x
 _atom_site_fract_y
 _atom_site_fract_z
 _atom_site_occupancy
  La  La0  1  0.931810  0.562974  0.252424  1
  Pr  Pr1  1  0.430238  0.936627  0.748975  1
  Pr  Pr2  1  0.069819  0.438631  0.746463  1
  Pr  Pr3  1  0.570739  0.063000  0.251882  1
  Si  Si4  1  0.586866  0.608908  0.111654  1
  Si  Si5  1  0.087476  0.892300  0.887173  1
  Si  Si6  1  0.411520  0.389103  0.889770  1
  Si  Si7  1  0.912303  0.112048  0.107547  1
  Si  Si8  1  0.750629  0.718441  0.591226  1
  Si  Si9  1  0.253417  0.787186  0.409274  1
  Si  Si10  1  0.250409  0.278122  0.409923  1
  Si  Si11  1  0.747870  0.214379  0.592154  1
  Tc  Tc12  1  0.291615  0.608516  0.122872  1
  Tc  Tc13  1  0.792313  0.888922  0.880372  1
  Tc  Tc14  1  0.705808  0.391673  0.877067  1
  Tc  Tc15  1  0.207081  0.109961  0.119609  1
  Tc  Tc16  1  0.499827  0.499616  0.499175  1
  Tc  Tc17  1  0.000260  0.999592  0.502439  1
