# generated using pymatgen
data_Ti8Al14AsOs4Rh3
_symmetry_space_group_name_H-M   'P 1'
_cell_length_a   8.64363539
_cell_length_b   8.64769580
_cell_length_c   8.67047252
_cell_angle_alpha   119.89627393
_cell_angle_beta   119.81967399
_cell_angle_gamma   90.09895930
_symmetry_Int_Tables_number   1
_chemical_formula_structural   Ti8Al14AsOs4Rh3
_chemical_formula_sum   'Ti8 Al14 As1 Os4 Rh3'
_cell_volume   459.84148790
_cell_formula_units_Z   1
loop_
 _symmetry_equiv_pos_site_id
 _symmetry_equiv_pos_as_xyz
  1  'x, y, z'
loop_
 _atom_site_type_symbol
 _atom_site_label
 _atom_site_symmetry_multiplicity
 _atom_site_fract_x
 _atom_site_fract_y
 _atom_site_fract_z
 _atom_site_occupancy
  Ti  Ti0  1  0.785978  0.293678  0.083639  1
  Ti  Ti1  1  0.218289  0.301916  0.508198  1
  Ti  Ti2  1  0.210336  0.709134  0.510188  1
  Ti  Ti3  1  0.219781  0.713879  0.916874  1
  Ti  Ti4  1  0.794848  0.711488  0.494757  1
  Ti  Ti5  1  0.781399  0.281067  0.488156  1
  Ti  Ti6  1  0.375783  0.121093  0.742464  1
  Ti  Ti7  1  0.382965  0.635647  0.260736  1
  Al  Al8  1  0.153622  0.339457  0.180242  1
  Al  Al9  1  0.158319  0.980843  0.822129  1
  Al  Al10  1  0.153023  0.342441  0.813768  1
  Al  Al11  1  0.521592  0.340748  0.183535  1
  Al  Al12  1  0.843796  0.656210  0.812733  1
  Al  Al13  1  0.844938  0.023962  0.183040  1
  Al  Al14  1  0.841391  0.657908  0.178715  1
  Al  Al15  1  0.487196  0.662303  0.824873  1
  Al  Al16  1  0.379270  0.120660  0.260819  1
  Al  Al17  1  0.858151  0.120361  0.738791  1
  Al  Al18  1  0.620554  0.876741  0.257285  1
  Al  Al19  1  0.620456  0.361582  0.741500  1
  Al  Al20  1  0.618830  0.878214  0.739724  1
  Al  Al21  1  0.139089  0.879365  0.260702  1
  As  As22  1  0.997068  0.496738  0.500330  1
  Os  Os23  1  0.000325  0.998827  0.501273  1
  Os  Os24  1  0.500027  0.001224  0.000670  1
  Os  Os25  1  0.497904  0.497715  0.999710  1
  Os  Os26  1  0.496663  0.499202  0.497768  1
  Rh  Rh27  1  0.000006  0.499963  0.999540  1
  Rh  Rh28  1  0.999287  0.998964  0.998545  1
  Rh  Rh29  1  0.499109  0.998669  0.499293  1
