# generated using pymatgen
data_CeCo5As3
_symmetry_space_group_name_H-M   'P 1'
_cell_length_a   3.83787400
_cell_length_b   12.15621000
_cell_length_c   10.78977100
_cell_angle_alpha   90.00000000
_cell_angle_beta   90.00000000
_cell_angle_gamma   90.00000000
_symmetry_Int_Tables_number   1
_chemical_formula_structural   CeCo5As3
_chemical_formula_sum   'Ce4 Co20 As12'
_cell_volume   503.38600102
_cell_formula_units_Z   4
loop_
 _symmetry_equiv_pos_site_id
 _symmetry_equiv_pos_as_xyz
  1  'x, y, z'
loop_
 _atom_site_type_symbol
 _atom_site_label
 _atom_site_symmetry_multiplicity
 _atom_site_fract_x
 _atom_site_fract_y
 _atom_site_fract_z
 _atom_site_occupancy
  Ce  Ce0  1  0.750000  0.701465  0.081870  1
  Ce  Ce1  1  0.250000  0.298535  0.918130  1
  Ce  Ce2  1  0.250000  0.798535  0.581870  1
  Ce  Ce3  1  0.750000  0.201465  0.418130  1
  Co  Co4  1  0.750000  0.696535  0.385194  1
  Co  Co5  1  0.250000  0.303465  0.614806  1
  Co  Co6  1  0.250000  0.803465  0.885194  1
  Co  Co7  1  0.750000  0.196535  0.114806  1
  Co  Co8  1  0.750000  0.992777  0.212303  1
  Co  Co9  1  0.250000  0.007223  0.787697  1
  Co  Co10  1  0.250000  0.507223  0.712303  1
  Co  Co11  1  0.750000  0.492777  0.287697  1
  Co  Co12  1  0.750000  0.677230  0.785620  1
  Co  Co13  1  0.250000  0.322770  0.214380  1
  Co  Co14  1  0.250000  0.822770  0.285620  1
  Co  Co15  1  0.750000  0.177230  0.714380  1
  Co  Co16  1  0.750000  0.931029  0.972485  1
  Co  Co17  1  0.250000  0.068971  0.027515  1
  Co  Co18  1  0.250000  0.568971  0.472485  1
  Co  Co19  1  0.750000  0.431029  0.527515  1
  Co  Co20  1  0.750000  0.985645  0.592693  1
  Co  Co21  1  0.250000  0.014355  0.407307  1
  Co  Co22  1  0.250000  0.514355  0.092693  1
  Co  Co23  1  0.750000  0.485644  0.907307  1
  As  As24  1  0.750000  0.612340  0.586597  1
  As  As25  1  0.250000  0.387660  0.413403  1
  As  As26  1  0.250000  0.887660  0.086597  1
  As  As27  1  0.750000  0.112340  0.913403  1
  As  As28  1  0.750000  0.891743  0.395645  1
  As  As29  1  0.250000  0.108257  0.604355  1
  As  As30  1  0.250000  0.608257  0.895645  1
  As  As31  1  0.750000  0.391743  0.104355  1
  As  As32  1  0.750000  0.870938  0.773891  1
  As  As33  1  0.250000  0.129062  0.226109  1
  As  As34  1  0.250000  0.629062  0.273891  1
  As  As35  1  0.750000  0.370938  0.726109  1
