# generated using pymatgen
data_CeY9Si3B16As
_symmetry_space_group_name_H-M   'P 1'
_cell_length_a   7.23981042
_cell_length_b   7.24246873
_cell_length_c   8.14212535
_cell_angle_alpha   89.99772911
_cell_angle_beta   89.96365346
_cell_angle_gamma   90.05624631
_symmetry_Int_Tables_number   1
_chemical_formula_structural   CeY9Si3B16As
_chemical_formula_sum   'Ce1 Y9 Si3 B16 As1'
_cell_volume   426.92472772
_cell_formula_units_Z   1
loop_
 _symmetry_equiv_pos_site_id
 _symmetry_equiv_pos_as_xyz
  1  'x, y, z'
loop_
 _atom_site_type_symbol
 _atom_site_label
 _atom_site_symmetry_multiplicity
 _atom_site_fract_x
 _atom_site_fract_y
 _atom_site_fract_z
 _atom_site_occupancy
  Ce  Ce0  1  0.683386  0.182460  0.229322  1
  Y  Y1  1  0.318368  0.816903  0.778308  1
  Y  Y2  1  0.319204  0.818043  0.221460  1
  Y  Y3  1  0.819292  0.680712  0.221564  1
  Y  Y4  1  0.819388  0.681109  0.778259  1
  Y  Y5  1  0.682827  0.181516  0.777703  1
  Y  Y6  1  0.179762  0.320798  0.779040  1
  Y  Y7  1  0.179201  0.321026  0.220745  1
  Y  Y8  1  0.999145  0.998057  0.500639  1
  Y  Y9  1  0.499950  0.501719  0.500691  1
  Si  Si10  1  0.116592  0.615856  0.501466  1
  Si  Si11  1  0.886255  0.385581  0.500433  1
  Si  Si12  1  0.617189  0.881557  0.499932  1
  B  B13  1  0.173030  0.038981  0.998858  1
  B  B14  1  0.827744  0.961020  0.999726  1
  B  B15  1  0.961144  0.171771  0.999635  1
  B  B16  1  0.327405  0.539506  0.999305  1
  B  B17  1  0.040065  0.827584  0.999208  1
  B  B18  1  0.671622  0.460672  0.999648  1
  B  B19  1  0.538799  0.672673  0.998790  1
  B  B20  1  0.460752  0.327506  0.999520  1
  B  B21  1  0.090499  0.590538  0.999246  1
  B  B22  1  0.909096  0.409119  0.001104  1
  B  B23  1  0.409649  0.089871  0.999429  1
  B  B24  1  0.590061  0.909360  0.999354  1
  B  B25  1  0.999610  0.999133  0.160805  1
  B  B26  1  0.000683  0.999755  0.837652  1
  B  B27  1  0.499912  0.499663  0.837676  1
  B  B28  1  0.499176  0.499092  0.160781  1
  As  As29  1  0.380195  0.118418  0.499698  1
