# generated using pymatgen
data_Ac8SiSnI12
_symmetry_space_group_name_H-M   'P 1'
_cell_length_a   4.66398900
_cell_length_b   15.40604124
_cell_length_c   16.27987500
_cell_angle_alpha   89.82093507
_cell_angle_beta   90.00000000
_cell_angle_gamma   90.00000000
_symmetry_Int_Tables_number   1
_chemical_formula_structural   Ac8SiSnI12
_chemical_formula_sum   'Ac8 Si1 Sn1 I12'
_cell_volume   1169.76202535
_cell_formula_units_Z   1
loop_
 _symmetry_equiv_pos_site_id
 _symmetry_equiv_pos_as_xyz
  1  'x, y, z'
loop_
 _atom_site_type_symbol
 _atom_site_label
 _atom_site_symmetry_multiplicity
 _atom_site_fract_x
 _atom_site_fract_y
 _atom_site_fract_z
 _atom_site_occupancy
  Ac  Ac0  1  0.500000  0.121121  0.337885  1
  Ac  Ac1  1  0.500000  0.878879  0.662115  1
  Ac  Ac2  1  0.500000  0.613977  0.152945  1
  Ac  Ac3  1  0.500000  0.386023  0.847055  1
  Ac  Ac4  1  0.000000  0.121399  0.581274  1
  Ac  Ac5  1  0.000000  0.878601  0.418726  1
  Ac  Ac6  1  0.000000  0.611341  0.925556  1
  Ac  Ac7  1  0.000000  0.388659  0.074444  1
  Si  Si8  1  0.500000  0.500000  0.000000  1
  Sn  Sn9  1  0.500000  0.000000  0.500000  1
  I  I10  1  0.500000  0.246763  0.160699  1
  I  I11  1  0.500000  0.753237  0.839301  1
  I  I12  1  0.500000  0.741035  0.334945  1
  I  I13  1  0.500000  0.258965  0.665055  1
  I  I14  1  0.000000  0.257815  0.413421  1
  I  I15  1  0.000000  0.742185  0.586579  1
  I  I16  1  0.000000  0.754836  0.085673  1
  I  I17  1  0.000000  0.245164  0.914327  1
  I  I18  1  0.000000  0.000180  0.240910  1
  I  I19  1  0.000000  0.999820  0.759090  1
  I  I20  1  0.000000  0.499630  0.256109  1
  I  I21  1  0.000000  0.500370  0.743891  1
