# generated using pymatgen
data_Ho(SiTc2)2
_symmetry_space_group_name_H-M   'P 1'
_cell_length_a   7.34631600
_cell_length_b   7.34631600
_cell_length_c   4.14407700
_cell_angle_alpha   90.00000000
_cell_angle_beta   90.00000000
_cell_angle_gamma   90.00000000
_symmetry_Int_Tables_number   1
_chemical_formula_structural   Ho(SiTc2)2
_chemical_formula_sum   'Ho2 Si4 Tc8'
_cell_volume   223.64903431
_cell_formula_units_Z   2
loop_
 _symmetry_equiv_pos_site_id
 _symmetry_equiv_pos_as_xyz
  1  'x, y, z'
loop_
 _atom_site_type_symbol
 _atom_site_label
 _atom_site_symmetry_multiplicity
 _atom_site_fract_x
 _atom_site_fract_y
 _atom_site_fract_z
 _atom_site_occupancy
  Ho  Ho0  1  0.500000  0.500000  0.000000  1
  Ho  Ho1  1  0.000000  0.000000  0.500000  1
  Si  Si2  1  0.707536  0.707536  0.500000  1
  Si  Si3  1  0.292464  0.292464  0.500000  1
  Si  Si4  1  0.207536  0.792464  0.000000  1
  Si  Si5  1  0.792464  0.207536  0.000000  1
  Tc  Tc6  1  0.594270  0.155643  0.500000  1
  Tc  Tc7  1  0.405730  0.844357  0.500000  1
  Tc  Tc8  1  0.094270  0.344357  0.000000  1
  Tc  Tc9  1  0.905730  0.655643  0.000000  1
  Tc  Tc10  1  0.155643  0.594270  0.500000  1
  Tc  Tc11  1  0.844357  0.405730  0.500000  1
  Tc  Tc12  1  0.344357  0.094270  0.000000  1
  Tc  Tc13  1  0.655643  0.905730  0.000000  1
