# generated using pymatgen
data_La2Tb3Dy(IrO7)2
_symmetry_space_group_name_H-M   'P 1'
_cell_length_a   6.51793606
_cell_length_b   6.51412053
_cell_length_c   7.54094300
_cell_angle_alpha   90.00000000
_cell_angle_beta   90.00000000
_cell_angle_gamma   109.71124030
_symmetry_Int_Tables_number   1
_chemical_formula_structural   La2Tb3Dy(IrO7)2
_chemical_formula_sum   'La2 Tb3 Dy1 Ir2 O14'
_cell_volume   301.41701570
_cell_formula_units_Z   1
loop_
 _symmetry_equiv_pos_site_id
 _symmetry_equiv_pos_as_xyz
  1  'x, y, z'
loop_
 _atom_site_type_symbol
 _atom_site_label
 _atom_site_symmetry_multiplicity
 _atom_site_fract_x
 _atom_site_fract_y
 _atom_site_fract_z
 _atom_site_occupancy
  La  La0  1  0.000119  0.000030  0.499832  1
  La  La1  1  0.000119  0.000030  0.000168  1
  Tb  Tb2  1  0.516724  0.065948  0.250000  1
  Tb  Tb3  1  0.934200  0.483240  0.750000  1
  Tb  Tb4  1  0.483179  0.933889  0.750000  1
  Dy  Dy5  1  0.064898  0.516272  0.250000  1
  Ir  Ir6  1  0.500214  0.500142  0.499833  1
  Ir  Ir7  1  0.500214  0.500142  0.000167  1
  O  O8  1  0.442990  0.182762  0.535216  1
  O  O9  1  0.817629  0.556899  0.464293  1
  O  O10  1  0.442990  0.182762  0.964784  1
  O  O11  1  0.817629  0.556899  0.035707  1
  O  O12  1  0.557244  0.817395  0.464728  1
  O  O13  1  0.182603  0.443351  0.534328  1
  O  O14  1  0.557244  0.817395  0.035272  1
  O  O15  1  0.182603  0.443351  0.965672  1
  O  O16  1  0.160598  0.878742  0.250000  1
  O  O17  1  0.119707  0.839575  0.750000  1
  O  O18  1  0.839375  0.119538  0.750000  1
  O  O19  1  0.880836  0.161791  0.250000  1
  O  O20  1  0.407790  0.408649  0.250000  1
  O  O21  1  0.591095  0.591199  0.750000  1
