# generated using pymatgen
data_DyTm2Zr3(SnIr)6
_symmetry_space_group_name_H-M   'P 1'
_cell_length_a   7.47571137
_cell_length_b   7.46792212
_cell_length_c   7.58169400
_cell_angle_alpha   90.00000000
_cell_angle_beta   90.00000000
_cell_angle_gamma   119.96515448
_symmetry_Int_Tables_number   1
_chemical_formula_structural   DyTm2Zr3(SnIr)6
_chemical_formula_sum   'Dy1 Tm2 Zr3 Sn6 Ir6'
_cell_volume   366.69211739
_cell_formula_units_Z   1
loop_
 _symmetry_equiv_pos_site_id
 _symmetry_equiv_pos_as_xyz
  1  'x, y, z'
loop_
 _atom_site_type_symbol
 _atom_site_label
 _atom_site_symmetry_multiplicity
 _atom_site_fract_x
 _atom_site_fract_y
 _atom_site_fract_z
 _atom_site_occupancy
  Dy  Dy0  1  0.000370  0.407017  0.250000  1
  Tm  Tm1  1  0.405662  0.999586  0.250000  1
  Tm  Tm2  1  0.593847  0.594442  0.250000  1
  Zr  Zr3  1  0.607049  0.607776  0.750000  1
  Zr  Zr4  1  0.000711  0.392861  0.750000  1
  Zr  Zr5  1  0.392230  0.999278  0.750000  1
  Sn  Sn6  1  0.266829  0.265753  0.503935  1
  Sn  Sn7  1  0.266829  0.265753  0.996065  1
  Sn  Sn8  1  0.733667  0.999885  0.996057  1
  Sn  Sn9  1  0.999523  0.734085  0.504717  1
  Sn  Sn10  1  0.733667  0.999885  0.503943  1
  Sn  Sn11  1  0.999523  0.734085  0.995283  1
  Ir  Ir12  1  0.665574  0.333074  0.530689  1
  Ir  Ir13  1  0.665574  0.333074  0.969311  1
  Ir  Ir14  1  0.334473  0.667541  0.970745  1
  Ir  Ir15  1  0.334473  0.667541  0.529255  1
  Ir  Ir16  1  0.999998  0.000034  0.750000  1
  Ir  Ir17  1  0.000003  0.998326  0.250000  1
