# generated using pymatgen
data_Ho2ErSn3RuPt2
_symmetry_space_group_name_H-M   'P 1'
_cell_length_a   7.71137100
_cell_length_b   7.71153730
_cell_length_c   3.72816500
_cell_angle_alpha   90.00000000
_cell_angle_beta   90.00000000
_cell_angle_gamma   120.00070886
_symmetry_Int_Tables_number   1
_chemical_formula_structural   Ho2ErSn3RuPt2
_chemical_formula_sum   'Ho2 Er1 Sn3 Ru1 Pt2'
_cell_volume   191.99734176
_cell_formula_units_Z   1
loop_
 _symmetry_equiv_pos_site_id
 _symmetry_equiv_pos_as_xyz
  1  'x, y, z'
loop_
 _atom_site_type_symbol
 _atom_site_label
 _atom_site_symmetry_multiplicity
 _atom_site_fract_x
 _atom_site_fract_y
 _atom_site_fract_z
 _atom_site_occupancy
  Ho  Ho0  1  0.400461  0.399761  0.500000  1
  Ho  Ho1  1  0.599539  0.999300  0.500000  1
  Er  Er2  1  0.000000  0.600202  0.500000  1
  Sn  Sn3  1  0.738124  0.737326  0.000000  1
  Sn  Sn4  1  0.261876  0.999201  0.000000  1
  Sn  Sn5  1  0.000000  0.262654  0.000000  1
  Ru  Ru6  1  0.000000  0.000378  0.500000  1
  Pt  Pt7  1  0.667793  0.334485  0.000000  1
  Pt  Pt8  1  0.332207  0.666693  0.000000  1
