# generated using pymatgen
data_Tb2As2Cl2O5
_symmetry_space_group_name_H-M   'P 1'
_cell_length_a   7.09146112
_cell_length_b   7.70530086
_cell_length_c   9.47218161
_cell_angle_alpha   110.24003547
_cell_angle_beta   103.42096932
_cell_angle_gamma   102.32125950
_symmetry_Int_Tables_number   1
_chemical_formula_structural   Tb2As2Cl2O5
_chemical_formula_sum   'Tb4 As4 Cl4 O10'
_cell_volume   447.22927130
_cell_formula_units_Z   2
loop_
 _symmetry_equiv_pos_site_id
 _symmetry_equiv_pos_as_xyz
  1  'x, y, z'
loop_
 _atom_site_type_symbol
 _atom_site_label
 _atom_site_symmetry_multiplicity
 _atom_site_fract_x
 _atom_site_fract_y
 _atom_site_fract_z
 _atom_site_occupancy
  Tb  Tb0  1  0.396723  0.702634  0.522523  1
  Tb  Tb1  1  0.603277  0.297366  0.477477  1
  Tb  Tb2  1  0.840113  0.757979  0.334481  1
  Tb  Tb3  1  0.159887  0.242021  0.665519  1
  As  As4  1  0.886519  0.849287  0.738575  1
  As  As5  1  0.113481  0.150713  0.261425  1
  As  As6  1  0.713402  0.236523  0.798995  1
  As  As7  1  0.286598  0.763477  0.201005  1
  Cl  Cl8  1  0.242940  0.640240  0.743042  1
  Cl  Cl9  1  0.757060  0.359760  0.256958  1
  Cl  Cl10  1  0.787363  0.724820  0.040496  1
  Cl  Cl11  1  0.212637  0.275180  0.959504  1
  O  O12  1  0.847449  0.280434  0.666788  1
  O  O13  1  0.152551  0.719566  0.333212  1
  O  O14  1  0.528364  0.787552  0.338497  1
  O  O15  1  0.471636  0.212448  0.661503  1
  O  O16  1  0.670693  0.965793  0.722563  1
  O  O17  1  0.329307  0.034207  0.277437  1
  O  O18  1  0.694268  0.624501  0.579900  1
  O  O19  1  0.305732  0.375499  0.420100  1
  O  O20  1  0.996822  0.921368  0.606322  1
  O  O21  1  0.003178  0.078632  0.393678  1
