# generated using pymatgen
data_Pr2ErSi5PPd20
_symmetry_space_group_name_H-M   'P 1'
_cell_length_a   8.75538986
_cell_length_b   8.75682257
_cell_length_c   8.75682312
_cell_angle_alpha   59.98917782
_cell_angle_beta   60.00541082
_cell_angle_gamma   60.00541542
_symmetry_Int_Tables_number   1
_chemical_formula_structural   Pr2ErSi5PPd20
_chemical_formula_sum   'Pr2 Er1 Si5 P1 Pd20'
_cell_volume   474.73757714
_cell_formula_units_Z   1
loop_
 _symmetry_equiv_pos_site_id
 _symmetry_equiv_pos_as_xyz
  1  'x, y, z'
loop_
 _atom_site_type_symbol
 _atom_site_label
 _atom_site_symmetry_multiplicity
 _atom_site_fract_x
 _atom_site_fract_y
 _atom_site_fract_z
 _atom_site_occupancy
  Pr  Pr0  1  0.249504  0.250496  0.250496  1
  Pr  Pr1  1  0.749504  0.750496  0.750496  1
  Er  Er2  1  0.000468  0.999532  0.999532  1
  Si  Si3  1  0.266356  0.733644  0.733644  1
  Si  Si4  1  0.264933  0.735067  0.266363  1
  Si  Si5  1  0.733637  0.266363  0.735067  1
  Si  Si6  1  0.264933  0.266363  0.735067  1
  Si  Si7  1  0.733637  0.735067  0.266363  1
  P  P8  1  0.735609  0.264391  0.264391  1
  Pd  Pd9  1  0.345792  0.999405  0.999405  1
  Pd  Pd10  1  0.655398  0.999405  0.999405  1
  Pd  Pd11  1  0.000595  0.344602  0.654208  1
  Pd  Pd12  1  0.000595  0.654208  0.344602  1
  Pd  Pd13  1  0.998731  0.344717  0.001269  1
  Pd  Pd14  1  0.655283  0.001269  0.344717  1
  Pd  Pd15  1  0.000132  0.655123  0.999868  1
  Pd  Pd16  1  0.344877  0.999868  0.655123  1
  Pd  Pd17  1  0.998731  0.001269  0.344717  1
  Pd  Pd18  1  0.000132  0.999868  0.655123  1
  Pd  Pd19  1  0.655283  0.344717  0.001269  1
  Pd  Pd20  1  0.344877  0.655123  0.999868  1
  Pd  Pd21  1  0.386803  0.385382  0.385382  1
  Pd  Pd22  1  0.614604  0.614370  0.614370  1
  Pd  Pd23  1  0.385630  0.385396  0.843344  1
  Pd  Pd24  1  0.385630  0.843344  0.385396  1
  Pd  Pd25  1  0.614618  0.613197  0.157566  1
  Pd  Pd26  1  0.614618  0.157566  0.613197  1
  Pd  Pd27  1  0.842434  0.385382  0.385382  1
  Pd  Pd28  1  0.156656  0.614370  0.614370  1
