# generated using pymatgen
data_RbNa3(In2Se3)2
_symmetry_space_group_name_H-M   'P 1'
_cell_length_a   7.39326415
_cell_length_b   7.39326303
_cell_length_c   9.26201702
_cell_angle_alpha   82.28379422
_cell_angle_beta   82.28379212
_cell_angle_gamma   119.99264179
_symmetry_Int_Tables_number   1
_chemical_formula_structural   RbNa3(In2Se3)2
_chemical_formula_sum   'Rb1 Na3 In4 Se6'
_cell_volume   422.36973627
_cell_formula_units_Z   1
loop_
 _symmetry_equiv_pos_site_id
 _symmetry_equiv_pos_as_xyz
  1  'x, y, z'
loop_
 _atom_site_type_symbol
 _atom_site_label
 _atom_site_symmetry_multiplicity
 _atom_site_fract_x
 _atom_site_fract_y
 _atom_site_fract_z
 _atom_site_occupancy
  Rb  Rb0  1  0.500000  0.500000  0.500000  1
  Na  Na1  1  0.665640  0.334360  0.000000  1
  Na  Na2  1  0.334360  0.665640  0.000000  1
  Na  Na3  1  0.000000  0.000000  0.000000  1
  In  In4  1  0.885711  0.218208  0.342674  1
  In  In5  1  0.781792  0.114289  0.657326  1
  In  In6  1  0.218208  0.885711  0.342674  1
  In  In7  1  0.114289  0.781792  0.657326  1
  Se  Se8  1  0.404993  0.055228  0.786330  1
  Se  Se9  1  0.055228  0.404993  0.786330  1
  Se  Se10  1  0.944772  0.595007  0.213670  1
  Se  Se11  1  0.753550  0.753550  0.790171  1
  Se  Se12  1  0.595007  0.944772  0.213670  1
  Se  Se13  1  0.246450  0.246450  0.209829  1
