# generated using pymatgen
data_Ce2Ho14MgCo4Ag3
_symmetry_space_group_name_H-M   'P 1'
_cell_length_a   9.39265191
_cell_length_b   9.41263953
_cell_length_c   9.47979300
_cell_angle_alpha   59.76371068
_cell_angle_beta   59.69261906
_cell_angle_gamma   59.50515319
_symmetry_Int_Tables_number   1
_chemical_formula_structural   Ce2Ho14MgCo4Ag3
_chemical_formula_sum   'Ce2 Ho14 Mg1 Co4 Ag3'
_cell_volume   587.96205213
_cell_formula_units_Z   1
loop_
 _symmetry_equiv_pos_site_id
 _symmetry_equiv_pos_as_xyz
  1  'x, y, z'
loop_
 _atom_site_type_symbol
 _atom_site_label
 _atom_site_symmetry_multiplicity
 _atom_site_fract_x
 _atom_site_fract_y
 _atom_site_fract_z
 _atom_site_occupancy
  Ce  Ce0  1  0.338296  0.341184  0.345027  1
  Ce  Ce1  1  0.338296  0.341184  0.975494  1
  Ho  Ho2  1  0.347079  0.956062  0.348430  1
  Ho  Ho3  1  0.945535  0.350356  0.352054  1
  Ho  Ho4  1  0.810004  0.190522  0.189473  1
  Ho  Ho5  1  0.187160  0.814432  0.811791  1
  Ho  Ho6  1  0.187160  0.814432  0.186617  1
  Ho  Ho7  1  0.810004  0.190522  0.810001  1
  Ho  Ho8  1  0.186751  0.187131  0.813059  1
  Ho  Ho9  1  0.810508  0.811967  0.188763  1
  Ho  Ho10  1  0.935282  0.562256  0.564021  1
  Ho  Ho11  1  0.561469  0.937054  0.937504  1
  Ho  Ho12  1  0.561469  0.937054  0.563974  1
  Ho  Ho13  1  0.935282  0.562256  0.938441  1
  Ho  Ho14  1  0.561296  0.561978  0.938364  1
  Ho  Ho15  1  0.934400  0.936681  0.564460  1
  Mg  Mg16  1  0.289292  0.569540  0.570583  1
  Co  Co17  1  0.146388  0.150354  0.133553  1
  Co  Co18  1  0.146388  0.150354  0.569705  1
  Co  Co19  1  0.152017  0.567177  0.140402  1
  Co  Co20  1  0.563862  0.156511  0.139814  1
  Ag  Ag21  1  0.583282  0.581755  0.583526  1
  Ag  Ag22  1  0.583282  0.581755  0.251438  1
  Ag  Ag23  1  0.585500  0.247484  0.583508  1
