# generated using pymatgen
data_SmHoTmTaO7
_symmetry_space_group_name_H-M   'P 1'
_cell_length_a   6.44448132
_cell_length_b   6.44448047
_cell_length_c   7.54671100
_cell_angle_alpha   90.00000000
_cell_angle_beta   90.00000000
_cell_angle_gamma   109.34770049
_symmetry_Int_Tables_number   1
_chemical_formula_structural   SmHoTmTaO7
_chemical_formula_sum   'Sm2 Ho2 Tm2 Ta2 O14'
_cell_volume   295.72444408
_cell_formula_units_Z   2
loop_
 _symmetry_equiv_pos_site_id
 _symmetry_equiv_pos_as_xyz
  1  'x, y, z'
loop_
 _atom_site_type_symbol
 _atom_site_label
 _atom_site_symmetry_multiplicity
 _atom_site_fract_x
 _atom_site_fract_y
 _atom_site_fract_z
 _atom_site_occupancy
  Sm  Sm0  1  0.501027  0.501027  0.500000  1
  Sm  Sm1  1  0.501027  0.501027  0.000000  1
  Ho  Ho2  1  0.466156  0.999088  0.250000  1
  Ho  Ho3  1  0.999088  0.466156  0.750000  1
  Tm  Tm4  1  0.533181  0.001408  0.750000  1
  Tm  Tm5  1  0.001408  0.533181  0.250000  1
  Ta  Ta6  1  0.000039  0.000039  0.500000  1
  Ta  Ta7  1  0.000039  0.000039  0.000000  1
  O  O8  1  0.677094  0.929210  0.468857  1
  O  O9  1  0.929210  0.677094  0.531143  1
  O  O10  1  0.677094  0.929210  0.031143  1
  O  O11  1  0.929210  0.677094  0.968857  1
  O  O12  1  0.322000  0.070002  0.534366  1
  O  O13  1  0.070002  0.322000  0.465634  1
  O  O14  1  0.322000  0.070002  0.965634  1
  O  O15  1  0.070002  0.322000  0.034366  1
  O  O16  1  0.933188  0.066337  0.750000  1
  O  O17  1  0.066337  0.933188  0.250000  1
  O  O18  1  0.366968  0.637564  0.750000  1
  O  O19  1  0.637564  0.366968  0.250000  1
  O  O20  1  0.640707  0.356661  0.750000  1
  O  O21  1  0.356661  0.640707  0.250000  1
