# generated using pymatgen
data_Dy2Co4B4Ir
_symmetry_space_group_name_H-M   'P 1'
_cell_length_a   7.14850227
_cell_length_b   6.03081394
_cell_length_c   5.27167131
_cell_angle_alpha   78.14725896
_cell_angle_beta   55.65542492
_cell_angle_gamma   46.69282260
_symmetry_Int_Tables_number   1
_chemical_formula_structural   Dy2Co4B4Ir
_chemical_formula_sum   'Dy2 Co4 B4 Ir1'
_cell_volume   130.16326324
_cell_formula_units_Z   1
loop_
 _symmetry_equiv_pos_site_id
 _symmetry_equiv_pos_as_xyz
  1  'x, y, z'
loop_
 _atom_site_type_symbol
 _atom_site_label
 _atom_site_symmetry_multiplicity
 _atom_site_fract_x
 _atom_site_fract_y
 _atom_site_fract_z
 _atom_site_occupancy
  Dy  Dy0  1  0.856048  0.856049  0.143952  1
  Dy  Dy1  1  0.143950  0.143951  0.856050  1
  Co  Co2  1  0.499999  0.500000  0.000000  1
  Co  Co3  1  0.250015  0.250016  0.249985  1
  Co  Co4  1  0.499999  0.500000  0.500001  1
  Co  Co5  1  0.749984  0.749986  0.750016  1
  B  B6  1  0.489646  0.780637  0.203879  1
  B  B7  1  0.219362  0.510354  0.474163  1
  B  B8  1  0.780636  0.489647  0.525838  1
  B  B9  1  0.510353  0.219363  0.796123  1
  Ir  Ir10  1  0.000000  0.000000  0.500000  1
