# generated using pymatgen
data_TaPF34
_symmetry_space_group_name_H-M   'P 1'
_cell_length_a   8.96000027
_cell_length_b   8.54785843
_cell_length_c   10.12721319
_cell_angle_alpha   80.47468695
_cell_angle_beta   87.19950923
_cell_angle_gamma   65.14314855
_symmetry_Int_Tables_number   1
_chemical_formula_structural   TaPF34
_chemical_formula_sum   'Ta1 P1 F34'
_cell_volume   693.88836315
_cell_formula_units_Z   1
loop_
 _symmetry_equiv_pos_site_id
 _symmetry_equiv_pos_as_xyz
  1  'x, y, z'
loop_
 _atom_site_type_symbol
 _atom_site_label
 _atom_site_symmetry_multiplicity
 _atom_site_fract_x
 _atom_site_fract_y
 _atom_site_fract_z
 _atom_site_occupancy
  Ta  Ta0  1  0.857999  0.247460  0.769458  1
  P  P1  1  0.136098  0.744206  0.249670  1
  F  F2  1  0.603673  0.213858  0.485952  1
  F  F3  1  0.382544  0.792944  0.522470  1
  F  F4  1  0.847015  0.689663  0.693714  1
  F  F5  1  0.161796  0.313137  0.312131  1
  F  F6  1  0.119264  0.721448  0.868067  1
  F  F7  1  0.911256  0.260118  0.136212  1
  F  F8  1  0.574247  0.143836  0.376429  1
  F  F9  1  0.440478  0.857941  0.620220  1
  F  F10  1  0.642471  0.332213  0.691184  1
  F  F11  1  0.324086  0.670681  0.308545  1
  F  F12  1  0.943641  0.092560  0.632325  1
  F  F13  1  0.077799  0.904479  0.336477  1
  F  F14  1  0.920128  0.379010  0.607125  1
  F  F15  1  0.093348  0.626301  0.377883  1
  F  F16  1  0.868727  0.830352  0.611880  1
  F  F17  1  0.158286  0.155689  0.379995  1
  F  F18  1  0.795864  0.452112  0.847096  1
  F  F19  1  0.192698  0.581320  0.166120  1
  F  F20  1  0.220745  0.685671  0.754552  1
  F  F21  1  0.777587  0.318133  0.224433  1
  F  F22  1  0.948772  0.816962  0.191014  1
  F  F23  1  0.075112  0.160169  0.841221  1
  F  F24  1  0.811332  0.088424  0.897088  1
  F  F25  1  0.178882  0.862775  0.123798  1
  F  F26  1  0.483226  0.596896  0.990962  1
  F  F27  1  0.495826  0.423568  0.005172  1
  F  F28  1  0.453356  0.097736  0.857487  1
  F  F29  1  0.517164  0.920347  0.143389  1
  F  F30  1  0.281261  0.266277  0.596581  1
  F  F31  1  0.719430  0.723903  0.402968  1
  F  F32  1  0.249455  0.412073  0.660997  1
  F  F33  1  0.741567  0.594219  0.323089  1
  F  F34  1  0.551999  0.923904  0.836103  1
  F  F35  1  0.442864  0.099616  0.158189  1
