# generated using pymatgen
data_Zr9In14Ir3Ru4
_symmetry_space_group_name_H-M   'P 1'
_cell_length_a   9.65059530
_cell_length_b   9.65500785
_cell_length_c   9.64933544
_cell_angle_alpha   60.41828460
_cell_angle_beta   60.52523687
_cell_angle_gamma   60.43460382
_symmetry_Int_Tables_number   1
_chemical_formula_structural   Zr9In14Ir3Ru4
_chemical_formula_sum   'Zr9 In14 Ir3 Ru4'
_cell_volume   642.35481487
_cell_formula_units_Z   1
loop_
 _symmetry_equiv_pos_site_id
 _symmetry_equiv_pos_as_xyz
  1  'x, y, z'
loop_
 _atom_site_type_symbol
 _atom_site_label
 _atom_site_symmetry_multiplicity
 _atom_site_fract_x
 _atom_site_fract_y
 _atom_site_fract_z
 _atom_site_occupancy
  Zr  Zr0  1  0.122104  0.633974  0.122065  1
  Zr  Zr1  1  0.365274  0.873685  0.880309  1
  Zr  Zr2  1  0.879658  0.872997  0.879668  1
  Zr  Zr3  1  0.633399  0.117862  0.124185  1
  Zr  Zr4  1  0.498024  0.510968  0.497981  1
  Zr  Zr5  1  0.880293  0.873730  0.365257  1
  Zr  Zr6  1  0.125266  0.118815  0.125237  1
  Zr  Zr7  1  0.877628  0.366665  0.877688  1
  Zr  Zr8  1  0.124201  0.117846  0.633408  1
  In  In9  1  0.499291  0.843582  0.157055  1
  In  In10  1  0.502481  0.842205  0.502475  1
  In  In11  1  0.497499  0.160787  0.497544  1
  In  In12  1  0.501873  0.503562  0.840414  1
  In  In13  1  0.160434  0.497951  0.496584  1
  In  In14  1  0.841971  0.157289  0.499864  1
  In  In15  1  0.157004  0.843593  0.499292  1
  In  In16  1  0.499922  0.157246  0.841935  1
  In  In17  1  0.156743  0.501688  0.842343  1
  In  In18  1  0.496563  0.497960  0.160414  1
  In  In19  1  0.840409  0.503573  0.501870  1
  In  In20  1  0.842386  0.501625  0.156798  1
  In  In21  1  0.250393  0.251721  0.250526  1
  In  In22  1  0.748549  0.749659  0.748479  1
  Ir  Ir23  1  0.220727  0.222285  0.779793  1
  Ir  Ir24  1  0.777762  0.221340  0.777746  1
  Ir  Ir25  1  0.779760  0.222293  0.220750  1
  Ru  Ru26  1  0.776336  0.777701  0.221968  1
  Ru  Ru27  1  0.999464  0.001148  0.999443  1
  Ru  Ru28  1  0.222581  0.778567  0.222605  1
  Ru  Ru29  1  0.222001  0.777687  0.776303  1
