# generated using pymatgen
data_Zr3ZnCo8
_symmetry_space_group_name_H-M   'P 1'
_cell_length_a   8.41950245
_cell_length_b   8.41950265
_cell_length_c   8.41950128
_cell_angle_alpha   33.42707084
_cell_angle_beta   33.42706780
_cell_angle_gamma   33.42707294
_symmetry_Int_Tables_number   1
_chemical_formula_structural   Zr3ZnCo8
_chemical_formula_sum   'Zr3 Zn1 Co8'
_cell_volume   161.29304019
_cell_formula_units_Z   1
loop_
 _symmetry_equiv_pos_site_id
 _symmetry_equiv_pos_as_xyz
  1  'x, y, z'
loop_
 _atom_site_type_symbol
 _atom_site_label
 _atom_site_symmetry_multiplicity
 _atom_site_fract_x
 _atom_site_fract_y
 _atom_site_fract_z
 _atom_site_occupancy
  Zr  Zr0  1  0.376829  0.376829  0.376829  1
  Zr  Zr1  1  0.992536  0.992536  0.992536  1
  Zr  Zr2  1  0.505673  0.505673  0.505673  1
  Zn  Zn3  1  0.872095  0.872095  0.872095  1
  Co  Co4  1  0.436327  0.939745  0.436327  1
  Co  Co5  1  0.937465  0.439539  0.937465  1
  Co  Co6  1  0.436327  0.436327  0.939745  1
  Co  Co7  1  0.937465  0.937465  0.439539  1
  Co  Co8  1  0.188252  0.188252  0.188252  1
  Co  Co9  1  0.687748  0.687748  0.687748  1
  Co  Co10  1  0.939745  0.436327  0.436327  1
  Co  Co11  1  0.439539  0.937465  0.937465  1
