# generated using pymatgen
data_Na4YbRhO6
_symmetry_space_group_name_H-M   'P 1'
_cell_length_a   5.66972751
_cell_length_b   5.66956472
_cell_length_c   5.71657200
_cell_angle_alpha   99.61419362
_cell_angle_beta   99.57444639
_cell_angle_gamma   120.08246742
_symmetry_Int_Tables_number   1
_chemical_formula_structural   Na4YbRhO6
_chemical_formula_sum   'Na4 Yb1 Rh1 O6'
_cell_volume   149.88949103
_cell_formula_units_Z   1
loop_
 _symmetry_equiv_pos_site_id
 _symmetry_equiv_pos_as_xyz
  1  'x, y, z'
loop_
 _atom_site_type_symbol
 _atom_site_label
 _atom_site_symmetry_multiplicity
 _atom_site_fract_x
 _atom_site_fract_y
 _atom_site_fract_z
 _atom_site_occupancy
  Na  Na0  1  0.498696  0.501309  0.999970  1
  Na  Na1  1  0.006145  0.993863  0.500018  1
  Na  Na2  1  0.660844  0.339207  0.499966  1
  Na  Na3  1  0.337558  0.662357  0.499982  1
  Yb  Yb4  1  0.833967  0.166059  0.000022  1
  Rh  Rh5  1  0.166971  0.833107  0.000023  1
  O  O6  1  0.953548  0.611252  0.208029  1
  O  O7  1  0.530842  0.915087  0.216192  1
  O  O8  1  0.228185  0.190595  0.215699  1
  O  O9  1  0.809585  0.771845  0.784414  1
  O  O10  1  0.084853  0.468947  0.783676  1
  O  O11  1  0.388810  0.046374  0.792012  1
