# generated using pymatgen
data_Nd10Ga5Sn
_symmetry_space_group_name_H-M   'P 1'
_cell_length_a   9.27654936
_cell_length_b   9.27654907
_cell_length_c   9.27654954
_cell_angle_alpha   129.50514223
_cell_angle_beta   129.50514176
_cell_angle_gamma   74.19912977
_symmetry_Int_Tables_number   1
_chemical_formula_structural   Nd10Ga5Sn
_chemical_formula_sum   'Nd10 Ga5 Sn1'
_cell_volume   463.33345688
_cell_formula_units_Z   1
loop_
 _symmetry_equiv_pos_site_id
 _symmetry_equiv_pos_as_xyz
  1  'x, y, z'
loop_
 _atom_site_type_symbol
 _atom_site_label
 _atom_site_symmetry_multiplicity
 _atom_site_fract_x
 _atom_site_fract_y
 _atom_site_fract_z
 _atom_site_occupancy
  Nd  Nd0  1  0.475133  0.475133  0.000000  1
  Nd  Nd1  1  0.024867  0.024867  0.000000  1
  Nd  Nd2  1  0.537504  0.015514  0.844659  1
  Nd  Nd3  1  0.170854  0.692844  0.155341  1
  Nd  Nd4  1  0.015514  0.170854  0.478010  1
  Nd  Nd5  1  0.692844  0.537504  0.521990  1
  Nd  Nd6  1  0.484486  0.962496  0.155341  1
  Nd  Nd7  1  0.807156  0.329146  0.844659  1
  Nd  Nd8  1  0.962496  0.807156  0.478010  1
  Nd  Nd9  1  0.329146  0.484486  0.521990  1
  Ga  Ga10  1  0.750000  0.750000  0.000000  1
  Ga  Ga11  1  0.881083  0.381083  0.262164  1
  Ga  Ga12  1  0.118917  0.618917  0.737836  1
  Ga  Ga13  1  0.381083  0.118917  0.500000  1
  Ga  Ga14  1  0.618917  0.881083  0.500000  1
  Sn  Sn15  1  0.250000  0.250000  0.000000  1
