# generated using pymatgen
data_Tb2PaFeCo
_symmetry_space_group_name_H-M   'P 1'
_cell_length_a   5.95409401
_cell_length_b   5.95409282
_cell_length_c   5.95381153
_cell_angle_alpha   144.79261986
_cell_angle_beta   119.78214197
_cell_angle_gamma   71.71694621
_symmetry_Int_Tables_number   1
_chemical_formula_structural   Tb2PaFeCo
_chemical_formula_sum   'Tb2 Pa1 Fe1 Co1'
_cell_volume   103.81140300
_cell_formula_units_Z   1
loop_
 _symmetry_equiv_pos_site_id
 _symmetry_equiv_pos_as_xyz
  1  'x, y, z'
loop_
 _atom_site_type_symbol
 _atom_site_label
 _atom_site_symmetry_multiplicity
 _atom_site_fract_x
 _atom_site_fract_y
 _atom_site_fract_z
 _atom_site_occupancy
  Tb  Tb0  1  0.310010  0.806493  0.503498  1
  Tb  Tb1  1  0.697005  0.193488  0.503498  1
  Pa  Pa2  1  0.009980  0.000032  0.010012  1
  Fe  Fe3  1  0.279394  0.499972  0.779366  1
  Co  Co4  1  0.703612  0.500015  0.203626  1
