# generated using pymatgen
data_DyEr3ZnPt3
_symmetry_space_group_name_H-M   'P 1'
_cell_length_a   4.53519000
_cell_length_b   5.53991229
_cell_length_c   7.04719435
_cell_angle_alpha   90.29195910
_cell_angle_beta   90.00000000
_cell_angle_gamma   90.00000000
_symmetry_Int_Tables_number   1
_chemical_formula_structural   DyEr3ZnPt3
_chemical_formula_sum   'Dy1 Er3 Zn1 Pt3'
_cell_volume   177.05532197
_cell_formula_units_Z   1
loop_
 _symmetry_equiv_pos_site_id
 _symmetry_equiv_pos_as_xyz
  1  'x, y, z'
loop_
 _atom_site_type_symbol
 _atom_site_label
 _atom_site_symmetry_multiplicity
 _atom_site_fract_x
 _atom_site_fract_y
 _atom_site_fract_z
 _atom_site_occupancy
  Dy  Dy0  1  0.250000  0.641121  0.186652  1
  Er  Er1  1  0.750000  0.368626  0.806798  1
  Er  Er2  1  0.750000  0.139482  0.328611  1
  Er  Er3  1  0.250000  0.849914  0.678134  1
  Zn  Zn4  1  0.250000  0.137317  0.032066  1
  Pt  Pt5  1  0.750000  0.872969  0.967493  1
  Pt  Pt6  1  0.750000  0.656141  0.456102  1
  Pt  Pt7  1  0.250000  0.334431  0.544144  1
