# generated using pymatgen
data_Y20Cd4Hg2OsRu
_symmetry_space_group_name_H-M   'P 1'
_cell_length_a   9.65168286
_cell_length_b   9.66205518
_cell_length_c   9.83620000
_cell_angle_alpha   90.00000000
_cell_angle_beta   90.00000000
_cell_angle_gamma   120.03556156
_symmetry_Int_Tables_number   1
_chemical_formula_structural   Y20Cd4Hg2OsRu
_chemical_formula_sum   'Y20 Cd4 Hg2 Os1 Ru1'
_cell_volume   794.09927847
_cell_formula_units_Z   1
loop_
 _symmetry_equiv_pos_site_id
 _symmetry_equiv_pos_as_xyz
  1  'x, y, z'
loop_
 _atom_site_type_symbol
 _atom_site_label
 _atom_site_symmetry_multiplicity
 _atom_site_fract_x
 _atom_site_fract_y
 _atom_site_fract_z
 _atom_site_occupancy
  Y  Y0  1  0.995993  0.997997  0.493031  1
  Y  Y1  1  0.995993  0.997997  0.006969  1
  Y  Y2  1  0.209654  0.791099  0.439863  1
  Y  Y3  1  0.209654  0.418557  0.439863  1
  Y  Y4  1  0.581263  0.790632  0.440300  1
  Y  Y5  1  0.790526  0.209782  0.560197  1
  Y  Y6  1  0.790526  0.580742  0.560197  1
  Y  Y7  1  0.419184  0.209591  0.559077  1
  Y  Y8  1  0.790526  0.209782  0.939803  1
  Y  Y9  1  0.790526  0.580742  0.939803  1
  Y  Y10  1  0.419184  0.209591  0.940923  1
  Y  Y11  1  0.209654  0.791099  0.060137  1
  Y  Y12  1  0.209654  0.418557  0.060137  1
  Y  Y13  1  0.581263  0.790632  0.059700  1
  Y  Y14  1  0.543433  0.463233  0.250000  1
  Y  Y15  1  0.543433  0.080200  0.250000  1
  Y  Y16  1  0.919626  0.459813  0.250000  1
  Y  Y17  1  0.459096  0.541365  0.750000  1
  Y  Y18  1  0.459096  0.917731  0.750000  1
  Y  Y19  1  0.082596  0.541298  0.750000  1
  Cd  Cd20  1  0.234482  0.117241  0.250000  1
  Cd  Cd21  1  0.112251  0.884961  0.750000  1
  Cd  Cd22  1  0.112251  0.227288  0.750000  1
  Cd  Cd23  1  0.772407  0.886203  0.750000  1
  Hg  Hg24  1  0.883495  0.122229  0.250000  1
  Hg  Hg25  1  0.883495  0.761267  0.250000  1
  Os  Os26  1  0.334515  0.667258  0.250000  1
  Ru  Ru27  1  0.666226  0.333113  0.750000  1
