# generated using pymatgen
data_KIr(OF2)2
_symmetry_space_group_name_H-M   'P 1'
_cell_length_a   4.94758444
_cell_length_b   6.57273877
_cell_length_c   8.22368936
_cell_angle_alpha   87.55161857
_cell_angle_beta   72.49355614
_cell_angle_gamma   81.83563632
_symmetry_Int_Tables_number   1
_chemical_formula_structural   KIr(OF2)2
_chemical_formula_sum   'K2 Ir2 O4 F8'
_cell_volume   252.45631650
_cell_formula_units_Z   2
loop_
 _symmetry_equiv_pos_site_id
 _symmetry_equiv_pos_as_xyz
  1  'x, y, z'
loop_
 _atom_site_type_symbol
 _atom_site_label
 _atom_site_symmetry_multiplicity
 _atom_site_fract_x
 _atom_site_fract_y
 _atom_site_fract_z
 _atom_site_occupancy
  K  K0  1  0.079550  0.250000  0.840900  1
  K  K1  1  0.920450  0.750000  0.159100  1
  Ir  Ir2  1  0.657358  0.750000  0.685284  1
  Ir  Ir3  1  0.342642  0.250000  0.314716  1
  O  O4  1  0.465354  0.854023  0.543221  1
  O  O5  1  0.991425  0.645977  0.543221  1
  O  O6  1  0.534646  0.145977  0.456779  1
  O  O7  1  0.008575  0.354023  0.456779  1
  F  F8  1  0.805526  0.005815  0.702656  1
  F  F9  1  0.491818  0.494185  0.702656  1
  F  F10  1  0.194474  0.994185  0.297344  1
  F  F11  1  0.508182  0.505815  0.297344  1
  F  F12  1  0.330032  0.861895  0.879766  1
  F  F13  1  0.790201  0.638105  0.879766  1
  F  F14  1  0.669968  0.138105  0.120234  1
  F  F15  1  0.209799  0.361895  0.120234  1
