# generated using pymatgen
data_Y4ErTm(RuI3)2
_symmetry_space_group_name_H-M   'P 1'
_cell_length_a   4.22593000
_cell_length_b   8.85278702
_cell_length_c   12.26438890
_cell_angle_alpha   86.04710339
_cell_angle_beta   90.00000000
_cell_angle_gamma   90.00000000
_symmetry_Int_Tables_number   1
_chemical_formula_structural   Y4ErTm(RuI3)2
_chemical_formula_sum   'Y4 Er1 Tm1 Ru2 I6'
_cell_volume   457.73470059
_cell_formula_units_Z   1
loop_
 _symmetry_equiv_pos_site_id
 _symmetry_equiv_pos_as_xyz
  1  'x, y, z'
loop_
 _atom_site_type_symbol
 _atom_site_label
 _atom_site_symmetry_multiplicity
 _atom_site_fract_x
 _atom_site_fract_y
 _atom_site_fract_z
 _atom_site_occupancy
  Y  Y0  1  0.750000  0.097925  0.684314  1
  Y  Y1  1  0.250000  0.901698  0.315849  1
  Y  Y2  1  0.250000  0.262043  0.897698  1
  Y  Y3  1  0.750000  0.737825  0.101900  1
  Er  Er4  1  0.750000  0.129008  0.124669  1
  Tm  Tm5  1  0.250000  0.871925  0.875451  1
  Ru  Ru6  1  0.750000  0.051189  0.908410  1
  Ru  Ru7  1  0.250000  0.948117  0.091443  1
  I  I8  1  0.250000  0.353308  0.636497  1
  I  I9  1  0.750000  0.646628  0.363561  1
  I  I10  1  0.750000  0.143593  0.392283  1
  I  I11  1  0.250000  0.856332  0.607968  1
  I  I12  1  0.250000  0.425782  0.133390  1
  I  I13  1  0.750000  0.574624  0.866566  1
