# generated using pymatgen
data_TbNd2Pa(Ga3Ir)6
_symmetry_space_group_name_H-M   'P 1'
_cell_length_a   7.64383745
_cell_length_b   7.63959940
_cell_length_c   9.50004800
_cell_angle_alpha   90.00000000
_cell_angle_beta   90.00000000
_cell_angle_gamma   119.80933028
_symmetry_Int_Tables_number   1
_chemical_formula_structural   TbNd2Pa(Ga3Ir)6
_chemical_formula_sum   'Tb1 Nd2 Pa1 Ga18 Ir6'
_cell_volume   481.35964075
_cell_formula_units_Z   1
loop_
 _symmetry_equiv_pos_site_id
 _symmetry_equiv_pos_as_xyz
  1  'x, y, z'
loop_
 _atom_site_type_symbol
 _atom_site_label
 _atom_site_symmetry_multiplicity
 _atom_site_fract_x
 _atom_site_fract_y
 _atom_site_fract_z
 _atom_site_occupancy
  Tb  Tb0  1  0.670440  0.996388  0.250000  1
  Nd  Nd1  1  0.003609  0.331003  0.750000  1
  Nd  Nd2  1  0.330944  0.003013  0.750000  1
  Pa  Pa3  1  0.998144  0.669801  0.250000  1
  Ga  Ga4  1  0.130854  0.130188  0.250000  1
  Ga  Ga5  1  0.870036  0.871159  0.750000  1
  Ga  Ga6  1  0.998780  0.330845  0.081770  1
  Ga  Ga7  1  0.998683  0.665357  0.920787  1
  Ga  Ga8  1  0.998683  0.665357  0.579213  1
  Ga  Ga9  1  0.338901  0.002752  0.418024  1
  Ga  Ga10  1  0.998780  0.330845  0.418230  1
  Ga  Ga11  1  0.665608  0.999580  0.576663  1
  Ga  Ga12  1  0.665608  0.999580  0.923337  1
  Ga  Ga13  1  0.338901  0.002752  0.081976  1
  Ga  Ga14  1  0.333281  0.333200  0.563044  1
  Ga  Ga15  1  0.663829  0.667382  0.433883  1
  Ga  Ga16  1  0.663829  0.667382  0.066117  1
  Ga  Ga17  1  0.333281  0.333200  0.936956  1
  Ga  Ga18  1  0.339444  0.545208  0.250000  1
  Ga  Ga19  1  0.660960  0.455134  0.750000  1
  Ga  Ga20  1  0.545204  0.341160  0.250000  1
  Ga  Ga21  1  0.455140  0.662165  0.750000  1
  Ir  Ir22  1  0.673727  0.331926  0.003435  1
  Ir  Ir23  1  0.326327  0.670986  0.003523  1
  Ir  Ir24  1  0.326327  0.670986  0.496477  1
  Ir  Ir25  1  0.673727  0.331926  0.496565  1
  Ir  Ir26  1  0.998476  0.995363  0.004402  1
  Ir  Ir27  1  0.998476  0.995363  0.495598  1
