# generated using pymatgen
data_Tm5SiGeSe3
_symmetry_space_group_name_H-M   'P 1'
_cell_length_a   7.04367670
_cell_length_b   7.04367519
_cell_length_c   7.04576216
_cell_angle_alpha   99.11366776
_cell_angle_beta   99.78677838
_cell_angle_gamma   132.18502154
_symmetry_Int_Tables_number   1
_chemical_formula_structural   Tm5SiGeSe3
_chemical_formula_sum   'Tm5 Si1 Ge1 Se3'
_cell_volume   236.80444580
_cell_formula_units_Z   1
loop_
 _symmetry_equiv_pos_site_id
 _symmetry_equiv_pos_as_xyz
  1  'x, y, z'
loop_
 _atom_site_type_symbol
 _atom_site_label
 _atom_site_symmetry_multiplicity
 _atom_site_fract_x
 _atom_site_fract_y
 _atom_site_fract_z
 _atom_site_occupancy
  Tm  Tm0  1  0.394412  0.785885  0.180299  1
  Tm  Tm1  1  0.002520  0.994354  0.996875  1
  Tm  Tm2  1  0.596992  0.207965  0.804955  1
  Tm  Tm3  1  0.208114  0.412119  0.620233  1
  Tm  Tm4  1  0.797620  0.599684  0.397303  1
  Si  Si5  1  0.502890  0.501488  0.004380  1
  Ge  Ge6  1  0.096499  0.698073  0.794570  1
  Se  Se7  1  0.694923  0.899584  0.594508  1
  Se  Se8  1  0.300465  0.099041  0.399507  1
  Se  Se9  1  0.905564  0.301807  0.207371  1
