# generated using pymatgen
data_La8Gd12Si15Sn
_symmetry_space_group_name_H-M   'P 1'
_cell_length_a   7.56477700
_cell_length_b   7.94396521
_cell_length_c   14.98713500
_cell_angle_alpha   90.00000000
_cell_angle_beta   90.00000000
_cell_angle_gamma   90.11574614
_symmetry_Int_Tables_number   1
_chemical_formula_structural   La8Gd12Si15Sn
_chemical_formula_sum   'La8 Gd12 Si15 Sn1'
_cell_volume   900.63992835
_cell_formula_units_Z   1
loop_
 _symmetry_equiv_pos_site_id
 _symmetry_equiv_pos_as_xyz
  1  'x, y, z'
loop_
 _atom_site_type_symbol
 _atom_site_label
 _atom_site_symmetry_multiplicity
 _atom_site_fract_x
 _atom_site_fract_y
 _atom_site_fract_z
 _atom_site_occupancy
  La  La0  1  0.024019  0.179607  0.098767  1
  La  La1  1  0.977838  0.812110  0.904356  1
  La  La2  1  0.478013  0.680137  0.903473  1
  La  La3  1  0.977838  0.812110  0.595644  1
  La  La4  1  0.519573  0.319019  0.099508  1
  La  La5  1  0.024019  0.179607  0.401233  1
  La  La6  1  0.519573  0.319019  0.400492  1
  La  La7  1  0.478013  0.680137  0.596527  1
  Gd  Gd8  1  0.151540  0.515019  0.750000  1
  Gd  Gd9  1  0.845589  0.489840  0.250000  1
  Gd  Gd10  1  0.349023  0.011754  0.250000  1
  Gd  Gd11  1  0.643231  0.980748  0.750000  1
  Gd  Gd12  1  0.330148  0.182639  0.620440  1
  Gd  Gd13  1  0.679489  0.821959  0.376332  1
  Gd  Gd14  1  0.179589  0.681516  0.376074  1
  Gd  Gd15  1  0.679489  0.821959  0.123668  1
  Gd  Gd16  1  0.810820  0.327777  0.618582  1
  Gd  Gd17  1  0.330148  0.182639  0.879560  1
  Gd  Gd18  1  0.810820  0.327777  0.881418  1
  Gd  Gd19  1  0.179589  0.681516  0.123926  1
  Si  Si20  1  0.970993  0.893036  0.250000  1
  Si  Si21  1  0.472229  0.610302  0.250000  1
  Si  Si22  1  0.527267  0.393190  0.750000  1
  Si  Si23  1  0.276696  0.871397  0.750000  1
  Si  Si24  1  0.734929  0.118541  0.250000  1
  Si  Si25  1  0.230365  0.383859  0.250000  1
  Si  Si26  1  0.768045  0.617547  0.750000  1
  Si  Si27  1  0.142837  0.466815  0.537048  1
  Si  Si28  1  0.856993  0.528939  0.458011  1
  Si  Si29  1  0.357913  0.969416  0.460528  1
  Si  Si30  1  0.856993  0.528939  0.041989  1
  Si  Si31  1  0.645361  0.030689  0.537629  1
  Si  Si32  1  0.142837  0.466815  0.962952  1
  Si  Si33  1  0.645361  0.030689  0.962371  1
  Si  Si34  1  0.357913  0.969416  0.039472  1
  Sn  Sn35  1  0.024908  0.113520  0.750000  1
