# generated using pymatgen
data_CePr2(ErPb2)2
_symmetry_space_group_name_H-M   'P 1'
_cell_length_a   8.27810600
_cell_length_b   8.38551500
_cell_length_c   15.80661900
_cell_angle_alpha   90.00000000
_cell_angle_beta   90.00000000
_cell_angle_gamma   90.00000000
_symmetry_Int_Tables_number   1
_chemical_formula_structural   CePr2(ErPb2)2
_chemical_formula_sum   'Ce4 Pr8 Er8 Pb16'
_cell_volume   1097.23514186
_cell_formula_units_Z   4
loop_
 _symmetry_equiv_pos_site_id
 _symmetry_equiv_pos_as_xyz
  1  'x, y, z'
loop_
 _atom_site_type_symbol
 _atom_site_label
 _atom_site_symmetry_multiplicity
 _atom_site_fract_x
 _atom_site_fract_y
 _atom_site_fract_z
 _atom_site_occupancy
  Ce  Ce0  1  0.367054  0.841208  0.379639  1
  Ce  Ce1  1  0.867054  0.658792  0.120361  1
  Ce  Ce2  1  0.632946  0.158792  0.879639  1
  Ce  Ce3  1  0.132946  0.341208  0.620361  1
  Pr  Pr4  1  0.477730  0.680029  0.596651  1
  Pr  Pr5  1  0.977730  0.819971  0.903349  1
  Pr  Pr6  1  0.522270  0.319971  0.096651  1
  Pr  Pr7  1  0.022270  0.180029  0.403349  1
  Pr  Pr8  1  0.521833  0.322303  0.403213  1
  Pr  Pr9  1  0.021833  0.177697  0.096787  1
  Pr  Pr10  1  0.478167  0.677697  0.903213  1
  Pr  Pr11  1  0.978167  0.822303  0.596787  1
  Er  Er12  1  0.637614  0.156381  0.622148  1
  Er  Er13  1  0.137614  0.343619  0.877852  1
  Er  Er14  1  0.362386  0.843619  0.122148  1
  Er  Er15  1  0.862386  0.656381  0.377852  1
  Er  Er16  1  0.801474  0.495432  0.748544  1
  Er  Er17  1  0.301474  0.004568  0.751456  1
  Er  Er18  1  0.198526  0.504568  0.248544  1
  Er  Er19  1  0.698526  0.995432  0.251456  1
  Pb  Pb20  1  0.710299  0.960107  0.457196  1
  Pb  Pb21  1  0.210299  0.539893  0.042804  1
  Pb  Pb22  1  0.289701  0.039893  0.957196  1
  Pb  Pb23  1  0.789701  0.460107  0.542804  1
  Pb  Pb24  1  0.300056  0.039582  0.546066  1
  Pb  Pb25  1  0.800056  0.460418  0.953934  1
  Pb  Pb26  1  0.699944  0.960418  0.046066  1
  Pb  Pb27  1  0.199944  0.539582  0.453934  1
  Pb  Pb28  1  0.439786  0.373679  0.749874  1
  Pb  Pb29  1  0.939786  0.126321  0.750126  1
  Pb  Pb30  1  0.560214  0.626321  0.249874  1
  Pb  Pb31  1  0.060214  0.873679  0.250126  1
  Pb  Pb32  1  0.667229  0.849445  0.749585  1
  Pb  Pb33  1  0.167229  0.650555  0.750415  1
  Pb  Pb34  1  0.332771  0.150555  0.249585  1
  Pb  Pb35  1  0.832771  0.349445  0.250415  1
