# generated using pymatgen
data_Nb3GaPdN
_symmetry_space_group_name_H-M   'P 1'
_cell_length_a   7.06232400
_cell_length_b   7.06232400
_cell_length_c   7.06232400
_cell_angle_alpha   90.00000000
_cell_angle_beta   90.00000000
_cell_angle_gamma   90.00000000
_symmetry_Int_Tables_number   1
_chemical_formula_structural   Nb3GaPdN
_chemical_formula_sum   'Nb12 Ga4 Pd4 N4'
_cell_volume   352.24343998
_cell_formula_units_Z   4
loop_
 _symmetry_equiv_pos_site_id
 _symmetry_equiv_pos_as_xyz
  1  'x, y, z'
loop_
 _atom_site_type_symbol
 _atom_site_label
 _atom_site_symmetry_multiplicity
 _atom_site_fract_x
 _atom_site_fract_y
 _atom_site_fract_z
 _atom_site_occupancy
  Nb  Nb0  1  0.789921  0.955991  0.375872  1
  Nb  Nb1  1  0.710079  0.044009  0.875872  1
  Nb  Nb2  1  0.210079  0.455991  0.124128  1
  Nb  Nb3  1  0.289921  0.544009  0.624128  1
  Nb  Nb4  1  0.955991  0.375872  0.789921  1
  Nb  Nb5  1  0.044009  0.875872  0.710079  1
  Nb  Nb6  1  0.455991  0.124128  0.210079  1
  Nb  Nb7  1  0.544009  0.624128  0.289921  1
  Nb  Nb8  1  0.375872  0.789921  0.955991  1
  Nb  Nb9  1  0.875872  0.710079  0.044009  1
  Nb  Nb10  1  0.124128  0.210079  0.455991  1
  Nb  Nb11  1  0.624128  0.289921  0.544009  1
  Ga  Ga12  1  0.571830  0.428170  0.928170  1
  Ga  Ga13  1  0.428170  0.928170  0.571830  1
  Ga  Ga14  1  0.928170  0.571830  0.428170  1
  Ga  Ga15  1  0.071830  0.071830  0.071830  1
  Pd  Pd16  1  0.178437  0.821563  0.321563  1
  Pd  Pd17  1  0.321563  0.178437  0.821563  1
  Pd  Pd18  1  0.821563  0.321563  0.178437  1
  Pd  Pd19  1  0.678437  0.678437  0.678437  1
  N  N20  1  0.876199  0.123801  0.623801  1
  N  N21  1  0.623801  0.876199  0.123801  1
  N  N22  1  0.123801  0.623801  0.876199  1
  N  N23  1  0.376199  0.376199  0.376199  1
