# generated using pymatgen
data_Y8CdSn2HgAu8
_symmetry_space_group_name_H-M   'P 1'
_cell_length_a   8.03432900
_cell_length_b   8.03432900
_cell_length_c   7.40312800
_cell_angle_alpha   90.00000000
_cell_angle_beta   90.00000000
_cell_angle_gamma   90.00000000
_symmetry_Int_Tables_number   1
_chemical_formula_structural   Y8CdSn2HgAu8
_chemical_formula_sum   'Y8 Cd1 Sn2 Hg1 Au8'
_cell_volume   477.87518814
_cell_formula_units_Z   1
loop_
 _symmetry_equiv_pos_site_id
 _symmetry_equiv_pos_as_xyz
  1  'x, y, z'
loop_
 _atom_site_type_symbol
 _atom_site_label
 _atom_site_symmetry_multiplicity
 _atom_site_fract_x
 _atom_site_fract_y
 _atom_site_fract_z
 _atom_site_occupancy
  Y  Y0  1  0.832747  0.158135  0.500018  1
  Y  Y1  1  0.167253  0.841865  0.500018  1
  Y  Y2  1  0.341865  0.332747  0.999982  1
  Y  Y3  1  0.658135  0.667253  0.999982  1
  Y  Y4  1  0.673943  0.683681  0.499653  1
  Y  Y5  1  0.326057  0.316319  0.499653  1
  Y  Y6  1  0.183681  0.826057  0.000347  1
  Y  Y7  1  0.816319  0.173943  0.000347  1
  Cd  Cd8  1  0.000000  0.500000  0.750000  1
  Sn  Sn9  1  0.500000  0.000000  0.750000  1
  Sn  Sn10  1  0.000000  0.500000  0.250000  1
  Hg  Hg11  1  0.500000  0.000000  0.250000  1
  Au  Au12  1  0.629322  0.374739  0.266208  1
  Au  Au13  1  0.370678  0.625261  0.266208  1
  Au  Au14  1  0.121794  0.133470  0.766338  1
  Au  Au15  1  0.878206  0.866530  0.766338  1
  Au  Au16  1  0.366530  0.621794  0.733662  1
  Au  Au17  1  0.633470  0.378206  0.733662  1
  Au  Au18  1  0.874739  0.870678  0.233792  1
  Au  Au19  1  0.125261  0.129322  0.233792  1
