# generated using pymatgen
data_LiNdCu4
_symmetry_space_group_name_H-M   'P 1'
_cell_length_a   5.09270310
_cell_length_b   5.09270285
_cell_length_c   5.09270300
_cell_angle_alpha   59.99999253
_cell_angle_beta   59.99999416
_cell_angle_gamma   59.99999073
_symmetry_Int_Tables_number   1
_chemical_formula_structural   LiNdCu4
_chemical_formula_sum   'Li1 Nd1 Cu4'
_cell_volume   93.39636465
_cell_formula_units_Z   1
loop_
 _symmetry_equiv_pos_site_id
 _symmetry_equiv_pos_as_xyz
  1  'x, y, z'
loop_
 _atom_site_type_symbol
 _atom_site_label
 _atom_site_symmetry_multiplicity
 _atom_site_fract_x
 _atom_site_fract_y
 _atom_site_fract_z
 _atom_site_occupancy
  Li  Li0  1  0.750000  0.750000  0.750000  1
  Nd  Nd1  1  0.000000  0.000000  0.000000  1
  Cu  Cu2  1  0.377092  0.377092  0.377092  1
  Cu  Cu3  1  0.868723  0.377092  0.377092  1
  Cu  Cu4  1  0.377092  0.868723  0.377092  1
  Cu  Cu5  1  0.377092  0.377092  0.868723  1
