# generated using pymatgen
data_Tm2Lu2OsI4
_symmetry_space_group_name_H-M   'P 1'
_cell_length_a   11.58911431
_cell_length_b   11.58911733
_cell_length_c   6.12618900
_cell_angle_alpha   90.01329917
_cell_angle_beta   90.01331401
_cell_angle_gamma   90.00351699
_symmetry_Int_Tables_number   1
_chemical_formula_structural   Tm2Lu2OsI4
_chemical_formula_sum   'Tm4 Lu4 Os2 I8'
_cell_volume   822.79372993
_cell_formula_units_Z   2
loop_
 _symmetry_equiv_pos_site_id
 _symmetry_equiv_pos_as_xyz
  1  'x, y, z'
loop_
 _atom_site_type_symbol
 _atom_site_label
 _atom_site_symmetry_multiplicity
 _atom_site_fract_x
 _atom_site_fract_y
 _atom_site_fract_z
 _atom_site_occupancy
  Tm  Tm0  1  0.922140  0.810233  0.001860  1
  Tm  Tm1  1  0.921583  0.189576  0.501928  1
  Tm  Tm2  1  0.189576  0.921583  0.001928  1
  Tm  Tm3  1  0.810233  0.922140  0.501860  1
  Lu  Lu4  1  0.813253  0.077078  0.002798  1
  Lu  Lu5  1  0.077078  0.813253  0.502798  1
  Lu  Lu6  1  0.077663  0.186566  0.002998  1
  Lu  Lu7  1  0.186566  0.077663  0.502998  1
  Os  Os8  1  0.000005  0.999629  0.252687  1
  Os  Os9  1  0.999629  0.000005  0.752687  1
  I  I10  1  0.655648  0.143873  0.492514  1
  I  I11  1  0.858255  0.655753  0.501386  1
  I  I12  1  0.343224  0.144126  0.993294  1
  I  I13  1  0.144126  0.343224  0.493294  1
  I  I14  1  0.655753  0.858255  0.001386  1
  I  I15  1  0.343266  0.858127  0.500534  1
  I  I16  1  0.143873  0.655648  0.992514  1
  I  I17  1  0.858127  0.343266  0.000534  1
