# generated using pymatgen
data_Nd9Lu(InSb)4
_symmetry_space_group_name_H-M   'P 1'
_cell_length_a   9.04937916
_cell_length_b   9.04937777
_cell_length_c   8.32113000
_cell_angle_alpha   90.09393992
_cell_angle_beta   90.09394624
_cell_angle_gamma   125.16507734
_symmetry_Int_Tables_number   1
_chemical_formula_structural   Nd9Lu(InSb)4
_chemical_formula_sum   'Nd9 Lu1 In4 Sb4'
_cell_volume   557.06098435
_cell_formula_units_Z   1
loop_
 _symmetry_equiv_pos_site_id
 _symmetry_equiv_pos_as_xyz
  1  'x, y, z'
loop_
 _atom_site_type_symbol
 _atom_site_label
 _atom_site_symmetry_multiplicity
 _atom_site_fract_x
 _atom_site_fract_y
 _atom_site_fract_z
 _atom_site_occupancy
  Nd  Nd0  1  0.033457  0.309719  0.331493  1
  Nd  Nd1  1  0.966543  0.690281  0.668507  1
  Nd  Nd2  1  0.465995  0.187587  0.832702  1
  Nd  Nd3  1  0.812413  0.534005  0.167298  1
  Nd  Nd4  1  0.534005  0.812413  0.167298  1
  Nd  Nd5  1  0.187587  0.465995  0.832702  1
  Nd  Nd6  1  0.690281  0.966543  0.668507  1
  Nd  Nd7  1  0.309719  0.033457  0.331493  1
  Nd  Nd8  1  0.500000  0.500000  0.500000  1
  Lu  Lu9  1  0.000000  0.000000  0.000000  1
  In  In10  1  0.369660  0.369660  0.123159  1
  In  In11  1  0.630340  0.630340  0.876841  1
  In  In12  1  0.123811  0.123811  0.630660  1
  In  In13  1  0.876189  0.876189  0.369340  1
  Sb  Sb14  1  0.800604  0.199396  0.000000  1
  Sb  Sb15  1  0.199396  0.800604  0.000000  1
  Sb  Sb16  1  0.702726  0.297274  0.500000  1
  Sb  Sb17  1  0.297274  0.702726  0.500000  1
