# generated using pymatgen
data_Ho4Lu(OsO6)2
_symmetry_space_group_name_H-M   'P 1'
_cell_length_a   6.82629186
_cell_length_b   6.82629326
_cell_length_c   7.41293997
_cell_angle_alpha   73.99193431
_cell_angle_beta   73.99193228
_cell_angle_gamma   48.78694106
_symmetry_Int_Tables_number   1
_chemical_formula_structural   Ho4Lu(OsO6)2
_chemical_formula_sum   'Ho4 Lu1 Os2 O12'
_cell_volume   247.65552135
_cell_formula_units_Z   1
loop_
 _symmetry_equiv_pos_site_id
 _symmetry_equiv_pos_as_xyz
  1  'x, y, z'
loop_
 _atom_site_type_symbol
 _atom_site_label
 _atom_site_symmetry_multiplicity
 _atom_site_fract_x
 _atom_site_fract_y
 _atom_site_fract_z
 _atom_site_occupancy
  Ho  Ho0  1  0.699579  0.699579  0.641053  1
  Ho  Ho1  1  0.300421  0.300421  0.358947  1
  Ho  Ho2  1  0.687031  0.687031  0.173136  1
  Ho  Ho3  1  0.312969  0.312969  0.826864  1
  Lu  Lu4  1  0.000000  0.000000  0.500000  1
  Os  Os5  1  0.780508  0.219492  0.000000  1
  Os  Os6  1  0.219492  0.780508  0.000000  1
  O  O7  1  0.001513  0.001513  0.206065  1
  O  O8  1  0.998487  0.998487  0.793935  1
  O  O9  1  0.578517  0.086544  0.087711  1
  O  O10  1  0.421483  0.913456  0.912289  1
  O  O11  1  0.913456  0.421483  0.912289  1
  O  O12  1  0.086544  0.578517  0.087711  1
  O  O13  1  0.498878  0.498878  0.176948  1
  O  O14  1  0.501122  0.501122  0.823052  1
  O  O15  1  0.399495  0.900884  0.429558  1
  O  O16  1  0.600505  0.099116  0.570442  1
  O  O17  1  0.099116  0.600505  0.570442  1
  O  O18  1  0.900884  0.399495  0.429558  1
