# generated using pymatgen
data_La7Nd9Cd2(HgIr2)2
_symmetry_space_group_name_H-M   'P 1'
_cell_length_a   10.00942428
_cell_length_b   10.04528268
_cell_length_c   10.08195998
_cell_angle_alpha   59.65443264
_cell_angle_beta   60.03973980
_cell_angle_gamma   60.14910986
_symmetry_Int_Tables_number   1
_chemical_formula_structural   La7Nd9Cd2(HgIr2)2
_chemical_formula_sum   'La7 Nd9 Cd2 Hg2 Ir4'
_cell_volume   715.92665554
_cell_formula_units_Z   1
loop_
 _symmetry_equiv_pos_site_id
 _symmetry_equiv_pos_as_xyz
  1  'x, y, z'
loop_
 _atom_site_type_symbol
 _atom_site_label
 _atom_site_symmetry_multiplicity
 _atom_site_fract_x
 _atom_site_fract_y
 _atom_site_fract_z
 _atom_site_occupancy
  La  La0  1  0.346739  0.347477  0.348864  1
  La  La1  1  0.349679  0.346053  0.955391  1
  La  La2  1  0.352324  0.951795  0.347385  1
  La  La3  1  0.954117  0.350320  0.349601  1
  La  La4  1  0.810571  0.189080  0.188043  1
  La  La5  1  0.185925  0.812019  0.810207  1
  La  La6  1  0.188547  0.810419  0.190076  1
  Nd  Nd7  1  0.807268  0.190287  0.808506  1
  Nd  Nd8  1  0.189850  0.192536  0.807838  1
  Nd  Nd9  1  0.803453  0.806221  0.192225  1
  Nd  Nd10  1  0.936495  0.562906  0.565300  1
  Nd  Nd11  1  0.561969  0.937008  0.935580  1
  Nd  Nd12  1  0.561517  0.938414  0.563522  1
  Nd  Nd13  1  0.937238  0.561333  0.937632  1
  Nd  Nd14  1  0.562073  0.561166  0.938966  1
  Nd  Nd15  1  0.936744  0.938466  0.562751  1
  Cd  Cd16  1  0.579294  0.258839  0.582307  1
  Cd  Cd17  1  0.258424  0.577992  0.582025  1
  Hg  Hg18  1  0.585633  0.583406  0.586098  1
  Hg  Hg19  1  0.585770  0.585052  0.244094  1
  Ir  Ir20  1  0.139101  0.139547  0.144754  1
  Ir  Ir21  1  0.145160  0.138055  0.575698  1
  Ir  Ir22  1  0.145603  0.577431  0.138911  1
  Ir  Ir23  1  0.576503  0.144177  0.144222  1
