# generated using pymatgen
data_Er4SiI6
_symmetry_space_group_name_H-M   'P 1'
_cell_length_a   4.16663800
_cell_length_b   13.89885000
_cell_length_c   14.68530600
_cell_angle_alpha   90.00000000
_cell_angle_beta   90.00000000
_cell_angle_gamma   90.00000000
_symmetry_Int_Tables_number   1
_chemical_formula_structural   Er4SiI6
_chemical_formula_sum   'Er8 Si2 I12'
_cell_volume   850.44775429
_cell_formula_units_Z   2
loop_
 _symmetry_equiv_pos_site_id
 _symmetry_equiv_pos_as_xyz
  1  'x, y, z'
loop_
 _atom_site_type_symbol
 _atom_site_label
 _atom_site_symmetry_multiplicity
 _atom_site_fract_x
 _atom_site_fract_y
 _atom_site_fract_z
 _atom_site_occupancy
  Er  Er0  1  0.500000  0.113740  0.348033  1
  Er  Er1  1  0.500000  0.886260  0.651967  1
  Er  Er2  1  0.500000  0.613740  0.151967  1
  Er  Er3  1  0.500000  0.386260  0.848033  1
  Er  Er4  1  0.000000  0.110835  0.574139  1
  Er  Er5  1  0.000000  0.889165  0.425861  1
  Er  Er6  1  0.000000  0.610835  0.925861  1
  Er  Er7  1  0.000000  0.389165  0.074139  1
  Si  Si8  1  0.500000  0.000000  0.500000  1
  Si  Si9  1  0.500000  0.500000  0.000000  1
  I  I10  1  0.500000  0.245496  0.161062  1
  I  I11  1  0.500000  0.754504  0.838938  1
  I  I12  1  0.500000  0.745496  0.338938  1
  I  I13  1  0.500000  0.254504  0.661062  1
  I  I14  1  0.000000  0.258631  0.413706  1
  I  I15  1  0.000000  0.741369  0.586294  1
  I  I16  1  0.000000  0.758631  0.086294  1
  I  I17  1  0.000000  0.241369  0.913706  1
  I  I18  1  0.000000  0.999418  0.240349  1
  I  I19  1  0.000000  0.000582  0.759651  1
  I  I20  1  0.000000  0.499418  0.259651  1
  I  I21  1  0.000000  0.500582  0.740349  1
