# generated using pymatgen
data_Tm10ZnIn8Co3
_symmetry_space_group_name_H-M   'P 1'
_cell_length_a   3.53870800
_cell_length_b   7.97453528
_cell_length_c   17.89131148
_cell_angle_alpha   90.18466441
_cell_angle_beta   90.00000000
_cell_angle_gamma   90.00000000
_symmetry_Int_Tables_number   1
_chemical_formula_structural   Tm10ZnIn8Co3
_chemical_formula_sum   'Tm10 Zn1 In8 Co3'
_cell_volume   504.88216874
_cell_formula_units_Z   1
loop_
 _symmetry_equiv_pos_site_id
 _symmetry_equiv_pos_as_xyz
  1  'x, y, z'
loop_
 _atom_site_type_symbol
 _atom_site_label
 _atom_site_symmetry_multiplicity
 _atom_site_fract_x
 _atom_site_fract_y
 _atom_site_fract_z
 _atom_site_occupancy
  Tm  Tm0  1  0.000000  0.114914  0.413093  1
  Tm  Tm1  1  0.000000  0.883648  0.591611  1
  Tm  Tm2  1  0.000000  0.385423  0.907184  1
  Tm  Tm3  1  0.000000  0.624774  0.079631  1
  Tm  Tm4  1  0.000000  0.218718  0.225446  1
  Tm  Tm5  1  0.000000  0.753375  0.777035  1
  Tm  Tm6  1  0.000000  0.252106  0.721690  1
  Tm  Tm7  1  0.000000  0.767609  0.283492  1
  Tm  Tm8  1  0.000000  0.000199  0.997644  1
  Tm  Tm9  1  0.000000  0.499933  0.501379  1
  Zn  Zn10  1  0.500000  0.523939  0.199840  1
  In  In11  1  0.500000  0.422810  0.351239  1
  In  In12  1  0.500000  0.569477  0.652071  1
  In  In13  1  0.500000  0.070442  0.847236  1
  In  In14  1  0.500000  0.925988  0.150426  1
  In  In15  1  0.500000  0.295746  0.066490  1
  In  In16  1  0.500000  0.705566  0.927572  1
  In  In17  1  0.500000  0.203601  0.569114  1
  In  In18  1  0.500000  0.796063  0.433597  1
  Co  Co19  1  0.500000  0.023849  0.305559  1
  Co  Co20  1  0.500000  0.980892  0.695728  1
  Co  Co21  1  0.500000  0.480928  0.802923  1
