# generated using pymatgen
data_CePrIN2
_symmetry_space_group_name_H-M   'P 1'
_cell_length_a   4.04288000
_cell_length_b   4.04288069
_cell_length_c   8.01480100
_cell_angle_alpha   90.00000000
_cell_angle_beta   90.00000000
_cell_angle_gamma   120.00001075
_symmetry_Int_Tables_number   1
_chemical_formula_structural   CePrIN2
_chemical_formula_sum   'Ce1 Pr1 I1 N2'
_cell_volume   113.45015769
_cell_formula_units_Z   1
loop_
 _symmetry_equiv_pos_site_id
 _symmetry_equiv_pos_as_xyz
  1  'x, y, z'
loop_
 _atom_site_type_symbol
 _atom_site_label
 _atom_site_symmetry_multiplicity
 _atom_site_fract_x
 _atom_site_fract_y
 _atom_site_fract_z
 _atom_site_occupancy
  Ce  Ce0  1  0.333333  0.666667  0.336315  1
  Pr  Pr1  1  0.666667  0.333333  0.681135  1
  I  I2  1  0.000000  0.000000  0.003105  1
  N  N3  1  0.666667  0.333333  0.373232  1
  N  N4  1  0.333333  0.666667  0.606212  1
