# generated using pymatgen
data_Ca2Dy2ErCuPb3
_symmetry_space_group_name_H-M   'P 1'
_cell_length_a   9.21988231
_cell_length_b   9.21988372
_cell_length_c   6.81488000
_cell_angle_alpha   90.00000000
_cell_angle_beta   90.00000000
_cell_angle_gamma   119.97041029
_symmetry_Int_Tables_number   1
_chemical_formula_structural   Ca2Dy2ErCuPb3
_chemical_formula_sum   'Ca4 Dy4 Er2 Cu2 Pb6'
_cell_volume   501.84439735
_cell_formula_units_Z   2
loop_
 _symmetry_equiv_pos_site_id
 _symmetry_equiv_pos_as_xyz
  1  'x, y, z'
loop_
 _atom_site_type_symbol
 _atom_site_label
 _atom_site_symmetry_multiplicity
 _atom_site_fract_x
 _atom_site_fract_y
 _atom_site_fract_z
 _atom_site_occupancy
  Ca  Ca0  1  0.333426  0.666574  0.000000  1
  Ca  Ca1  1  0.666574  0.333426  0.000000  1
  Ca  Ca2  1  0.666574  0.333426  0.500000  1
  Ca  Ca3  1  0.333426  0.666574  0.500000  1
  Dy  Dy4  1  0.257526  0.000208  0.250000  1
  Dy  Dy5  1  0.742474  0.999792  0.750000  1
  Dy  Dy6  1  0.000208  0.257526  0.250000  1
  Dy  Dy7  1  0.999792  0.742474  0.750000  1
  Er  Er8  1  0.743578  0.743578  0.250000  1
  Er  Er9  1  0.256422  0.256422  0.750000  1
  Cu  Cu10  1  0.000000  0.000000  0.000000  1
  Cu  Cu11  1  0.000000  0.000000  0.500000  1
  Pb  Pb12  1  0.614264  0.999389  0.250000  1
  Pb  Pb13  1  0.385736  0.000611  0.750000  1
  Pb  Pb14  1  0.999389  0.614264  0.250000  1
  Pb  Pb15  1  0.000611  0.385736  0.750000  1
  Pb  Pb16  1  0.386853  0.386853  0.250000  1
  Pb  Pb17  1  0.613147  0.613147  0.750000  1
