# generated using pymatgen
data_TbCe3Ho(SiB4)2
_symmetry_space_group_name_H-M   'P 1'
_cell_length_a   7.30262603
_cell_length_b   7.30262592
_cell_length_c   8.24038000
_cell_angle_alpha   90.00000000
_cell_angle_beta   90.00000000
_cell_angle_gamma   90.07360255
_symmetry_Int_Tables_number   1
_chemical_formula_structural   TbCe3Ho(SiB4)2
_chemical_formula_sum   'Tb2 Ce6 Ho2 Si4 B16'
_cell_volume   439.44547424
_cell_formula_units_Z   2
loop_
 _symmetry_equiv_pos_site_id
 _symmetry_equiv_pos_as_xyz
  1  'x, y, z'
loop_
 _atom_site_type_symbol
 _atom_site_label
 _atom_site_symmetry_multiplicity
 _atom_site_fract_x
 _atom_site_fract_y
 _atom_site_fract_z
 _atom_site_occupancy
  Tb  Tb0  1  0.181169  0.318831  0.779555  1
  Tb  Tb1  1  0.181169  0.318831  0.220445  1
  Ce  Ce2  1  0.682359  0.182659  0.227732  1
  Ce  Ce3  1  0.317341  0.817641  0.772268  1
  Ce  Ce4  1  0.317341  0.817641  0.227732  1
  Ce  Ce5  1  0.818295  0.681705  0.227783  1
  Ce  Ce6  1  0.818295  0.681705  0.772217  1
  Ce  Ce7  1  0.682359  0.182659  0.772268  1
  Ho  Ho8  1  0.001658  0.000700  0.500000  1
  Ho  Ho9  1  0.499300  0.498342  0.500000  1
  Si  Si10  1  0.116312  0.613992  0.500000  1
  Si  Si11  1  0.886008  0.383688  0.500000  1
  Si  Si12  1  0.383150  0.116850  0.500000  1
  Si  Si13  1  0.614034  0.885966  0.500000  1
  B  B14  1  0.173205  0.038880  0.000000  1
  B  B15  1  0.827853  0.962061  0.000000  1
  B  B16  1  0.960480  0.172645  0.000000  1
  B  B17  1  0.327355  0.539520  0.000000  1
  B  B18  1  0.039708  0.827914  0.000000  1
  B  B19  1  0.672086  0.460292  0.000000  1
  B  B20  1  0.537939  0.672147  0.000000  1
  B  B21  1  0.461120  0.326795  0.000000  1
  B  B22  1  0.091514  0.591068  0.000000  1
  B  B23  1  0.908932  0.408486  0.000000  1
  B  B24  1  0.409484  0.090516  0.000000  1
  B  B25  1  0.590694  0.909306  0.000000  1
  B  B26  1  0.000428  0.000009  0.159297  1
  B  B27  1  0.000428  0.000009  0.840703  1
  B  B28  1  0.499991  0.499572  0.840703  1
  B  B29  1  0.499991  0.499572  0.159297  1
