# generated using pymatgen
data_LaTh2(SnRh)3
_symmetry_space_group_name_H-M   'P 1'
_cell_length_a   7.60511400
_cell_length_b   7.63752718
_cell_length_c   4.12322800
_cell_angle_alpha   90.00000000
_cell_angle_beta   90.00000000
_cell_angle_gamma   119.85971074
_symmetry_Int_Tables_number   1
_chemical_formula_structural   LaTh2(SnRh)3
_chemical_formula_sum   'La1 Th2 Sn3 Rh3'
_cell_volume   207.70104635
_cell_formula_units_Z   1
loop_
 _symmetry_equiv_pos_site_id
 _symmetry_equiv_pos_as_xyz
  1  'x, y, z'
loop_
 _atom_site_type_symbol
 _atom_site_label
 _atom_site_symmetry_multiplicity
 _atom_site_fract_x
 _atom_site_fract_y
 _atom_site_fract_z
 _atom_site_occupancy
  La  La0  1  0.587167  0.000000  0.000000  1
  Th  Th1  1  0.999647  0.586305  0.000000  1
  Th  Th2  1  0.413343  0.413695  0.000000  1
  Sn  Sn3  1  0.751145  0.754676  0.500000  1
  Sn  Sn4  1  0.996469  0.245324  0.500000  1
  Sn  Sn5  1  0.253755  0.000000  0.500000  1
  Rh  Rh6  1  0.319285  0.649873  0.500000  1
  Rh  Rh7  1  0.669413  0.350127  0.500000  1
  Rh  Rh8  1  0.009776  0.000000  0.000000  1
