# generated using pymatgen
data_Tm20GaBi9Os2
_symmetry_space_group_name_H-M   'P 1'
_cell_length_a   7.90291355
_cell_length_b   9.32029800
_cell_length_c   12.05111550
_cell_angle_alpha   90.00000000
_cell_angle_beta   89.94179077
_cell_angle_gamma   90.00000000
_symmetry_Int_Tables_number   1
_chemical_formula_structural   Tm20GaBi9Os2
_chemical_formula_sum   'Tm20 Ga1 Bi9 Os2'
_cell_volume   887.65469405
_cell_formula_units_Z   1
loop_
 _symmetry_equiv_pos_site_id
 _symmetry_equiv_pos_as_xyz
  1  'x, y, z'
loop_
 _atom_site_type_symbol
 _atom_site_label
 _atom_site_symmetry_multiplicity
 _atom_site_fract_x
 _atom_site_fract_y
 _atom_site_fract_z
 _atom_site_occupancy
  Tm  Tm0  1  0.678296  0.928860  0.436537  1
  Tm  Tm1  1  0.822635  0.561419  0.938212  1
  Tm  Tm2  1  0.320146  0.472340  0.568873  1
  Tm  Tm3  1  0.173746  0.034133  0.061965  1
  Tm  Tm4  1  0.320146  0.027660  0.568873  1
  Tm  Tm5  1  0.173746  0.465867  0.061965  1
  Tm  Tm6  1  0.678296  0.571140  0.436537  1
  Tm  Tm7  1  0.822635  0.938581  0.938212  1
  Tm  Tm8  1  0.335685  0.750000  0.289684  1
  Tm  Tm9  1  0.163786  0.750000  0.790428  1
  Tm  Tm10  1  0.684375  0.250000  0.734037  1
  Tm  Tm11  1  0.835308  0.250000  0.212627  1
  Tm  Tm12  1  0.055025  0.750000  0.502602  1
  Tm  Tm13  1  0.444041  0.750000  0.004123  1
  Tm  Tm14  1  0.986157  0.250000  0.505758  1
  Tm  Tm15  1  0.531679  0.250000  0.005515  1
  Tm  Tm16  1  0.878551  0.750000  0.193968  1
  Tm  Tm17  1  0.620072  0.750000  0.695640  1
  Tm  Tm18  1  0.142762  0.250000  0.788848  1
  Tm  Tm19  1  0.342728  0.250000  0.281168  1
  Ga  Ga20  1  0.905188  0.250000  0.970845  1
  Bi  Bi21  1  0.594855  0.250000  0.474791  1
  Bi  Bi22  1  0.569421  0.992939  0.175109  1
  Bi  Bi23  1  0.928631  0.509637  0.672838  1
  Bi  Bi24  1  0.433685  0.487046  0.830004  1
  Bi  Bi25  1  0.064390  0.011536  0.328954  1
  Bi  Bi26  1  0.433685  0.012954  0.830004  1
  Bi  Bi27  1  0.064390  0.488464  0.328954  1
  Bi  Bi28  1  0.569421  0.507061  0.175109  1
  Bi  Bi29  1  0.928631  0.990363  0.672838  1
  Os  Os30  1  0.082256  0.750000  0.012339  1
  Os  Os31  1  0.415632  0.750000  0.512645  1
