# generated using pymatgen
data_CoSb2Cl2O3
_symmetry_space_group_name_H-M   'P 1'
_cell_length_a   8.26997064
_cell_length_b   9.06881805
_cell_length_c   10.23311635
_cell_angle_alpha   66.07623038
_cell_angle_beta   83.47500607
_cell_angle_gamma   91.75439345
_symmetry_Int_Tables_number   1
_chemical_formula_structural   CoSb2Cl2O3
_chemical_formula_sum   'Co4 Sb8 Cl8 O12'
_cell_volume   694.50100204
_cell_formula_units_Z   4
loop_
 _symmetry_equiv_pos_site_id
 _symmetry_equiv_pos_as_xyz
  1  'x, y, z'
loop_
 _atom_site_type_symbol
 _atom_site_label
 _atom_site_symmetry_multiplicity
 _atom_site_fract_x
 _atom_site_fract_y
 _atom_site_fract_z
 _atom_site_occupancy
  Co  Co0  1  0.507680  0.614938  0.096403  1
  Co  Co1  1  0.492322  0.885062  0.403595  1
  Co  Co2  1  0.507676  0.114931  0.596406  1
  Co  Co3  1  0.492324  0.385069  0.903593  1
  Sb  Sb4  1  0.691119  0.027415  0.935679  1
  Sb  Sb5  1  0.691118  0.527414  0.435682  1
  Sb  Sb6  1  0.308881  0.972587  0.064318  1
  Sb  Sb7  1  0.308880  0.472585  0.564321  1
  Sb  Sb8  1  0.701131  0.788226  0.732045  1
  Sb  Sb9  1  0.701133  0.288235  0.232043  1
  Sb  Sb10  1  0.298867  0.211765  0.267957  1
  Sb  Sb11  1  0.298868  0.711775  0.767955  1
  Cl  Cl12  1  0.766099  0.930819  0.291469  1
  Cl  Cl13  1  0.766097  0.430856  0.791442  1
  Cl  Cl14  1  0.233905  0.069146  0.708559  1
  Cl  Cl15  1  0.233903  0.569180  0.208530  1
  Cl  Cl16  1  0.846828  0.234480  0.462771  1
  Cl  Cl17  1  0.846815  0.734477  0.962780  1
  Cl  Cl18  1  0.153181  0.765520  0.537221  1
  Cl  Cl19  1  0.153172  0.265516  0.037230  1
  O  O20  1  0.484084  0.651384  0.433423  1
  O  O21  1  0.484090  0.151393  0.933417  1
  O  O22  1  0.515910  0.348608  0.566582  1
  O  O23  1  0.515915  0.848616  0.066577  1
  O  O24  1  0.359395  0.007903  0.239812  1
  O  O25  1  0.359402  0.507908  0.739809  1
  O  O26  1  0.640597  0.992092  0.760191  1
  O  O27  1  0.640605  0.492097  0.260188  1
  O  O28  1  0.511751  0.147926  0.383338  1
  O  O29  1  0.511751  0.647923  0.883336  1
  O  O30  1  0.488248  0.852079  0.616662  1
  O  O31  1  0.488248  0.352074  0.116661  1
