# generated using pymatgen
data_PrY2Er(WN3)4
_symmetry_space_group_name_H-M   'P 1'
_cell_length_a   7.32457312
_cell_length_b   7.32457350
_cell_length_c   6.26827330
_cell_angle_alpha   74.79224164
_cell_angle_beta   74.79225354
_cell_angle_gamma   82.63800281
_symmetry_Int_Tables_number   1
_chemical_formula_structural   PrY2Er(WN3)4
_chemical_formula_sum   'Pr1 Y2 Er1 W4 N12'
_cell_volume   312.51216445
_cell_formula_units_Z   1
loop_
 _symmetry_equiv_pos_site_id
 _symmetry_equiv_pos_as_xyz
  1  'x, y, z'
loop_
 _atom_site_type_symbol
 _atom_site_label
 _atom_site_symmetry_multiplicity
 _atom_site_fract_x
 _atom_site_fract_y
 _atom_site_fract_z
 _atom_site_occupancy
  Pr  Pr0  1  0.700985  0.299015  0.750000  1
  Y  Y1  1  0.294312  0.705688  0.250000  1
  Y  Y2  1  0.915068  0.084932  0.250000  1
  Er  Er3  1  0.091432  0.908568  0.750000  1
  W  W4  1  0.379216  0.200269  0.243571  1
  W  W5  1  0.617735  0.800450  0.760928  1
  W  W6  1  0.799731  0.620784  0.256429  1
  W  W7  1  0.199550  0.382265  0.739072  1
  N  N8  1  0.621776  0.110579  0.166874  1
  N  N9  1  0.358990  0.359589  0.453382  1
  N  N10  1  0.008172  0.212304  0.849484  1
  N  N11  1  0.375797  0.893955  0.841514  1
  N  N12  1  0.787696  0.991828  0.650516  1
  N  N13  1  0.106045  0.624203  0.658486  1
  N  N14  1  0.889421  0.378224  0.333126  1
  N  N15  1  0.641698  0.649967  0.540678  1
  N  N16  1  0.640411  0.641010  0.046618  1
  N  N17  1  0.350033  0.358302  0.959322  1
  N  N18  1  0.001845  0.779915  0.146502  1
  N  N19  1  0.220085  0.998155  0.353498  1
