# generated using pymatgen
data_PrBP3N7
_symmetry_space_group_name_H-M   'P 1'
_cell_length_a   7.53531245
_cell_length_b   7.53531267
_cell_length_c   5.23741188
_cell_angle_alpha   77.86805045
_cell_angle_beta   77.86803721
_cell_angle_gamma   68.46196078
_symmetry_Int_Tables_number   1
_chemical_formula_structural   PrBP3N7
_chemical_formula_sum   'Pr2 B2 P6 N14'
_cell_volume   267.53367837
_cell_formula_units_Z   2
loop_
 _symmetry_equiv_pos_site_id
 _symmetry_equiv_pos_as_xyz
  1  'x, y, z'
loop_
 _atom_site_type_symbol
 _atom_site_label
 _atom_site_symmetry_multiplicity
 _atom_site_fract_x
 _atom_site_fract_y
 _atom_site_fract_z
 _atom_site_occupancy
  Pr  Pr0  1  0.785732  0.214268  0.250000  1
  Pr  Pr1  1  0.204725  0.795275  0.750000  1
  B  B2  1  0.299513  0.493272  0.330717  1
  B  B3  1  0.506728  0.700487  0.169283  1
  P  P4  1  0.099136  0.263888  0.701702  1
  P  P5  1  0.736112  0.900864  0.798298  1
  P  P6  1  0.913779  0.729394  0.298231  1
  P  P7  1  0.270606  0.086221  0.201769  1
  P  P8  1  0.447603  0.301317  0.801391  1
  P  P9  1  0.698683  0.552397  0.698609  1
  N  N10  1  0.260447  0.382003  0.619022  1
  N  N11  1  0.617997  0.739553  0.880978  1
  N  N12  1  0.761408  0.613169  0.388614  1
  N  N13  1  0.386831  0.238592  0.111386  1
  N  N14  1  0.882799  0.389026  0.820722  1
  N  N15  1  0.610974  0.117201  0.679278  1
  N  N16  1  0.133380  0.615679  0.198532  1
  N  N17  1  0.384321  0.866620  0.301468  1
  N  N18  1  0.907995  0.838828  0.547919  1
  N  N19  1  0.161172  0.092005  0.952081  1
  N  N20  1  0.481999  0.518001  0.250000  1
  N  N21  1  0.514850  0.485150  0.750000  1
  N  N22  1  0.836801  0.903591  0.045978  1
  N  N23  1  0.096409  0.163199  0.454022  1
