# generated using pymatgen
data_Ce3Ga3IrPd2
_symmetry_space_group_name_H-M   'P 1'
_cell_length_a   7.16249100
_cell_length_b   7.16249161
_cell_length_c   4.00208800
_cell_angle_alpha   90.00000000
_cell_angle_beta   90.00000000
_cell_angle_gamma   120.00001103
_symmetry_Int_Tables_number   1
_chemical_formula_structural   Ce3Ga3IrPd2
_chemical_formula_sum   'Ce3 Ga3 Ir1 Pd2'
_cell_volume   177.80559914
_cell_formula_units_Z   1
loop_
 _symmetry_equiv_pos_site_id
 _symmetry_equiv_pos_as_xyz
  1  'x, y, z'
loop_
 _atom_site_type_symbol
 _atom_site_label
 _atom_site_symmetry_multiplicity
 _atom_site_fract_x
 _atom_site_fract_y
 _atom_site_fract_z
 _atom_site_occupancy
  Ce  Ce0  1  0.415418  0.422147  0.500000  1
  Ce  Ce1  1  0.577853  0.993271  0.500000  1
  Ce  Ce2  1  0.006729  0.584582  0.500000  1
  Ga  Ga3  1  0.756198  0.756986  0.000000  1
  Ga  Ga4  1  0.243014  0.999212  0.000000  1
  Ga  Ga5  1  0.000788  0.243802  0.000000  1
  Ir  Ir6  1  0.333333  0.666667  0.000000  1
  Pd  Pd7  1  0.666667  0.333333  0.000000  1
  Pd  Pd8  1  0.000000  0.000000  0.500000  1
