# generated using pymatgen
data_Al2V6Zn2CN
_symmetry_space_group_name_H-M   'P 1'
_cell_length_a   6.62098123
_cell_length_b   6.62080123
_cell_length_c   6.61957600
_cell_angle_alpha   90.00000000
_cell_angle_beta   90.00000000
_cell_angle_gamma   89.87051336
_symmetry_Int_Tables_number   1
_chemical_formula_structural   Al2V6Zn2CN
_chemical_formula_sum   'Al4 V12 Zn4 C2 N2'
_cell_volume   290.17632060
_cell_formula_units_Z   2
loop_
 _symmetry_equiv_pos_site_id
 _symmetry_equiv_pos_as_xyz
  1  'x, y, z'
loop_
 _atom_site_type_symbol
 _atom_site_label
 _atom_site_symmetry_multiplicity
 _atom_site_fract_x
 _atom_site_fract_y
 _atom_site_fract_z
 _atom_site_occupancy
  Al  Al0  1  0.178358  0.823134  0.322342  1
  Al  Al1  1  0.321642  0.176866  0.822342  1
  Al  Al2  1  0.822192  0.320595  0.178528  1
  Al  Al3  1  0.677808  0.679405  0.678528  1
  V  V4  1  0.789949  0.961071  0.375782  1
  V  V5  1  0.710051  0.038929  0.875782  1
  V  V6  1  0.210313  0.461746  0.124053  1
  V  V7  1  0.289687  0.538254  0.624053  1
  V  V8  1  0.963104  0.377871  0.790575  1
  V  V9  1  0.039900  0.873775  0.710784  1
  V  V10  1  0.460100  0.126225  0.210784  1
  V  V11  1  0.536896  0.622129  0.290575  1
  V  V12  1  0.373821  0.788228  0.960654  1
  V  V13  1  0.877954  0.708918  0.037807  1
  V  V14  1  0.126179  0.211772  0.460654  1
  V  V15  1  0.622046  0.291082  0.537807  1
  Zn  Zn16  1  0.571531  0.428835  0.929005  1
  Zn  Zn17  1  0.429645  0.929197  0.570815  1
  Zn  Zn18  1  0.928469  0.571165  0.429005  1
  Zn  Zn19  1  0.070355  0.070803  0.070815  1
  C  C20  1  0.874293  0.127451  0.626637  1
  C  C21  1  0.625707  0.872549  0.126637  1
  N  N22  1  0.127963  0.625863  0.873016  1
  N  N23  1  0.372037  0.374137  0.373016  1
