# generated using pymatgen
data_Pr8Zn8CuIrRh6
_symmetry_space_group_name_H-M   'P 1'
_cell_length_a   4.04901600
_cell_length_b   7.37947380
_cell_length_c   16.68933060
_cell_angle_alpha   90.28855105
_cell_angle_beta   90.00000000
_cell_angle_gamma   90.00000000
_symmetry_Int_Tables_number   1
_chemical_formula_structural   Pr8Zn8CuIrRh6
_chemical_formula_sum   'Pr8 Zn8 Cu1 Ir1 Rh6'
_cell_volume   498.66432389
_cell_formula_units_Z   1
loop_
 _symmetry_equiv_pos_site_id
 _symmetry_equiv_pos_as_xyz
  1  'x, y, z'
loop_
 _atom_site_type_symbol
 _atom_site_label
 _atom_site_symmetry_multiplicity
 _atom_site_fract_x
 _atom_site_fract_y
 _atom_site_fract_z
 _atom_site_occupancy
  Pr  Pr0  1  0.750000  0.452841  0.215855  1
  Pr  Pr1  1  0.750000  0.951905  0.284351  1
  Pr  Pr2  1  0.750000  0.831253  0.060562  1
  Pr  Pr3  1  0.250000  0.045715  0.718268  1
  Pr  Pr4  1  0.250000  0.168528  0.939682  1
  Pr  Pr5  1  0.250000  0.547995  0.783508  1
  Pr  Pr6  1  0.750000  0.332864  0.435900  1
  Pr  Pr7  1  0.250000  0.672529  0.559915  1
  Zn  Zn8  1  0.250000  0.997606  0.438790  1
  Zn  Zn9  1  0.750000  0.501479  0.939596  1
  Zn  Zn10  1  0.750000  0.003350  0.561345  1
  Zn  Zn11  1  0.250000  0.623177  0.349415  1
  Zn  Zn12  1  0.750000  0.371384  0.650357  1
  Zn  Zn13  1  0.750000  0.874470  0.850014  1
  Zn  Zn14  1  0.250000  0.498645  0.060289  1
  Zn  Zn15  1  0.250000  0.125065  0.150722  1
  Cu  Cu16  1  0.250000  0.239346  0.565696  1
  Ir  Ir17  1  0.250000  0.246952  0.315598  1
  Rh  Rh18  1  0.750000  0.257699  0.065135  1
  Rh  Rh19  1  0.750000  0.252899  0.812297  1
  Rh  Rh20  1  0.250000  0.744093  0.934762  1
  Rh  Rh21  1  0.750000  0.751872  0.685671  1
  Rh  Rh22  1  0.750000  0.759389  0.435826  1
  Rh  Rh23  1  0.250000  0.748946  0.186447  1
