# generated using pymatgen
data_Er2GeB2Ru4Rh
_symmetry_space_group_name_H-M   'P 1'
_cell_length_a   9.56710530
_cell_length_b   9.51191147
_cell_length_c   3.08971400
_cell_angle_alpha   90.00000000
_cell_angle_beta   90.00000000
_cell_angle_gamma   89.83091203
_symmetry_Int_Tables_number   1
_chemical_formula_structural   Er2GeB2Ru4Rh
_chemical_formula_sum   'Er4 Ge2 B4 Ru8 Rh2'
_cell_volume   281.16725640
_cell_formula_units_Z   2
loop_
 _symmetry_equiv_pos_site_id
 _symmetry_equiv_pos_as_xyz
  1  'x, y, z'
loop_
 _atom_site_type_symbol
 _atom_site_label
 _atom_site_symmetry_multiplicity
 _atom_site_fract_x
 _atom_site_fract_y
 _atom_site_fract_z
 _atom_site_occupancy
  Er  Er0  1  0.823535  0.323686  0.000000  1
  Er  Er1  1  0.325914  0.174303  0.000000  1
  Er  Er2  1  0.674086  0.825697  0.000000  1
  Er  Er3  1  0.176465  0.676314  0.000000  1
  Ge  Ge4  1  0.000000  0.000000  0.000000  1
  Ge  Ge5  1  0.500000  0.500000  0.000000  1
  B  B6  1  0.622318  0.122537  0.000000  1
  B  B7  1  0.117858  0.375392  0.000000  1
  B  B8  1  0.882142  0.624608  0.000000  1
  B  B9  1  0.377682  0.877463  0.000000  1
  Ru  Ru10  1  0.068136  0.214845  0.500000  1
  Ru  Ru11  1  0.215385  0.930780  0.500000  1
  Ru  Ru12  1  0.784615  0.069220  0.500000  1
  Ru  Ru13  1  0.931864  0.785155  0.500000  1
  Ru  Ru14  1  0.432318  0.712479  0.500000  1
  Ru  Ru15  1  0.567682  0.287521  0.500000  1
  Ru  Ru16  1  0.500000  0.000000  0.500000  1
  Ru  Ru17  1  0.000000  0.500000  0.500000  1
  Rh  Rh18  1  0.718396  0.570472  0.500000  1
  Rh  Rh19  1  0.281604  0.429528  0.500000  1
