# generated using pymatgen
data_Ba3Sc3CrO9
_symmetry_space_group_name_H-M   'P 1'
_cell_length_a   8.57203456
_cell_length_b   8.57203472
_cell_length_c   8.57203431
_cell_angle_alpha   39.48945623
_cell_angle_beta   39.48946431
_cell_angle_gamma   39.48945984
_symmetry_Int_Tables_number   1
_chemical_formula_structural   Ba3Sc3CrO9
_chemical_formula_sum   'Ba3 Sc3 Cr1 O9'
_cell_volume   229.29414999
_cell_formula_units_Z   1
loop_
 _symmetry_equiv_pos_site_id
 _symmetry_equiv_pos_as_xyz
  1  'x, y, z'
loop_
 _atom_site_type_symbol
 _atom_site_label
 _atom_site_symmetry_multiplicity
 _atom_site_fract_x
 _atom_site_fract_y
 _atom_site_fract_z
 _atom_site_occupancy
  Ba  Ba0  1  0.003618  0.003618  0.003618  1
  Ba  Ba1  1  0.161175  0.161175  0.161175  1
  Ba  Ba2  1  0.583767  0.583767  0.583767  1
  Sc  Sc3  1  0.423113  0.423113  0.423113  1
  Sc  Sc4  1  0.738986  0.738986  0.738986  1
  Sc  Sc5  1  0.865319  0.865319  0.865319  1
  Cr  Cr6  1  0.300412  0.300412  0.300412  1
  O  O7  1  0.511423  0.520309  0.038637  1
  O  O8  1  0.576635  0.090149  0.082710  1
  O  O9  1  0.082710  0.576635  0.090150  1
  O  O10  1  0.643117  0.644799  0.125320  1
  O  O11  1  0.520309  0.038638  0.511423  1
  O  O12  1  0.038638  0.511422  0.520309  1
  O  O13  1  0.090149  0.082709  0.576637  1
  O  O14  1  0.644799  0.125321  0.643117  1
  O  O15  1  0.125320  0.643117  0.644800  1
