# generated using pymatgen
data_TbZnCu3Pd
_symmetry_space_group_name_H-M   'P 1'
_cell_length_a   5.08584044
_cell_length_b   5.08584065
_cell_length_c   5.08584048
_cell_angle_alpha   58.98163728
_cell_angle_beta   58.98163485
_cell_angle_gamma   58.98164315
_symmetry_Int_Tables_number   1
_chemical_formula_structural   TbZnCu3Pd
_chemical_formula_sum   'Tb1 Zn1 Cu3 Pd1'
_cell_volume   90.85832584
_cell_formula_units_Z   1
loop_
 _symmetry_equiv_pos_site_id
 _symmetry_equiv_pos_as_xyz
  1  'x, y, z'
loop_
 _atom_site_type_symbol
 _atom_site_label
 _atom_site_symmetry_multiplicity
 _atom_site_fract_x
 _atom_site_fract_y
 _atom_site_fract_z
 _atom_site_occupancy
  Tb  Tb0  1  0.248533  0.248533  0.248533  1
  Zn  Zn1  1  0.628484  0.628484  0.628484  1
  Cu  Cu2  1  0.625971  0.625971  0.122932  1
  Cu  Cu3  1  0.625971  0.122932  0.625971  1
  Cu  Cu4  1  0.122932  0.625971  0.625971  1
  Pd  Pd5  1  0.998111  0.998111  0.998111  1
