# generated using pymatgen
data_La16Dy4Ir11Ru
_symmetry_space_group_name_H-M   'P 1'
_cell_length_a   11.35140100
_cell_length_b   11.35140100
_cell_length_c   6.55597100
_cell_angle_alpha   90.00000000
_cell_angle_beta   90.00000000
_cell_angle_gamma   90.00000000
_symmetry_Int_Tables_number   1
_chemical_formula_structural   La16Dy4Ir11Ru
_chemical_formula_sum   'La16 Dy4 Ir11 Ru1'
_cell_volume   844.76508459
_cell_formula_units_Z   1
loop_
 _symmetry_equiv_pos_site_id
 _symmetry_equiv_pos_as_xyz
  1  'x, y, z'
loop_
 _atom_site_type_symbol
 _atom_site_label
 _atom_site_symmetry_multiplicity
 _atom_site_fract_x
 _atom_site_fract_y
 _atom_site_fract_z
 _atom_site_occupancy
  La  La0  1  0.289257  0.087278  0.384956  1
  La  La1  1  0.289640  0.912506  0.888431  1
  La  La2  1  0.710360  0.087494  0.888431  1
  La  La3  1  0.710743  0.912722  0.384956  1
  La  La4  1  0.587494  0.789640  0.888431  1
  La  La5  1  0.587278  0.210743  0.384956  1
  La  La6  1  0.412722  0.789257  0.384956  1
  La  La7  1  0.412506  0.210360  0.888431  1
  La  La8  1  0.212151  0.411498  0.615613  1
  La  La9  1  0.211914  0.587974  0.115033  1
  La  La10  1  0.788086  0.412026  0.115033  1
  La  La11  1  0.787849  0.588502  0.615613  1
  La  La12  1  0.912026  0.711914  0.115033  1
  La  La13  1  0.911498  0.287849  0.615613  1
  La  La14  1  0.088502  0.712151  0.615613  1
  La  La15  1  0.087974  0.288086  0.115033  1
  Dy  Dy16  1  0.000000  0.000000  0.497759  1
  Dy  Dy17  1  0.000000  0.000000  0.997715  1
  Dy  Dy18  1  0.500000  0.500000  0.997715  1
  Dy  Dy19  1  0.500000  0.500000  0.497759  1
  Ir  Ir20  1  0.851958  0.149508  0.249118  1
  Ir  Ir21  1  0.851878  0.851188  0.749122  1
  Ir  Ir22  1  0.148122  0.148812  0.749122  1
  Ir  Ir23  1  0.148042  0.850492  0.249118  1
  Ir  Ir24  1  0.648812  0.351878  0.749122  1
  Ir  Ir25  1  0.649508  0.648042  0.249118  1
  Ir  Ir26  1  0.350492  0.351958  0.249118  1
  Ir  Ir27  1  0.351188  0.648122  0.749122  1
  Ir  Ir28  1  0.500000  0.000000  0.619265  1
  Ir  Ir29  1  0.000000  0.500000  0.881333  1
  Ir  Ir30  1  0.000000  0.500000  0.381700  1
  Ru  Ru31  1  0.500000  0.000000  0.117668  1
