# generated using pymatgen
data_Tb19CeSn11Sb5
_symmetry_space_group_name_H-M   'P 1'
_cell_length_a   8.16173849
_cell_length_b   8.19502923
_cell_length_c   15.47704800
_cell_angle_alpha   90.16574839
_cell_angle_beta   90.10419158
_cell_angle_gamma   89.78989668
_symmetry_Int_Tables_number   1
_chemical_formula_structural   Tb19CeSn11Sb5
_chemical_formula_sum   'Tb19 Ce1 Sn11 Sb5'
_cell_volume   1035.17998241
_cell_formula_units_Z   1
loop_
 _symmetry_equiv_pos_site_id
 _symmetry_equiv_pos_as_xyz
  1  'x, y, z'
loop_
 _atom_site_type_symbol
 _atom_site_label
 _atom_site_symmetry_multiplicity
 _atom_site_fract_x
 _atom_site_fract_y
 _atom_site_fract_z
 _atom_site_occupancy
  Tb  Tb0  1  0.383066  0.839019  0.880473  1
  Tb  Tb1  1  0.883073  0.662141  0.619560  1
  Tb  Tb2  1  0.617167  0.160618  0.379425  1
  Tb  Tb3  1  0.116965  0.337097  0.120318  1
  Tb  Tb4  1  0.617365  0.161038  0.119952  1
  Tb  Tb5  1  0.118072  0.337293  0.379304  1
  Tb  Tb6  1  0.380991  0.838529  0.620189  1
  Tb  Tb7  1  0.882477  0.660968  0.879206  1
  Tb  Tb8  1  0.547209  0.333040  0.893271  1
  Tb  Tb9  1  0.046023  0.172456  0.605883  1
  Tb  Tb10  1  0.453916  0.671979  0.394135  1
  Tb  Tb11  1  0.955107  0.824655  0.105894  1
  Tb  Tb12  1  0.460724  0.669878  0.105621  1
  Tb  Tb13  1  0.964322  0.824988  0.396817  1
  Tb  Tb14  1  0.535388  0.325593  0.602102  1
  Tb  Tb15  1  0.212240  0.500564  0.747188  1
  Tb  Tb16  1  0.712780  0.001009  0.749498  1
  Tb  Tb17  1  0.787589  0.499093  0.248422  1
  Tb  Tb18  1  0.287678  0.999436  0.252995  1
  Ce  Ce19  1  0.036587  0.181079  0.900263  1
  Sn  Sn20  1  0.220955  0.529904  0.542977  1
  Sn  Sn21  1  0.279285  0.029328  0.456809  1
  Sn  Sn22  1  0.778212  0.470414  0.042843  1
  Sn  Sn23  1  0.578643  0.625629  0.749398  1
  Sn  Sn24  1  0.079067  0.876083  0.751678  1
  Sn  Sn25  1  0.421193  0.374942  0.249352  1
  Sn  Sn26  1  0.920715  0.123148  0.250042  1
  Sn  Sn27  1  0.347710  0.143933  0.751226  1
  Sn  Sn28  1  0.844954  0.357784  0.747814  1
  Sn  Sn29  1  0.654409  0.855982  0.250460  1
  Sn  Sn30  1  0.153050  0.642763  0.249370  1
  Sb  Sb31  1  0.274736  0.019090  0.047887  1
  Sb  Sb32  1  0.773650  0.474926  0.454496  1
  Sb  Sb33  1  0.726064  0.976075  0.544847  1
  Sb  Sb34  1  0.227373  0.527314  0.955437  1
  Sb  Sb35  1  0.721244  0.972214  0.954848  1
