# generated using pymatgen
data_Tm12OsRh3
_symmetry_space_group_name_H-M   'P 1'
_cell_length_a   7.17285182
_cell_length_b   9.09211600
_cell_length_c   6.30162849
_cell_angle_alpha   90.00000000
_cell_angle_beta   89.91983887
_cell_angle_gamma   90.00000000
_symmetry_Int_Tables_number   1
_chemical_formula_structural   Tm12OsRh3
_chemical_formula_sum   'Tm12 Os1 Rh3'
_cell_volume   410.96912679
_cell_formula_units_Z   1
loop_
 _symmetry_equiv_pos_site_id
 _symmetry_equiv_pos_as_xyz
  1  'x, y, z'
loop_
 _atom_site_type_symbol
 _atom_site_label
 _atom_site_symmetry_multiplicity
 _atom_site_fract_x
 _atom_site_fract_y
 _atom_site_fract_z
 _atom_site_occupancy
  Tm  Tm0  1  0.465248  0.250000  0.129500  1
  Tm  Tm1  1  0.176674  0.563104  0.173862  1
  Tm  Tm2  1  0.176674  0.936896  0.173862  1
  Tm  Tm3  1  0.681220  0.564339  0.322560  1
  Tm  Tm4  1  0.681220  0.935661  0.322560  1
  Tm  Tm5  1  0.963489  0.250000  0.374948  1
  Tm  Tm6  1  0.035032  0.750000  0.623820  1
  Tm  Tm7  1  0.321299  0.062342  0.673559  1
  Tm  Tm8  1  0.321299  0.437658  0.673559  1
  Tm  Tm9  1  0.822564  0.057619  0.830916  1
  Tm  Tm10  1  0.822564  0.442381  0.830916  1
  Tm  Tm11  1  0.533325  0.750000  0.873967  1
  Os  Os12  1  0.885642  0.750000  0.034411  1
  Rh  Rh13  1  0.386624  0.750000  0.457957  1
  Rh  Rh14  1  0.612997  0.250000  0.545239  1
  Rh  Rh15  1  0.114127  0.250000  0.958376  1
