# generated using pymatgen
data_Tb5Ho3(GaBr6)2
_symmetry_space_group_name_H-M   'P 1'
_cell_length_a   4.05930000
_cell_length_b   13.40295524
_cell_length_c   14.14591484
_cell_angle_alpha   89.85824403
_cell_angle_beta   90.00000000
_cell_angle_gamma   90.00000000
_symmetry_Int_Tables_number   1
_chemical_formula_structural   Tb5Ho3(GaBr6)2
_chemical_formula_sum   'Tb5 Ho3 Ga2 Br12'
_cell_volume   769.62900404
_cell_formula_units_Z   1
loop_
 _symmetry_equiv_pos_site_id
 _symmetry_equiv_pos_as_xyz
  1  'x, y, z'
loop_
 _atom_site_type_symbol
 _atom_site_label
 _atom_site_symmetry_multiplicity
 _atom_site_fract_x
 _atom_site_fract_y
 _atom_site_fract_z
 _atom_site_occupancy
  Tb  Tb0  1  0.500000  0.381632  0.839875  1
  Tb  Tb1  1  0.000000  0.121572  0.580652  1
  Tb  Tb2  1  0.000000  0.878151  0.419149  1
  Tb  Tb3  1  0.000000  0.621939  0.918958  1
  Tb  Tb4  1  0.000000  0.377985  0.081012  1
  Ho  Ho5  1  0.500000  0.118114  0.340057  1
  Ho  Ho6  1  0.500000  0.881821  0.659869  1
  Ho  Ho7  1  0.500000  0.618385  0.160213  1
  Ga  Ga8  1  0.500000  0.999990  0.499975  1
  Ga  Ga9  1  0.500000  0.500240  0.000333  1
  Br  Br10  1  0.500000  0.244329  0.167019  1
  Br  Br11  1  0.500000  0.755759  0.833103  1
  Br  Br12  1  0.500000  0.744556  0.333336  1
  Br  Br13  1  0.500000  0.254664  0.665212  1
  Br  Br14  1  0.000000  0.253198  0.409363  1
  Br  Br15  1  0.000000  0.746846  0.590543  1
  Br  Br16  1  0.000000  0.753500  0.090620  1
  Br  Br17  1  0.000000  0.244698  0.911428  1
  Br  Br18  1  0.000000  0.004023  0.243622  1
  Br  Br19  1  0.000000  0.995955  0.756345  1
  Br  Br20  1  0.000000  0.503946  0.256751  1
  Br  Br21  1  0.000000  0.498694  0.742565  1
