# generated using pymatgen
data_Tb2Tm6Sc12GaSi15
_symmetry_space_group_name_H-M   'P 1'
_cell_length_a   7.06971040
_cell_length_b   7.36665601
_cell_length_c   13.96175624
_cell_angle_alpha   90.04911704
_cell_angle_beta   90.00614527
_cell_angle_gamma   90.06519277
_symmetry_Int_Tables_number   1
_chemical_formula_structural   Tb2Tm6Sc12GaSi15
_chemical_formula_sum   'Tb2 Tm6 Sc12 Ga1 Si15'
_cell_volume   727.12926364
_cell_formula_units_Z   1
loop_
 _symmetry_equiv_pos_site_id
 _symmetry_equiv_pos_as_xyz
  1  'x, y, z'
loop_
 _atom_site_type_symbol
 _atom_site_label
 _atom_site_symmetry_multiplicity
 _atom_site_fract_x
 _atom_site_fract_y
 _atom_site_fract_z
 _atom_site_occupancy
  Tb  Tb0  1  0.011812  0.175718  0.096431  1
  Tb  Tb1  1  0.988065  0.824542  0.903993  1
  Tm  Tm2  1  0.488103  0.676953  0.903493  1
  Tm  Tm3  1  0.987554  0.825563  0.597617  1
  Tm  Tm4  1  0.511725  0.323431  0.096659  1
  Tm  Tm5  1  0.010918  0.174876  0.401694  1
  Tm  Tm6  1  0.512827  0.322617  0.402115  1
  Tm  Tm7  1  0.489827  0.679190  0.597124  1
  Sc  Sc8  1  0.161369  0.503167  0.751375  1
  Sc  Sc9  1  0.838603  0.497076  0.250238  1
  Sc  Sc10  1  0.338810  0.003533  0.249731  1
  Sc  Sc11  1  0.661529  0.995705  0.750064  1
  Sc  Sc12  1  0.333000  0.173860  0.626159  1
  Sc  Sc13  1  0.668104  0.824057  0.374450  1
  Sc  Sc14  1  0.169952  0.677453  0.373635  1
  Sc  Sc15  1  0.668871  0.823128  0.125498  1
  Sc  Sc16  1  0.828528  0.323207  0.625513  1
  Sc  Sc17  1  0.331021  0.176421  0.874595  1
  Sc  Sc18  1  0.830057  0.323660  0.874715  1
  Sc  Sc19  1  0.169657  0.676091  0.125477  1
  Ga  Ga20  1  0.161223  0.462990  0.539323  1
  Si  Si21  1  0.033392  0.116880  0.750153  1
  Si  Si22  1  0.966367  0.884478  0.250136  1
  Si  Si23  1  0.467887  0.613427  0.250101  1
  Si  Si24  1  0.531541  0.386974  0.749621  1
  Si  Si25  1  0.285600  0.870910  0.749724  1
  Si  Si26  1  0.713917  0.128997  0.250168  1
  Si  Si27  1  0.215477  0.371378  0.249987  1
  Si  Si28  1  0.784868  0.628465  0.750196  1
  Si  Si29  1  0.840397  0.535328  0.460372  1
  Si  Si30  1  0.340100  0.965031  0.460316  1
  Si  Si31  1  0.839672  0.535019  0.038566  1
  Si  Si32  1  0.659199  0.035095  0.539062  1
  Si  Si33  1  0.160243  0.464609  0.961633  1
  Si  Si34  1  0.656224  0.035522  0.960710  1
  Si  Si35  1  0.343559  0.964646  0.039359  1
