# generated using pymatgen
data_Yb3Hg3PdPt
_symmetry_space_group_name_H-M   'P 1'
_cell_length_a   7.60005900
_cell_length_b   7.60005861
_cell_length_c   3.66838000
_cell_angle_alpha   90.00000000
_cell_angle_beta   90.00000000
_cell_angle_gamma   119.99999735
_symmetry_Int_Tables_number   1
_chemical_formula_structural   Yb3Hg3PdPt
_chemical_formula_sum   'Yb3 Hg3 Pd1 Pt1'
_cell_volume   183.50118172
_cell_formula_units_Z   1
loop_
 _symmetry_equiv_pos_site_id
 _symmetry_equiv_pos_as_xyz
  1  'x, y, z'
loop_
 _atom_site_type_symbol
 _atom_site_label
 _atom_site_symmetry_multiplicity
 _atom_site_fract_x
 _atom_site_fract_y
 _atom_site_fract_z
 _atom_site_occupancy
  Yb  Yb0  1  0.591499  0.004963  0.500000  1
  Yb  Yb1  1  0.413462  0.408500  0.500000  1
  Yb  Yb2  1  0.995037  0.586538  0.500000  1
  Hg  Hg3  1  0.237471  0.995219  0.000000  1
  Hg  Hg4  1  0.004781  0.242252  0.000000  1
  Hg  Hg5  1  0.757748  0.762529  0.000000  1
  Pd  Pd6  1  0.333334  0.666667  0.000000  1
  Pt  Pt7  1  0.666666  0.333333  0.000000  1
