# generated using pymatgen
data_Ho2Cr3Co2(NiP)7
_symmetry_space_group_name_H-M   'P 1'
_cell_length_a   9.07411624
_cell_length_b   9.08411046
_cell_length_c   3.65644100
_cell_angle_alpha   90.00000000
_cell_angle_beta   90.00000000
_cell_angle_gamma   119.98698637
_symmetry_Int_Tables_number   1
_chemical_formula_structural   Ho2Cr3Co2(NiP)7
_chemical_formula_sum   'Ho2 Cr3 Co2 Ni7 P7'
_cell_volume   261.05552107
_cell_formula_units_Z   1
loop_
 _symmetry_equiv_pos_site_id
 _symmetry_equiv_pos_as_xyz
  1  'x, y, z'
loop_
 _atom_site_type_symbol
 _atom_site_label
 _atom_site_symmetry_multiplicity
 _atom_site_fract_x
 _atom_site_fract_y
 _atom_site_fract_z
 _atom_site_occupancy
  Ho  Ho0  1  0.666873  0.333776  0.500000  1
  Ho  Ho1  1  0.332651  0.666931  0.000000  1
  Cr  Cr2  1  0.120060  0.215931  0.000000  1
  Cr  Cr3  1  0.096521  0.878209  0.000000  1
  Cr  Cr4  1  0.785050  0.904267  0.000000  1
  Co  Co5  1  0.615491  0.566702  0.000000  1
  Co  Co6  1  0.950629  0.385125  0.000000  1
  Ni  Ni7  1  0.843443  0.719645  0.500000  1
  Ni  Ni8  1  0.281207  0.124892  0.500000  1
  Ni  Ni9  1  0.369868  0.433874  0.500000  1
  Ni  Ni10  1  0.566479  0.935651  0.500000  1
  Ni  Ni11  1  0.060449  0.626616  0.500000  1
  Ni  Ni12  1  0.876650  0.157231  0.500000  1
  Ni  Ni13  1  0.437196  0.052176  0.000000  1
  P  P14  1  0.000371  0.000019  0.500000  1
  P  P15  1  0.711125  0.115954  0.000000  1
  P  P16  1  0.110088  0.408216  0.500000  1
  P  P17  1  0.591840  0.702161  0.500000  1
  P  P18  1  0.293499  0.886087  0.500000  1
  P  P19  1  0.883526  0.592280  0.000000  1
  P  P20  1  0.406990  0.294260  0.000000  1
