# generated using pymatgen
data_LiLa8Al(Zn3Rh4)2
_symmetry_space_group_name_H-M   'P 1'
_cell_length_a   4.09366600
_cell_length_b   7.44090981
_cell_length_c   16.60296248
_cell_angle_alpha   89.64220957
_cell_angle_beta   90.00000000
_cell_angle_gamma   90.00000000
_symmetry_Int_Tables_number   1
_chemical_formula_structural   LiLa8Al(Zn3Rh4)2
_chemical_formula_sum   'Li1 La8 Al1 Zn6 Rh8'
_cell_volume   505.72632980
_cell_formula_units_Z   1
loop_
 _symmetry_equiv_pos_site_id
 _symmetry_equiv_pos_as_xyz
  1  'x, y, z'
loop_
 _atom_site_type_symbol
 _atom_site_label
 _atom_site_symmetry_multiplicity
 _atom_site_fract_x
 _atom_site_fract_y
 _atom_site_fract_z
 _atom_site_occupancy
  Li  Li0  1  0.250000  0.992667  0.440975  1
  La  La1  1  0.750000  0.333570  0.441393  1
  La  La2  1  0.250000  0.044839  0.716512  1
  La  La3  1  0.250000  0.546514  0.783621  1
  La  La4  1  0.250000  0.670979  0.560707  1
  La  La5  1  0.750000  0.825702  0.058568  1
  La  La6  1  0.250000  0.171930  0.939491  1
  La  La7  1  0.750000  0.459835  0.219291  1
  La  La8  1  0.750000  0.954500  0.283512  1
  Al  Al9  1  0.250000  0.129674  0.149460  1
  Zn  Zn10  1  0.750000  0.874312  0.851438  1
  Zn  Zn11  1  0.750000  0.002081  0.557076  1
  Zn  Zn12  1  0.250000  0.496259  0.060810  1
  Zn  Zn13  1  0.750000  0.371706  0.649277  1
  Zn  Zn14  1  0.750000  0.499115  0.940705  1
  Zn  Zn15  1  0.250000  0.631033  0.352345  1
  Rh  Rh16  1  0.750000  0.252625  0.813682  1
  Rh  Rh17  1  0.250000  0.248512  0.304724  1
  Rh  Rh18  1  0.250000  0.738378  0.933805  1
  Rh  Rh19  1  0.250000  0.244967  0.564762  1
  Rh  Rh20  1  0.250000  0.761175  0.183526  1
  Rh  Rh21  1  0.750000  0.744725  0.436908  1
  Rh  Rh22  1  0.750000  0.250818  0.071419  1
  Rh  Rh23  1  0.750000  0.754084  0.685990  1
