# generated using pymatgen
data_Tb4Dy4Re(B8Os)3
_symmetry_space_group_name_H-M   'P 1'
_cell_length_a   3.67336700
_cell_length_b   9.17521023
_cell_length_c   11.56244101
_cell_angle_alpha   90.08739354
_cell_angle_beta   90.00000000
_cell_angle_gamma   90.00000000
_symmetry_Int_Tables_number   1
_chemical_formula_structural   Tb4Dy4Re(B8Os)3
_chemical_formula_sum   'Tb4 Dy4 Re1 B24 Os3'
_cell_volume   389.69906934
_cell_formula_units_Z   1
loop_
 _symmetry_equiv_pos_site_id
 _symmetry_equiv_pos_as_xyz
  1  'x, y, z'
loop_
 _atom_site_type_symbol
 _atom_site_label
 _atom_site_symmetry_multiplicity
 _atom_site_fract_x
 _atom_site_fract_y
 _atom_site_fract_z
 _atom_site_occupancy
  Tb  Tb0  1  0.000000  0.322882  0.414758  1
  Tb  Tb1  1  0.000000  0.679573  0.588167  1
  Tb  Tb2  1  0.000000  0.823010  0.083872  1
  Tb  Tb3  1  0.000000  0.176100  0.913101  1
  Dy  Dy4  1  0.000000  0.943326  0.371885  1
  Dy  Dy5  1  0.000000  0.055931  0.627645  1
  Dy  Dy6  1  0.000000  0.442992  0.127815  1
  Dy  Dy7  1  0.000000  0.556471  0.872823  1
  Re  Re8  1  0.000000  0.862322  0.821255  1
  B  B9  1  0.500000  0.553986  0.432819  1
  B  B10  1  0.500000  0.446166  0.567555  1
  B  B11  1  0.500000  0.053771  0.067706  1
  B  B12  1  0.500000  0.946940  0.932688  1
  B  B13  1  0.500000  0.747901  0.419172  1
  B  B14  1  0.500000  0.252229  0.580686  1
  B  B15  1  0.500000  0.247651  0.080972  1
  B  B16  1  0.500000  0.752032  0.919038  1
  B  B17  1  0.500000  0.790033  0.266596  1
  B  B18  1  0.500000  0.209458  0.732665  1
  B  B19  1  0.500000  0.290507  0.233462  1
  B  B20  1  0.500000  0.708863  0.766557  1
  B  B21  1  0.500000  0.631284  0.185938  1
  B  B22  1  0.500000  0.368233  0.813722  1
  B  B23  1  0.500000  0.131918  0.314252  1
  B  B24  1  0.500000  0.868408  0.686019  1
  B  B25  1  0.500000  0.984026  0.212763  1
  B  B26  1  0.500000  0.017012  0.787106  1
  B  B27  1  0.500000  0.483714  0.287704  1
  B  B28  1  0.500000  0.516279  0.712896  1
  B  B29  1  0.500000  0.606596  0.030271  1
  B  B30  1  0.500000  0.391846  0.970408  1
  B  B31  1  0.500000  0.107978  0.469686  1
  B  B32  1  0.500000  0.892628  0.529236  1
  Os  Os33  1  0.000000  0.637471  0.321473  1
  Os  Os34  1  0.000000  0.362552  0.678102  1
  Os  Os35  1  0.000000  0.137911  0.179183  1
