# generated using pymatgen
data_Cs(VI3)2
_symmetry_space_group_name_H-M   'P 1'
_cell_length_a   9.89484075
_cell_length_b   9.85459827
_cell_length_c   9.16746173
_cell_angle_alpha   131.60990302
_cell_angle_beta   116.34634557
_cell_angle_gamma   39.74276997
_symmetry_Int_Tables_number   1
_chemical_formula_structural   Cs(VI3)2
_chemical_formula_sum   'Cs1 V2 I6'
_cell_volume   423.12043131
_cell_formula_units_Z   1
loop_
 _symmetry_equiv_pos_site_id
 _symmetry_equiv_pos_as_xyz
  1  'x, y, z'
loop_
 _atom_site_type_symbol
 _atom_site_label
 _atom_site_symmetry_multiplicity
 _atom_site_fract_x
 _atom_site_fract_y
 _atom_site_fract_z
 _atom_site_occupancy
  Cs  Cs0  1  0.134171  0.069009  0.110104  1
  V  V1  1  0.141236  0.567565  0.118917  1
  V  V2  1  0.628131  0.081112  0.119040  1
  I  I3  1  0.901188  0.093214  0.400459  1
  I  I4  1  0.505452  0.446381  0.115595  1
  I  I5  1  0.368367  0.051246  0.832265  1
  I  I6  1  0.282496  0.478586  0.410883  1
  I  I7  1  0.764476  0.704748  0.123666  1
  I  I8  1  0.984766  0.671636  0.830587  1
