# generated using pymatgen
data_SrPrIn4Au3
_symmetry_space_group_name_H-M   'P 1'
_cell_length_a   15.37368200
_cell_length_b   15.42476185
_cell_length_c   4.43872300
_cell_angle_alpha   90.00000000
_cell_angle_beta   90.00000000
_cell_angle_gamma   119.89051946
_symmetry_Int_Tables_number   1
_chemical_formula_structural   SrPrIn4Au3
_chemical_formula_sum   'Sr4 Pr4 In16 Au12'
_cell_volume   912.56349752
_cell_formula_units_Z   4
loop_
 _symmetry_equiv_pos_site_id
 _symmetry_equiv_pos_as_xyz
  1  'x, y, z'
loop_
 _atom_site_type_symbol
 _atom_site_label
 _atom_site_symmetry_multiplicity
 _atom_site_fract_x
 _atom_site_fract_y
 _atom_site_fract_z
 _atom_site_occupancy
  Sr  Sr0  1  0.333266  0.667114  0.000000  1
  Sr  Sr1  1  0.666152  0.332886  0.000000  1
  Sr  Sr2  1  0.000789  0.818948  0.500000  1
  Sr  Sr3  1  0.181841  0.181052  0.500000  1
  Pr  Pr4  1  0.451618  0.000000  0.000000  1
  Pr  Pr5  1  0.999226  0.449274  0.000000  1
  Pr  Pr6  1  0.549952  0.550726  0.000000  1
  Pr  Pr7  1  0.816716  0.000000  0.500000  1
  In  In8  1  0.179921  0.374561  0.000000  1
  In  In9  1  0.624137  0.805640  0.000000  1
  In  In10  1  0.375444  0.181025  0.000000  1
  In  In11  1  0.194418  0.818975  0.000000  1
  In  In12  1  0.805361  0.625439  0.000000  1
  In  In13  1  0.818499  0.194360  0.000000  1
  In  In14  1  0.283655  0.000000  0.500000  1
  In  In15  1  0.999568  0.283162  0.500000  1
  In  In16  1  0.716406  0.716838  0.500000  1
  In  In17  1  0.350593  0.476488  0.500000  1
  In  In18  1  0.524449  0.874380  0.500000  1
  In  In19  1  0.477763  0.350593  0.500000  1
  In  In20  1  0.127170  0.649407  0.500000  1
  In  In21  1  0.874104  0.523512  0.500000  1
  In  In22  1  0.650068  0.125620  0.500000  1
  In  In23  1  0.997675  0.000000  0.000000  1
  Au  Au24  1  0.170223  0.490649  0.500000  1
  Au  Au25  1  0.509524  0.679112  0.500000  1
  Au  Au26  1  0.490932  0.169587  0.500000  1
  Au  Au27  1  0.321345  0.830413  0.500000  1
  Au  Au28  1  0.679575  0.509351  0.500000  1
  Au  Au29  1  0.830412  0.320888  0.500000  1
  Au  Au30  1  0.174470  0.000000  0.000000  1
  Au  Au31  1  0.996195  0.173754  0.000000  1
  Au  Au32  1  0.822441  0.826246  0.000000  1
  Au  Au33  1  0.659536  0.000000  0.000000  1
  Au  Au34  1  0.999914  0.653270  0.000000  1
  Au  Au35  1  0.346644  0.346730  0.000000  1
