# generated using pymatgen
data_LaTh5H8I15
_symmetry_space_group_name_H-M   'P 1'
_cell_length_a   10.58171303
_cell_length_b   10.58181315
_cell_length_c   10.56850200
_cell_angle_alpha   109.33474934
_cell_angle_beta   109.35633888
_cell_angle_gamma   109.77427087
_symmetry_Int_Tables_number   1
_chemical_formula_structural   LaTh5H8I15
_chemical_formula_sum   'La1 Th5 H8 I15'
_cell_volume   910.38295928
_cell_formula_units_Z   1
loop_
 _symmetry_equiv_pos_site_id
 _symmetry_equiv_pos_as_xyz
  1  'x, y, z'
loop_
 _atom_site_type_symbol
 _atom_site_label
 _atom_site_symmetry_multiplicity
 _atom_site_fract_x
 _atom_site_fract_y
 _atom_site_fract_z
 _atom_site_occupancy
  La  La0  1  0.233845  0.233845  0.000002  1
  Th  Th1  1  0.770005  0.770013  0.000001  1
  Th  Th2  1  0.230886  0.001835  0.229155  1
  Th  Th3  1  0.001856  0.230862  0.229166  1
  Th  Th4  1  0.772660  0.001719  0.770845  1
  Th  Th5  1  0.001683  0.772673  0.770840  1
  H  H6  1  0.175264  0.995440  0.999993  1
  H  H7  1  0.824183  0.999581  0.000003  1
  H  H8  1  0.995452  0.175276  0.000014  1
  H  H9  1  0.999574  0.824181  0.999999  1
  H  H10  1  0.999622  0.999604  0.176377  1
  H  H11  1  0.173638  0.173618  0.178043  1
  H  H12  1  0.995569  0.995584  0.821972  1
  H  H13  1  0.823213  0.823235  0.823616  1
  I  I14  1  0.742570  0.254861  0.999973  1
  I  I15  1  0.508946  0.508948  0.000007  1
  I  I16  1  0.254887  0.742592  0.000024  1
  I  I17  1  0.744023  0.000070  0.255851  1
  I  I18  1  0.000128  0.743997  0.255885  1
  I  I19  1  0.516498  0.255040  0.261063  1
  I  I20  1  0.255129  0.516431  0.261123  1
  I  I21  1  0.742948  0.743018  0.487332  1
  I  I22  1  0.500131  0.000133  0.499998  1
  I  I23  1  0.000064  0.500066  0.500002  1
  I  I24  1  0.255693  0.255621  0.512678  1
  I  I25  1  0.255294  0.993989  0.738882  1
  I  I26  1  0.993956  0.255382  0.738903  1
  I  I27  1  0.744197  0.488156  0.744147  1
  I  I28  1  0.488089  0.744239  0.744112  1
