# generated using pymatgen
data_Pr6Nd4Sn2Bi3PbBr2
_symmetry_space_group_name_H-M   'P 1'
_cell_length_a   9.70955097
_cell_length_b   9.63399653
_cell_length_c   6.80030300
_cell_angle_alpha   90.00000000
_cell_angle_beta   90.00000000
_cell_angle_gamma   120.37555670
_symmetry_Int_Tables_number   1
_chemical_formula_structural   Pr6Nd4Sn2Bi3PbBr2
_chemical_formula_sum   'Pr6 Nd4 Sn2 Bi3 Pb1 Br2'
_cell_volume   548.79295839
_cell_formula_units_Z   1
loop_
 _symmetry_equiv_pos_site_id
 _symmetry_equiv_pos_as_xyz
  1  'x, y, z'
loop_
 _atom_site_type_symbol
 _atom_site_label
 _atom_site_symmetry_multiplicity
 _atom_site_fract_x
 _atom_site_fract_y
 _atom_site_fract_z
 _atom_site_occupancy
  Pr  Pr0  1  0.271803  0.997283  0.750000  1
  Pr  Pr1  1  0.727181  0.000204  0.250000  1
  Pr  Pr2  1  0.995276  0.266643  0.750000  1
  Pr  Pr3  1  0.004409  0.734416  0.250000  1
  Pr  Pr4  1  0.731705  0.733671  0.750000  1
  Pr  Pr5  1  0.269476  0.265300  0.250000  1
  Nd  Nd6  1  0.335441  0.672375  0.499571  1
  Nd  Nd7  1  0.664484  0.327828  0.499891  1
  Nd  Nd8  1  0.664484  0.327828  0.000109  1
  Nd  Nd9  1  0.335441  0.672375  0.000429  1
  Sn  Sn10  1  0.613377  0.999669  0.750000  1
  Sn  Sn11  1  0.386878  0.999844  0.250000  1
  Bi  Bi12  1  0.001284  0.386790  0.250000  1
  Bi  Bi13  1  0.384583  0.385590  0.750000  1
  Bi  Bi14  1  0.615654  0.614105  0.250000  1
  Pb  Pb15  1  0.998607  0.614316  0.750000  1
  Br  Br16  1  0.999958  0.000881  0.499755  1
  Br  Br17  1  0.999958  0.000881  0.000245  1
