# generated using pymatgen
data_Tm3Lu5(HfIr3)2
_symmetry_space_group_name_H-M   'P 1'
_cell_length_a   10.67624621
_cell_length_b   10.68225000
_cell_length_c   6.18189512
_cell_angle_alpha   90.00000000
_cell_angle_beta   89.97733826
_cell_angle_gamma   90.00000000
_symmetry_Int_Tables_number   1
_chemical_formula_structural   Tm3Lu5(HfIr3)2
_chemical_formula_sum   'Tm6 Lu10 Hf4 Ir12'
_cell_volume   705.02240241
_cell_formula_units_Z   2
loop_
 _symmetry_equiv_pos_site_id
 _symmetry_equiv_pos_as_xyz
  1  'x, y, z'
loop_
 _atom_site_type_symbol
 _atom_site_label
 _atom_site_symmetry_multiplicity
 _atom_site_fract_x
 _atom_site_fract_y
 _atom_site_fract_z
 _atom_site_occupancy
  Tm  Tm0  1  0.789535  0.413648  0.126520  1
  Tm  Tm1  1  0.789535  0.586352  0.626520  1
  Tm  Tm2  1  0.913836  0.710411  0.126486  1
  Tm  Tm3  1  0.913836  0.289589  0.626486  1
  Tm  Tm4  1  0.086615  0.710252  0.626505  1
  Tm  Tm5  1  0.086615  0.289748  0.126505  1
  Lu  Lu6  1  0.290434  0.085677  0.374192  1
  Lu  Lu7  1  0.290434  0.914323  0.874192  1
  Lu  Lu8  1  0.709571  0.085661  0.874123  1
  Lu  Lu9  1  0.709571  0.914339  0.374123  1
  Lu  Lu10  1  0.585637  0.790403  0.874095  1
  Lu  Lu11  1  0.585637  0.209597  0.374095  1
  Lu  Lu12  1  0.414130  0.790258  0.374070  1
  Lu  Lu13  1  0.414130  0.209742  0.874070  1
  Lu  Lu14  1  0.210208  0.413997  0.626110  1
  Lu  Lu15  1  0.210208  0.586003  0.126110  1
  Hf  Hf16  1  0.000088  0.999988  0.499460  1
  Hf  Hf17  1  0.000088  0.000012  0.999460  1
  Hf  Hf18  1  0.499637  0.500080  0.999645  1
  Hf  Hf19  1  0.499637  0.499920  0.499645  1
  Ir  Ir20  1  0.853825  0.144724  0.249612  1
  Ir  Ir21  1  0.853825  0.855276  0.749612  1
  Ir  Ir22  1  0.146279  0.145116  0.749383  1
  Ir  Ir23  1  0.146279  0.854884  0.249383  1
  Ir  Ir24  1  0.644696  0.353815  0.749616  1
  Ir  Ir25  1  0.644696  0.646185  0.249616  1
  Ir  Ir26  1  0.354692  0.354358  0.250248  1
  Ir  Ir27  1  0.354692  0.645642  0.750248  1
  Ir  Ir28  1  0.500009  0.999934  0.121921  1
  Ir  Ir29  1  0.500009  0.000066  0.621921  1
  Ir  Ir30  1  0.000808  0.500012  0.878014  1
  Ir  Ir31  1  0.000808  0.499988  0.378014  1
