# generated using pymatgen
data_Hf2Zr3ZnSn2Sb
_symmetry_space_group_name_H-M   'P 1'
_cell_length_a   8.67717206
_cell_length_b   8.67123778
_cell_length_c   5.85046500
_cell_angle_alpha   90.00000000
_cell_angle_beta   90.00000000
_cell_angle_gamma   119.97737269
_symmetry_Int_Tables_number   1
_chemical_formula_structural   Hf2Zr3ZnSn2Sb
_chemical_formula_sum   'Hf4 Zr6 Zn2 Sn4 Sb2'
_cell_volume   381.31096965
_cell_formula_units_Z   2
loop_
 _symmetry_equiv_pos_site_id
 _symmetry_equiv_pos_as_xyz
  1  'x, y, z'
loop_
 _atom_site_type_symbol
 _atom_site_label
 _atom_site_symmetry_multiplicity
 _atom_site_fract_x
 _atom_site_fract_y
 _atom_site_fract_z
 _atom_site_occupancy
  Hf  Hf0  1  0.334286  0.667144  0.500000  1
  Hf  Hf1  1  0.666467  0.333233  0.000000  1
  Hf  Hf2  1  0.666467  0.333233  0.500000  1
  Hf  Hf3  1  0.334286  0.667144  0.000000  1
  Zr  Zr4  1  0.730853  0.731487  0.250000  1
  Zr  Zr5  1  0.730853  0.999366  0.750000  1
  Zr  Zr6  1  0.999459  0.267811  0.250000  1
  Zr  Zr7  1  0.999459  0.731646  0.750000  1
  Zr  Zr8  1  0.269016  0.268897  0.750000  1
  Zr  Zr9  1  0.269016  0.000119  0.250000  1
  Zn  Zn10  1  0.001562  0.000781  0.000000  1
  Zn  Zn11  1  0.001562  0.000781  0.500000  1
  Sn  Sn12  1  0.384002  0.999742  0.750000  1
  Sn  Sn13  1  0.384002  0.384259  0.250000  1
  Sn  Sn14  1  0.000366  0.614723  0.250000  1
  Sn  Sn15  1  0.000366  0.385643  0.750000  1
  Sb  Sb16  1  0.613993  0.613385  0.750000  1
  Sb  Sb17  1  0.613993  0.000608  0.250000  1
