# generated using pymatgen
data_Nd4Mn6CoAgO20
_symmetry_space_group_name_H-M   'P 1'
_cell_length_a   5.81974900
_cell_length_b   7.65463637
_cell_length_c   8.75922356
_cell_angle_alpha   89.36269632
_cell_angle_beta   90.00000000
_cell_angle_gamma   90.00000000
_symmetry_Int_Tables_number   1
_chemical_formula_structural   Nd4Mn6CoAgO20
_chemical_formula_sum   'Nd4 Mn6 Co1 Ag1 O20'
_cell_volume   390.18229899
_cell_formula_units_Z   1
loop_
 _symmetry_equiv_pos_site_id
 _symmetry_equiv_pos_as_xyz
  1  'x, y, z'
loop_
 _atom_site_type_symbol
 _atom_site_label
 _atom_site_symmetry_multiplicity
 _atom_site_fract_x
 _atom_site_fract_y
 _atom_site_fract_z
 _atom_site_occupancy
  Nd  Nd0  1  0.000000  0.361487  0.673993  1
  Nd  Nd1  1  0.000000  0.641547  0.326600  1
  Nd  Nd2  1  0.000000  0.853450  0.827033  1
  Nd  Nd3  1  0.000000  0.147449  0.171182  1
  Mn  Mn4  1  0.500000  0.590795  0.649875  1
  Mn  Mn5  1  0.500000  0.410618  0.352871  1
  Mn  Mn6  1  0.258546  0.505678  0.002661  1
  Mn  Mn7  1  0.743837  0.998042  0.494838  1
  Mn  Mn8  1  0.741454  0.505678  0.002661  1
  Mn  Mn9  1  0.256163  0.998042  0.494838  1
  Co  Co10  1  0.500000  0.906772  0.152725  1
  Ag  Ag11  1  0.500000  0.063900  0.844609  1
  O  O12  1  0.249928  0.900673  0.290759  1
  O  O13  1  0.233757  0.096062  0.698585  1
  O  O14  1  0.753345  0.405683  0.209391  1
  O  O15  1  0.752773  0.601550  0.793430  1
  O  O16  1  0.766243  0.096062  0.698585  1
  O  O17  1  0.750072  0.900673  0.290759  1
  O  O18  1  0.247227  0.601550  0.793430  1
  O  O19  1  0.246655  0.405683  0.209391  1
  O  O20  1  0.500000  0.361399  0.944555  1
  O  O21  1  0.500000  0.659859  0.066899  1
  O  O22  1  0.500000  0.848395  0.561502  1
  O  O23  1  0.500000  0.150687  0.432911  1
  O  O24  1  0.270002  0.992505  0.008579  1
  O  O25  1  0.723960  0.499186  0.502103  1
  O  O26  1  0.729998  0.992505  0.008579  1
  O  O27  1  0.276040  0.499186  0.502103  1
  O  O28  1  0.000000  0.156478  0.444007  1
  O  O29  1  0.000000  0.840072  0.547716  1
  O  O30  1  0.000000  0.661002  0.053430  1
  O  O31  1  0.000000  0.347333  0.949402  1
