# generated using pymatgen
data_Hf3Re3Si2P
_symmetry_space_group_name_H-M   'P 1'
_cell_length_a   6.90798300
_cell_length_b   6.90798345
_cell_length_c   3.41979100
_cell_angle_alpha   90.00000000
_cell_angle_beta   90.00000000
_cell_angle_gamma   120.00000262
_symmetry_Int_Tables_number   1
_chemical_formula_structural   Hf3Re3Si2P
_chemical_formula_sum   'Hf3 Re3 Si2 P1'
_cell_volume   141.32947117
_cell_formula_units_Z   1
loop_
 _symmetry_equiv_pos_site_id
 _symmetry_equiv_pos_as_xyz
  1  'x, y, z'
loop_
 _atom_site_type_symbol
 _atom_site_label
 _atom_site_symmetry_multiplicity
 _atom_site_fract_x
 _atom_site_fract_y
 _atom_site_fract_z
 _atom_site_occupancy
  Hf  Hf0  1  0.405330  0.403827  0.500000  1
  Hf  Hf1  1  0.596173  0.001504  0.500000  1
  Hf  Hf2  1  0.998496  0.594670  0.500000  1
  Re  Re3  1  0.745836  0.744487  0.000000  1
  Re  Re4  1  0.255513  0.001349  0.000000  1
  Re  Re5  1  0.998651  0.254164  0.000000  1
  Si  Si6  1  0.333333  0.666667  0.000000  1
  Si  Si7  1  0.000000  0.000000  0.500000  1
  P  P8  1  0.666667  0.333333  0.000000  1
