# generated using pymatgen
data_YPa3Re3TcB16
_symmetry_space_group_name_H-M   'P 1'
_cell_length_a   3.64756200
_cell_length_b   5.98323571
_cell_length_c   11.58525740
_cell_angle_alpha   90.05612377
_cell_angle_beta   90.00000000
_cell_angle_gamma   90.00000000
_symmetry_Int_Tables_number   1
_chemical_formula_structural   YPa3Re3TcB16
_chemical_formula_sum   'Y1 Pa3 Re3 Tc1 B16'
_cell_volume   252.83912227
_cell_formula_units_Z   1
loop_
 _symmetry_equiv_pos_site_id
 _symmetry_equiv_pos_as_xyz
  1  'x, y, z'
loop_
 _atom_site_type_symbol
 _atom_site_label
 _atom_site_symmetry_multiplicity
 _atom_site_fract_x
 _atom_site_fract_y
 _atom_site_fract_z
 _atom_site_occupancy
  Y  Y0  1  0.500000  0.372260  0.150177  1
  Pa  Pa1  1  0.500000  0.626986  0.850992  1
  Pa  Pa2  1  0.500000  0.127904  0.649461  1
  Pa  Pa3  1  0.500000  0.873410  0.349181  1
  Re  Re4  1  0.500000  0.639090  0.594591  1
  Re  Re5  1  0.500000  0.137143  0.905120  1
  Re  Re6  1  0.500000  0.861860  0.091380  1
  Tc  Tc7  1  0.500000  0.360424  0.407356  1
  B  B8  1  0.000000  0.113545  0.046973  1
  B  B9  1  0.000000  0.887377  0.954357  1
  B  B10  1  0.000000  0.387222  0.545700  1
  B  B11  1  0.000000  0.611923  0.453288  1
  B  B12  1  0.000000  0.134566  0.468429  1
  B  B13  1  0.000000  0.864423  0.531308  1
  B  B14  1  0.000000  0.363651  0.968057  1
  B  B15  1  0.000000  0.637338  0.031024  1
  B  B16  1  0.000000  0.024300  0.191754  1
  B  B17  1  0.000000  0.972676  0.808701  1
  B  B18  1  0.000000  0.472324  0.691198  1
  B  B19  1  0.000000  0.527605  0.309029  1
  B  B20  1  0.000000  0.211985  0.314645  1
  B  B21  1  0.000000  0.788761  0.686912  1
  B  B22  1  0.000000  0.288481  0.813211  1
  B  B23  1  0.000000  0.714743  0.187160  1
