# generated using pymatgen
data_Dy5Tm5(InSb)4
_symmetry_space_group_name_H-M   'P 1'
_cell_length_a   8.70150299
_cell_length_b   8.81200020
_cell_length_c   8.05475244
_cell_angle_alpha   90.05684222
_cell_angle_beta   90.05392997
_cell_angle_gamma   125.17136205
_symmetry_Int_Tables_number   1
_chemical_formula_structural   Dy5Tm5(InSb)4
_chemical_formula_sum   'Dy5 Tm5 In4 Sb4'
_cell_volume   504.86135854
_cell_formula_units_Z   1
loop_
 _symmetry_equiv_pos_site_id
 _symmetry_equiv_pos_as_xyz
  1  'x, y, z'
loop_
 _atom_site_type_symbol
 _atom_site_label
 _atom_site_symmetry_multiplicity
 _atom_site_fract_x
 _atom_site_fract_y
 _atom_site_fract_z
 _atom_site_occupancy
  Dy  Dy0  1  0.813744  0.535374  0.167841  1
  Dy  Dy1  1  0.530149  0.804879  0.166511  1
  Dy  Dy2  1  0.187059  0.465006  0.831905  1
  Dy  Dy3  1  0.686931  0.964212  0.667504  1
  Dy  Dy4  1  0.312313  0.034645  0.332750  1
  Tm  Tm5  1  0.030159  0.300469  0.334719  1
  Tm  Tm6  1  0.968849  0.698216  0.665124  1
  Tm  Tm7  1  0.470142  0.198016  0.834983  1
  Tm  Tm8  1  0.000135  0.000366  0.999653  1
  Tm  Tm9  1  0.499810  0.499066  0.500324  1
  In  In10  1  0.371034  0.370659  0.128846  1
  In  In11  1  0.629327  0.628845  0.871333  1
  In  In12  1  0.129542  0.129118  0.629034  1
  In  In13  1  0.871073  0.870567  0.371179  1
  Sb  Sb14  1  0.794113  0.200679  0.004849  1
  Sb  Sb15  1  0.207366  0.802329  0.992159  1
  Sb  Sb16  1  0.708637  0.300773  0.506384  1
  Sb  Sb17  1  0.289615  0.696781  0.494901  1
