# generated using pymatgen
data_Tb7Ho5Al2(NiOs)2
_symmetry_space_group_name_H-M   'P 1'
_cell_length_a   8.38893470
_cell_length_b   8.38893453
_cell_length_c   8.38533940
_cell_angle_alpha   112.89347989
_cell_angle_beta   110.80651716
_cell_angle_gamma   104.83797534
_symmetry_Int_Tables_number   1
_chemical_formula_structural   Tb7Ho5Al2(NiOs)2
_chemical_formula_sum   'Tb7 Ho5 Al2 Ni2 Os2'
_cell_volume   451.78550222
_cell_formula_units_Z   1
loop_
 _symmetry_equiv_pos_site_id
 _symmetry_equiv_pos_as_xyz
  1  'x, y, z'
loop_
 _atom_site_type_symbol
 _atom_site_label
 _atom_site_symmetry_multiplicity
 _atom_site_fract_x
 _atom_site_fract_y
 _atom_site_fract_z
 _atom_site_occupancy
  Tb  Tb0  1  0.436204  0.241747  0.193781  1
  Tb  Tb1  1  0.564867  0.758677  0.806846  1
  Tb  Tb2  1  0.048170  0.241979  0.806846  1
  Tb  Tb3  1  0.952033  0.757577  0.193781  1
  Tb  Tb4  1  0.181208  0.280918  0.462126  1
  Tb  Tb5  1  0.818195  0.719504  0.537700  1
  Tb  Tb6  1  0.181755  0.719555  0.901310  1
  Ho  Ho7  1  0.817820  0.279921  0.097741  1
  Ho  Ho8  1  0.330462  0.644745  0.314511  1
  Ho  Ho9  1  0.669652  0.354919  0.686107  1
  Ho  Ho10  1  0.331190  0.016455  0.686107  1
  Ho  Ho11  1  0.669765  0.984051  0.314511  1
  Al  Al12  1  0.500215  0.500141  0.000354  1
  Al  Al13  1  0.999901  0.000817  0.000719  1
  Ni  Ni14  1  0.115288  0.615154  0.498190  1
  Ni  Ni15  1  0.883036  0.382902  0.498190  1
  Os  Os16  1  0.325956  0.000343  0.326299  1
  Os  Os17  1  0.674282  0.000597  0.674879  1
