# generated using pymatgen
data_Sr3PdRhO6
_symmetry_space_group_name_H-M   'P 1'
_cell_length_a   6.86076772
_cell_length_b   6.86076702
_cell_length_c   6.79600616
_cell_angle_alpha   89.95022292
_cell_angle_beta   89.95022439
_cell_angle_gamma   91.67419685
_symmetry_Int_Tables_number   1
_chemical_formula_structural   Sr3PdRhO6
_chemical_formula_sum   'Sr6 Pd2 Rh2 O12'
_cell_volume   319.75208307
_cell_formula_units_Z   2
loop_
 _symmetry_equiv_pos_site_id
 _symmetry_equiv_pos_as_xyz
  1  'x, y, z'
loop_
 _atom_site_type_symbol
 _atom_site_label
 _atom_site_symmetry_multiplicity
 _atom_site_fract_x
 _atom_site_fract_y
 _atom_site_fract_z
 _atom_site_occupancy
  Sr  Sr0  1  0.097212  0.902788  0.750000  1
  Sr  Sr1  1  0.902788  0.097212  0.250000  1
  Sr  Sr2  1  0.390070  0.241380  0.374809  1
  Sr  Sr3  1  0.758620  0.609930  0.125191  1
  Sr  Sr4  1  0.609930  0.758620  0.625191  1
  Sr  Sr5  1  0.241380  0.390070  0.874809  1
  Pd  Pd6  1  0.684191  0.315809  0.750000  1
  Pd  Pd7  1  0.315809  0.684191  0.250000  1
  Rh  Rh8  1  0.500000  0.000000  0.000000  1
  Rh  Rh9  1  0.000000  0.500000  0.500000  1
  O  O10  1  0.390906  0.722161  0.957153  1
  O  O11  1  0.277839  0.609094  0.542847  1
  O  O12  1  0.609094  0.277839  0.042847  1
  O  O13  1  0.722161  0.390906  0.457153  1
  O  O14  1  0.776962  0.918622  0.935046  1
  O  O15  1  0.081378  0.223038  0.564954  1
  O  O16  1  0.223038  0.081378  0.064954  1
  O  O17  1  0.918622  0.776962  0.435046  1
  O  O18  1  0.531154  0.898152  0.282732  1
  O  O19  1  0.101848  0.468846  0.217268  1
  O  O20  1  0.898152  0.531154  0.782732  1
  O  O21  1  0.468846  0.101848  0.717268  1
