# generated using pymatgen
data_Lu5(Sc5Bi4)3
_symmetry_space_group_name_H-M   'P 1'
_cell_length_a   7.85693906
_cell_length_b   9.07590900
_cell_length_c   11.52968909
_cell_angle_alpha   90.00000000
_cell_angle_beta   90.01383421
_cell_angle_gamma   90.00000000
_symmetry_Int_Tables_number   1
_chemical_formula_structural   Lu5(Sc5Bi4)3
_chemical_formula_sum   'Lu5 Sc15 Bi12'
_cell_volume   822.16900576
_cell_formula_units_Z   1
loop_
 _symmetry_equiv_pos_site_id
 _symmetry_equiv_pos_as_xyz
  1  'x, y, z'
loop_
 _atom_site_type_symbol
 _atom_site_label
 _atom_site_symmetry_multiplicity
 _atom_site_fract_x
 _atom_site_fract_y
 _atom_site_fract_z
 _atom_site_occupancy
  Lu  Lu0  1  0.851783  0.250000  0.218901  1
  Lu  Lu1  1  0.187994  0.250000  0.780304  1
  Lu  Lu2  1  0.813263  0.750000  0.218766  1
  Lu  Lu3  1  0.314295  0.750000  0.281103  1
  Lu  Lu4  1  0.686744  0.250000  0.718525  1
  Sc  Sc5  1  0.020798  0.250000  0.510748  1
  Sc  Sc6  1  0.978975  0.750000  0.490238  1
  Sc  Sc7  1  0.478688  0.750000  0.009870  1
  Sc  Sc8  1  0.520059  0.250000  0.989120  1
  Sc  Sc9  1  0.352769  0.250000  0.280799  1
  Sc  Sc10  1  0.647452  0.750000  0.719212  1
  Sc  Sc11  1  0.147399  0.750000  0.780814  1
  Sc  Sc12  1  0.195013  0.066756  0.060055  1
  Sc  Sc13  1  0.805047  0.933059  0.939398  1
  Sc  Sc14  1  0.305327  0.933124  0.561018  1
  Sc  Sc15  1  0.805047  0.566941  0.939398  1
  Sc  Sc16  1  0.694055  0.065993  0.440920  1
  Sc  Sc17  1  0.195013  0.433244  0.060055  1
  Sc  Sc18  1  0.694055  0.434007  0.440920  1
  Sc  Sc19  1  0.305327  0.566876  0.561018  1
  Bi  Bi20  1  0.404406  0.250000  0.536051  1
  Bi  Bi21  1  0.595076  0.750000  0.464222  1
  Bi  Bi22  1  0.094952  0.750000  0.035832  1
  Bi  Bi23  1  0.905008  0.250000  0.959585  1
  Bi  Bi24  1  0.067447  0.005165  0.329345  1
  Bi  Bi25  1  0.935294  0.991943  0.672636  1
  Bi  Bi26  1  0.435385  0.992052  0.827342  1
  Bi  Bi27  1  0.935294  0.508057  0.672636  1
  Bi  Bi28  1  0.562601  0.006154  0.172242  1
  Bi  Bi29  1  0.067447  0.494835  0.329345  1
  Bi  Bi30  1  0.562601  0.493846  0.172242  1
  Bi  Bi31  1  0.435385  0.507948  0.827342  1
