# generated using pymatgen
data_Tb2Lu6Ga3Co
_symmetry_space_group_name_H-M   'P 1'
_cell_length_a   9.83594600
_cell_length_b   9.82466121
_cell_length_c   6.91073805
_cell_angle_alpha   90.01194826
_cell_angle_beta   90.00000000
_cell_angle_gamma   120.03800327
_symmetry_Int_Tables_number   1
_chemical_formula_structural   Tb2Lu6Ga3Co
_chemical_formula_sum   'Tb4 Lu12 Ga6 Co2'
_cell_volume   578.12577319
_cell_formula_units_Z   2
loop_
 _symmetry_equiv_pos_site_id
 _symmetry_equiv_pos_as_xyz
  1  'x, y, z'
loop_
 _atom_site_type_symbol
 _atom_site_label
 _atom_site_symmetry_multiplicity
 _atom_site_fract_x
 _atom_site_fract_y
 _atom_site_fract_z
 _atom_site_occupancy
  Tb  Tb0  1  0.070706  0.535760  0.291211  1
  Tb  Tb1  1  0.465053  0.535760  0.291211  1
  Tb  Tb2  1  0.000171  0.000342  0.769017  1
  Tb  Tb3  1  0.000084  0.000167  0.269000  1
  Lu  Lu4  1  0.825503  0.651008  0.490346  1
  Lu  Lu5  1  0.349895  0.173706  0.489044  1
  Lu  Lu6  1  0.823810  0.173706  0.489044  1
  Lu  Lu7  1  0.174542  0.349083  0.984258  1
  Lu  Lu8  1  0.650671  0.826248  0.985790  1
  Lu  Lu9  1  0.175578  0.826248  0.985790  1
  Lu  Lu10  1  0.665945  0.331889  0.172545  1
  Lu  Lu11  1  0.333972  0.667945  0.673636  1
  Lu  Lu12  1  0.537054  0.074107  0.793043  1
  Lu  Lu13  1  0.924798  0.462391  0.792638  1
  Lu  Lu14  1  0.537594  0.462391  0.792638  1
  Lu  Lu15  1  0.463632  0.927264  0.292571  1
  Ga  Ga16  1  0.835756  0.671514  0.041114  1
  Ga  Ga17  1  0.328426  0.164335  0.042400  1
  Ga  Ga18  1  0.835908  0.164335  0.042400  1
  Ga  Ga19  1  0.163132  0.326263  0.543919  1
  Ga  Ga20  1  0.672231  0.836676  0.542929  1
  Ga  Ga21  1  0.164446  0.836676  0.542929  1
  Co  Co22  1  0.666551  0.333100  0.555407  1
  Co  Co23  1  0.334542  0.669084  0.053193  1
