# generated using pymatgen
data_Dy3HoTmCoSb2
_symmetry_space_group_name_H-M   'P 1'
_cell_length_a   7.83959600
_cell_length_b   8.75298300
_cell_length_c   12.16797000
_cell_angle_alpha   90.00000000
_cell_angle_beta   90.00000000
_cell_angle_gamma   90.00000000
_symmetry_Int_Tables_number   1
_chemical_formula_structural   Dy3HoTmCoSb2
_chemical_formula_sum   'Dy12 Ho4 Tm4 Co4 Sb8'
_cell_volume   834.96428247
_cell_formula_units_Z   4
loop_
 _symmetry_equiv_pos_site_id
 _symmetry_equiv_pos_as_xyz
  1  'x, y, z'
loop_
 _atom_site_type_symbol
 _atom_site_label
 _atom_site_symmetry_multiplicity
 _atom_site_fract_x
 _atom_site_fract_y
 _atom_site_fract_z
 _atom_site_occupancy
  Dy  Dy0  1  0.154100  0.750131  0.203258  1
  Dy  Dy1  1  0.345900  0.749869  0.703258  1
  Dy  Dy2  1  0.845900  0.250131  0.796742  1
  Dy  Dy3  1  0.654100  0.249869  0.296742  1
  Dy  Dy4  1  0.454004  0.749786  0.997844  1
  Dy  Dy5  1  0.045996  0.750214  0.497844  1
  Dy  Dy6  1  0.545996  0.249786  0.002156  1
  Dy  Dy7  1  0.954004  0.250214  0.502156  1
  Dy  Dy8  1  0.623580  0.749739  0.307693  1
  Dy  Dy9  1  0.876420  0.750261  0.807693  1
  Dy  Dy10  1  0.376420  0.249739  0.692307  1
  Dy  Dy11  1  0.123580  0.250261  0.192307  1
  Ho  Ho12  1  0.822166  0.535033  0.065266  1
  Ho  Ho13  1  0.677834  0.964967  0.565266  1
  Ho  Ho14  1  0.177834  0.035033  0.934734  1
  Ho  Ho15  1  0.322166  0.464967  0.434734  1
  Tm  Tm16  1  0.176072  0.464963  0.934768  1
  Tm  Tm17  1  0.323928  0.035037  0.434768  1
  Tm  Tm18  1  0.823928  0.964963  0.065232  1
  Tm  Tm19  1  0.676072  0.535037  0.565232  1
  Co  Co20  1  0.436558  0.749770  0.491456  1
  Co  Co21  1  0.063442  0.750230  0.991456  1
  Co  Co22  1  0.563442  0.249770  0.508544  1
  Co  Co23  1  0.936558  0.250230  0.008544  1
  Sb  Sb24  1  0.929573  0.507741  0.327007  1
  Sb  Sb25  1  0.570427  0.992259  0.827007  1
  Sb  Sb26  1  0.070427  0.007741  0.672993  1
  Sb  Sb27  1  0.429573  0.492259  0.172993  1
  Sb  Sb28  1  0.069754  0.492550  0.673087  1
  Sb  Sb29  1  0.430246  0.007450  0.173087  1
  Sb  Sb30  1  0.930246  0.992550  0.326913  1
  Sb  Sb31  1  0.569754  0.507450  0.826913  1
