# generated using pymatgen
data_Hf6Ti4Al4Si8Os7
_symmetry_space_group_name_H-M   'P 1'
_cell_length_a   8.62294078
_cell_length_b   8.62294016
_cell_length_c   8.62294000
_cell_angle_alpha   60.00000062
_cell_angle_beta   60.00000301
_cell_angle_gamma   59.99999740
_symmetry_Int_Tables_number   1
_chemical_formula_structural   Hf6Ti4Al4Si8Os7
_chemical_formula_sum   'Hf6 Ti4 Al4 Si8 Os7'
_cell_volume   453.36829499
_cell_formula_units_Z   1
loop_
 _symmetry_equiv_pos_site_id
 _symmetry_equiv_pos_as_xyz
  1  'x, y, z'
loop_
 _atom_site_type_symbol
 _atom_site_label
 _atom_site_symmetry_multiplicity
 _atom_site_fract_x
 _atom_site_fract_y
 _atom_site_fract_z
 _atom_site_occupancy
  Hf  Hf0  1  0.192042  0.807958  0.807958  1
  Hf  Hf1  1  0.807958  0.192042  0.192042  1
  Hf  Hf2  1  0.807958  0.192042  0.807958  1
  Hf  Hf3  1  0.807958  0.807958  0.192042  1
  Hf  Hf4  1  0.192042  0.807958  0.192042  1
  Hf  Hf5  1  0.192042  0.192042  0.807958  1
  Ti  Ti6  1  0.622656  0.622656  0.622656  1
  Ti  Ti7  1  0.622656  0.622656  0.132035  1
  Ti  Ti8  1  0.132035  0.622656  0.622656  1
  Ti  Ti9  1  0.622656  0.132035  0.622656  1
  Al  Al10  1  0.379731  0.379731  0.379731  1
  Al  Al11  1  0.379731  0.379731  0.860805  1
  Al  Al12  1  0.379731  0.860805  0.379731  1
  Al  Al13  1  0.860805  0.379731  0.379731  1
  Si  Si14  1  0.844389  0.844389  0.844389  1
  Si  Si15  1  0.844389  0.844389  0.466832  1
  Si  Si16  1  0.466832  0.844389  0.844389  1
  Si  Si17  1  0.844389  0.466832  0.844389  1
  Si  Si18  1  0.157804  0.157804  0.157804  1
  Si  Si19  1  0.157804  0.157804  0.526590  1
  Si  Si20  1  0.157804  0.526590  0.157804  1
  Si  Si21  1  0.526590  0.157804  0.157804  1
  Os  Os22  1  0.500000  0.500000  0.500000  1
  Os  Os23  1  0.999837  0.500163  0.500163  1
  Os  Os24  1  0.500163  0.999837  0.999837  1
  Os  Os25  1  0.500163  0.999837  0.500163  1
  Os  Os26  1  0.500163  0.500163  0.999837  1
  Os  Os27  1  0.999837  0.500163  0.999837  1
  Os  Os28  1  0.999837  0.999837  0.500163  1
