# generated using pymatgen
data_HfCo5P3
_symmetry_space_group_name_H-M   'P 1'
_cell_length_a   3.58578800
_cell_length_b   10.14431400
_cell_length_c   11.59121000
_cell_angle_alpha   90.00000000
_cell_angle_beta   90.00000000
_cell_angle_gamma   90.00000000
_symmetry_Int_Tables_number   1
_chemical_formula_structural   HfCo5P3
_chemical_formula_sum   'Hf4 Co20 P12'
_cell_volume   421.63442974
_cell_formula_units_Z   4
loop_
 _symmetry_equiv_pos_site_id
 _symmetry_equiv_pos_as_xyz
  1  'x, y, z'
loop_
 _atom_site_type_symbol
 _atom_site_label
 _atom_site_symmetry_multiplicity
 _atom_site_fract_x
 _atom_site_fract_y
 _atom_site_fract_z
 _atom_site_occupancy
  Hf  Hf0  1  0.250000  0.581441  0.703379  1
  Hf  Hf1  1  0.250000  0.918559  0.203379  1
  Hf  Hf2  1  0.750000  0.418559  0.296621  1
  Hf  Hf3  1  0.750000  0.081441  0.796621  1
  Co  Co4  1  0.250000  0.719622  0.993025  1
  Co  Co5  1  0.250000  0.780378  0.493025  1
  Co  Co6  1  0.750000  0.280378  0.006975  1
  Co  Co7  1  0.750000  0.219622  0.506975  1
  Co  Co8  1  0.250000  0.409420  0.484579  1
  Co  Co9  1  0.250000  0.090580  0.984579  1
  Co  Co10  1  0.750000  0.590580  0.515421  1
  Co  Co11  1  0.750000  0.909420  0.015421  1
  Co  Co12  1  0.250000  0.223296  0.178821  1
  Co  Co13  1  0.250000  0.276705  0.678821  1
  Co  Co14  1  0.750000  0.776705  0.821179  1
  Co  Co15  1  0.750000  0.723295  0.321179  1
  Co  Co16  1  0.250000  0.883899  0.700729  1
  Co  Co17  1  0.250000  0.616101  0.200729  1
  Co  Co18  1  0.750000  0.116101  0.299271  1
  Co  Co19  1  0.750000  0.383899  0.799271  1
  Co  Co20  1  0.250000  0.467094  0.929981  1
  Co  Co21  1  0.250000  0.032906  0.429981  1
  Co  Co22  1  0.750000  0.532906  0.070019  1
  Co  Co23  1  0.750000  0.967094  0.570019  1
  P  P24  1  0.250000  0.418609  0.114574  1
  P  P25  1  0.250000  0.081391  0.614574  1
  P  P26  1  0.750000  0.581391  0.885426  1
  P  P27  1  0.750000  0.918609  0.385426  1
  P  P28  1  0.250000  0.266020  0.870058  1
  P  P29  1  0.250000  0.233980  0.370058  1
  P  P30  1  0.750000  0.733980  0.129942  1
  P  P31  1  0.750000  0.766020  0.629942  1
  P  P32  1  0.250000  0.599463  0.389061  1
  P  P33  1  0.250000  0.900537  0.889061  1
  P  P34  1  0.750000  0.400537  0.610939  1
  P  P35  1  0.750000  0.099463  0.110939  1
