# generated using pymatgen
data_Be2FeRu2
_symmetry_space_group_name_H-M   'P 1'
_cell_length_a   6.05367600
_cell_length_b   6.05367600
_cell_length_c   3.01209400
_cell_angle_alpha   90.00000000
_cell_angle_beta   90.00000000
_cell_angle_gamma   90.00000000
_symmetry_Int_Tables_number   1
_chemical_formula_structural   Be2FeRu2
_chemical_formula_sum   'Be4 Fe2 Ru4'
_cell_volume   110.38418807
_cell_formula_units_Z   2
loop_
 _symmetry_equiv_pos_site_id
 _symmetry_equiv_pos_as_xyz
  1  'x, y, z'
loop_
 _atom_site_type_symbol
 _atom_site_label
 _atom_site_symmetry_multiplicity
 _atom_site_fract_x
 _atom_site_fract_y
 _atom_site_fract_z
 _atom_site_occupancy
  Be  Be0  1  0.123393  0.623393  0.000000  1
  Be  Be1  1  0.876607  0.376607  0.000000  1
  Be  Be2  1  0.623393  0.876607  0.000000  1
  Be  Be3  1  0.376607  0.123393  0.000000  1
  Fe  Fe4  1  0.500000  0.500000  0.000000  1
  Fe  Fe5  1  0.000000  0.000000  0.000000  1
  Ru  Ru6  1  0.672787  0.172787  0.500000  1
  Ru  Ru7  1  0.327213  0.827213  0.500000  1
  Ru  Ru8  1  0.172787  0.327213  0.500000  1
  Ru  Ru9  1  0.827213  0.672787  0.500000  1
