# generated using pymatgen
data_ErTm15(CoHg)4
_symmetry_space_group_name_H-M   'P 1'
_cell_length_a   9.34044457
_cell_length_b   9.34029231
_cell_length_c   9.34026400
_cell_angle_alpha   60.02614897
_cell_angle_beta   60.02666637
_cell_angle_gamma   60.02760623
_symmetry_Int_Tables_number   1
_chemical_formula_structural   ErTm15(CoHg)4
_chemical_formula_sum   'Er1 Tm15 Co4 Hg4'
_cell_volume   576.54870707
_cell_formula_units_Z   1
loop_
 _symmetry_equiv_pos_site_id
 _symmetry_equiv_pos_as_xyz
  1  'x, y, z'
loop_
 _atom_site_type_symbol
 _atom_site_label
 _atom_site_symmetry_multiplicity
 _atom_site_fract_x
 _atom_site_fract_y
 _atom_site_fract_z
 _atom_site_occupancy
  Er  Er0  1  0.347840  0.347432  0.347747  1
  Tm  Tm1  1  0.348040  0.347620  0.956048  1
  Tm  Tm2  1  0.347930  0.956163  0.347709  1
  Tm  Tm3  1  0.955928  0.347737  0.347929  1
  Tm  Tm4  1  0.812559  0.187769  0.187736  1
  Tm  Tm5  1  0.188233  0.811987  0.811787  1
  Tm  Tm6  1  0.187735  0.812760  0.187749  1
  Tm  Tm7  1  0.811823  0.188238  0.811990  1
  Tm  Tm8  1  0.187706  0.187747  0.812683  1
  Tm  Tm9  1  0.811703  0.812077  0.188238  1
  Tm  Tm10  1  0.938367  0.561838  0.561791  1
  Tm  Tm11  1  0.561462  0.939057  0.939065  1
  Tm  Tm12  1  0.561881  0.938293  0.561851  1
  Tm  Tm13  1  0.939119  0.561431  0.939099  1
  Tm  Tm14  1  0.561827  0.561847  0.938338  1
  Tm  Tm15  1  0.939106  0.939075  0.561416  1
  Co  Co16  1  0.141706  0.141740  0.141740  1
  Co  Co17  1  0.140314  0.140348  0.575757  1
  Co  Co18  1  0.140303  0.575792  0.140351  1
  Co  Co19  1  0.575771  0.140341  0.140348  1
  Hg  Hg20  1  0.584146  0.584201  0.584218  1
  Hg  Hg21  1  0.584359  0.584417  0.247674  1
  Hg  Hg22  1  0.584365  0.247711  0.584394  1
  Hg  Hg23  1  0.247778  0.584383  0.584346  1
