# generated using pymatgen
data_Dy4Mg2B4RuRh9
_symmetry_space_group_name_H-M   'P 1'
_cell_length_a   9.68881212
_cell_length_b   9.68881212
_cell_length_c   3.15186300
_cell_angle_alpha   90.00000000
_cell_angle_beta   90.00000000
_cell_angle_gamma   90.21542082
_symmetry_Int_Tables_number   1
_chemical_formula_structural   Dy4Mg2B4RuRh9
_chemical_formula_sum   'Dy4 Mg2 B4 Ru1 Rh9'
_cell_volume   295.87299724
_cell_formula_units_Z   1
loop_
 _symmetry_equiv_pos_site_id
 _symmetry_equiv_pos_as_xyz
  1  'x, y, z'
loop_
 _atom_site_type_symbol
 _atom_site_label
 _atom_site_symmetry_multiplicity
 _atom_site_fract_x
 _atom_site_fract_y
 _atom_site_fract_z
 _atom_site_occupancy
  Dy  Dy0  1  0.674377  0.174377  0.000000  1
  Dy  Dy1  1  0.325623  0.825623  0.000000  1
  Dy  Dy2  1  0.177988  0.322012  0.000000  1
  Dy  Dy3  1  0.822012  0.677988  0.000000  1
  Mg  Mg4  1  0.000000  0.000000  0.000000  1
  Mg  Mg5  1  0.500000  0.500000  0.000000  1
  B  B6  1  0.123750  0.623750  0.000000  1
  B  B7  1  0.876250  0.376250  0.000000  1
  B  B8  1  0.619948  0.880052  0.000000  1
  B  B9  1  0.380052  0.119948  0.000000  1
  Ru  Ru10  1  0.500000  0.000000  0.500000  1
  Rh  Rh11  1  0.000000  0.500000  0.500000  1
  Rh  Rh12  1  0.223577  0.070874  0.500000  1
  Rh  Rh13  1  0.776423  0.929126  0.500000  1
  Rh  Rh14  1  0.070161  0.774471  0.500000  1
  Rh  Rh15  1  0.725529  0.429839  0.500000  1
  Rh  Rh16  1  0.929839  0.225529  0.500000  1
  Rh  Rh17  1  0.274471  0.570161  0.500000  1
  Rh  Rh18  1  0.570874  0.723577  0.500000  1
  Rh  Rh19  1  0.429126  0.276423  0.500000  1
