# generated using pymatgen
data_Gd10Al4(OsRu)3
_symmetry_space_group_name_H-M   'P 1'
_cell_length_a   8.40869991
_cell_length_b   8.39017366
_cell_length_c   8.40870000
_cell_angle_alpha   109.25153515
_cell_angle_beta   109.95984272
_cell_angle_gamma   109.29164506
_symmetry_Int_Tables_number   1
_chemical_formula_structural   Gd10Al4(OsRu)3
_chemical_formula_sum   'Gd10 Al4 Os3 Ru3'
_cell_volume   456.15365572
_cell_formula_units_Z   1
loop_
 _symmetry_equiv_pos_site_id
 _symmetry_equiv_pos_as_xyz
  1  'x, y, z'
loop_
 _atom_site_type_symbol
 _atom_site_label
 _atom_site_symmetry_multiplicity
 _atom_site_fract_x
 _atom_site_fract_y
 _atom_site_fract_z
 _atom_site_occupancy
  Gd  Gd0  1  0.248256  0.680701  0.431769  1
  Gd  Gd1  1  0.751069  0.819299  0.067555  1
  Gd  Gd2  1  0.433162  0.250000  0.683162  1
  Gd  Gd3  1  0.680883  0.431942  0.250521  1
  Gd  Gd4  1  0.067575  0.750000  0.817575  1
  Gd  Gd5  1  0.818578  0.068058  0.748940  1
  Gd  Gd6  1  0.213540  0.214054  0.214205  1
  Gd  Gd7  1  0.499711  0.999330  0.286167  1
  Gd  Gd8  1  0.286839  0.500670  0.000382  1
  Gd  Gd9  1  0.000150  0.285946  0.499486  1
  Al  Al10  1  0.588785  0.588979  0.589565  1
  Al  Al11  1  0.500221  0.000306  0.911007  1
  Al  Al12  1  0.910701  0.499694  0.999916  1
  Al  Al13  1  0.000585  0.911021  0.499805  1
  Os  Os14  1  0.250151  0.121189  0.870932  1
  Os  Os15  1  0.749744  0.378811  0.628962  1
  Os  Os16  1  0.870494  0.250000  0.120495  1
  Ru  Ru17  1  0.119970  0.869780  0.249984  1
  Ru  Ru18  1  0.629384  0.750000  0.379384  1
  Ru  Ru19  1  0.380203  0.630219  0.750189  1
