# generated using pymatgen
data_LiHf2As2PPd3
_symmetry_space_group_name_H-M   'P 1'
_cell_length_a   6.70415135
_cell_length_b   6.82715569
_cell_length_c   3.73806200
_cell_angle_alpha   90.00000000
_cell_angle_beta   90.00000000
_cell_angle_gamma   119.47839826
_symmetry_Int_Tables_number   1
_chemical_formula_structural   LiHf2As2PPd3
_chemical_formula_sum   'Li1 Hf2 As2 P1 Pd3'
_cell_volume   148.94279230
_cell_formula_units_Z   1
loop_
 _symmetry_equiv_pos_site_id
 _symmetry_equiv_pos_as_xyz
  1  'x, y, z'
loop_
 _atom_site_type_symbol
 _atom_site_label
 _atom_site_symmetry_multiplicity
 _atom_site_fract_x
 _atom_site_fract_y
 _atom_site_fract_z
 _atom_site_occupancy
  Li  Li0  1  0.596532  0.994013  0.000000  1
  Hf  Hf1  1  0.005801  0.598118  0.000000  1
  Hf  Hf2  1  0.401172  0.414279  0.000000  1
  As  As3  1  0.665921  0.343274  0.500000  1
  As  As4  1  0.009020  0.001141  0.000000  1
  P  P5  1  0.321216  0.653326  0.500000  1
  Pd  Pd6  1  0.277842  0.983138  0.500000  1
  Pd  Pd7  1  0.997986  0.260005  0.500000  1
  Pd  Pd8  1  0.724508  0.752706  0.500000  1
