# generated using pymatgen
data_Li2TbSmBiPb
_symmetry_space_group_name_H-M   'P 1'
_cell_length_a   4.84500900
_cell_length_b   4.84500936
_cell_length_c   7.30944800
_cell_angle_alpha   90.00000000
_cell_angle_beta   90.00000000
_cell_angle_gamma   120.00000438
_symmetry_Int_Tables_number   1
_chemical_formula_structural   Li2TbSmBiPb
_chemical_formula_sum   'Li2 Tb1 Sm1 Bi1 Pb1'
_cell_volume   148.59507026
_cell_formula_units_Z   1
loop_
 _symmetry_equiv_pos_site_id
 _symmetry_equiv_pos_as_xyz
  1  'x, y, z'
loop_
 _atom_site_type_symbol
 _atom_site_label
 _atom_site_symmetry_multiplicity
 _atom_site_fract_x
 _atom_site_fract_y
 _atom_site_fract_z
 _atom_site_occupancy
  Li  Li0  1  0.666667  0.333333  0.740931  1
  Li  Li1  1  0.333333  0.666667  0.256331  1
  Tb  Tb2  1  0.000000  0.000000  0.495597  1
  Sm  Sm3  1  0.000000  0.000000  0.005033  1
  Bi  Bi4  1  0.333333  0.666667  0.748443  1
  Pb  Pb5  1  0.666667  0.333333  0.253667  1
