# generated using pymatgen
data_Al3Ga3Ni2(Pt3Rh)2
_symmetry_space_group_name_H-M   'P 1'
_cell_length_a   3.99769100
_cell_length_b   5.34597985
_cell_length_c   10.68854891
_cell_angle_alpha   96.99784025
_cell_angle_beta   90.00000000
_cell_angle_gamma   90.00000000
_symmetry_Int_Tables_number   1
_chemical_formula_structural   Al3Ga3Ni2(Pt3Rh)2
_chemical_formula_sum   'Al3 Ga3 Ni2 Pt6 Rh2'
_cell_volume   226.72948877
_cell_formula_units_Z   1
loop_
 _symmetry_equiv_pos_site_id
 _symmetry_equiv_pos_as_xyz
  1  'x, y, z'
loop_
 _atom_site_type_symbol
 _atom_site_label
 _atom_site_symmetry_multiplicity
 _atom_site_fract_x
 _atom_site_fract_y
 _atom_site_fract_z
 _atom_site_occupancy
  Al  Al0  1  0.500000  0.289121  0.356517  1
  Al  Al1  1  0.500000  0.291289  0.857564  1
  Al  Al2  1  0.500000  0.714696  0.144624  1
  Ga  Ga3  1  0.500000  0.710211  0.647662  1
  Ga  Ga4  1  0.000000  0.995447  0.998248  1
  Ga  Ga5  1  0.000000  0.991637  0.496061  1
  Ni  Ni6  1  0.000000  0.501262  0.249370  1
  Ni  Ni7  1  0.000000  0.504241  0.750131  1
  Pt  Pt8  1  0.500000  0.223928  0.111440  1
  Pt  Pt9  1  0.500000  0.217053  0.609882  1
  Pt  Pt10  1  0.000000  0.000306  0.249420  1
  Pt  Pt11  1  0.000000  0.009139  0.753817  1
  Pt  Pt12  1  0.000000  0.500232  0.999709  1
  Pt  Pt13  1  0.000000  0.494782  0.496508  1
  Rh  Rh14  1  0.500000  0.777018  0.387528  1
  Rh  Rh15  1  0.500000  0.779636  0.891517  1
