# generated using pymatgen
data_Dy7TmSe12
_symmetry_space_group_name_H-M   'P 1'
_cell_length_a   7.10191862
_cell_length_b   7.08874666
_cell_length_c   12.92143490
_cell_angle_alpha   100.66908292
_cell_angle_beta   100.71801570
_cell_angle_gamma   108.92166367
_symmetry_Int_Tables_number   1
_chemical_formula_structural   Dy7TmSe12
_chemical_formula_sum   'Dy7 Tm1 Se12'
_cell_volume   583.16333704
_cell_formula_units_Z   1
loop_
 _symmetry_equiv_pos_site_id
 _symmetry_equiv_pos_as_xyz
  1  'x, y, z'
loop_
 _atom_site_type_symbol
 _atom_site_label
 _atom_site_symmetry_multiplicity
 _atom_site_fract_x
 _atom_site_fract_y
 _atom_site_fract_z
 _atom_site_occupancy
  Dy  Dy0  1  0.622232  0.872191  0.244425  1
  Dy  Dy1  1  0.127418  0.377360  0.254756  1
  Dy  Dy2  1  0.208806  0.958744  0.417595  1
  Dy  Dy3  1  0.791131  0.041159  0.582239  1
  Dy  Dy4  1  0.872731  0.622752  0.745512  1
  Dy  Dy5  1  0.377993  0.128009  0.755999  1
  Dy  Dy6  1  0.959039  0.209079  0.918160  1
  Tm  Tm7  1  0.041394  0.791332  0.082694  1
  Se  Se8  1  0.806346  0.045866  0.087447  1
  Se  Se9  1  0.281273  0.541666  0.087486  1
  Se  Se10  1  0.364853  0.114984  0.248293  1
  Se  Se11  1  0.883361  0.633262  0.248247  1
  Se  Se12  1  0.951174  0.195886  0.412159  1
  Se  Se13  1  0.461045  0.716066  0.412137  1
  Se  Se14  1  0.538775  0.283660  0.587859  1
  Se  Se15  1  0.049006  0.804333  0.587828  1
  Se  Se16  1  0.117711  0.367389  0.750049  1
  Se  Se17  1  0.632343  0.882619  0.749965  1
  Se  Se18  1  0.718268  0.463369  0.913578  1
  Se  Se19  1  0.195099  0.950276  0.913571  1
