# generated using pymatgen
data_Hf8FeCo2Pt
_symmetry_space_group_name_H-M   'P 1'
_cell_length_a   8.56440143
_cell_length_b   8.56440044
_cell_length_c   8.56517400
_cell_angle_alpha   59.99700438
_cell_angle_beta   59.99700822
_cell_angle_gamma   60.23395398
_symmetry_Int_Tables_number   1
_chemical_formula_structural   Hf8FeCo2Pt
_chemical_formula_sum   'Hf16 Fe2 Co4 Pt2'
_cell_volume   444.99737564
_cell_formula_units_Z   2
loop_
 _symmetry_equiv_pos_site_id
 _symmetry_equiv_pos_as_xyz
  1  'x, y, z'
loop_
 _atom_site_type_symbol
 _atom_site_label
 _atom_site_symmetry_multiplicity
 _atom_site_fract_x
 _atom_site_fract_y
 _atom_site_fract_z
 _atom_site_occupancy
  Hf  Hf0  1  0.073446  0.643392  0.641581  1
  Hf  Hf1  1  0.643392  0.073446  0.641581  1
  Hf  Hf2  1  0.644263  0.644263  0.069292  1
  Hf  Hf3  1  0.644263  0.644263  0.642184  1
  Hf  Hf4  1  0.800654  0.800654  0.199346  1
  Hf  Hf5  1  0.194325  0.194325  0.805675  1
  Hf  Hf6  1  0.806882  0.194344  0.804040  1
  Hf  Hf7  1  0.194344  0.806882  0.194733  1
  Hf  Hf8  1  0.194344  0.806882  0.804040  1
  Hf  Hf9  1  0.806882  0.194344  0.194733  1
  Hf  Hf10  1  0.436140  0.436140  0.063860  1
  Hf  Hf11  1  0.062010  0.062010  0.437990  1
  Hf  Hf12  1  0.435539  0.053034  0.437228  1
  Hf  Hf13  1  0.053034  0.435539  0.074199  1
  Hf  Hf14  1  0.053034  0.435539  0.437228  1
  Hf  Hf15  1  0.435539  0.053034  0.074199  1
  Fe  Fe16  1  0.758249  0.419619  0.411066  1
  Fe  Fe17  1  0.419619  0.758249  0.411066  1
  Co  Co18  1  0.430316  0.858565  0.855560  1
  Co  Co19  1  0.858565  0.430316  0.855560  1
  Co  Co20  1  0.857255  0.857255  0.431796  1
  Co  Co21  1  0.857255  0.857255  0.853695  1
  Pt  Pt22  1  0.420326  0.420326  0.747836  1
  Pt  Pt23  1  0.420326  0.420326  0.411512  1
