# generated using pymatgen
data_Dy4Si4SnRh9
_symmetry_space_group_name_H-M   'P 1'
_cell_length_a   11.96514373
_cell_length_b   11.96514374
_cell_length_c   11.96514400
_cell_angle_alpha   26.93988972
_cell_angle_beta   26.93988849
_cell_angle_gamma   26.93989311
_symmetry_Int_Tables_number   1
_chemical_formula_structural   Dy4Si4SnRh9
_chemical_formula_sum   'Dy4 Si4 Sn1 Rh9'
_cell_volume   310.10453416
_cell_formula_units_Z   1
loop_
 _symmetry_equiv_pos_site_id
 _symmetry_equiv_pos_as_xyz
  1  'x, y, z'
loop_
 _atom_site_type_symbol
 _atom_site_label
 _atom_site_symmetry_multiplicity
 _atom_site_fract_x
 _atom_site_fract_y
 _atom_site_fract_z
 _atom_site_occupancy
  Dy  Dy0  1  0.949469  0.949469  0.949469  1
  Dy  Dy1  1  0.852175  0.852175  0.852175  1
  Dy  Dy2  1  0.147825  0.147825  0.147825  1
  Dy  Dy3  1  0.050531  0.050531  0.050531  1
  Si  Si4  1  0.280294  0.280294  0.280294  1
  Si  Si5  1  0.386920  0.386920  0.386920  1
  Si  Si6  1  0.719706  0.719706  0.719706  1
  Si  Si7  1  0.613080  0.613080  0.613080  1
  Sn  Sn8  1  0.500000  0.500000  0.500000  1
  Rh  Rh9  1  0.606547  0.606547  0.099766  1
  Rh  Rh10  1  0.900234  0.393453  0.393453  1
  Rh  Rh11  1  0.500000  0.000000  0.500000  1
  Rh  Rh12  1  0.393453  0.900234  0.393453  1
  Rh  Rh13  1  0.500000  0.500000  0.000000  1
  Rh  Rh14  1  0.099766  0.606547  0.606547  1
  Rh  Rh15  1  0.000000  0.500000  0.500000  1
  Rh  Rh16  1  0.393453  0.393453  0.900234  1
  Rh  Rh17  1  0.606547  0.099766  0.606547  1
