# generated using pymatgen
data_Sc6TaNb3Al12Os7
_symmetry_space_group_name_H-M   'P 1'
_cell_length_a   8.88199177
_cell_length_b   8.88199172
_cell_length_c   8.88199200
_cell_angle_alpha   59.99923461
_cell_angle_beta   59.99923222
_cell_angle_gamma   59.99923466
_symmetry_Int_Tables_number   1
_chemical_formula_structural   Sc6TaNb3Al12Os7
_chemical_formula_sum   'Sc6 Ta1 Nb3 Al12 Os7'
_cell_volume   495.45996316
_cell_formula_units_Z   1
loop_
 _symmetry_equiv_pos_site_id
 _symmetry_equiv_pos_as_xyz
  1  'x, y, z'
loop_
 _atom_site_type_symbol
 _atom_site_label
 _atom_site_symmetry_multiplicity
 _atom_site_fract_x
 _atom_site_fract_y
 _atom_site_fract_z
 _atom_site_occupancy
  Sc  Sc0  1  0.710743  0.710743  0.289444  1
  Sc  Sc1  1  0.289090  0.710816  0.289090  1
  Sc  Sc2  1  0.710816  0.289090  0.289090  1
  Sc  Sc3  1  0.289090  0.289090  0.710816  1
  Sc  Sc4  1  0.710743  0.289444  0.710743  1
  Sc  Sc5  1  0.289444  0.710743  0.710743  1
  Ta  Ta6  1  0.879220  0.879220  0.879220  1
  Nb  Nb7  1  0.879199  0.879199  0.362260  1
  Nb  Nb8  1  0.879199  0.362260  0.879199  1
  Nb  Nb9  1  0.362260  0.879199  0.879199  1
  Al  Al10  1  0.121213  0.121213  0.636121  1
  Al  Al11  1  0.121213  0.636121  0.121213  1
  Al  Al12  1  0.636121  0.121213  0.121213  1
  Al  Al13  1  0.121348  0.121348  0.121348  1
  Al  Al14  1  0.661820  0.661820  0.014599  1
  Al  Al15  1  0.661820  0.014599  0.661820  1
  Al  Al16  1  0.014599  0.661820  0.661820  1
  Al  Al17  1  0.661828  0.661828  0.661828  1
  Al  Al18  1  0.335225  0.335225  0.994384  1
  Al  Al19  1  0.335225  0.994384  0.335225  1
  Al  Al20  1  0.994384  0.335225  0.335225  1
  Al  Al21  1  0.335196  0.335196  0.335196  1
  Os  Os22  1  0.999747  0.999747  0.999747  1
  Os  Os23  1  0.997288  0.997288  0.503495  1
  Os  Os24  1  0.502401  0.997584  0.502401  1
  Os  Os25  1  0.997584  0.502401  0.502401  1
  Os  Os26  1  0.502401  0.502401  0.997584  1
  Os  Os27  1  0.997288  0.503495  0.997288  1
  Os  Os28  1  0.503495  0.997288  0.997288  1
