# generated using pymatgen
data_Na4TaGaH11
_symmetry_space_group_name_H-M   'P 1'
_cell_length_a   5.75833999
_cell_length_b   8.53931960
_cell_length_c   10.30468900
_cell_angle_alpha   65.50746279
_cell_angle_beta   89.16670356
_cell_angle_gamma   89.10333958
_symmetry_Int_Tables_number   1
_chemical_formula_structural   Na4TaGaH11
_chemical_formula_sum   'Na8 Ta2 Ga2 H22'
_cell_volume   461.03504531
_cell_formula_units_Z   2
loop_
 _symmetry_equiv_pos_site_id
 _symmetry_equiv_pos_as_xyz
  1  'x, y, z'
loop_
 _atom_site_type_symbol
 _atom_site_label
 _atom_site_symmetry_multiplicity
 _atom_site_fract_x
 _atom_site_fract_y
 _atom_site_fract_z
 _atom_site_occupancy
  Na  Na0  1  0.740679  0.381958  0.487629  1
  Na  Na1  1  0.259320  0.618035  0.512384  1
  Na  Na2  1  0.738020  0.341192  0.082035  1
  Na  Na3  1  0.261975  0.658808  0.917978  1
  Na  Na4  1  0.714714  0.925937  0.428120  1
  Na  Na5  1  0.285295  0.074068  0.571880  1
  Na  Na6  1  0.263845  0.318856  0.856468  1
  Na  Na7  1  0.736152  0.681138  0.143552  1
  Ta  Ta8  1  0.762922  0.574622  0.726381  1
  Ta  Ta9  1  0.237078  0.425370  0.273617  1
  Ga  Ga10  1  0.788542  0.888107  0.760883  1
  Ga  Ga11  1  0.211457  0.111899  0.239106  1
  H  H12  1  0.513697  0.731164  0.640033  1
  H  H13  1  0.486310  0.268824  0.359974  1
  H  H14  1  0.562285  0.433243  0.677126  1
  H  H15  1  0.437699  0.566733  0.322886  1
  H  H16  1  0.686710  0.057967  0.622130  1
  H  H17  1  0.313308  0.942037  0.377853  1
  H  H18  1  0.531606  0.501885  0.867326  1
  H  H19  1  0.468405  0.498135  0.132662  1
  H  H20  1  0.904928  0.790343  0.641602  1
  H  H21  1  0.095066  0.209651  0.358404  1
  H  H22  1  0.827549  0.631048  0.530900  1
  H  H23  1  0.172451  0.368960  0.469079  1
  H  H24  1  0.048520  0.949129  0.784071  1
  H  H25  1  0.951481  0.050870  0.215924  1
  H  H26  1  0.867408  0.618348  0.879729  1
  H  H27  1  0.132579  0.381638  0.120263  1
  H  H28  1  0.851201  0.351734  0.857565  1
  H  H29  1  0.148785  0.648261  0.142452  1
  H  H30  1  0.082390  0.566952  0.722501  1
  H  H31  1  0.917619  0.433047  0.277508  1
  H  H32  1  0.623129  0.877872  0.893916  1
  H  H33  1  0.376873  0.122170  0.106062  1
