# generated using pymatgen
data_Tb2Si7(NiPd3)3
_symmetry_space_group_name_H-M   'P 1'
_cell_length_a   9.75945100
_cell_length_b   9.75945119
_cell_length_c   3.83303700
_cell_angle_alpha   90.00000000
_cell_angle_beta   90.00000000
_cell_angle_gamma   120.00000184
_symmetry_Int_Tables_number   1
_chemical_formula_structural   Tb2Si7(NiPd3)3
_chemical_formula_sum   'Tb2 Si7 Ni3 Pd9'
_cell_volume   316.17273742
_cell_formula_units_Z   1
loop_
 _symmetry_equiv_pos_site_id
 _symmetry_equiv_pos_as_xyz
  1  'x, y, z'
loop_
 _atom_site_type_symbol
 _atom_site_label
 _atom_site_symmetry_multiplicity
 _atom_site_fract_x
 _atom_site_fract_y
 _atom_site_fract_z
 _atom_site_occupancy
  Tb  Tb0  1  0.666667  0.333333  0.000000  1
  Tb  Tb1  1  0.333333  0.666667  0.500000  1
  Si  Si2  1  0.288479  0.888501  0.000000  1
  Si  Si3  1  0.600025  0.711521  0.000000  1
  Si  Si4  1  0.111499  0.399975  0.000000  1
  Si  Si5  1  0.398853  0.283140  0.500000  1
  Si  Si6  1  0.884289  0.601147  0.500000  1
  Si  Si7  1  0.716860  0.115711  0.500000  1
  Si  Si8  1  0.000000  0.000000  0.000000  1
  Ni  Ni9  1  0.274518  0.118995  0.000000  1
  Ni  Ni10  1  0.844478  0.725482  0.000000  1
  Ni  Ni11  1  0.881005  0.155522  0.000000  1
  Pd  Pd12  1  0.061373  0.627302  0.000000  1
  Pd  Pd13  1  0.565928  0.938627  0.000000  1
  Pd  Pd14  1  0.372698  0.434072  0.000000  1
  Pd  Pd15  1  0.436667  0.055870  0.500000  1
  Pd  Pd16  1  0.619203  0.563333  0.500000  1
  Pd  Pd17  1  0.944130  0.380797  0.500000  1
  Pd  Pd18  1  0.090524  0.880539  0.500000  1
  Pd  Pd19  1  0.790014  0.909476  0.500000  1
  Pd  Pd20  1  0.119461  0.209986  0.500000  1
