# generated using pymatgen
data_TbY3(AlRu)4
_symmetry_space_group_name_H-M   'P 1'
_cell_length_a   4.04620700
_cell_length_b   7.05341937
_cell_length_c   8.07917223
_cell_angle_alpha   89.91108741
_cell_angle_beta   90.00000000
_cell_angle_gamma   90.00000000
_symmetry_Int_Tables_number   1
_chemical_formula_structural   TbY3(AlRu)4
_chemical_formula_sum   'Tb1 Y3 Al4 Ru4'
_cell_volume   230.57602454
_cell_formula_units_Z   1
loop_
 _symmetry_equiv_pos_site_id
 _symmetry_equiv_pos_as_xyz
  1  'x, y, z'
loop_
 _atom_site_type_symbol
 _atom_site_label
 _atom_site_symmetry_multiplicity
 _atom_site_fract_x
 _atom_site_fract_y
 _atom_site_fract_z
 _atom_site_occupancy
  Tb  Tb0  1  0.250000  0.030041  0.320420  1
  Y  Y1  1  0.250000  0.529692  0.179662  1
  Y  Y2  1  0.750000  0.970800  0.679725  1
  Y  Y3  1  0.750000  0.469333  0.821453  1
  Al  Al4  1  0.250000  0.139480  0.940447  1
  Al  Al5  1  0.250000  0.638995  0.559175  1
  Al  Al6  1  0.750000  0.859605  0.058404  1
  Al  Al7  1  0.750000  0.362223  0.440945  1
  Ru  Ru8  1  0.250000  0.272529  0.624585  1
  Ru  Ru9  1  0.250000  0.771560  0.874203  1
  Ru  Ru10  1  0.750000  0.729694  0.374973  1
  Ru  Ru11  1  0.750000  0.226048  0.126007  1
