# generated using pymatgen
data_YCrF7
_symmetry_space_group_name_H-M   'P 1'
_cell_length_a   5.46208800
_cell_length_b   8.79589069
_cell_length_c   11.75466835
_cell_angle_alpha   62.84065337
_cell_angle_beta   90.00000000
_cell_angle_gamma   90.00000000
_symmetry_Int_Tables_number   1
_chemical_formula_structural   YCrF7
_chemical_formula_sum   'Y4 Cr4 F28'
_cell_volume   502.47243875
_cell_formula_units_Z   4
loop_
 _symmetry_equiv_pos_site_id
 _symmetry_equiv_pos_as_xyz
  1  'x, y, z'
loop_
 _atom_site_type_symbol
 _atom_site_label
 _atom_site_symmetry_multiplicity
 _atom_site_fract_x
 _atom_site_fract_y
 _atom_site_fract_z
 _atom_site_occupancy
  Y  Y0  1  0.261880  0.809868  0.265607  1
  Y  Y1  1  0.738120  0.190132  0.734393  1
  Y  Y2  1  0.761880  0.190132  0.234393  1
  Y  Y3  1  0.238120  0.809868  0.765607  1
  Cr  Cr4  1  0.757282  0.726312  0.043144  1
  Cr  Cr5  1  0.242718  0.273688  0.956856  1
  Cr  Cr6  1  0.257282  0.273688  0.456856  1
  Cr  Cr7  1  0.742718  0.726312  0.543144  1
  F  F8  1  0.934683  0.707554  0.420542  1
  F  F9  1  0.065317  0.292446  0.579458  1
  F  F10  1  0.434683  0.292446  0.079458  1
  F  F11  1  0.565317  0.707554  0.920542  1
  F  F12  1  0.475798  0.729839  0.133160  1
  F  F13  1  0.524202  0.270161  0.866840  1
  F  F14  1  0.975798  0.270161  0.366840  1
  F  F15  1  0.024202  0.729839  0.633160  1
  F  F16  1  0.948346  0.742801  0.169888  1
  F  F17  1  0.051654  0.257199  0.830112  1
  F  F18  1  0.448346  0.257199  0.330112  1
  F  F19  1  0.551654  0.742801  0.669888  1
  F  F20  1  0.770760  0.490926  0.136319  1
  F  F21  1  0.229240  0.509074  0.863681  1
  F  F22  1  0.270760  0.509074  0.363681  1
  F  F23  1  0.729240  0.490926  0.636319  1
  F  F24  1  0.953547  0.280114  0.042284  1
  F  F25  1  0.046453  0.719886  0.957716  1
  F  F26  1  0.453547  0.719886  0.457716  1
  F  F27  1  0.546453  0.280114  0.542284  1
  F  F28  1  0.739803  0.960167  0.454143  1
  F  F29  1  0.260197  0.039833  0.545857  1
  F  F30  1  0.239803  0.039833  0.045857  1
  F  F31  1  0.760197  0.960167  0.954143  1
  F  F32  1  0.591997  0.970364  0.227369  1
  F  F33  1  0.408003  0.029636  0.772631  1
  F  F34  1  0.091997  0.029636  0.272631  1
  F  F35  1  0.908003  0.970364  0.727369  1
