# generated using pymatgen
data_Mn3P4Ru5
_symmetry_space_group_name_H-M   'P 1'
_cell_length_a   3.78192700
_cell_length_b   6.08382662
_cell_length_c   6.98590649
_cell_angle_alpha   89.49995356
_cell_angle_beta   90.00000000
_cell_angle_gamma   90.00000000
_symmetry_Int_Tables_number   1
_chemical_formula_structural   Mn3P4Ru5
_chemical_formula_sum   'Mn3 P4 Ru5'
_cell_volume   160.72972383
_cell_formula_units_Z   1
loop_
 _symmetry_equiv_pos_site_id
 _symmetry_equiv_pos_as_xyz
  1  'x, y, z'
loop_
 _atom_site_type_symbol
 _atom_site_label
 _atom_site_symmetry_multiplicity
 _atom_site_fract_x
 _atom_site_fract_y
 _atom_site_fract_z
 _atom_site_occupancy
  Mn  Mn0  1  0.750000  0.035151  0.675888  1
  Mn  Mn1  1  0.250000  0.965577  0.323249  1
  Mn  Mn2  1  0.750000  0.526804  0.834999  1
  P  P3  1  0.250000  0.732341  0.620403  1
  P  P4  1  0.750000  0.277845  0.374692  1
  P  P5  1  0.250000  0.238056  0.884895  1
  P  P6  1  0.750000  0.760368  0.120581  1
  Ru  Ru7  1  0.250000  0.469511  0.163036  1
  Ru  Ru8  1  0.250000  0.345063  0.563029  1
  Ru  Ru9  1  0.750000  0.657243  0.437230  1
  Ru  Ru10  1  0.250000  0.849261  0.929000  1
  Ru  Ru11  1  0.750000  0.142780  0.072998  1
