# generated using pymatgen
data_Nd2CrPtF14
_symmetry_space_group_name_H-M   'P 1'
_cell_length_a   5.67176400
_cell_length_b   9.15569118
_cell_length_c   12.20210100
_cell_angle_alpha   62.22115095
_cell_angle_beta   90.00000000
_cell_angle_gamma   90.00000000
_symmetry_Int_Tables_number   1
_chemical_formula_structural   Nd2CrPtF14
_chemical_formula_sum   'Nd4 Cr2 Pt2 F28'
_cell_volume   560.61664424
_cell_formula_units_Z   2
loop_
 _symmetry_equiv_pos_site_id
 _symmetry_equiv_pos_as_xyz
  1  'x, y, z'
loop_
 _atom_site_type_symbol
 _atom_site_label
 _atom_site_symmetry_multiplicity
 _atom_site_fract_x
 _atom_site_fract_y
 _atom_site_fract_z
 _atom_site_occupancy
  Nd  Nd0  1  0.761863  0.809131  0.269551  1
  Nd  Nd1  1  0.261863  0.190869  0.230449  1
  Nd  Nd2  1  0.239235  0.191249  0.737237  1
  Nd  Nd3  1  0.739235  0.808751  0.762763  1
  Cr  Cr4  1  0.244882  0.724985  0.544027  1
  Cr  Cr5  1  0.744882  0.275015  0.955973  1
  Pt  Pt6  1  0.755935  0.272701  0.457299  1
  Pt  Pt7  1  0.255935  0.727299  0.042701  1
  F  F8  1  0.971942  0.714960  0.457529  1
  F  F9  1  0.471942  0.285040  0.042471  1
  F  F10  1  0.046477  0.287268  0.540369  1
  F  F11  1  0.546477  0.712732  0.959631  1
  F  F12  1  0.062306  0.703296  0.918090  1
  F  F13  1  0.562306  0.296704  0.581910  1
  F  F14  1  0.940845  0.289262  0.072087  1
  F  F15  1  0.440845  0.710738  0.427913  1
  F  F16  1  0.736626  0.502798  0.864652  1
  F  F17  1  0.236626  0.497202  0.635348  1
  F  F18  1  0.260664  0.485285  0.140685  1
  F  F19  1  0.760664  0.514715  0.359315  1
  F  F20  1  0.741209  0.049114  0.045977  1
  F  F21  1  0.241209  0.950886  0.454023  1
  F  F22  1  0.259585  0.969797  0.951267  1
  F  F23  1  0.759585  0.030203  0.548733  1
  F  F24  1  0.051349  0.740930  0.662343  1
  F  F25  1  0.551349  0.259070  0.837657  1
  F  F26  1  0.946341  0.254221  0.329139  1
  F  F27  1  0.446341  0.745779  0.170861  1
  F  F28  1  0.010069  0.270072  0.864383  1
  F  F29  1  0.510069  0.729928  0.635617  1
  F  F30  1  0.968835  0.733741  0.130917  1
  F  F31  1  0.468835  0.266259  0.369083  1
  F  F32  1  0.089939  0.969856  0.227835  1
  F  F33  1  0.589939  0.030144  0.272165  1
  F  F34  1  0.911897  0.030005  0.767916  1
  F  F35  1  0.411897  0.969995  0.732084  1
