# generated using pymatgen
data_Ac4Se3N2
_symmetry_space_group_name_H-M   'P 1'
_cell_length_a   8.79106821
_cell_length_b   8.79106887
_cell_length_c   6.85811529
_cell_angle_alpha   89.76378312
_cell_angle_beta   89.76378608
_cell_angle_gamma   75.37755683
_symmetry_Int_Tables_number   1
_chemical_formula_structural   Ac4Se3N2
_chemical_formula_sum   'Ac8 Se6 N4'
_cell_volume   512.84098933
_cell_formula_units_Z   2
loop_
 _symmetry_equiv_pos_site_id
 _symmetry_equiv_pos_as_xyz
  1  'x, y, z'
loop_
 _atom_site_type_symbol
 _atom_site_label
 _atom_site_symmetry_multiplicity
 _atom_site_fract_x
 _atom_site_fract_y
 _atom_site_fract_z
 _atom_site_occupancy
  Ac  Ac0  1  0.806137  0.443917  0.029020  1
  Ac  Ac1  1  0.556083  0.193863  0.470980  1
  Ac  Ac2  1  0.193863  0.556083  0.970980  1
  Ac  Ac3  1  0.443917  0.806137  0.529020  1
  Ac  Ac4  1  0.243234  0.085919  0.072579  1
  Ac  Ac5  1  0.914081  0.756766  0.427421  1
  Ac  Ac6  1  0.756766  0.914081  0.927421  1
  Ac  Ac7  1  0.085919  0.243234  0.572579  1
  Se  Se8  1  0.902051  0.097949  0.250000  1
  Se  Se9  1  0.097949  0.902051  0.750000  1
  Se  Se10  1  0.485601  0.746159  0.033972  1
  Se  Se11  1  0.253841  0.514399  0.466028  1
  Se  Se12  1  0.514399  0.253841  0.966028  1
  Se  Se13  1  0.746159  0.485601  0.533972  1
  N  N14  1  0.919403  0.669162  0.085143  1
  N  N15  1  0.330838  0.080597  0.414857  1
  N  N16  1  0.080597  0.330838  0.914857  1
  N  N17  1  0.669162  0.919403  0.585143  1
