# generated using pymatgen
data_Tb2Cr3O12
_symmetry_space_group_name_H-M   'P 1'
_cell_length_a   5.09419354
_cell_length_b   6.84669683
_cell_length_c   14.25445932
_cell_angle_alpha   84.53285491
_cell_angle_beta   80.20673920
_cell_angle_gamma   68.50485665
_symmetry_Int_Tables_number   1
_chemical_formula_structural   Tb2Cr3O12
_chemical_formula_sum   'Tb4 Cr6 O24'
_cell_volume   455.55828861
_cell_formula_units_Z   2
loop_
 _symmetry_equiv_pos_site_id
 _symmetry_equiv_pos_as_xyz
  1  'x, y, z'
loop_
 _atom_site_type_symbol
 _atom_site_label
 _atom_site_symmetry_multiplicity
 _atom_site_fract_x
 _atom_site_fract_y
 _atom_site_fract_z
 _atom_site_occupancy
  Tb  Tb0  1  0.366531  0.127749  0.125314  1
  Tb  Tb1  1  0.379444  0.793781  0.453791  1
  Tb  Tb2  1  0.633469  0.872251  0.874686  1
  Tb  Tb3  1  0.620556  0.206219  0.546209  1
  Cr  Cr4  1  0.900335  0.278379  0.953427  1
  Cr  Cr5  1  0.854104  0.974088  0.297781  1
  Cr  Cr6  1  0.870001  0.624570  0.621288  1
  Cr  Cr7  1  0.145896  0.025912  0.702219  1
  Cr  Cr8  1  0.099665  0.721621  0.046573  1
  Cr  Cr9  1  0.129999  0.375430  0.378712  1
  O  O10  1  0.831130  0.196496  0.679301  1
  O  O11  1  0.752510  0.864016  0.030137  1
  O  O12  1  0.823233  0.563624  0.369198  1
  O  O13  1  0.872441  0.515870  0.908482  1
  O  O14  1  0.915691  0.176494  0.241647  1
  O  O15  1  0.946312  0.827987  0.557840  1
  O  O16  1  0.319105  0.106397  0.769525  1
  O  O17  1  0.210242  0.844150  0.116797  1
  O  O18  1  0.329799  0.454074  0.441726  1
  O  O19  1  0.692290  0.693583  0.727001  1
  O  O20  1  0.702610  0.287195  0.059053  1
  O  O21  1  0.641127  0.019569  0.408085  1
  O  O22  1  0.297390  0.712805  0.940947  1
  O  O23  1  0.307710  0.306417  0.272999  1
  O  O24  1  0.358873  0.980431  0.591915  1
  O  O25  1  0.084309  0.823506  0.758353  1
  O  O26  1  0.127559  0.484130  0.091518  1
  O  O27  1  0.053688  0.172013  0.442160  1
  O  O28  1  0.247490  0.135984  0.969863  1
  O  O29  1  0.168870  0.803504  0.320699  1
  O  O30  1  0.176767  0.436376  0.630802  1
  O  O31  1  0.789758  0.155850  0.883203  1
  O  O32  1  0.680895  0.893603  0.230475  1
  O  O33  1  0.670201  0.545926  0.558274  1
