# generated using pymatgen
data_Nd4Tm16Si15Sb
_symmetry_space_group_name_H-M   'P 1'
_cell_length_a   7.39507492
_cell_length_b   7.65962824
_cell_length_c   14.57461100
_cell_angle_alpha   90.15525984
_cell_angle_beta   89.38002983
_cell_angle_gamma   89.79236501
_symmetry_Int_Tables_number   1
_chemical_formula_structural   Nd4Tm16Si15Sb
_chemical_formula_sum   'Nd4 Tm16 Si15 Sb1'
_cell_volume   825.50046857
_cell_formula_units_Z   1
loop_
 _symmetry_equiv_pos_site_id
 _symmetry_equiv_pos_as_xyz
  1  'x, y, z'
loop_
 _atom_site_type_symbol
 _atom_site_label
 _atom_site_symmetry_multiplicity
 _atom_site_fract_x
 _atom_site_fract_y
 _atom_site_fract_z
 _atom_site_occupancy
  Nd  Nd0  1  0.229963  0.679248  0.155214  1
  Nd  Nd1  1  0.733404  0.817976  0.849256  1
  Nd  Nd2  1  0.267308  0.324441  0.654176  1
  Nd  Nd3  1  0.769605  0.178077  0.344207  1
  Tm  Tm4  1  0.915206  0.661492  0.619246  1
  Tm  Tm5  1  0.427563  0.822692  0.373762  1
  Tm  Tm6  1  0.571608  0.322365  0.125882  1
  Tm  Tm7  1  0.083711  0.182997  0.878629  1
  Tm  Tm8  1  0.580116  0.323482  0.874717  1
  Tm  Tm9  1  0.073629  0.179352  0.128416  1
  Tm  Tm10  1  0.927982  0.678917  0.371521  1
  Tm  Tm11  1  0.428778  0.823394  0.628003  1
  Tm  Tm12  1  0.093967  0.008053  0.497288  1
  Tm  Tm13  1  0.592396  0.490740  0.498277  1
  Tm  Tm14  1  0.407538  0.989976  0.998555  1
  Tm  Tm15  1  0.905111  0.509138  0.999875  1
  Tm  Tm16  1  0.275835  0.317970  0.350974  1
  Tm  Tm17  1  0.754343  0.186248  0.646116  1
  Tm  Tm18  1  0.233493  0.675392  0.853174  1
  Tm  Tm19  1  0.723463  0.818707  0.147605  1
  Si  Si20  1  0.595873  0.534833  0.287750  1
  Si  Si21  1  0.405743  0.035234  0.211948  1
  Si  Si22  1  0.911077  0.464548  0.787993  1
  Si  Si23  1  0.423191  0.032568  0.794751  1
  Si  Si24  1  0.890471  0.476387  0.206621  1
  Si  Si25  1  0.109762  0.975873  0.292613  1
  Si  Si26  1  0.599736  0.527508  0.708874  1
  Si  Si27  1  0.974260  0.370044  0.496322  1
  Si  Si28  1  0.472763  0.126856  0.500212  1
  Si  Si29  1  0.524639  0.626155  0.001289  1
  Si  Si30  1  0.027067  0.874665  0.002137  1
  Si  Si31  1  0.222725  0.612129  0.498602  1
  Si  Si32  1  0.720587  0.889374  0.498267  1
  Si  Si33  1  0.278632  0.392014  0.002515  1
  Si  Si34  1  0.781757  0.110148  0.003126  1
  Sb  Sb35  1  0.066701  0.961006  0.712090  1
