# generated using pymatgen
data_DyTm3HgIr
_symmetry_space_group_name_H-M   'P 1'
_cell_length_a   9.51779813
_cell_length_b   9.50732127
_cell_length_c   9.50732000
_cell_angle_alpha   60.07292664
_cell_angle_beta   59.96352811
_cell_angle_gamma   59.96354606
_symmetry_Int_Tables_number   1
_chemical_formula_structural   DyTm3HgIr
_chemical_formula_sum   'Dy4 Tm12 Hg4 Ir4'
_cell_volume   608.32647715
_cell_formula_units_Z   4
loop_
 _symmetry_equiv_pos_site_id
 _symmetry_equiv_pos_as_xyz
  1  'x, y, z'
loop_
 _atom_site_type_symbol
 _atom_site_label
 _atom_site_symmetry_multiplicity
 _atom_site_fract_x
 _atom_site_fract_y
 _atom_site_fract_z
 _atom_site_occupancy
  Dy  Dy0  1  0.811658  0.188316  0.811654  1
  Dy  Dy1  1  0.188350  0.811633  0.188346  1
  Dy  Dy2  1  0.811658  0.811654  0.188316  1
  Dy  Dy3  1  0.188350  0.188346  0.811633  1
  Tm  Tm4  1  0.600941  0.600584  0.600584  1
  Tm  Tm5  1  0.600658  0.601048  0.197837  1
  Tm  Tm6  1  0.600658  0.197837  0.601048  1
  Tm  Tm7  1  0.197844  0.600668  0.600668  1
  Tm  Tm8  1  0.060953  0.438966  0.438966  1
  Tm  Tm9  1  0.439020  0.061012  0.061012  1
  Tm  Tm10  1  0.439256  0.060661  0.439256  1
  Tm  Tm11  1  0.060733  0.439302  0.060726  1
  Tm  Tm12  1  0.439256  0.439256  0.060661  1
  Tm  Tm13  1  0.060733  0.060726  0.439302  1
  Tm  Tm14  1  0.190098  0.809871  0.809871  1
  Tm  Tm15  1  0.809848  0.190135  0.190135  1
  Hg  Hg16  1  0.835369  0.833697  0.833697  1
  Hg  Hg17  1  0.833715  0.835394  0.497179  1
  Hg  Hg18  1  0.833715  0.497179  0.835394  1
  Hg  Hg19  1  0.497184  0.833716  0.833716  1
  Ir  Ir20  1  0.393114  0.391816  0.391816  1
  Ir  Ir21  1  0.391837  0.393137  0.823213  1
  Ir  Ir22  1  0.391837  0.823213  0.393137  1
  Ir  Ir23  1  0.823220  0.391836  0.391836  1
