# generated using pymatgen
data_Pr7Gd(Si3Pd)4
_symmetry_space_group_name_H-M   'P 1'
_cell_length_a   8.28736800
_cell_length_b   8.28736869
_cell_length_c   8.60527900
_cell_angle_alpha   90.00000000
_cell_angle_beta   90.00000000
_cell_angle_gamma   119.86401716
_symmetry_Int_Tables_number   1
_chemical_formula_structural   Pr7Gd(Si3Pd)4
_chemical_formula_sum   'Pr7 Gd1 Si12 Pd4'
_cell_volume   512.53359307
_cell_formula_units_Z   1
loop_
 _symmetry_equiv_pos_site_id
 _symmetry_equiv_pos_as_xyz
  1  'x, y, z'
loop_
 _atom_site_type_symbol
 _atom_site_label
 _atom_site_symmetry_multiplicity
 _atom_site_fract_x
 _atom_site_fract_y
 _atom_site_fract_z
 _atom_site_occupancy
  Pr  Pr0  1  0.500298  0.499702  0.250000  1
  Pr  Pr1  1  0.000710  0.500404  0.750000  1
  Pr  Pr2  1  0.999334  0.499602  0.250000  1
  Pr  Pr3  1  0.499596  0.999290  0.750000  1
  Pr  Pr4  1  0.500398  0.000666  0.250000  1
  Pr  Pr5  1  0.000006  0.999994  0.750000  1
  Pr  Pr6  1  0.999964  0.000036  0.250000  1
  Gd  Gd7  1  0.499898  0.500102  0.750000  1
  Si  Si8  1  0.833898  0.166102  0.999982  1
  Si  Si9  1  0.166088  0.833912  0.000053  1
  Si  Si10  1  0.331134  0.165993  0.998729  1
  Si  Si11  1  0.166088  0.833912  0.499947  1
  Si  Si12  1  0.668804  0.833981  0.998591  1
  Si  Si13  1  0.833898  0.166102  0.500018  1
  Si  Si14  1  0.834007  0.668866  0.998729  1
  Si  Si15  1  0.668804  0.833981  0.501409  1
  Si  Si16  1  0.166019  0.331196  0.998591  1
  Si  Si17  1  0.331134  0.165993  0.501271  1
  Si  Si18  1  0.166019  0.331196  0.501409  1
  Si  Si19  1  0.834007  0.668866  0.501271  1
  Pd  Pd20  1  0.665320  0.334680  0.996530  1
  Pd  Pd21  1  0.334627  0.665373  0.998244  1
  Pd  Pd22  1  0.334627  0.665373  0.501756  1
  Pd  Pd23  1  0.665320  0.334680  0.503470  1
