# generated using pymatgen
data_Hf7Zr3(ZnSn3)2
_symmetry_space_group_name_H-M   'P 1'
_cell_length_a   8.64562300
_cell_length_b   8.64562262
_cell_length_c   5.87638600
_cell_angle_alpha   90.00000000
_cell_angle_beta   90.00000000
_cell_angle_gamma   119.99999763
_symmetry_Int_Tables_number   1
_chemical_formula_structural   Hf7Zr3(ZnSn3)2
_chemical_formula_sum   'Hf7 Zr3 Zn2 Sn6'
_cell_volume   380.39388431
_cell_formula_units_Z   1
loop_
 _symmetry_equiv_pos_site_id
 _symmetry_equiv_pos_as_xyz
  1  'x, y, z'
loop_
 _atom_site_type_symbol
 _atom_site_label
 _atom_site_symmetry_multiplicity
 _atom_site_fract_x
 _atom_site_fract_y
 _atom_site_fract_z
 _atom_site_occupancy
  Hf  Hf0  1  0.666667  0.333333  0.999416  1
  Hf  Hf1  1  0.333333  0.666667  0.999416  1
  Hf  Hf2  1  0.333333  0.666667  0.500584  1
  Hf  Hf3  1  0.666667  0.333333  0.500584  1
  Hf  Hf4  1  0.730911  0.730911  0.750000  1
  Hf  Hf5  1  0.269089  0.000000  0.750000  1
  Hf  Hf6  1  0.000000  0.269089  0.750000  1
  Zr  Zr7  1  0.267320  0.267320  0.250000  1
  Zr  Zr8  1  0.732680  0.000000  0.250000  1
  Zr  Zr9  1  0.000000  0.732680  0.250000  1
  Zn  Zn10  1  0.000000  0.000000  0.996891  1
  Zn  Zn11  1  0.000000  0.000000  0.503109  1
  Sn  Sn12  1  0.384972  0.384972  0.750000  1
  Sn  Sn13  1  0.615028  0.000000  0.750000  1
  Sn  Sn14  1  0.000000  0.615028  0.750000  1
  Sn  Sn15  1  0.614789  0.614789  0.250000  1
  Sn  Sn16  1  0.385211  0.000000  0.250000  1
  Sn  Sn17  1  0.000000  0.385211  0.250000  1
