# generated using pymatgen
data_K4LaTa5O15
_symmetry_space_group_name_H-M   'P 1'
_cell_length_a   9.02382786
_cell_length_b   9.02382798
_cell_length_c   6.98994600
_cell_angle_alpha   75.05029050
_cell_angle_beta   75.05029030
_cell_angle_gamma   36.91170323
_symmetry_Int_Tables_number   1
_chemical_formula_structural   K4LaTa5O15
_chemical_formula_sum   'K4 La1 Ta5 O15'
_cell_volume   328.96023505
_cell_formula_units_Z   1
loop_
 _symmetry_equiv_pos_site_id
 _symmetry_equiv_pos_as_xyz
  1  'x, y, z'
loop_
 _atom_site_type_symbol
 _atom_site_label
 _atom_site_symmetry_multiplicity
 _atom_site_fract_x
 _atom_site_fract_y
 _atom_site_fract_z
 _atom_site_occupancy
  K  K0  1  0.600564  0.600564  0.596972  1
  K  K1  1  0.201026  0.201026  0.200817  1
  K  K2  1  0.798974  0.798974  0.799183  1
  K  K3  1  0.399436  0.399436  0.403028  1
  La  La4  1  0.000000  0.000000  0.000000  1
  Ta  Ta5  1  0.201304  0.201304  0.697077  1
  Ta  Ta6  1  0.798696  0.798696  0.302923  1
  Ta  Ta7  1  0.398545  0.398545  0.900264  1
  Ta  Ta8  1  0.000000  0.000000  0.500000  1
  Ta  Ta9  1  0.601455  0.601455  0.099736  1
  O  O10  1  0.388341  0.901561  0.902198  1
  O  O11  1  0.000000  0.500000  0.500000  1
  O  O12  1  0.611659  0.098439  0.097802  1
  O  O13  1  0.195395  0.708111  0.708358  1
  O  O14  1  0.804605  0.291889  0.291642  1
  O  O15  1  0.299772  0.299772  0.802122  1
  O  O16  1  0.902900  0.902900  0.390098  1
  O  O17  1  0.500000  0.500000  0.000000  1
  O  O18  1  0.097100  0.097100  0.609902  1
  O  O19  1  0.700228  0.700228  0.197878  1
  O  O20  1  0.500000  0.000000  0.500000  1
  O  O21  1  0.098439  0.611659  0.097802  1
  O  O22  1  0.708111  0.195395  0.708358  1
  O  O23  1  0.291889  0.804605  0.291642  1
  O  O24  1  0.901561  0.388341  0.902198  1
