# generated using pymatgen
data_Er10Ir3Pd2Au
_symmetry_space_group_name_H-M   'P 1'
_cell_length_a   11.03849105
_cell_length_b   11.01792400
_cell_length_c   6.30234066
_cell_angle_alpha   90.00000000
_cell_angle_beta   89.91133693
_cell_angle_gamma   90.00000000
_symmetry_Int_Tables_number   1
_chemical_formula_structural   Er10Ir3Pd2Au
_chemical_formula_sum   'Er20 Ir6 Pd4 Au2'
_cell_volume   766.49766602
_cell_formula_units_Z   2
loop_
 _symmetry_equiv_pos_site_id
 _symmetry_equiv_pos_as_xyz
  1  'x, y, z'
loop_
 _atom_site_type_symbol
 _atom_site_label
 _atom_site_symmetry_multiplicity
 _atom_site_fract_x
 _atom_site_fract_y
 _atom_site_fract_z
 _atom_site_occupancy
  Er  Er0  1  0.297010  0.091472  0.369268  1
  Er  Er1  1  0.297010  0.908528  0.869268  1
  Er  Er2  1  0.697968  0.086617  0.865443  1
  Er  Er3  1  0.697968  0.913383  0.365443  1
  Er  Er4  1  0.576516  0.791373  0.870218  1
  Er  Er5  1  0.576516  0.208627  0.370218  1
  Er  Er6  1  0.409448  0.792804  0.378158  1
  Er  Er7  1  0.409448  0.207196  0.878158  1
  Er  Er8  1  0.211049  0.416641  0.622073  1
  Er  Er9  1  0.211049  0.583359  0.122073  1
  Er  Er10  1  0.796212  0.416167  0.128708  1
  Er  Er11  1  0.796212  0.583833  0.628708  1
  Er  Er12  1  0.918225  0.702184  0.136508  1
  Er  Er13  1  0.918225  0.297816  0.636508  1
  Er  Er14  1  0.094849  0.700094  0.629424  1
  Er  Er15  1  0.094849  0.299906  0.129424  1
  Er  Er16  1  0.004315  0.998828  0.499665  1
  Er  Er17  1  0.004315  0.001172  0.999665  1
  Er  Er18  1  0.495685  0.497971  0.000025  1
  Er  Er19  1  0.495685  0.502029  0.500025  1
  Ir  Ir20  1  0.347014  0.345352  0.250390  1
  Ir  Ir21  1  0.347014  0.654648  0.750390  1
  Ir  Ir22  1  0.498801  0.999809  0.118814  1
  Ir  Ir23  1  0.498801  0.000191  0.618814  1
  Ir  Ir24  1  0.998557  0.500652  0.881513  1
  Ir  Ir25  1  0.998557  0.499348  0.381513  1
  Pd  Pd26  1  0.154821  0.154017  0.749100  1
  Pd  Pd27  1  0.154821  0.845983  0.249100  1
  Pd  Pd28  1  0.655040  0.346908  0.749524  1
  Pd  Pd29  1  0.655040  0.653092  0.249524  1
  Au  Au30  1  0.844488  0.155570  0.251169  1
  Au  Au31  1  0.844488  0.844430  0.751169  1
