# generated using pymatgen
data_SmPaSnRh2
_symmetry_space_group_name_H-M   'P 1'
_cell_length_a   7.72124273
_cell_length_b   7.72124225
_cell_length_c   3.67859300
_cell_angle_alpha   90.00000000
_cell_angle_beta   90.00000000
_cell_angle_gamma   95.27004871
_symmetry_Int_Tables_number   1
_chemical_formula_structural   SmPaSnRh2
_chemical_formula_sum   'Sm2 Pa2 Sn2 Rh4'
_cell_volume   218.38178137
_cell_formula_units_Z   2
loop_
 _symmetry_equiv_pos_site_id
 _symmetry_equiv_pos_as_xyz
  1  'x, y, z'
loop_
 _atom_site_type_symbol
 _atom_site_label
 _atom_site_symmetry_multiplicity
 _atom_site_fract_x
 _atom_site_fract_y
 _atom_site_fract_z
 _atom_site_occupancy
  Sm  Sm0  1  0.175051  0.324949  0.500000  1
  Sm  Sm1  1  0.824949  0.675051  0.500000  1
  Pa  Pa2  1  0.671193  0.171193  0.500000  1
  Pa  Pa3  1  0.328807  0.828807  0.500000  1
  Sn  Sn4  1  0.000000  0.000000  0.000000  1
  Sn  Sn5  1  0.500000  0.500000  0.000000  1
  Rh  Rh6  1  0.147028  0.647028  0.000000  1
  Rh  Rh7  1  0.852972  0.352972  0.000000  1
  Rh  Rh8  1  0.621627  0.878373  0.000000  1
  Rh  Rh9  1  0.378373  0.121627  0.000000  1
