# generated using pymatgen
data_TbEr2PdRh2Pb3
_symmetry_space_group_name_H-M   'P 1'
_cell_length_a   7.89872192
_cell_length_b   7.89521092
_cell_length_c   3.71459100
_cell_angle_alpha   90.00000000
_cell_angle_beta   90.00000000
_cell_angle_gamma   120.18696287
_symmetry_Int_Tables_number   1
_chemical_formula_structural   TbEr2PdRh2Pb3
_chemical_formula_sum   'Tb1 Er2 Pd1 Rh2 Pb3'
_cell_volume   200.23542506
_cell_formula_units_Z   1
loop_
 _symmetry_equiv_pos_site_id
 _symmetry_equiv_pos_as_xyz
  1  'x, y, z'
loop_
 _atom_site_type_symbol
 _atom_site_label
 _atom_site_symmetry_multiplicity
 _atom_site_fract_x
 _atom_site_fract_y
 _atom_site_fract_z
 _atom_site_occupancy
  Tb  Tb0  1  0.404673  0.391708  0.500000  1
  Er  Er1  1  0.609242  0.013547  0.500000  1
  Er  Er2  1  0.986051  0.595162  0.500000  1
  Pd  Pd3  1  0.333019  0.668224  0.000000  1
  Rh  Rh4  1  0.668730  0.332555  0.000000  1
  Rh  Rh5  1  0.998687  0.999127  0.500000  1
  Pb  Pb6  1  0.729259  0.733734  0.000000  1
  Pb  Pb7  1  0.266705  0.994488  0.000000  1
  Pb  Pb8  1  0.003634  0.271455  0.000000  1
