# generated using pymatgen
data_Ba4Pd6O18F
_symmetry_space_group_name_H-M   'P 1'
_cell_length_a   8.21766302
_cell_length_b   8.21766298
_cell_length_c   8.21766300
_cell_angle_alpha   109.47122068
_cell_angle_beta   109.47122058
_cell_angle_gamma   109.47121730
_symmetry_Int_Tables_number   1
_chemical_formula_structural   Ba4Pd6O18F
_chemical_formula_sum   'Ba4 Pd6 O18 F1'
_cell_volume   427.19199777
_cell_formula_units_Z   1
loop_
 _symmetry_equiv_pos_site_id
 _symmetry_equiv_pos_as_xyz
  1  'x, y, z'
loop_
 _atom_site_type_symbol
 _atom_site_label
 _atom_site_symmetry_multiplicity
 _atom_site_fract_x
 _atom_site_fract_y
 _atom_site_fract_z
 _atom_site_occupancy
  Ba  Ba0  1  0.000000  0.336356  0.000000  1
  Ba  Ba1  1  0.000000  0.000000  0.336356  1
  Ba  Ba2  1  0.663644  0.663644  0.663644  1
  Ba  Ba3  1  0.336356  0.000000  0.000000  1
  Pd  Pd4  1  0.500000  0.342432  0.842432  1
  Pd  Pd5  1  0.500000  0.657568  0.157568  1
  Pd  Pd6  1  0.342432  0.842432  0.500000  1
  Pd  Pd7  1  0.657568  0.157568  0.500000  1
  Pd  Pd8  1  0.842432  0.500000  0.342432  1
  Pd  Pd9  1  0.157568  0.500000  0.657568  1
  O  O10  1  0.684413  0.310429  0.046478  1
  O  O11  1  0.689571  0.373984  0.736049  1
  O  O12  1  0.263951  0.637936  0.953522  1
  O  O13  1  0.626016  0.315587  0.362064  1
  O  O14  1  0.373984  0.736049  0.689571  1
  O  O15  1  0.953522  0.263951  0.637936  1
  O  O16  1  0.046478  0.684413  0.310429  1
  O  O17  1  0.000000  0.640706  0.640706  1
  O  O18  1  0.640706  0.640706  0.000000  1
  O  O19  1  0.736049  0.689571  0.373984  1
  O  O20  1  0.310429  0.046478  0.684413  1
  O  O21  1  0.640706  0.000000  0.640706  1
  O  O22  1  0.000000  0.359294  0.359294  1
  O  O23  1  0.637936  0.953522  0.263951  1
  O  O24  1  0.362064  0.626016  0.315587  1
  O  O25  1  0.315587  0.362064  0.626016  1
  O  O26  1  0.359294  0.000000  0.359294  1
  O  O27  1  0.359294  0.359294  0.000000  1
  F  F28  1  0.000000  0.000000  0.000000  1
