# generated using pymatgen
data_Na2(AlAu3)3
_symmetry_space_group_name_H-M   'P 1'
_cell_length_a   7.77346182
_cell_length_b   7.77346200
_cell_length_c   10.99350704
_cell_angle_alpha   69.46095631
_cell_angle_beta   69.46095398
_cell_angle_gamma   60.24044552
_symmetry_Int_Tables_number   1
_chemical_formula_structural   Na2(AlAu3)3
_chemical_formula_sum   'Na4 Al6 Au18'
_cell_volume   527.12103176
_cell_formula_units_Z   2
loop_
 _symmetry_equiv_pos_site_id
 _symmetry_equiv_pos_as_xyz
  1  'x, y, z'
loop_
 _atom_site_type_symbol
 _atom_site_label
 _atom_site_symmetry_multiplicity
 _atom_site_fract_x
 _atom_site_fract_y
 _atom_site_fract_z
 _atom_site_occupancy
  Na  Na0  1  0.415806  0.251392  0.749047  1
  Na  Na1  1  0.584194  0.748608  0.250953  1
  Na  Na2  1  0.748608  0.584194  0.750953  1
  Na  Na3  1  0.251392  0.415806  0.249047  1
  Al  Al4  1  0.655362  0.173753  0.999065  1
  Al  Al5  1  0.826247  0.344638  0.500935  1
  Al  Al6  1  0.344638  0.826247  0.000935  1
  Al  Al7  1  0.000000  0.500000  0.000000  1
  Al  Al8  1  0.173753  0.655362  0.499065  1
  Al  Al9  1  0.500000  0.000000  0.500000  1
  Au  Au10  1  0.474821  0.648632  0.564883  1
  Au  Au11  1  0.351368  0.525179  0.935117  1
  Au  Au12  1  0.853383  0.692652  0.438904  1
  Au  Au13  1  0.855141  0.144859  0.750000  1
  Au  Au14  1  0.525179  0.351368  0.435117  1
  Au  Au15  1  0.692652  0.853383  0.938904  1
  Au  Au16  1  0.915522  0.309801  0.249813  1
  Au  Au17  1  0.974736  0.809416  0.077893  1
  Au  Au18  1  0.309801  0.915522  0.749813  1
  Au  Au19  1  0.146617  0.307348  0.561096  1
  Au  Au20  1  0.809416  0.974736  0.577893  1
  Au  Au21  1  0.307348  0.146617  0.061096  1
  Au  Au22  1  0.144859  0.855141  0.250000  1
  Au  Au23  1  0.025264  0.190584  0.922107  1
  Au  Au24  1  0.084478  0.690199  0.750187  1
  Au  Au25  1  0.648632  0.474821  0.064883  1
  Au  Au26  1  0.190584  0.025264  0.422107  1
  Au  Au27  1  0.690199  0.084478  0.250187  1
