# generated using pymatgen
data_ThSe27
_symmetry_space_group_name_H-M   'P 1'
_cell_length_a   17.15650564
_cell_length_b   17.03215950
_cell_length_c   17.16928000
_cell_angle_alpha   119.02161114
_cell_angle_beta   119.77535506
_cell_angle_gamma   118.94266940
_symmetry_Int_Tables_number   1
_chemical_formula_structural   ThSe27
_chemical_formula_sum   'Th1 Se27'
_cell_volume   1129.18423110
_cell_formula_units_Z   1
loop_
 _symmetry_equiv_pos_site_id
 _symmetry_equiv_pos_as_xyz
  1  'x, y, z'
loop_
 _atom_site_type_symbol
 _atom_site_label
 _atom_site_symmetry_multiplicity
 _atom_site_fract_x
 _atom_site_fract_y
 _atom_site_fract_z
 _atom_site_occupancy
  Th  Th0  1  0.502886  0.575934  0.502895  1
  Se  Se1  1  0.817775  0.540593  0.541659  1
  Se  Se2  1  0.540744  0.539518  0.816803  1
  Se  Se3  1  0.578793  0.832079  0.578893  1
  Se  Se4  1  0.212086  0.342708  0.598572  1
  Se  Se5  1  0.398753  0.973003  0.398817  1
  Se  Se6  1  0.399801  0.397993  0.996386  1
  Se  Se7  1  0.996576  0.397866  0.399920  1
  Se  Se8  1  0.113544  0.700616  0.242565  1
  Se  Se9  1  0.234335  0.103447  0.716722  1
  Se  Se10  1  0.721033  0.239182  0.111301  1
  Se  Se11  1  0.717096  0.103690  0.234568  1
  Se  Se12  1  0.242532  0.700417  0.113632  1
  Se  Se13  1  0.111112  0.239325  0.720836  1
  Se  Se14  1  0.403079  0.905168  0.583185  1
  Se  Se15  1  0.566719  0.381894  0.912633  1
  Se  Se16  1  0.919810  0.574736  0.393943  1
  Se  Se17  1  0.913142  0.382273  0.567097  1
  Se  Se18  1  0.583186  0.904925  0.403258  1
  Se  Se19  1  0.394273  0.575097  0.920084  1
  Se  Se20  1  0.228659  0.590261  0.362156  1
  Se  Se21  1  0.337389  0.205586  0.595051  1
  Se  Se22  1  0.599112  0.343240  0.212719  1
  Se  Se23  1  0.596178  0.206868  0.338494  1
  Se  Se24  1  0.362069  0.589980  0.228735  1
  Se  Se25  1  0.934555  0.092789  0.061261  1
  Se  Se26  1  0.060988  0.092919  0.934393  1
  Se  Se27  1  0.039072  0.993190  0.038719  1
