# generated using pymatgen
data_Tm10Al5BiC8
_symmetry_space_group_name_H-M   'P 1'
_cell_length_a   10.81862000
_cell_length_b   10.81862000
_cell_length_c   3.49355100
_cell_angle_alpha   90.00000000
_cell_angle_beta   90.00000000
_cell_angle_gamma   90.00000000
_symmetry_Int_Tables_number   1
_chemical_formula_structural   Tm10Al5BiC8
_chemical_formula_sum   'Tm10 Al5 Bi1 C8'
_cell_volume   408.89407813
_cell_formula_units_Z   1
loop_
 _symmetry_equiv_pos_site_id
 _symmetry_equiv_pos_as_xyz
  1  'x, y, z'
loop_
 _atom_site_type_symbol
 _atom_site_label
 _atom_site_symmetry_multiplicity
 _atom_site_fract_x
 _atom_site_fract_y
 _atom_site_fract_z
 _atom_site_occupancy
  Tm  Tm0  1  0.550823  0.738729  0.500000  1
  Tm  Tm1  1  0.449177  0.261271  0.500000  1
  Tm  Tm2  1  0.049100  0.770066  0.500000  1
  Tm  Tm3  1  0.950900  0.229934  0.500000  1
  Tm  Tm4  1  0.261271  0.550823  0.500000  1
  Tm  Tm5  1  0.738729  0.449177  0.500000  1
  Tm  Tm6  1  0.229934  0.049100  0.500000  1
  Tm  Tm7  1  0.770066  0.950900  0.500000  1
  Tm  Tm8  1  0.500000  0.000000  0.000000  1
  Tm  Tm9  1  0.000000  0.500000  0.000000  1
  Al  Al10  1  0.710477  0.194947  0.000000  1
  Al  Al11  1  0.289523  0.805053  0.000000  1
  Al  Al12  1  0.194947  0.289523  0.000000  1
  Al  Al13  1  0.805053  0.710477  0.000000  1
  Al  Al14  1  0.000000  0.000000  0.000000  1
  Bi  Bi15  1  0.500000  0.500000  0.000000  1
  C  C16  1  0.628281  0.128324  0.500000  1
  C  C17  1  0.371719  0.871676  0.500000  1
  C  C18  1  0.128324  0.371719  0.500000  1
  C  C19  1  0.871676  0.628281  0.500000  1
  C  C20  1  0.162492  0.661864  0.000000  1
  C  C21  1  0.837508  0.338136  0.000000  1
  C  C22  1  0.661864  0.837508  0.000000  1
  C  C23  1  0.338136  0.162492  0.000000  1
