# generated using pymatgen
data_TbY2In3Cu2Ru
_symmetry_space_group_name_H-M   'P 1'
_cell_length_a   7.56641005
_cell_length_b   7.53384505
_cell_length_c   3.92671200
_cell_angle_alpha   90.00000000
_cell_angle_beta   90.00000000
_cell_angle_gamma   120.15640738
_symmetry_Int_Tables_number   1
_chemical_formula_structural   TbY2In3Cu2Ru
_chemical_formula_sum   'Tb1 Y2 In3 Cu2 Ru1'
_cell_volume   193.54395106
_cell_formula_units_Z   1
loop_
 _symmetry_equiv_pos_site_id
 _symmetry_equiv_pos_as_xyz
  1  'x, y, z'
loop_
 _atom_site_type_symbol
 _atom_site_label
 _atom_site_symmetry_multiplicity
 _atom_site_fract_x
 _atom_site_fract_y
 _atom_site_fract_z
 _atom_site_occupancy
  Tb  Tb0  1  0.400922  0.980503  0.500000  1
  Y  Y1  1  0.018952  0.418435  0.500000  1
  Y  Y2  1  0.580772  0.599475  0.500000  1
  In  In3  1  0.749510  0.004304  0.000000  1
  In  In4  1  0.994759  0.743376  0.000000  1
  In  In5  1  0.255766  0.251969  0.000000  1
  Cu  Cu6  1  0.665870  0.332564  0.000000  1
  Cu  Cu7  1  0.000600  0.000188  0.500000  1
  Ru  Ru8  1  0.332849  0.669187  0.000000  1
