# generated using pymatgen
data_Nd2Mg(SiPd2)6
_symmetry_space_group_name_H-M   'P 1'
_cell_length_a   10.15952500
_cell_length_b   10.15952324
_cell_length_c   3.89625200
_cell_angle_alpha   90.00000000
_cell_angle_beta   90.00000000
_cell_angle_gamma   120.00000247
_symmetry_Int_Tables_number   1
_chemical_formula_structural   Nd2Mg(SiPd2)6
_chemical_formula_sum   'Nd2 Mg1 Si6 Pd12'
_cell_volume   348.27667589
_cell_formula_units_Z   1
loop_
 _symmetry_equiv_pos_site_id
 _symmetry_equiv_pos_as_xyz
  1  'x, y, z'
loop_
 _atom_site_type_symbol
 _atom_site_label
 _atom_site_symmetry_multiplicity
 _atom_site_fract_x
 _atom_site_fract_y
 _atom_site_fract_z
 _atom_site_occupancy
  Nd  Nd0  1  0.666667  0.333333  0.246009  1
  Nd  Nd1  1  0.000000  0.000000  0.752741  1
  Mg  Mg2  1  0.333333  0.666667  0.452404  1
  Si  Si3  1  0.736179  0.781336  0.253664  1
  Si  Si4  1  0.045157  0.263821  0.253664  1
  Si  Si5  1  0.218664  0.954843  0.253664  1
  Si  Si6  1  0.929926  0.552802  0.745676  1
  Si  Si7  1  0.622877  0.070074  0.745676  1
  Si  Si8  1  0.447198  0.377123  0.745676  1
  Pd  Pd9  1  0.776562  0.049251  0.251615  1
  Pd  Pd10  1  0.272689  0.223438  0.251615  1
  Pd  Pd11  1  0.950749  0.727311  0.251615  1
  Pd  Pd12  1  0.890320  0.282285  0.748298  1
  Pd  Pd13  1  0.391965  0.109680  0.748298  1
  Pd  Pd14  1  0.717715  0.608035  0.748298  1
  Pd  Pd15  1  0.491499  0.542641  0.244284  1
  Pd  Pd16  1  0.051140  0.508501  0.244284  1
  Pd  Pd17  1  0.457359  0.948860  0.244284  1
  Pd  Pd18  1  0.179143  0.786808  0.756584  1
  Pd  Pd19  1  0.607665  0.820857  0.756584  1
  Pd  Pd20  1  0.213192  0.392335  0.756584  1
