# generated using pymatgen
data_Cr3Fe5Ge4(O2F)8
_symmetry_space_group_name_H-M   'P 1'
_cell_length_a   4.97246518
_cell_length_b   9.01368155
_cell_length_c   9.47176247
_cell_angle_alpha   89.98447658
_cell_angle_beta   89.96729548
_cell_angle_gamma   90.12579486
_symmetry_Int_Tables_number   1
_chemical_formula_structural   Cr3Fe5Ge4(O2F)8
_chemical_formula_sum   'Cr3 Fe5 Ge4 O16 F8'
_cell_volume   424.52534745
_cell_formula_units_Z   1
loop_
 _symmetry_equiv_pos_site_id
 _symmetry_equiv_pos_as_xyz
  1  'x, y, z'
loop_
 _atom_site_type_symbol
 _atom_site_label
 _atom_site_symmetry_multiplicity
 _atom_site_fract_x
 _atom_site_fract_y
 _atom_site_fract_z
 _atom_site_occupancy
  Cr  Cr0  1  0.902828  0.082681  0.369600  1
  Cr  Cr1  1  0.097495  0.917516  0.630313  1
  Cr  Cr2  1  0.597527  0.416895  0.868986  1
  Fe  Fe3  1  0.402593  0.916668  0.129682  1
  Fe  Fe4  1  0.597093  0.083562  0.870557  1
  Fe  Fe5  1  0.902494  0.416331  0.370914  1
  Fe  Fe6  1  0.097809  0.583419  0.629112  1
  Fe  Fe7  1  0.403461  0.583561  0.129343  1
  Ge  Ge8  1  0.602653  0.751928  0.439861  1
  Ge  Ge9  1  0.898577  0.749580  0.937637  1
  Ge  Ge10  1  0.101147  0.250712  0.060927  1
  Ge  Ge11  1  0.398423  0.248252  0.560932  1
  O  O12  1  0.714755  0.910535  0.990509  1
  O  O13  1  0.785783  0.913107  0.493924  1
  O  O14  1  0.784184  0.589684  0.491728  1
  O  O15  1  0.213620  0.750569  0.027901  1
  O  O16  1  0.283761  0.088858  0.009217  1
  O  O17  1  0.286900  0.411206  0.007374  1
  O  O18  1  0.954769  0.749161  0.751131  1
  O  O19  1  0.285108  0.751109  0.528186  1
  O  O20  1  0.214821  0.087338  0.506560  1
  O  O21  1  0.546434  0.751154  0.253116  1
  O  O22  1  0.784466  0.250769  0.971799  1
  O  O23  1  0.216098  0.410427  0.509537  1
  O  O24  1  0.715879  0.588097  0.991426  1
  O  O25  1  0.715634  0.248530  0.472332  1
  O  O26  1  0.045619  0.250666  0.247844  1
  O  O27  1  0.454468  0.248622  0.747913  1
  F  F28  1  0.086372  0.937240  0.252416  1
  F  F29  1  0.085338  0.562801  0.250270  1
  F  F30  1  0.911803  0.436764  0.748939  1
  F  F31  1  0.411584  0.936955  0.750853  1
  F  F32  1  0.588672  0.063025  0.249034  1
  F  F33  1  0.584636  0.437212  0.249771  1
  F  F34  1  0.413446  0.562480  0.752533  1
  F  F35  1  0.913749  0.062586  0.747822  1
