# generated using pymatgen
data_Nd2Th3Si12Ir19
_symmetry_space_group_name_H-M   'P 1'
_cell_length_a   12.96895200
_cell_length_b   12.96895346
_cell_length_c   4.02080600
_cell_angle_alpha   90.00000000
_cell_angle_beta   90.00000000
_cell_angle_gamma   120.00000138
_symmetry_Int_Tables_number   1
_chemical_formula_structural   Nd2Th3Si12Ir19
_chemical_formula_sum   'Nd2 Th3 Si12 Ir19'
_cell_volume   585.67078353
_cell_formula_units_Z   1
loop_
 _symmetry_equiv_pos_site_id
 _symmetry_equiv_pos_as_xyz
  1  'x, y, z'
loop_
 _atom_site_type_symbol
 _atom_site_label
 _atom_site_symmetry_multiplicity
 _atom_site_fract_x
 _atom_site_fract_y
 _atom_site_fract_z
 _atom_site_occupancy
  Nd  Nd0  1  0.333333  0.666667  0.000000  1
  Nd  Nd1  1  0.666667  0.333333  0.000000  1
  Th  Th2  1  0.000000  0.813682  0.500000  1
  Th  Th3  1  0.186318  0.186318  0.500000  1
  Th  Th4  1  0.813682  0.000000  0.500000  1
  Si  Si5  1  0.000000  0.183827  0.000000  1
  Si  Si6  1  0.816173  0.816173  0.000000  1
  Si  Si7  1  0.183827  0.000000  0.000000  1
  Si  Si8  1  0.519132  0.688040  0.500000  1
  Si  Si9  1  0.311960  0.831092  0.500000  1
  Si  Si10  1  0.168908  0.480868  0.500000  1
  Si  Si11  1  0.480868  0.168908  0.500000  1
  Si  Si12  1  0.688040  0.519132  0.500000  1
  Si  Si13  1  0.831092  0.311960  0.500000  1
  Si  Si14  1  0.000000  0.628149  0.000000  1
  Si  Si15  1  0.371851  0.371851  0.000000  1
  Si  Si16  1  0.628149  0.000000  0.000000  1
  Ir  Ir17  1  0.000000  0.284788  0.500000  1
  Ir  Ir18  1  0.715212  0.715212  0.500000  1
  Ir  Ir19  1  0.284788  0.000000  0.500000  1
  Ir  Ir20  1  0.624195  0.806183  0.000000  1
  Ir  Ir21  1  0.193817  0.818012  0.000000  1
  Ir  Ir22  1  0.181988  0.375805  0.000000  1
  Ir  Ir23  1  0.375805  0.181988  0.000000  1
  Ir  Ir24  1  0.806183  0.624195  0.000000  1
  Ir  Ir25  1  0.818012  0.193817  0.000000  1
  Ir  Ir26  1  0.512987  0.874613  0.500000  1
  Ir  Ir27  1  0.125387  0.638375  0.500000  1
  Ir  Ir28  1  0.361625  0.487013  0.500000  1
  Ir  Ir29  1  0.487013  0.361625  0.500000  1
  Ir  Ir30  1  0.874613  0.512987  0.500000  1
  Ir  Ir31  1  0.638375  0.125387  0.500000  1
  Ir  Ir32  1  0.000000  0.000000  0.000000  1
  Ir  Ir33  1  0.000000  0.446051  0.000000  1
  Ir  Ir34  1  0.553949  0.553949  0.000000  1
  Ir  Ir35  1  0.446051  0.000000  0.000000  1
