# generated using pymatgen
data_Er5Zr3(P3Ir4)4
_symmetry_space_group_name_H-M   'P 1'
_cell_length_a   12.88074200
_cell_length_b   12.88074081
_cell_length_c   3.96629700
_cell_angle_alpha   90.00000000
_cell_angle_beta   90.00000000
_cell_angle_gamma   119.99999791
_symmetry_Int_Tables_number   1
_chemical_formula_structural   Er5Zr3(P3Ir4)4
_chemical_formula_sum   'Er5 Zr3 P12 Ir16'
_cell_volume   569.89860672
_cell_formula_units_Z   1
loop_
 _symmetry_equiv_pos_site_id
 _symmetry_equiv_pos_as_xyz
  1  'x, y, z'
loop_
 _atom_site_type_symbol
 _atom_site_label
 _atom_site_symmetry_multiplicity
 _atom_site_fract_x
 _atom_site_fract_y
 _atom_site_fract_z
 _atom_site_occupancy
  Er  Er0  1  0.333333  0.666667  0.000000  1
  Er  Er1  1  0.666667  0.333333  0.000000  1
  Er  Er2  1  0.815992  0.000000  0.500000  1
  Er  Er3  1  0.000000  0.815992  0.500000  1
  Er  Er4  1  0.184008  0.184008  0.500000  1
  Zr  Zr5  1  0.449350  0.000000  0.000000  1
  Zr  Zr6  1  0.000000  0.449350  0.000000  1
  Zr  Zr7  1  0.550650  0.550650  0.000000  1
  P  P8  1  0.175535  0.000000  0.000000  1
  P  P9  1  0.000000  0.175535  0.000000  1
  P  P10  1  0.824465  0.824465  0.000000  1
  P  P11  1  0.169670  0.482717  0.500000  1
  P  P12  1  0.517283  0.686952  0.500000  1
  P  P13  1  0.313048  0.830330  0.500000  1
  P  P14  1  0.686952  0.517283  0.500000  1
  P  P15  1  0.830330  0.313048  0.500000  1
  P  P16  1  0.482717  0.169670  0.500000  1
  P  P17  1  0.650254  0.000000  0.000000  1
  P  P18  1  0.000000  0.650254  0.000000  1
  P  P19  1  0.349746  0.349746  0.000000  1
  Ir  Ir20  1  0.356593  0.493539  0.500000  1
  Ir  Ir21  1  0.506461  0.863055  0.500000  1
  Ir  Ir22  1  0.136945  0.643407  0.500000  1
  Ir  Ir23  1  0.863055  0.506461  0.500000  1
  Ir  Ir24  1  0.643407  0.136945  0.500000  1
  Ir  Ir25  1  0.493539  0.356593  0.500000  1
  Ir  Ir26  1  0.178212  0.369980  0.000000  1
  Ir  Ir27  1  0.630020  0.808233  0.000000  1
  Ir  Ir28  1  0.191767  0.821788  0.000000  1
  Ir  Ir29  1  0.808233  0.630020  0.000000  1
  Ir  Ir30  1  0.821788  0.191767  0.000000  1
  Ir  Ir31  1  0.369980  0.178212  0.000000  1
  Ir  Ir32  1  0.277432  0.000000  0.500000  1
  Ir  Ir33  1  0.000000  0.277432  0.500000  1
  Ir  Ir34  1  0.722568  0.722568  0.500000  1
  Ir  Ir35  1  0.000000  0.000000  0.000000  1
