# generated using pymatgen
data_Ca5Tb(Pr7Sn8)2
_symmetry_space_group_name_H-M   'P 1'
_cell_length_a   8.11538839
_cell_length_b   8.55457869
_cell_length_c   16.14012056
_cell_angle_alpha   90.17406448
_cell_angle_beta   89.66763756
_cell_angle_gamma   90.06981737
_symmetry_Int_Tables_number   1
_chemical_formula_structural   Ca5Tb(Pr7Sn8)2
_chemical_formula_sum   'Ca5 Tb1 Pr14 Sn16'
_cell_volume   1120.48251724
_cell_formula_units_Z   1
loop_
 _symmetry_equiv_pos_site_id
 _symmetry_equiv_pos_as_xyz
  1  'x, y, z'
loop_
 _atom_site_type_symbol
 _atom_site_label
 _atom_site_symmetry_multiplicity
 _atom_site_fract_x
 _atom_site_fract_y
 _atom_site_fract_z
 _atom_site_occupancy
  Ca  Ca0  1  0.333211  0.830291  0.875487  1
  Ca  Ca1  1  0.170888  0.498948  0.749636  1
  Ca  Ca2  1  0.669905  0.005279  0.749879  1
  Ca  Ca3  1  0.830934  0.505304  0.251618  1
  Ca  Ca4  1  0.330178  0.993292  0.250349  1
  Tb  Tb5  1  0.840720  0.672024  0.625287  1
  Pr  Pr6  1  0.658283  0.170537  0.377999  1
  Pr  Pr7  1  0.163084  0.326100  0.123886  1
  Pr  Pr8  1  0.663246  0.172400  0.124339  1
  Pr  Pr9  1  0.159297  0.327706  0.376216  1
  Pr  Pr10  1  0.344170  0.828480  0.624237  1
  Pr  Pr11  1  0.837964  0.674570  0.874340  1
  Pr  Pr12  1  0.492946  0.317135  0.902633  1
  Pr  Pr13  1  0.997246  0.182450  0.595764  1
  Pr  Pr14  1  0.506657  0.683835  0.404896  1
  Pr  Pr15  1  0.006881  0.814638  0.095939  1
  Pr  Pr16  1  0.505043  0.681779  0.095460  1
  Pr  Pr17  1  0.004542  0.818788  0.404829  1
  Pr  Pr18  1  0.494448  0.314673  0.596245  1
  Pr  Pr19  1  0.993168  0.184767  0.902238  1
  Sn  Sn20  1  0.327679  0.034186  0.037914  1
  Sn  Sn21  1  0.820052  0.463155  0.466638  1
  Sn  Sn22  1  0.689235  0.957440  0.538374  1
  Sn  Sn23  1  0.174320  0.535271  0.960863  1
  Sn  Sn24  1  0.671520  0.962831  0.961869  1
  Sn  Sn25  1  0.174768  0.540492  0.537926  1
  Sn  Sn26  1  0.315694  0.038447  0.464285  1
  Sn  Sn27  1  0.824629  0.463223  0.036779  1
  Sn  Sn28  1  0.540065  0.603731  0.747592  1
  Sn  Sn29  1  0.037126  0.893363  0.748023  1
  Sn  Sn30  1  0.462936  0.396457  0.250273  1
  Sn  Sn31  1  0.962065  0.103400  0.250564  1
  Sn  Sn32  1  0.294640  0.142257  0.749260  1
  Sn  Sn33  1  0.798152  0.363861  0.748724  1
  Sn  Sn34  1  0.702707  0.858674  0.249905  1
  Sn  Sn35  1  0.201598  0.640219  0.249733  1
