# generated using pymatgen
data_Ba2NpO5
_symmetry_space_group_name_H-M   'P 1'
_cell_length_a   6.06689500
_cell_length_b   7.93497100
_cell_length_c   11.86611800
_cell_angle_alpha   90.00000000
_cell_angle_beta   90.00000000
_cell_angle_gamma   90.00000000
_symmetry_Int_Tables_number   1
_chemical_formula_structural   Ba2NpO5
_chemical_formula_sum   'Ba8 Np4 O20'
_cell_volume   571.24246601
_cell_formula_units_Z   4
loop_
 _symmetry_equiv_pos_site_id
 _symmetry_equiv_pos_as_xyz
  1  'x, y, z'
loop_
 _atom_site_type_symbol
 _atom_site_label
 _atom_site_symmetry_multiplicity
 _atom_site_fract_x
 _atom_site_fract_y
 _atom_site_fract_z
 _atom_site_occupancy
  Ba  Ba0  1  0.750000  0.151392  0.573826  1
  Ba  Ba1  1  0.250000  0.848608  0.426174  1
  Ba  Ba2  1  0.750000  0.651392  0.926174  1
  Ba  Ba3  1  0.250000  0.348608  0.073826  1
  Ba  Ba4  1  0.250000  0.004354  0.773199  1
  Ba  Ba5  1  0.750000  0.995646  0.226801  1
  Ba  Ba6  1  0.250000  0.504354  0.726801  1
  Ba  Ba7  1  0.750000  0.495646  0.273199  1
  Np  Np8  1  0.250000  0.324877  0.437238  1
  Np  Np9  1  0.750000  0.675123  0.562762  1
  Np  Np10  1  0.250000  0.824877  0.062762  1
  Np  Np11  1  0.750000  0.175123  0.937238  1
  O  O12  1  0.495341  0.662718  0.113375  1
  O  O13  1  0.995341  0.337282  0.886625  1
  O  O14  1  0.004659  0.162718  0.386625  1
  O  O15  1  0.504659  0.837282  0.613375  1
  O  O16  1  0.504659  0.337282  0.886625  1
  O  O17  1  0.004659  0.662718  0.113375  1
  O  O18  1  0.995341  0.837282  0.613375  1
  O  O19  1  0.495341  0.162718  0.386625  1
  O  O20  1  0.750000  0.282188  0.094959  1
  O  O21  1  0.250000  0.717812  0.905041  1
  O  O22  1  0.750000  0.782188  0.405041  1
  O  O23  1  0.250000  0.217812  0.594959  1
  O  O24  1  0.000000  0.500000  0.500000  1
  O  O25  1  0.500000  0.500000  0.500000  1
  O  O26  1  0.500000  0.000000  0.000000  1
  O  O27  1  0.000000  0.000000  0.000000  1
  O  O28  1  0.250000  0.445529  0.292185  1
  O  O29  1  0.750000  0.554471  0.707815  1
  O  O30  1  0.250000  0.945529  0.207815  1
  O  O31  1  0.750000  0.054471  0.792185  1
