# generated using pymatgen
data_La8DyHo11Sn16
_symmetry_space_group_name_H-M   'P 1'
_cell_length_a   8.27816925
_cell_length_b   8.36553805
_cell_length_c   15.79433900
_cell_angle_alpha   90.00325329
_cell_angle_beta   90.09855951
_cell_angle_gamma   90.06285468
_symmetry_Int_Tables_number   1
_chemical_formula_structural   La8DyHo11Sn16
_chemical_formula_sum   'La8 Dy1 Ho11 Sn16'
_cell_volume   1093.77685887
_cell_formula_units_Z   1
loop_
 _symmetry_equiv_pos_site_id
 _symmetry_equiv_pos_as_xyz
  1  'x, y, z'
loop_
 _atom_site_type_symbol
 _atom_site_label
 _atom_site_symmetry_multiplicity
 _atom_site_fract_x
 _atom_site_fract_y
 _atom_site_fract_z
 _atom_site_occupancy
  La  La0  1  0.487523  0.677814  0.596268  1
  La  La1  1  0.987882  0.822339  0.903951  1
  La  La2  1  0.512112  0.322300  0.096242  1
  La  La3  1  0.012511  0.177659  0.403446  1
  La  La4  1  0.512424  0.322432  0.403583  1
  La  La5  1  0.012091  0.177576  0.096286  1
  La  La6  1  0.488039  0.677761  0.903918  1
  La  La7  1  0.987523  0.822192  0.596274  1
  Dy  Dy8  1  0.142976  0.337123  0.623491  1
  Ho  Ho9  1  0.643063  0.162761  0.623789  1
  Ho  Ho10  1  0.143611  0.337113  0.876248  1
  Ho  Ho11  1  0.356366  0.837278  0.123784  1
  Ho  Ho12  1  0.856971  0.662662  0.376309  1
  Ho  Ho13  1  0.357003  0.837303  0.376126  1
  Ho  Ho14  1  0.856448  0.662949  0.123781  1
  Ho  Ho15  1  0.643519  0.162741  0.876358  1
  Ho  Ho16  1  0.809087  0.496342  0.749973  1
  Ho  Ho17  1  0.309182  0.003379  0.750069  1
  Ho  Ho18  1  0.190805  0.503549  0.249976  1
  Ho  Ho19  1  0.690920  0.996443  0.250064  1
  Sn  Sn20  1  0.692275  0.958248  0.456803  1
  Sn  Sn21  1  0.191395  0.541967  0.043118  1
  Sn  Sn22  1  0.308348  0.042127  0.956926  1
  Sn  Sn23  1  0.806804  0.458581  0.543162  1
  Sn  Sn24  1  0.308077  0.041331  0.543085  1
  Sn  Sn25  1  0.808766  0.458028  0.956934  1
  Sn  Sn26  1  0.691555  0.958029  0.043263  1
  Sn  Sn27  1  0.192459  0.541869  0.456386  1
  Sn  Sn28  1  0.445122  0.373481  0.750257  1
  Sn  Sn29  1  0.944650  0.126184  0.750051  1
  Sn  Sn30  1  0.555111  0.626473  0.249898  1
  Sn  Sn31  1  0.055131  0.873567  0.249976  1
  Sn  Sn32  1  0.678395  0.858298  0.750182  1
  Sn  Sn33  1  0.178403  0.641997  0.750272  1
  Sn  Sn34  1  0.321656  0.141775  0.249900  1
  Sn  Sn35  1  0.821794  0.358331  0.249851  1
