# generated using pymatgen
data_Nd9Mg(Co2Ag)2
_symmetry_space_group_name_H-M   'P 1'
_cell_length_a   8.89986569
_cell_length_b   8.89986660
_cell_length_c   8.89986500
_cell_angle_alpha   128.70100447
_cell_angle_beta   128.70101738
_cell_angle_gamma   75.49213410
_symmetry_Int_Tables_number   1
_chemical_formula_structural   Nd9Mg(Co2Ag)2
_chemical_formula_sum   'Nd9 Mg1 Co4 Ag2'
_cell_volume   417.77615797
_cell_formula_units_Z   1
loop_
 _symmetry_equiv_pos_site_id
 _symmetry_equiv_pos_as_xyz
  1  'x, y, z'
loop_
 _atom_site_type_symbol
 _atom_site_label
 _atom_site_symmetry_multiplicity
 _atom_site_fract_x
 _atom_site_fract_y
 _atom_site_fract_z
 _atom_site_occupancy
  Nd  Nd0  1  0.718011  0.550637  0.525806  1
  Nd  Nd1  1  0.449363  0.975169  0.167374  1
  Nd  Nd2  1  0.807795  0.281989  0.832626  1
  Nd  Nd3  1  0.550637  0.024831  0.832626  1
  Nd  Nd4  1  0.024831  0.192205  0.474194  1
  Nd  Nd5  1  0.281989  0.449363  0.474194  1
  Nd  Nd6  1  0.192205  0.718011  0.167374  1
  Nd  Nd7  1  0.975169  0.807795  0.525806  1
  Nd  Nd8  1  0.500000  0.500000  0.000000  1
  Mg  Mg9  1  0.000000  0.000000  0.000000  1
  Co  Co10  1  0.131425  0.629562  0.760986  1
  Co  Co11  1  0.868575  0.370438  0.239014  1
  Co  Co12  1  0.629562  0.868575  0.498137  1
  Co  Co13  1  0.370438  0.131425  0.501863  1
  Ag  Ag14  1  0.258416  0.258416  0.000000  1
  Ag  Ag15  1  0.741584  0.741584  0.000000  1
