# generated using pymatgen
data_Dy4Ho16(IrRh3)3
_symmetry_space_group_name_H-M   'P 1'
_cell_length_a   10.85894106
_cell_length_b   10.85874217
_cell_length_c   6.34766500
_cell_angle_alpha   89.99940036
_cell_angle_beta   89.99783610
_cell_angle_gamma   89.93299954
_symmetry_Int_Tables_number   1
_chemical_formula_structural   Dy4Ho16(IrRh3)3
_chemical_formula_sum   'Dy4 Ho16 Ir3 Rh9'
_cell_volume   748.48085950
_cell_formula_units_Z   1
loop_
 _symmetry_equiv_pos_site_id
 _symmetry_equiv_pos_as_xyz
  1  'x, y, z'
loop_
 _atom_site_type_symbol
 _atom_site_label
 _atom_site_symmetry_multiplicity
 _atom_site_fract_x
 _atom_site_fract_y
 _atom_site_fract_z
 _atom_site_occupancy
  Dy  Dy0  1  0.290986  0.089780  0.378371  1
  Dy  Dy1  1  0.291153  0.909936  0.878181  1
  Dy  Dy2  1  0.709081  0.088377  0.878140  1
  Dy  Dy3  1  0.708773  0.910049  0.378090  1
  Ho  Ho4  1  0.587527  0.789622  0.879381  1
  Ho  Ho5  1  0.587173  0.209553  0.378088  1
  Ho  Ho6  1  0.412426  0.789904  0.378813  1
  Ho  Ho7  1  0.410805  0.209563  0.879463  1
  Ho  Ho8  1  0.210229  0.412518  0.620603  1
  Ho  Ho9  1  0.209940  0.587513  0.121181  1
  Ho  Ho10  1  0.790598  0.412885  0.121921  1
  Ho  Ho11  1  0.790595  0.589146  0.620523  1
  Ho  Ho12  1  0.910362  0.708847  0.121448  1
  Ho  Ho13  1  0.911816  0.291071  0.621654  1
  Ho  Ho14  1  0.089905  0.708702  0.621644  1
  Ho  Ho15  1  0.089787  0.291385  0.121718  1
  Ho  Ho16  1  0.999823  0.999929  0.499947  1
  Ho  Ho17  1  0.000083  0.000179  0.000202  1
  Ho  Ho18  1  0.499743  0.499929  0.999919  1
  Ho  Ho19  1  0.500074  0.500251  0.500193  1
  Ir  Ir20  1  0.654597  0.653818  0.249955  1
  Ir  Ir21  1  0.346056  0.345531  0.249898  1
  Ir  Ir22  1  0.345369  0.654510  0.749929  1
  Rh  Rh23  1  0.846093  0.154179  0.250162  1
  Rh  Rh24  1  0.846551  0.846790  0.750401  1
  Rh  Rh25  1  0.152941  0.153714  0.749901  1
  Rh  Rh26  1  0.153196  0.846529  0.250162  1
  Rh  Rh27  1  0.654933  0.345168  0.749941  1
  Rh  Rh28  1  0.500259  0.000481  0.122561  1
  Rh  Rh29  1  0.500342  0.000739  0.623172  1
  Rh  Rh30  1  0.999269  0.499653  0.876911  1
  Rh  Rh31  1  0.999520  0.499749  0.377528  1
