# generated using pymatgen
data_Ti6Zn6Ir11Ru
_symmetry_space_group_name_H-M   'P 1'
_cell_length_a   4.34152600
_cell_length_b   6.11982900
_cell_length_c   12.99923700
_cell_angle_alpha   90.00000000
_cell_angle_beta   89.99891678
_cell_angle_gamma   90.00000000
_symmetry_Int_Tables_number   1
_chemical_formula_structural   Ti6Zn6Ir11Ru
_chemical_formula_sum   'Ti6 Zn6 Ir11 Ru1'
_cell_volume   345.38188487
_cell_formula_units_Z   1
loop_
 _symmetry_equiv_pos_site_id
 _symmetry_equiv_pos_as_xyz
  1  'x, y, z'
loop_
 _atom_site_type_symbol
 _atom_site_label
 _atom_site_symmetry_multiplicity
 _atom_site_fract_x
 _atom_site_fract_y
 _atom_site_fract_z
 _atom_site_occupancy
  Ti  Ti0  1  0.000000  0.495311  0.000000  1
  Ti  Ti1  1  0.499751  0.002599  0.164117  1
  Ti  Ti2  1  0.999744  0.499905  0.332773  1
  Ti  Ti3  1  0.499999  0.000037  0.500000  1
  Ti  Ti4  1  0.000255  0.499905  0.667227  1
  Ti  Ti5  1  0.500249  0.002599  0.835883  1
  Zn  Zn6  1  0.000000  0.001424  0.000000  1
  Zn  Zn7  1  0.499721  0.499017  0.165823  1
  Zn  Zn8  1  0.999717  0.000200  0.333194  1
  Zn  Zn9  1  0.499999  0.500026  0.500000  1
  Zn  Zn10  1  0.000283  0.000200  0.666806  1
  Zn  Zn11  1  0.500278  0.499017  0.834177  1
  Ir  Ir12  1  0.499999  0.749802  0.000000  1
  Ir  Ir13  1  0.999751  0.249933  0.167097  1
  Ir  Ir14  1  0.999742  0.749947  0.167014  1
  Ir  Ir15  1  0.499747  0.250403  0.333795  1
  Ir  Ir16  1  0.499743  0.749953  0.333441  1
  Ir  Ir17  1  0.000000  0.249723  0.500000  1
  Ir  Ir18  1  0.000000  0.750282  0.500000  1
  Ir  Ir19  1  0.500253  0.250403  0.666205  1
  Ir  Ir20  1  0.500257  0.749953  0.666559  1
  Ir  Ir21  1  0.000250  0.249933  0.832903  1
  Ir  Ir22  1  0.000259  0.749947  0.832986  1
  Ru  Ru23  1  0.499999  0.249487  0.000000  1
