# generated using pymatgen
data_Rb4Li2AlH12Rh
_symmetry_space_group_name_H-M   'P 1'
_cell_length_a   9.93407196
_cell_length_b   9.93407111
_cell_length_c   9.93407269
_cell_angle_alpha   34.36277346
_cell_angle_beta   34.36278245
_cell_angle_gamma   34.36277369
_symmetry_Int_Tables_number   1
_chemical_formula_structural   Rb4Li2AlH12Rh
_chemical_formula_sum   'Rb4 Li2 Al1 H12 Rh1'
_cell_volume   278.56582606
_cell_formula_units_Z   1
loop_
 _symmetry_equiv_pos_site_id
 _symmetry_equiv_pos_as_xyz
  1  'x, y, z'
loop_
 _atom_site_type_symbol
 _atom_site_label
 _atom_site_symmetry_multiplicity
 _atom_site_fract_x
 _atom_site_fract_y
 _atom_site_fract_z
 _atom_site_occupancy
  Rb  Rb0  1  0.127744  0.127744  0.127744  1
  Rb  Rb1  1  0.872256  0.872256  0.872256  1
  Rb  Rb2  1  0.285714  0.285714  0.285714  1
  Rb  Rb3  1  0.714286  0.714286  0.714286  1
  Li  Li4  1  0.409344  0.409344  0.409344  1
  Li  Li5  1  0.590656  0.590656  0.590656  1
  Al  Al6  1  0.000000  0.000000  0.000000  1
  H  H7  1  0.182499  0.182499  0.743912  1
  H  H8  1  0.743912  0.182499  0.182499  1
  H  H9  1  0.182499  0.743912  0.182499  1
  H  H10  1  0.817501  0.256088  0.817501  1
  H  H11  1  0.817501  0.817501  0.256088  1
  H  H12  1  0.256088  0.817501  0.817501  1
  H  H13  1  0.403749  0.403749  0.800834  1
  H  H14  1  0.800834  0.403749  0.403749  1
  H  H15  1  0.199166  0.596251  0.596251  1
  H  H16  1  0.596251  0.596251  0.199166  1
  H  H17  1  0.596251  0.199166  0.596251  1
  H  H18  1  0.403749  0.800834  0.403749  1
  Rh  Rh19  1  0.500000  0.500000  0.500000  1
