# generated using pymatgen
data_Tm12CdCo4Tc
_symmetry_space_group_name_H-M   'P 1'
_cell_length_a   8.17647782
_cell_length_b   8.17647838
_cell_length_c   8.17647805
_cell_angle_alpha   111.85579823
_cell_angle_beta   110.77609420
_cell_angle_gamma   105.84353688
_symmetry_Int_Tables_number   1
_chemical_formula_structural   Tm12CdCo4Tc
_chemical_formula_sum   'Tm12 Cd1 Co4 Tc1'
_cell_volume   419.50640379
_cell_formula_units_Z   1
loop_
 _symmetry_equiv_pos_site_id
 _symmetry_equiv_pos_as_xyz
  1  'x, y, z'
loop_
 _atom_site_type_symbol
 _atom_site_label
 _atom_site_symmetry_multiplicity
 _atom_site_fract_x
 _atom_site_fract_y
 _atom_site_fract_z
 _atom_site_occupancy
  Tm  Tm0  1  0.420129  0.224254  0.195876  1
  Tm  Tm1  1  0.579871  0.775746  0.804124  1
  Tm  Tm2  1  0.028379  0.224254  0.804124  1
  Tm  Tm3  1  0.971621  0.775746  0.195876  1
  Tm  Tm4  1  0.181847  0.277102  0.458948  1
  Tm  Tm5  1  0.818153  0.722898  0.541052  1
  Tm  Tm6  1  0.181847  0.722898  0.904746  1
  Tm  Tm7  1  0.818153  0.277102  0.095254  1
  Tm  Tm8  1  0.313143  0.620682  0.307541  1
  Tm  Tm9  1  0.686857  0.379318  0.692459  1
  Tm  Tm10  1  0.313143  0.005602  0.692459  1
  Tm  Tm11  1  0.686857  0.994398  0.307541  1
  Cd  Cd12  1  0.500000  0.500000  0.000000  1
  Co  Co13  1  0.373527  0.000000  0.373527  1
  Co  Co14  1  0.626473  0.000000  0.626473  1
  Co  Co15  1  0.111808  0.611808  0.500000  1
  Co  Co16  1  0.888192  0.388192  0.500000  1
  Tc  Tc17  1  0.000000  0.000000  0.000000  1
