# generated using pymatgen
data_Tb5Bi2Te
_symmetry_space_group_name_H-M   'P 1'
_cell_length_a   8.20818900
_cell_length_b   9.51535300
_cell_length_c   11.97358500
_cell_angle_alpha   90.00000000
_cell_angle_beta   90.00000000
_cell_angle_gamma   90.00000000
_symmetry_Int_Tables_number   1
_chemical_formula_structural   Tb5Bi2Te
_chemical_formula_sum   'Tb20 Bi8 Te4'
_cell_volume   935.18267761
_cell_formula_units_Z   4
loop_
 _symmetry_equiv_pos_site_id
 _symmetry_equiv_pos_as_xyz
  1  'x, y, z'
loop_
 _atom_site_type_symbol
 _atom_site_label
 _atom_site_symmetry_multiplicity
 _atom_site_fract_x
 _atom_site_fract_y
 _atom_site_fract_z
 _atom_site_occupancy
  Tb  Tb0  1  0.352674  0.750000  0.213258  1
  Tb  Tb1  1  0.852674  0.750000  0.286742  1
  Tb  Tb2  1  0.647326  0.250000  0.786742  1
  Tb  Tb3  1  0.147326  0.250000  0.713258  1
  Tb  Tb4  1  0.690222  0.560507  0.057239  1
  Tb  Tb5  1  0.190222  0.939493  0.442761  1
  Tb  Tb6  1  0.309778  0.060507  0.942761  1
  Tb  Tb7  1  0.809778  0.439493  0.557239  1
  Tb  Tb8  1  0.309778  0.439493  0.942761  1
  Tb  Tb9  1  0.809778  0.060507  0.557239  1
  Tb  Tb10  1  0.690222  0.939493  0.057239  1
  Tb  Tb11  1  0.190222  0.560507  0.442761  1
  Tb  Tb12  1  0.475857  0.250000  0.487783  1
  Tb  Tb13  1  0.975857  0.250000  0.012217  1
  Tb  Tb14  1  0.524143  0.750000  0.512217  1
  Tb  Tb15  1  0.024143  0.750000  0.987783  1
  Tb  Tb16  1  0.316891  0.250000  0.218696  1
  Tb  Tb17  1  0.816891  0.250000  0.281304  1
  Tb  Tb18  1  0.683109  0.750000  0.781304  1
  Tb  Tb19  1  0.183109  0.750000  0.718696  1
  Bi  Bi20  1  0.567390  0.995274  0.325003  1
  Bi  Bi21  1  0.067390  0.504726  0.174997  1
  Bi  Bi22  1  0.432610  0.495274  0.674997  1
  Bi  Bi23  1  0.932610  0.004726  0.825003  1
  Bi  Bi24  1  0.432610  0.004726  0.674997  1
  Bi  Bi25  1  0.932610  0.495274  0.825003  1
  Bi  Bi26  1  0.567390  0.504726  0.325003  1
  Bi  Bi27  1  0.067390  0.995274  0.174997  1
  Te  Te28  1  0.408683  0.750000  0.957190  1
  Te  Te29  1  0.908683  0.750000  0.542810  1
  Te  Te30  1  0.591317  0.250000  0.042810  1
  Te  Te31  1  0.091317  0.250000  0.457190  1
