# generated using pymatgen
data_YbDy3Lu4(B6Ru)4
_symmetry_space_group_name_H-M   'P 1'
_cell_length_a   3.61965600
_cell_length_b   9.07075355
_cell_length_c   11.46299102
_cell_angle_alpha   89.94010470
_cell_angle_beta   90.00000000
_cell_angle_gamma   90.00000000
_symmetry_Int_Tables_number   1
_chemical_formula_structural   YbDy3Lu4(B6Ru)4
_chemical_formula_sum   'Yb1 Dy3 Lu4 B24 Ru4'
_cell_volume   376.36426480
_cell_formula_units_Z   1
loop_
 _symmetry_equiv_pos_site_id
 _symmetry_equiv_pos_as_xyz
  1  'x, y, z'
loop_
 _atom_site_type_symbol
 _atom_site_label
 _atom_site_symmetry_multiplicity
 _atom_site_fract_x
 _atom_site_fract_y
 _atom_site_fract_z
 _atom_site_occupancy
  Yb  Yb0  1  0.000000  0.322760  0.413780  1
  Dy  Dy1  1  0.000000  0.676513  0.584966  1
  Dy  Dy2  1  0.000000  0.821932  0.086364  1
  Dy  Dy3  1  0.000000  0.178603  0.914535  1
  Lu  Lu4  1  0.000000  0.944345  0.371603  1
  Lu  Lu5  1  0.000000  0.057752  0.627516  1
  Lu  Lu6  1  0.000000  0.443153  0.129302  1
  Lu  Lu7  1  0.000000  0.555937  0.872272  1
  B  B8  1  0.500000  0.554101  0.432285  1
  B  B9  1  0.500000  0.445269  0.567437  1
  B  B10  1  0.500000  0.053907  0.066977  1
  B  B11  1  0.500000  0.945462  0.932353  1
  B  B12  1  0.500000  0.749640  0.418840  1
  B  B13  1  0.500000  0.250719  0.580976  1
  B  B14  1  0.500000  0.249328  0.081078  1
  B  B15  1  0.500000  0.750077  0.919199  1
  B  B16  1  0.500000  0.792103  0.265851  1
  B  B17  1  0.500000  0.208867  0.734293  1
  B  B18  1  0.500000  0.290955  0.234280  1
  B  B19  1  0.500000  0.708457  0.765867  1
  B  B20  1  0.500000  0.630689  0.185133  1
  B  B21  1  0.500000  0.369554  0.815887  1
  B  B22  1  0.500000  0.130576  0.315069  1
  B  B23  1  0.500000  0.869539  0.684297  1
  B  B24  1  0.500000  0.982914  0.212742  1
  B  B25  1  0.500000  0.017273  0.786482  1
  B  B26  1  0.500000  0.482730  0.287203  1
  B  B27  1  0.500000  0.517015  0.713249  1
  B  B28  1  0.500000  0.603824  0.028784  1
  B  B29  1  0.500000  0.396264  0.971852  1
  B  B30  1  0.500000  0.101958  0.471880  1
  B  B31  1  0.500000  0.897411  0.528156  1
  Ru  Ru32  1  0.000000  0.639846  0.319614  1
  Ru  Ru33  1  0.000000  0.361316  0.680946  1
  Ru  Ru34  1  0.000000  0.137717  0.178851  1
  Ru  Ru35  1  0.000000  0.861493  0.820075  1
