# generated using pymatgen
data_Tm3Zr(V3Si4)2
_symmetry_space_group_name_H-M   'P 1'
_cell_length_a   6.74137336
_cell_length_b   6.74112432
_cell_length_c   12.48546943
_cell_angle_alpha   90.07130434
_cell_angle_beta   90.12996260
_cell_angle_gamma   89.99304959
_symmetry_Int_Tables_number   1
_chemical_formula_structural   Tm3Zr(V3Si4)2
_chemical_formula_sum   'Tm6 Zr2 V12 Si16'
_cell_volume   567.39321175
_cell_formula_units_Z   2
loop_
 _symmetry_equiv_pos_site_id
 _symmetry_equiv_pos_as_xyz
  1  'x, y, z'
loop_
 _atom_site_type_symbol
 _atom_site_label
 _atom_site_symmetry_multiplicity
 _atom_site_fract_x
 _atom_site_fract_y
 _atom_site_fract_z
 _atom_site_occupancy
  Tm  Tm0  1  0.000436  0.662662  0.029629  1
  Tm  Tm1  1  0.000910  0.336817  0.530409  1
  Tm  Tm2  1  0.663033  0.000085  0.970197  1
  Tm  Tm3  1  0.163402  0.500310  0.778649  1
  Tm  Tm4  1  0.837702  0.499895  0.281573  1
  Tm  Tm5  1  0.500018  0.162854  0.220352  1
  Zr  Zr6  1  0.505404  0.841418  0.719046  1
  Zr  Zr7  1  0.340928  0.994677  0.469682  1
  V  V8  1  0.340351  0.509507  0.377861  1
  V  V9  1  0.840253  0.994200  0.376267  1
  V  V10  1  0.008570  0.158576  0.126399  1
  V  V11  1  0.991861  0.842047  0.625667  1
  V  V12  1  0.656407  0.493134  0.874392  1
  V  V13  1  0.503450  0.339709  0.624110  1
  V  V14  1  0.491842  0.660028  0.124495  1
  V  V15  1  0.159811  0.005440  0.872257  1
  V  V16  1  0.665265  0.671005  0.500575  1
  V  V17  1  0.829215  0.165011  0.748712  1
  V  V18  1  0.170167  0.831778  0.250633  1
  V  V19  1  0.332086  0.331000  0.998590  1
  Si  Si20  1  0.041492  0.713020  0.436486  1
  Si  Si21  1  0.960540  0.288468  0.934892  1
  Si  Si22  1  0.707899  0.040307  0.564634  1
  Si  Si23  1  0.210733  0.460123  0.186270  1
  Si  Si24  1  0.786030  0.540765  0.685207  1
  Si  Si25  1  0.459862  0.207990  0.813608  1
  Si  Si26  1  0.539605  0.789929  0.315095  1
  Si  Si27  1  0.289575  0.960542  0.063795  1
  Si  Si28  1  0.872529  0.797568  0.816217  1
  Si  Si29  1  0.127943  0.199416  0.319377  1
  Si  Si30  1  0.799794  0.874898  0.184510  1
  Si  Si31  1  0.299322  0.630373  0.569323  1
  Si  Si32  1  0.701042  0.375447  0.066198  1
  Si  Si33  1  0.621886  0.295999  0.433772  1
  Si  Si34  1  0.374638  0.702943  0.930768  1
  Si  Si35  1  0.205996  0.122061  0.680354  1
