# generated using pymatgen
data_Na2V4PbO12
_symmetry_space_group_name_H-M   'P 1'
_cell_length_a   10.76848900
_cell_length_b   10.76848900
_cell_length_c   5.09502300
_cell_angle_alpha   90.00000000
_cell_angle_beta   90.00000000
_cell_angle_gamma   90.00000000
_symmetry_Int_Tables_number   1
_chemical_formula_structural   Na2V4PbO12
_chemical_formula_sum   'Na4 V8 Pb2 O24'
_cell_volume   590.82067756
_cell_formula_units_Z   2
loop_
 _symmetry_equiv_pos_site_id
 _symmetry_equiv_pos_as_xyz
  1  'x, y, z'
loop_
 _atom_site_type_symbol
 _atom_site_label
 _atom_site_symmetry_multiplicity
 _atom_site_fract_x
 _atom_site_fract_y
 _atom_site_fract_z
 _atom_site_occupancy
  Na  Na0  1  0.750000  0.750000  0.500000  1
  Na  Na1  1  0.750000  0.250000  0.500000  1
  Na  Na2  1  0.250000  0.750000  0.500000  1
  Na  Na3  1  0.250000  0.250000  0.500000  1
  V  V4  1  0.717033  0.000000  0.000000  1
  V  V5  1  0.000000  0.282967  0.000000  1
  V  V6  1  0.282967  0.000000  0.000000  1
  V  V7  1  0.500000  0.782967  0.000000  1
  V  V8  1  0.782967  0.500000  0.000000  1
  V  V9  1  0.217033  0.500000  0.000000  1
  V  V10  1  0.500000  0.217033  0.000000  1
  V  V11  1  0.000000  0.717033  0.000000  1
  Pb  Pb12  1  0.500000  0.500000  0.500000  1
  Pb  Pb13  1  0.000000  0.000000  0.500000  1
  O  O14  1  0.432523  0.302775  0.236367  1
  O  O15  1  0.567477  0.697225  0.236367  1
  O  O16  1  0.697225  0.432523  0.236367  1
  O  O17  1  0.302775  0.567477  0.236367  1
  O  O18  1  0.302775  0.432523  0.763633  1
  O  O19  1  0.432523  0.697225  0.763633  1
  O  O20  1  0.567477  0.302775  0.763633  1
  O  O21  1  0.697225  0.567477  0.763633  1
  O  O22  1  0.067477  0.197225  0.763633  1
  O  O23  1  0.932523  0.802775  0.763633  1
  O  O24  1  0.802775  0.067477  0.763633  1
  O  O25  1  0.197225  0.932523  0.763633  1
  O  O26  1  0.197225  0.067477  0.236367  1
  O  O27  1  0.067477  0.802775  0.236367  1
  O  O28  1  0.118158  0.381842  0.150920  1
  O  O29  1  0.381842  0.881842  0.150920  1
  O  O30  1  0.618158  0.118158  0.150920  1
  O  O31  1  0.881842  0.618158  0.150920  1
  O  O32  1  0.881842  0.381842  0.849080  1
  O  O33  1  0.118158  0.618158  0.849080  1
  O  O34  1  0.381842  0.118158  0.849080  1
  O  O35  1  0.618158  0.881842  0.849080  1
  O  O36  1  0.802775  0.932523  0.236367  1
  O  O37  1  0.932523  0.197225  0.236367  1
