# generated using pymatgen
data_YEr3(ZrPt)4
_symmetry_space_group_name_H-M   'P 1'
_cell_length_a   4.68633300
_cell_length_b   7.08182590
_cell_length_c   8.25782621
_cell_angle_alpha   90.01603916
_cell_angle_beta   90.00000000
_cell_angle_gamma   90.00000000
_symmetry_Int_Tables_number   1
_chemical_formula_structural   YEr3(ZrPt)4
_chemical_formula_sum   'Y1 Er3 Zr4 Pt4'
_cell_volume   274.05902772
_cell_formula_units_Z   1
loop_
 _symmetry_equiv_pos_site_id
 _symmetry_equiv_pos_as_xyz
  1  'x, y, z'
loop_
 _atom_site_type_symbol
 _atom_site_label
 _atom_site_symmetry_multiplicity
 _atom_site_fract_x
 _atom_site_fract_y
 _atom_site_fract_z
 _atom_site_occupancy
  Y  Y0  1  0.750000  0.515743  0.821313  1
  Er  Er1  1  0.250000  0.983614  0.321866  1
  Er  Er2  1  0.250000  0.483678  0.177962  1
  Er  Er3  1  0.750000  0.016168  0.677387  1
  Zr  Zr4  1  0.250000  0.351425  0.578322  1
  Zr  Zr5  1  0.250000  0.852329  0.920957  1
  Zr  Zr6  1  0.750000  0.648509  0.420379  1
  Zr  Zr7  1  0.750000  0.147725  0.079882  1
  Pt  Pt8  1  0.250000  0.231373  0.905359  1
  Pt  Pt9  1  0.250000  0.733709  0.594280  1
  Pt  Pt10  1  0.750000  0.768341  0.097287  1
  Pt  Pt11  1  0.750000  0.267385  0.405008  1
