# generated using pymatgen
data_HoMnCo3P3Ir
_symmetry_space_group_name_H-M   'P 1'
_cell_length_a   3.70398700
_cell_length_b   10.41946300
_cell_length_c   12.11109800
_cell_angle_alpha   90.00000000
_cell_angle_beta   90.00000000
_cell_angle_gamma   90.00000000
_symmetry_Int_Tables_number   1
_chemical_formula_structural   HoMnCo3P3Ir
_chemical_formula_sum   'Ho4 Mn4 Co12 P12 Ir4'
_cell_volume   467.41033282
_cell_formula_units_Z   4
loop_
 _symmetry_equiv_pos_site_id
 _symmetry_equiv_pos_as_xyz
  1  'x, y, z'
loop_
 _atom_site_type_symbol
 _atom_site_label
 _atom_site_symmetry_multiplicity
 _atom_site_fract_x
 _atom_site_fract_y
 _atom_site_fract_z
 _atom_site_occupancy
  Ho  Ho0  1  0.250000  0.583337  0.711929  1
  Ho  Ho1  1  0.250000  0.916663  0.211929  1
  Ho  Ho2  1  0.750000  0.416663  0.288071  1
  Ho  Ho3  1  0.750000  0.083337  0.788071  1
  Mn  Mn4  1  0.250000  0.705697  0.988750  1
  Mn  Mn5  1  0.250000  0.794303  0.488750  1
  Mn  Mn6  1  0.750000  0.294303  0.011250  1
  Mn  Mn7  1  0.750000  0.205697  0.511250  1
  Co  Co8  1  0.250000  0.222441  0.177651  1
  Co  Co9  1  0.250000  0.277559  0.677651  1
  Co  Co10  1  0.750000  0.777559  0.822349  1
  Co  Co11  1  0.750000  0.722441  0.322349  1
  Co  Co12  1  0.250000  0.883083  0.695922  1
  Co  Co13  1  0.250000  0.616917  0.195922  1
  Co  Co14  1  0.750000  0.116917  0.304078  1
  Co  Co15  1  0.750000  0.383083  0.804078  1
  Co  Co16  1  0.250000  0.465197  0.933995  1
  Co  Co17  1  0.250000  0.034803  0.433995  1
  Co  Co18  1  0.750000  0.534803  0.066005  1
  Co  Co19  1  0.750000  0.965197  0.566005  1
  P  P20  1  0.250000  0.420698  0.111526  1
  P  P21  1  0.250000  0.079302  0.611526  1
  P  P22  1  0.750000  0.579302  0.888474  1
  P  P23  1  0.750000  0.920698  0.388474  1
  P  P24  1  0.250000  0.274907  0.861702  1
  P  P25  1  0.250000  0.225093  0.361702  1
  P  P26  1  0.750000  0.725093  0.138298  1
  P  P27  1  0.750000  0.774907  0.638298  1
  P  P28  1  0.250000  0.603004  0.379721  1
  P  P29  1  0.250000  0.896996  0.879721  1
  P  P30  1  0.750000  0.396996  0.620279  1
  P  P31  1  0.750000  0.103004  0.120279  1
  Ir  Ir32  1  0.250000  0.401795  0.481015  1
  Ir  Ir33  1  0.250000  0.098205  0.981015  1
  Ir  Ir34  1  0.750000  0.598205  0.518985  1
  Ir  Ir35  1  0.750000  0.901795  0.018985  1
