# generated using pymatgen
data_AcMg2ZnSn
_symmetry_space_group_name_H-M   'P 1'
_cell_length_a   6.94561534
_cell_length_b   6.94561570
_cell_length_c   6.94561389
_cell_angle_alpha   141.13148072
_cell_angle_beta   141.13148802
_cell_angle_gamma   56.13927253
_symmetry_Int_Tables_number   1
_chemical_formula_structural   AcMg2ZnSn
_chemical_formula_sum   'Ac1 Mg2 Zn1 Sn1'
_cell_volume   130.92329575
_cell_formula_units_Z   1
loop_
 _symmetry_equiv_pos_site_id
 _symmetry_equiv_pos_as_xyz
  1  'x, y, z'
loop_
 _atom_site_type_symbol
 _atom_site_label
 _atom_site_symmetry_multiplicity
 _atom_site_fract_x
 _atom_site_fract_y
 _atom_site_fract_z
 _atom_site_occupancy
  Ac  Ac0  1  0.001342  0.001342  0.000000  1
  Mg  Mg1  1  0.756121  0.256121  0.500001  1
  Mg  Mg2  1  0.256121  0.756121  0.500001  1
  Zn  Zn3  1  0.382496  0.382496  0.000000  1
  Sn  Sn4  1  0.603920  0.603920  0.000000  1
