# generated using pymatgen
data_HoCo4(Si2Ni)2
_symmetry_space_group_name_H-M   'P 1'
_cell_length_a   6.60923660
_cell_length_b   6.63409406
_cell_length_c   3.59503000
_cell_angle_alpha   90.00000000
_cell_angle_beta   90.00000000
_cell_angle_gamma   120.12449599
_symmetry_Int_Tables_number   1
_chemical_formula_structural   HoCo4(Si2Ni)2
_chemical_formula_sum   'Ho1 Co4 Si4 Ni2'
_cell_volume   136.33893024
_cell_formula_units_Z   1
loop_
 _symmetry_equiv_pos_site_id
 _symmetry_equiv_pos_as_xyz
  1  'x, y, z'
loop_
 _atom_site_type_symbol
 _atom_site_label
 _atom_site_symmetry_multiplicity
 _atom_site_fract_x
 _atom_site_fract_y
 _atom_site_fract_z
 _atom_site_occupancy
  Ho  Ho0  1  0.996136  0.998068  0.000000  1
  Co  Co1  1  0.535026  0.465873  0.000000  1
  Co  Co2  1  0.535026  0.069154  0.000000  1
  Co  Co3  1  0.933133  0.466567  0.000000  1
  Co  Co4  1  0.591855  0.795927  0.500000  1
  Si  Si5  1  0.798236  0.196863  0.500000  1
  Si  Si6  1  0.798236  0.601372  0.500000  1
  Si  Si7  1  0.400811  0.200405  0.500000  1
  Si  Si8  1  0.338334  0.669168  0.000000  1
  Ni  Ni9  1  0.203270  0.796729  0.500000  1
  Ni  Ni10  1  0.203270  0.406540  0.500000  1
