# generated using pymatgen
data_Fe4Si8BW12C
_symmetry_space_group_name_H-M   'P 1'
_cell_length_a   7.80544778
_cell_length_b   7.80544758
_cell_length_c   7.80544700
_cell_angle_alpha   59.99999821
_cell_angle_beta   59.99999906
_cell_angle_gamma   59.99999608
_symmetry_Int_Tables_number   1
_chemical_formula_structural   Fe4Si8BW12C
_chemical_formula_sum   'Fe4 Si8 B1 W12 C1'
_cell_volume   336.26246577
_cell_formula_units_Z   1
loop_
 _symmetry_equiv_pos_site_id
 _symmetry_equiv_pos_as_xyz
  1  'x, y, z'
loop_
 _atom_site_type_symbol
 _atom_site_label
 _atom_site_symmetry_multiplicity
 _atom_site_fract_x
 _atom_site_fract_y
 _atom_site_fract_z
 _atom_site_occupancy
  Fe  Fe0  1  0.124917  0.124917  0.625250  1
  Fe  Fe1  1  0.124917  0.625250  0.124917  1
  Fe  Fe2  1  0.124917  0.124917  0.124917  1
  Fe  Fe3  1  0.625250  0.124917  0.124917  1
  Si  Si4  1  0.915363  0.253912  0.915363  1
  Si  Si5  1  0.334264  0.997206  0.334264  1
  Si  Si6  1  0.334264  0.334264  0.334264  1
  Si  Si7  1  0.997206  0.334264  0.334264  1
  Si  Si8  1  0.915363  0.915363  0.253912  1
  Si  Si9  1  0.253912  0.915363  0.915363  1
  Si  Si10  1  0.334264  0.334264  0.997206  1
  Si  Si11  1  0.915363  0.915363  0.915363  1
  B  B12  1  0.750000  0.750000  0.750000  1
  W  W13  1  0.307862  0.692138  0.692138  1
  W  W14  1  0.307862  0.307862  0.692138  1
  W  W15  1  0.554909  0.945091  0.554909  1
  W  W16  1  0.945091  0.554909  0.554909  1
  W  W17  1  0.554909  0.945091  0.945091  1
  W  W18  1  0.692138  0.307862  0.307862  1
  W  W19  1  0.945091  0.554909  0.945091  1
  W  W20  1  0.307862  0.692138  0.307862  1
  W  W21  1  0.554909  0.554909  0.945091  1
  W  W22  1  0.692138  0.307862  0.692138  1
  W  W23  1  0.692138  0.692138  0.307862  1
  W  W24  1  0.945091  0.945091  0.554909  1
  C  C25  1  0.500000  0.500000  0.500000  1
