# generated using pymatgen
data_Nd4Bi(RuO6)2
_symmetry_space_group_name_H-M   'P 1'
_cell_length_a   7.06130130
_cell_length_b   7.06130197
_cell_length_c   7.68531551
_cell_angle_alpha   74.14909332
_cell_angle_beta   74.14908859
_cell_angle_gamma   50.35572215
_symmetry_Int_Tables_number   1
_chemical_formula_structural   Nd4Bi(RuO6)2
_chemical_formula_sum   'Nd4 Bi1 Ru2 O12'
_cell_volume   281.31581213
_cell_formula_units_Z   1
loop_
 _symmetry_equiv_pos_site_id
 _symmetry_equiv_pos_as_xyz
  1  'x, y, z'
loop_
 _atom_site_type_symbol
 _atom_site_label
 _atom_site_symmetry_multiplicity
 _atom_site_fract_x
 _atom_site_fract_y
 _atom_site_fract_z
 _atom_site_occupancy
  Nd  Nd0  1  0.305759  0.305759  0.357288  1
  Nd  Nd1  1  0.694241  0.694241  0.642712  1
  Nd  Nd2  1  0.689992  0.689992  0.167955  1
  Nd  Nd3  1  0.310008  0.310008  0.832045  1
  Bi  Bi4  1  0.000000  0.000000  0.500000  1
  Ru  Ru5  1  0.764298  0.235702  0.000000  1
  Ru  Ru6  1  0.235702  0.764298  0.000000  1
  O  O7  1  0.096948  0.593508  0.577279  1
  O  O8  1  0.999145  0.999145  0.186283  1
  O  O9  1  0.406492  0.903052  0.422721  1
  O  O10  1  0.499688  0.499688  0.172723  1
  O  O11  1  0.096064  0.582754  0.079627  1
  O  O12  1  0.903052  0.406492  0.422721  1
  O  O13  1  0.000855  0.000855  0.813717  1
  O  O14  1  0.593508  0.096947  0.577279  1
  O  O15  1  0.500312  0.500312  0.827277  1
  O  O16  1  0.582754  0.096064  0.079627  1
  O  O17  1  0.417246  0.903936  0.920373  1
  O  O18  1  0.903936  0.417246  0.920373  1
