# generated using pymatgen
data_Pr2Nd4Co17P12Ru
_symmetry_space_group_name_H-M   'P 1'
_cell_length_a   3.78929400
_cell_length_b   10.68920000
_cell_length_c   12.46279600
_cell_angle_alpha   90.00000000
_cell_angle_beta   90.00000000
_cell_angle_gamma   90.00000000
_symmetry_Int_Tables_number   1
_chemical_formula_structural   Pr2Nd4Co17P12Ru
_chemical_formula_sum   'Pr2 Nd4 Co17 P12 Ru1'
_cell_volume   504.79958759
_cell_formula_units_Z   1
loop_
 _symmetry_equiv_pos_site_id
 _symmetry_equiv_pos_as_xyz
  1  'x, y, z'
loop_
 _atom_site_type_symbol
 _atom_site_label
 _atom_site_symmetry_multiplicity
 _atom_site_fract_x
 _atom_site_fract_y
 _atom_site_fract_z
 _atom_site_occupancy
  Pr  Pr0  1  0.000000  0.500000  0.523149  1
  Pr  Pr1  1  0.500000  0.000000  0.479929  1
  Nd  Nd2  1  0.500000  0.817024  0.206799  1
  Nd  Nd3  1  0.500000  0.182976  0.206799  1
  Nd  Nd4  1  0.000000  0.683488  0.793460  1
  Nd  Nd5  1  0.000000  0.316512  0.793460  1
  Co  Co6  1  0.000000  0.000000  0.843285  1
  Co  Co7  1  0.500000  0.500000  0.706143  1
  Co  Co8  1  0.000000  0.000000  0.293939  1
  Co  Co9  1  0.000000  0.500000  0.987827  1
  Co  Co10  1  0.500000  0.000000  0.013230  1
  Co  Co11  1  0.500000  0.332028  0.992836  1
  Co  Co12  1  0.500000  0.667972  0.992836  1
  Co  Co13  1  0.000000  0.166338  0.004183  1
  Co  Co14  1  0.000000  0.833662  0.004183  1
  Co  Co15  1  0.500000  0.298717  0.428385  1
  Co  Co16  1  0.500000  0.701283  0.428385  1
  Co  Co17  1  0.000000  0.203024  0.569864  1
  Co  Co18  1  0.000000  0.796976  0.569864  1
  Co  Co19  1  0.500000  0.882069  0.712234  1
  Co  Co20  1  0.500000  0.117931  0.712234  1
  Co  Co21  1  0.000000  0.617999  0.289237  1
  Co  Co22  1  0.000000  0.382001  0.289237  1
  P  P23  1  0.500000  0.500000  0.886168  1
  P  P24  1  0.000000  0.000000  0.112989  1
  P  P25  1  0.500000  0.500000  0.343799  1
  P  P26  1  0.000000  0.000000  0.662017  1
  P  P27  1  0.500000  0.304726  0.614119  1
  P  P28  1  0.500000  0.695274  0.614119  1
  P  P29  1  0.000000  0.194219  0.386249  1
  P  P30  1  0.000000  0.805781  0.386249  1
  P  P31  1  0.500000  0.849856  0.895218  1
  P  P32  1  0.500000  0.150144  0.895218  1
  P  P33  1  0.000000  0.653788  0.102831  1
  P  P34  1  0.000000  0.346212  0.102831  1
  Ru  Ru35  1  0.500000  0.500000  0.156693  1
