# generated using pymatgen
data_Tb3Pr6YSn6
_symmetry_space_group_name_H-M   'P 1'
_cell_length_a   9.24564100
_cell_length_b   9.24564127
_cell_length_c   6.75722500
_cell_angle_alpha   90.00000000
_cell_angle_beta   90.00000000
_cell_angle_gamma   120.00000262
_symmetry_Int_Tables_number   1
_chemical_formula_structural   Tb3Pr6YSn6
_chemical_formula_sum   'Tb3 Pr6 Y1 Sn6'
_cell_volume   500.23383719
_cell_formula_units_Z   1
loop_
 _symmetry_equiv_pos_site_id
 _symmetry_equiv_pos_as_xyz
  1  'x, y, z'
loop_
 _atom_site_type_symbol
 _atom_site_label
 _atom_site_symmetry_multiplicity
 _atom_site_fract_x
 _atom_site_fract_y
 _atom_site_fract_z
 _atom_site_occupancy
  Tb  Tb0  1  0.333333  0.666667  0.000000  1
  Tb  Tb1  1  0.333333  0.666667  0.500000  1
  Tb  Tb2  1  0.666667  0.333333  0.500000  1
  Pr  Pr3  1  0.757009  0.756982  0.750032  1
  Pr  Pr4  1  0.243018  0.000027  0.750032  1
  Pr  Pr5  1  0.999973  0.242991  0.750032  1
  Pr  Pr6  1  0.243018  0.242991  0.249968  1
  Pr  Pr7  1  0.757009  0.000027  0.249968  1
  Pr  Pr8  1  0.999973  0.756982  0.249968  1
  Y  Y9  1  0.666667  0.333333  0.000000  1
  Sn  Sn10  1  0.397895  0.397790  0.750062  1
  Sn  Sn11  1  0.602210  0.000105  0.750062  1
  Sn  Sn12  1  0.999895  0.602105  0.750062  1
  Sn  Sn13  1  0.602210  0.602105  0.249938  1
  Sn  Sn14  1  0.397895  0.000105  0.249938  1
  Sn  Sn15  1  0.999895  0.397790  0.249938  1
