# generated using pymatgen
data_NaAc8Ho11Pb16
_symmetry_space_group_name_H-M   'P 1'
_cell_length_a   8.44234100
_cell_length_b   8.54065344
_cell_length_c   16.27289000
_cell_angle_alpha   90.00000000
_cell_angle_beta   90.00000000
_cell_angle_gamma   90.32857534
_symmetry_Int_Tables_number   1
_chemical_formula_structural   NaAc8Ho11Pb16
_chemical_formula_sum   'Na1 Ac8 Ho11 Pb16'
_cell_volume   1173.30666276
_cell_formula_units_Z   1
loop_
 _symmetry_equiv_pos_site_id
 _symmetry_equiv_pos_as_xyz
  1  'x, y, z'
loop_
 _atom_site_type_symbol
 _atom_site_label
 _atom_site_symmetry_multiplicity
 _atom_site_fract_x
 _atom_site_fract_y
 _atom_site_fract_z
 _atom_site_occupancy
  Na  Na0  1  0.300633  0.003706  0.250000  1
  Ac  Ac1  1  0.519228  0.324973  0.904579  1
  Ac  Ac2  1  0.017154  0.176832  0.596001  1
  Ac  Ac3  1  0.481450  0.682125  0.403211  1
  Ac  Ac4  1  0.989006  0.823814  0.095401  1
  Ac  Ac5  1  0.481450  0.682125  0.096789  1
  Ac  Ac6  1  0.989006  0.823814  0.404599  1
  Ac  Ac7  1  0.519228  0.324973  0.595421  1
  Ac  Ac8  1  0.017154  0.176832  0.903999  1
  Ho  Ho9  1  0.359332  0.841557  0.874881  1
  Ho  Ho10  1  0.858772  0.656917  0.623349  1
  Ho  Ho11  1  0.634348  0.158875  0.375331  1
  Ho  Ho12  1  0.140529  0.337247  0.121879  1
  Ho  Ho13  1  0.634348  0.158875  0.124669  1
  Ho  Ho14  1  0.140529  0.337247  0.378121  1
  Ho  Ho15  1  0.359332  0.841557  0.625119  1
  Ho  Ho16  1  0.858772  0.656917  0.876651  1
  Ho  Ho17  1  0.194749  0.504909  0.750000  1
  Ho  Ho18  1  0.695141  0.993401  0.750000  1
  Ho  Ho19  1  0.801916  0.492189  0.250000  1
  Pb  Pb20  1  0.308964  0.049726  0.039225  1
  Pb  Pb21  1  0.804320  0.456243  0.454006  1
  Pb  Pb22  1  0.693638  0.952842  0.544188  1
  Pb  Pb23  1  0.194627  0.545871  0.954957  1
  Pb  Pb24  1  0.693638  0.952842  0.955812  1
  Pb  Pb25  1  0.194627  0.545871  0.545043  1
  Pb  Pb26  1  0.308964  0.049726  0.460775  1
  Pb  Pb27  1  0.804320  0.456243  0.045994  1
  Pb  Pb28  1  0.555686  0.633749  0.750000  1
  Pb  Pb29  1  0.053677  0.864707  0.750000  1
  Pb  Pb30  1  0.441540  0.372193  0.250000  1
  Pb  Pb31  1  0.939222  0.133263  0.250000  1
  Pb  Pb32  1  0.332774  0.143931  0.750000  1
  Pb  Pb33  1  0.831536  0.354934  0.750000  1
  Pb  Pb34  1  0.685590  0.860523  0.250000  1
  Pb  Pb35  1  0.164798  0.628458  0.250000  1
