# generated using pymatgen
data_Pr6Nd4Si5Sn
_symmetry_space_group_name_H-M   'P 1'
_cell_length_a   7.83776639
_cell_length_b   7.84308910
_cell_length_c   9.16874533
_cell_angle_alpha   115.27808207
_cell_angle_beta   115.25966321
_cell_angle_gamma   90.09330097
_symmetry_Int_Tables_number   1
_chemical_formula_structural   Pr6Nd4Si5Sn
_chemical_formula_sum   'Pr6 Nd4 Si5 Sn1'
_cell_volume   449.12498675
_cell_formula_units_Z   1
loop_
 _symmetry_equiv_pos_site_id
 _symmetry_equiv_pos_as_xyz
  1  'x, y, z'
loop_
 _atom_site_type_symbol
 _atom_site_label
 _atom_site_symmetry_multiplicity
 _atom_site_fract_x
 _atom_site_fract_y
 _atom_site_fract_z
 _atom_site_occupancy
  Pr  Pr0  1  0.828687  0.307038  0.281476  1
  Pr  Pr1  1  0.452789  0.974438  0.281476  1
  Pr  Pr2  1  0.048138  0.194100  0.719071  1
  Pr  Pr3  1  0.670934  0.524971  0.719071  1
  Pr  Pr4  1  0.194942  0.672784  0.719391  1
  Pr  Pr5  1  0.524449  0.046607  0.719391  1
  Nd  Nd6  1  0.523253  0.523253  0.046506  1
  Nd  Nd7  1  0.979569  0.979569  0.959137  1
  Nd  Nd8  1  0.973462  0.826261  0.278804  1
  Nd  Nd9  1  0.305342  0.452543  0.278804  1
  Si  Si10  1  0.245960  0.245960  0.491919  1
  Si  Si11  1  0.615967  0.885028  0.001091  1
  Si  Si12  1  0.385124  0.116063  0.001091  1
  Si  Si13  1  0.885026  0.384835  0.000524  1
  Si  Si14  1  0.115499  0.615690  0.000524  1
  Sn  Sn15  1  0.750861  0.750861  0.501721  1
