# generated using pymatgen
data_TbYScGa5
_symmetry_space_group_name_H-M   'P 1'
_cell_length_a   6.01943000
_cell_length_b   9.48636300
_cell_length_c   11.45140800
_cell_angle_alpha   90.00000000
_cell_angle_beta   90.00000000
_cell_angle_gamma   90.00000000
_symmetry_Int_Tables_number   1
_chemical_formula_structural   TbYScGa5
_chemical_formula_sum   'Tb4 Y4 Sc4 Ga20'
_cell_volume   653.90400280
_cell_formula_units_Z   4
loop_
 _symmetry_equiv_pos_site_id
 _symmetry_equiv_pos_as_xyz
  1  'x, y, z'
loop_
 _atom_site_type_symbol
 _atom_site_label
 _atom_site_symmetry_multiplicity
 _atom_site_fract_x
 _atom_site_fract_y
 _atom_site_fract_z
 _atom_site_occupancy
  Tb  Tb0  1  0.891013  0.508552  0.351922  1
  Tb  Tb1  1  0.608987  0.991448  0.851922  1
  Tb  Tb2  1  0.108987  0.008552  0.648078  1
  Tb  Tb3  1  0.391013  0.491448  0.148078  1
  Y  Y4  1  0.109005  0.491520  0.648333  1
  Y  Y5  1  0.390995  0.008480  0.148333  1
  Y  Y6  1  0.890995  0.991520  0.351667  1
  Y  Y7  1  0.609005  0.508480  0.851667  1
  Sc  Sc8  1  0.850021  0.749862  0.074177  1
  Sc  Sc9  1  0.649979  0.750138  0.574177  1
  Sc  Sc10  1  0.149979  0.249862  0.925823  1
  Sc  Sc11  1  0.350021  0.250138  0.425823  1
  Ga  Ga12  1  0.878773  0.051265  0.089089  1
  Ga  Ga13  1  0.621227  0.448735  0.589089  1
  Ga  Ga14  1  0.121227  0.551265  0.910911  1
  Ga  Ga15  1  0.378773  0.948735  0.410911  1
  Ga  Ga16  1  0.121035  0.948614  0.910923  1
  Ga  Ga17  1  0.378965  0.551386  0.410923  1
  Ga  Ga18  1  0.878965  0.448614  0.089077  1
  Ga  Ga19  1  0.621035  0.051386  0.589077  1
  Ga  Ga20  1  0.161894  0.750036  0.249197  1
  Ga  Ga21  1  0.338106  0.749964  0.749197  1
  Ga  Ga22  1  0.838106  0.250036  0.750803  1
  Ga  Ga23  1  0.661894  0.249964  0.250803  1
  Ga  Ga24  1  0.381212  0.750038  0.000856  1
  Ga  Ga25  1  0.118788  0.749962  0.500856  1
  Ga  Ga26  1  0.618788  0.250038  0.999144  1
  Ga  Ga27  1  0.881212  0.249962  0.499144  1
  Ga  Ga28  1  0.602121  0.750004  0.294623  1
  Ga  Ga29  1  0.897879  0.749996  0.794623  1
  Ga  Ga30  1  0.397879  0.250004  0.705377  1
  Ga  Ga31  1  0.102121  0.249996  0.205377  1
