# generated using pymatgen
data_Tb4Y2Co17P12Os
_symmetry_space_group_name_H-M   'P 1'
_cell_length_a   3.71116900
_cell_length_b   10.52639217
_cell_length_c   12.23647420
_cell_angle_alpha   90.02085187
_cell_angle_beta   90.00000000
_cell_angle_gamma   90.00000000
_symmetry_Int_Tables_number   1
_chemical_formula_structural   Tb4Y2Co17P12Os
_chemical_formula_sum   'Tb4 Y2 Co17 P12 Os1'
_cell_volume   478.02052900
_cell_formula_units_Z   1
loop_
 _symmetry_equiv_pos_site_id
 _symmetry_equiv_pos_as_xyz
  1  'x, y, z'
loop_
 _atom_site_type_symbol
 _atom_site_label
 _atom_site_symmetry_multiplicity
 _atom_site_fract_x
 _atom_site_fract_y
 _atom_site_fract_z
 _atom_site_occupancy
  Tb  Tb0  1  0.000000  0.500023  0.524424  1
  Tb  Tb1  1  0.500000  0.999961  0.478504  1
  Tb  Tb2  1  0.500000  0.817363  0.206999  1
  Tb  Tb3  1  0.000000  0.683299  0.794071  1
  Y  Y4  1  0.500000  0.182843  0.206910  1
  Y  Y5  1  0.000000  0.316530  0.794154  1
  Co  Co6  1  0.000000  0.999987  0.840436  1
  Co  Co7  1  0.500000  0.499954  0.703719  1
  Co  Co8  1  0.000000  0.000029  0.295502  1
  Co  Co9  1  0.000000  0.499852  0.988157  1
  Co  Co10  1  0.500000  0.000175  0.014428  1
  Co  Co11  1  0.500000  0.332708  0.991389  1
  Co  Co12  1  0.500000  0.667118  0.991503  1
  Co  Co13  1  0.000000  0.166915  0.005796  1
  Co  Co14  1  0.000000  0.833247  0.005701  1
  Co  Co15  1  0.500000  0.297469  0.429919  1
  Co  Co16  1  0.500000  0.702511  0.429962  1
  Co  Co17  1  0.000000  0.203214  0.568756  1
  Co  Co18  1  0.000000  0.796809  0.568759  1
  Co  Co19  1  0.500000  0.879544  0.709493  1
  Co  Co20  1  0.500000  0.120596  0.709548  1
  Co  Co21  1  0.000000  0.619882  0.290681  1
  Co  Co22  1  0.000000  0.379952  0.290607  1
  P  P23  1  0.500000  0.499854  0.881408  1
  P  P24  1  0.000000  0.000155  0.116726  1
  P  P25  1  0.500000  0.500062  0.350022  1
  P  P26  1  0.000000  0.999932  0.656463  1
  P  P27  1  0.500000  0.310492  0.616177  1
  P  P28  1  0.500000  0.689598  0.616005  1
  P  P29  1  0.000000  0.188729  0.384204  1
  P  P30  1  0.000000  0.811210  0.384416  1
  P  P31  1  0.500000  0.849555  0.892641  1
  P  P32  1  0.500000  0.150506  0.892450  1
  P  P33  1  0.000000  0.655270  0.105687  1
  P  P34  1  0.000000  0.344667  0.105876  1
  Os  Os35  1  0.500000  0.499988  0.158508  1
