# generated using pymatgen
data_Ce2DyY2AgSn3
_symmetry_space_group_name_H-M   'P 1'
_cell_length_a   6.41876100
_cell_length_b   9.43325044
_cell_length_c   9.43324911
_cell_angle_alpha   120.01713333
_cell_angle_beta   90.00000000
_cell_angle_gamma   90.00000000
_symmetry_Int_Tables_number   1
_chemical_formula_structural   Ce2DyY2AgSn3
_chemical_formula_sum   'Ce4 Dy2 Y4 Ag2 Sn6'
_cell_volume   494.57196990
_cell_formula_units_Z   2
loop_
 _symmetry_equiv_pos_site_id
 _symmetry_equiv_pos_as_xyz
  1  'x, y, z'
loop_
 _atom_site_type_symbol
 _atom_site_label
 _atom_site_symmetry_multiplicity
 _atom_site_fract_x
 _atom_site_fract_y
 _atom_site_fract_z
 _atom_site_occupancy
  Ce  Ce0  1  0.000000  0.666370  0.333630  1
  Ce  Ce1  1  0.000000  0.333630  0.666370  1
  Ce  Ce2  1  0.500000  0.333630  0.666370  1
  Ce  Ce3  1  0.500000  0.666370  0.333630  1
  Dy  Dy4  1  0.750000  0.722691  0.722691  1
  Dy  Dy5  1  0.250000  0.277309  0.277309  1
  Y  Y6  1  0.750000  0.999971  0.278152  1
  Y  Y7  1  0.250000  0.000029  0.721848  1
  Y  Y8  1  0.750000  0.278152  0.999971  1
  Y  Y9  1  0.250000  0.721848  0.000029  1
  Ag  Ag10  1  0.000000  0.000000  0.000000  1
  Ag  Ag11  1  0.500000  0.000000  0.000000  1
  Sn  Sn12  1  0.750000  0.373603  0.373603  1
  Sn  Sn13  1  0.250000  0.626397  0.626397  1
  Sn  Sn14  1  0.750000  0.999942  0.626443  1
  Sn  Sn15  1  0.250000  0.000058  0.373557  1
  Sn  Sn16  1  0.750000  0.626443  0.999942  1
  Sn  Sn17  1  0.250000  0.373557  0.000058  1
