# generated using pymatgen
data_LaPr5Al24Os7Ru
_symmetry_space_group_name_H-M   'P 1'
_cell_length_a   8.94850000
_cell_length_b   8.94392534
_cell_length_c   9.71780811
_cell_angle_alpha   90.01506372
_cell_angle_beta   90.00000000
_cell_angle_gamma   120.01691375
_symmetry_Int_Tables_number   1
_chemical_formula_structural   LaPr5Al24Os7Ru
_chemical_formula_sum   'La1 Pr5 Al24 Os7 Ru1'
_cell_volume   673.44680162
_cell_formula_units_Z   1
loop_
 _symmetry_equiv_pos_site_id
 _symmetry_equiv_pos_as_xyz
  1  'x, y, z'
loop_
 _atom_site_type_symbol
 _atom_site_label
 _atom_site_symmetry_multiplicity
 _atom_site_fract_x
 _atom_site_fract_y
 _atom_site_fract_z
 _atom_site_occupancy
  La  La0  1  0.193088  0.386174  0.250242  1
  Pr  Pr1  1  0.807680  0.615360  0.749733  1
  Pr  Pr2  1  0.615720  0.807713  0.250276  1
  Pr  Pr3  1  0.385031  0.192381  0.749705  1
  Pr  Pr4  1  0.191994  0.807713  0.250276  1
  Pr  Pr5  1  0.807349  0.192381  0.749705  1
  Al  Al6  1  0.333639  0.667278  0.007791  1
  Al  Al7  1  0.666537  0.333072  0.991170  1
  Al  Al8  1  0.666548  0.333095  0.508575  1
  Al  Al9  1  0.333589  0.667180  0.492475  1
  Al  Al10  1  0.162474  0.324947  0.575443  1
  Al  Al11  1  0.837379  0.674759  0.424880  1
  Al  Al12  1  0.674954  0.837557  0.575032  1
  Al  Al13  1  0.837392  0.674783  0.074931  1
  Al  Al14  1  0.325251  0.162134  0.424988  1
  Al  Al15  1  0.162485  0.324971  0.924730  1
  Al  Al16  1  0.162605  0.837557  0.575032  1
  Al  Al17  1  0.325330  0.162224  0.074765  1
  Al  Al18  1  0.836881  0.162134  0.424988  1
  Al  Al19  1  0.674902  0.837467  0.925201  1
  Al  Al20  1  0.836894  0.162224  0.074765  1
  Al  Al21  1  0.162565  0.837467  0.925201  1
  Al  Al22  1  0.561992  0.123984  0.249943  1
  Al  Al23  1  0.438014  0.876029  0.750034  1
  Al  Al24  1  0.874808  0.437846  0.249932  1
  Al  Al25  1  0.124049  0.562036  0.750082  1
  Al  Al26  1  0.563039  0.437846  0.249932  1
  Al  Al27  1  0.437987  0.562036  0.750082  1
  Al  Al28  1  0.999782  0.999565  0.251632  1
  Al  Al29  1  0.000097  0.000194  0.748398  1
  Os  Os30  1  0.500037  0.000075  0.999716  1
  Os  Os31  1  0.000015  0.500104  0.000131  1
  Os  Os32  1  0.500005  0.000010  0.500227  1
  Os  Os33  1  0.500090  0.500104  0.000131  1
  Os  Os34  1  0.999998  0.500129  0.499895  1
  Os  Os35  1  0.500131  0.500129  0.499895  1
  Os  Os36  1  0.999854  0.999707  0.999928  1
  Ru  Ru37  1  0.999815  0.999631  0.500136  1
