# generated using pymatgen
data_La4TbSmTa2O14
_symmetry_space_group_name_H-M   'P 1'
_cell_length_a   6.68801303
_cell_length_b   6.69221563
_cell_length_c   7.77347300
_cell_angle_alpha   90.00000000
_cell_angle_beta   90.00000000
_cell_angle_gamma   109.13822996
_symmetry_Int_Tables_number   1
_chemical_formula_structural   La4TbSmTa2O14
_chemical_formula_sum   'La4 Tb1 Sm1 Ta2 O14'
_cell_volume   328.69266105
_cell_formula_units_Z   1
loop_
 _symmetry_equiv_pos_site_id
 _symmetry_equiv_pos_as_xyz
  1  'x, y, z'
loop_
 _atom_site_type_symbol
 _atom_site_label
 _atom_site_symmetry_multiplicity
 _atom_site_fract_x
 _atom_site_fract_y
 _atom_site_fract_z
 _atom_site_occupancy
  La  La0  1  0.480743  0.480169  0.499348  1
  La  La1  1  0.480743  0.480169  0.000652  1
  La  La2  1  0.529374  0.995723  0.750000  1
  La  La3  1  0.996240  0.531639  0.250000  1
  Tb  Tb4  1  0.466893  0.997830  0.250000  1
  Sm  Sm5  1  0.997930  0.464142  0.750000  1
  Ta  Ta6  1  0.997942  0.998017  0.499236  1
  Ta  Ta7  1  0.997942  0.998017  0.000764  1
  O  O8  1  0.695267  0.946280  0.458957  1
  O  O9  1  0.943466  0.695392  0.537925  1
  O  O10  1  0.695267  0.946280  0.041043  1
  O  O11  1  0.943466  0.695392  0.962075  1
  O  O12  1  0.319877  0.072975  0.517971  1
  O  O13  1  0.074884  0.319466  0.478969  1
  O  O14  1  0.319877  0.072975  0.982029  1
  O  O15  1  0.074884  0.319466  0.021031  1
  O  O16  1  0.945337  0.055827  0.750000  1
  O  O17  1  0.056854  0.945118  0.250000  1
  O  O18  1  0.362749  0.623422  0.750000  1
  O  O19  1  0.621232  0.356998  0.250000  1
  O  O20  1  0.636581  0.361517  0.750000  1
  O  O21  1  0.362455  0.643188  0.250000  1
