# generated using pymatgen
data_KScMn7O16
_symmetry_space_group_name_H-M   'P 1'
_cell_length_a   5.86112265
_cell_length_b   7.13544031
_cell_length_c   7.25021600
_cell_angle_alpha   88.56716716
_cell_angle_beta   78.36138066
_cell_angle_gamma   78.06300496
_symmetry_Int_Tables_number   1
_chemical_formula_structural   KScMn7O16
_chemical_formula_sum   'K1 Sc1 Mn7 O16'
_cell_volume   290.51572350
_cell_formula_units_Z   1
loop_
 _symmetry_equiv_pos_site_id
 _symmetry_equiv_pos_as_xyz
  1  'x, y, z'
loop_
 _atom_site_type_symbol
 _atom_site_label
 _atom_site_symmetry_multiplicity
 _atom_site_fract_x
 _atom_site_fract_y
 _atom_site_fract_z
 _atom_site_occupancy
  K  K0  1  0.000172  0.997846  0.001880  1
  Sc  Sc1  1  0.578233  0.514594  0.187897  1
  Mn  Mn2  1  0.082549  0.507539  0.177940  1
  Mn  Mn3  1  0.169113  0.819615  0.522473  1
  Mn  Mn4  1  0.667788  0.822436  0.525380  1
  Mn  Mn5  1  0.335382  0.182996  0.481585  1
  Mn  Mn6  1  0.840449  0.182368  0.485424  1
  Mn  Mn7  1  0.428877  0.486785  0.815689  1
  Mn  Mn8  1  0.927564  0.490260  0.816563  1
  O  O9  1  0.851234  0.643399  0.042321  1
  O  O10  1  0.314042  0.641977  0.041705  1
  O  O11  1  0.981333  0.705024  0.382463  1
  O  O12  1  0.479246  0.712850  0.397549  1
  O  O13  1  0.854605  0.957517  0.646768  1
  O  O14  1  0.351399  0.961536  0.648227  1
  O  O15  1  0.326283  0.361685  0.289314  1
  O  O16  1  0.858408  0.357051  0.286540  1
  O  O17  1  0.170065  0.627529  0.709483  1
  O  O18  1  0.666513  0.633416  0.717076  1
  O  O19  1  0.152556  0.040018  0.363162  1
  O  O20  1  0.654563  0.043526  0.362967  1
  O  O21  1  0.027215  0.294368  0.619463  1
  O  O22  1  0.525560  0.305123  0.607114  1
  O  O23  1  0.179176  0.354601  0.942547  1
  O  O24  1  0.684774  0.355938  0.928463  1
