# generated using pymatgen
data_Hf6Ti4Ga2Si3Ge
_symmetry_space_group_name_H-M   'P 1'
_cell_length_a   7.80952854
_cell_length_b   7.81021152
_cell_length_c   5.35023400
_cell_angle_alpha   90.00000000
_cell_angle_beta   90.00000000
_cell_angle_gamma   120.09316574
_symmetry_Int_Tables_number   1
_chemical_formula_structural   Hf6Ti4Ga2Si3Ge
_chemical_formula_sum   'Hf6 Ti4 Ga2 Si3 Ge1'
_cell_volume   282.34658490
_cell_formula_units_Z   1
loop_
 _symmetry_equiv_pos_site_id
 _symmetry_equiv_pos_as_xyz
  1  'x, y, z'
loop_
 _atom_site_type_symbol
 _atom_site_label
 _atom_site_symmetry_multiplicity
 _atom_site_fract_x
 _atom_site_fract_y
 _atom_site_fract_z
 _atom_site_occupancy
  Hf  Hf0  1  0.247729  0.998148  0.250000  1
  Hf  Hf1  1  0.750312  0.001933  0.750000  1
  Hf  Hf2  1  0.001794  0.253876  0.250000  1
  Hf  Hf3  1  0.001899  0.748828  0.750000  1
  Hf  Hf4  1  0.758526  0.754779  0.250000  1
  Hf  Hf5  1  0.242818  0.242793  0.750000  1
  Ti  Ti6  1  0.327649  0.667695  0.998355  1
  Ti  Ti7  1  0.671095  0.332209  0.998512  1
  Ti  Ti8  1  0.671095  0.332209  0.501488  1
  Ti  Ti9  1  0.327649  0.667695  0.501645  1
  Ga  Ga10  1  0.401323  0.400837  0.250000  1
  Ga  Ga11  1  0.599347  0.600030  0.750000  1
  Si  Si12  1  0.396252  0.002186  0.750000  1
  Si  Si13  1  0.998324  0.602762  0.250000  1
  Si  Si14  1  0.001509  0.396458  0.750000  1
  Ge  Ge15  1  0.602677  0.997562  0.250000  1
