# generated using pymatgen
data_Rb3SnS3
_symmetry_space_group_name_H-M   'P 1'
_cell_length_a   8.10320359
_cell_length_b   8.10320363
_cell_length_c   8.89749423
_cell_angle_alpha   75.39860479
_cell_angle_beta   75.39860418
_cell_angle_gamma   109.95454850
_symmetry_Int_Tables_number   1
_chemical_formula_structural   Rb3SnS3
_chemical_formula_sum   'Rb6 Sn2 S6'
_cell_volume   493.33535469
_cell_formula_units_Z   2
loop_
 _symmetry_equiv_pos_site_id
 _symmetry_equiv_pos_as_xyz
  1  'x, y, z'
loop_
 _atom_site_type_symbol
 _atom_site_label
 _atom_site_symmetry_multiplicity
 _atom_site_fract_x
 _atom_site_fract_y
 _atom_site_fract_z
 _atom_site_occupancy
  Rb  Rb0  1  0.783981  0.783981  0.685420  1
  Rb  Rb1  1  0.216019  0.216019  0.314580  1
  Rb  Rb2  1  0.500000  0.000000  0.000000  1
  Rb  Rb3  1  0.000000  0.500000  0.000000  1
  Rb  Rb4  1  0.330724  0.669276  0.500000  1
  Rb  Rb5  1  0.669276  0.330724  0.500000  1
  Sn  Sn6  1  0.124994  0.124994  0.834875  1
  Sn  Sn7  1  0.875006  0.875006  0.165125  1
  S  S8  1  0.051894  0.752564  0.306755  1
  S  S9  1  0.247436  0.948106  0.693245  1
  S  S10  1  0.378611  0.378611  0.851966  1
  S  S11  1  0.621389  0.621389  0.148034  1
  S  S12  1  0.948106  0.247436  0.693245  1
  S  S13  1  0.752564  0.051894  0.306755  1
