# generated using pymatgen
data_La6P13Ir7Rh13
_symmetry_space_group_name_H-M   'P 1'
_cell_length_a   13.53024000
_cell_length_b   13.53023988
_cell_length_c   4.00962300
_cell_angle_alpha   90.00000000
_cell_angle_beta   90.00000000
_cell_angle_gamma   119.99999540
_symmetry_Int_Tables_number   1
_chemical_formula_structural   La6P13Ir7Rh13
_chemical_formula_sum   'La6 P13 Ir7 Rh13'
_cell_volume   635.68972091
_cell_formula_units_Z   1
loop_
 _symmetry_equiv_pos_site_id
 _symmetry_equiv_pos_as_xyz
  1  'x, y, z'
loop_
 _atom_site_type_symbol
 _atom_site_label
 _atom_site_symmetry_multiplicity
 _atom_site_fract_x
 _atom_site_fract_y
 _atom_site_fract_z
 _atom_site_occupancy
  La  La0  1  0.529380  0.718680  0.245711  1
  La  La1  1  0.281320  0.810700  0.245711  1
  La  La2  1  0.189300  0.470620  0.245711  1
  La  La3  1  0.470557  0.283036  0.754666  1
  La  La4  1  0.716964  0.187521  0.754666  1
  La  La5  1  0.812479  0.529443  0.754666  1
  P  P6  1  0.519314  0.133682  0.251787  1
  P  P7  1  0.866318  0.385633  0.251787  1
  P  P8  1  0.614367  0.480686  0.251787  1
  P  P9  1  0.948704  0.720119  0.257441  1
  P  P10  1  0.279881  0.228584  0.257441  1
  P  P11  1  0.771416  0.051296  0.257441  1
  P  P12  1  0.387249  0.521672  0.748638  1
  P  P13  1  0.478328  0.865575  0.748638  1
  P  P14  1  0.134425  0.612751  0.748638  1
  P  P15  1  0.719861  0.771586  0.744032  1
  P  P16  1  0.228414  0.948275  0.744032  1
  P  P17  1  0.051725  0.280139  0.744032  1
  P  P18  1  0.000000  0.000000  0.994983  1
  Ir  Ir19  1  0.333333  0.666667  0.749974  1
  Ir  Ir20  1  0.923387  0.247629  0.258745  1
  Ir  Ir21  1  0.752371  0.675758  0.258745  1
  Ir  Ir22  1  0.324242  0.076613  0.258745  1
  Ir  Ir23  1  0.439023  0.025098  0.753016  1
  Ir  Ir24  1  0.974902  0.413927  0.753016  1
  Ir  Ir25  1  0.586073  0.560977  0.753016  1
  Rh  Rh26  1  0.666667  0.333333  0.248987  1
  Rh  Rh27  1  0.092654  0.183420  0.242968  1
  Rh  Rh28  1  0.816580  0.909235  0.242968  1
  Rh  Rh29  1  0.090765  0.907346  0.242968  1
  Rh  Rh30  1  0.025005  0.584666  0.247170  1
  Rh  Rh31  1  0.415334  0.440338  0.247170  1
  Rh  Rh32  1  0.559662  0.974995  0.247170  1
  Rh  Rh33  1  0.674817  0.923608  0.739731  1
  Rh  Rh34  1  0.076392  0.751209  0.739731  1
  Rh  Rh35  1  0.248791  0.325183  0.739731  1
  Rh  Rh36  1  0.905742  0.813892  0.758113  1
  Rh  Rh37  1  0.186108  0.091850  0.758113  1
  Rh  Rh38  1  0.908150  0.094258  0.758113  1
