# generated using pymatgen
data_Y3HfZn2Ir3
_symmetry_space_group_name_H-M   'P 1'
_cell_length_a   7.22506514
_cell_length_b   7.15514880
_cell_length_c   4.08376400
_cell_angle_alpha   90.00000000
_cell_angle_beta   90.00000000
_cell_angle_gamma   119.68038742
_symmetry_Int_Tables_number   1
_chemical_formula_structural   Y3HfZn2Ir3
_chemical_formula_sum   'Y3 Hf1 Zn2 Ir3'
_cell_volume   183.41777295
_cell_formula_units_Z   1
loop_
 _symmetry_equiv_pos_site_id
 _symmetry_equiv_pos_as_xyz
  1  'x, y, z'
loop_
 _atom_site_type_symbol
 _atom_site_label
 _atom_site_symmetry_multiplicity
 _atom_site_fract_x
 _atom_site_fract_y
 _atom_site_fract_z
 _atom_site_occupancy
  Y  Y0  1  0.567026  0.582793  0.000000  1
  Y  Y1  1  0.432974  0.015767  0.000000  1
  Y  Y2  1  0.000000  0.386701  0.000000  1
  Hf  Hf3  1  0.000000  0.762354  0.500000  1
  Zn  Zn4  1  0.252283  0.247431  0.500000  1
  Zn  Zn5  1  0.747717  0.995149  0.500000  1
  Ir  Ir6  1  0.000000  0.987816  0.000000  1
  Ir  Ir7  1  0.679280  0.350634  0.500000  1
  Ir  Ir8  1  0.320720  0.671355  0.500000  1
