# generated using pymatgen
data_Hf4P4OsRu3
_symmetry_space_group_name_H-M   'P 1'
_cell_length_a   3.87392200
_cell_length_b   6.39982770
_cell_length_c   7.35129601
_cell_angle_alpha   90.02396824
_cell_angle_beta   90.00000000
_cell_angle_gamma   90.00000000
_symmetry_Int_Tables_number   1
_chemical_formula_structural   Hf4P4OsRu3
_chemical_formula_sum   'Hf4 P4 Os1 Ru3'
_cell_volume   182.25650012
_cell_formula_units_Z   1
loop_
 _symmetry_equiv_pos_site_id
 _symmetry_equiv_pos_as_xyz
  1  'x, y, z'
loop_
 _atom_site_type_symbol
 _atom_site_label
 _atom_site_symmetry_multiplicity
 _atom_site_fract_x
 _atom_site_fract_y
 _atom_site_fract_z
 _atom_site_occupancy
  Hf  Hf0  1  0.750000  0.522807  0.320854  1
  Hf  Hf1  1  0.250000  0.975915  0.820492  1
  Hf  Hf2  1  0.750000  0.024443  0.180523  1
  Hf  Hf3  1  0.250000  0.477123  0.678569  1
  P  P4  1  0.250000  0.725614  0.124759  1
  P  P5  1  0.250000  0.227029  0.377161  1
  P  P6  1  0.750000  0.274319  0.874907  1
  P  P7  1  0.750000  0.772549  0.623183  1
  Os  Os8  1  0.250000  0.343259  0.058384  1
  Ru  Ru9  1  0.250000  0.847045  0.439116  1
  Ru  Ru10  1  0.750000  0.154683  0.561220  1
  Ru  Ru11  1  0.750000  0.655214  0.940832  1
