# generated using pymatgen
data_Tm6Sc4TlPb5
_symmetry_space_group_name_H-M   'P 1'
_cell_length_a   6.33076500
_cell_length_b   8.79845323
_cell_length_c   8.81152700
_cell_angle_alpha   119.95092811
_cell_angle_beta   89.99990045
_cell_angle_gamma   90.00019948
_symmetry_Int_Tables_number   1
_chemical_formula_structural   Tm6Sc4TlPb5
_chemical_formula_sum   'Tm6 Sc4 Tl1 Pb5'
_cell_volume   425.26424327
_cell_formula_units_Z   1
loop_
 _symmetry_equiv_pos_site_id
 _symmetry_equiv_pos_as_xyz
  1  'x, y, z'
loop_
 _atom_site_type_symbol
 _atom_site_label
 _atom_site_symmetry_multiplicity
 _atom_site_fract_x
 _atom_site_fract_y
 _atom_site_fract_z
 _atom_site_occupancy
  Tm  Tm0  1  0.749985  0.237728  0.000000  1
  Tm  Tm1  1  0.749987  0.762442  0.766680  1
  Tm  Tm2  1  0.749987  0.995762  0.233320  1
  Tm  Tm3  1  0.249998  0.764007  0.000000  1
  Tm  Tm4  1  0.249997  0.236377  0.236049  1
  Tm  Tm5  1  0.249997  0.000328  0.763951  1
  Sc  Sc6  1  0.502023  0.335619  0.669453  1
  Sc  Sc7  1  0.502023  0.666166  0.330547  1
  Sc  Sc8  1  0.998004  0.666170  0.330521  1
  Sc  Sc9  1  0.998004  0.335649  0.669479  1
  Tl  Tl10  1  0.750010  0.598868  0.000000  1
  Pb  Pb11  1  0.749914  0.398374  0.398892  1
  Pb  Pb12  1  0.749914  0.999483  0.601108  1
  Pb  Pb13  1  0.250018  0.400467  0.000000  1
  Pb  Pb14  1  0.250072  0.601088  0.599616  1
  Pb  Pb15  1  0.250072  0.001472  0.400384  1
