# generated using pymatgen
data_Er9MgCd3Tc
_symmetry_space_group_name_H-M   'P 1'
_cell_length_a   9.28890400
_cell_length_b   9.28890277
_cell_length_c   9.60079400
_cell_angle_alpha   90.00000000
_cell_angle_beta   90.00000000
_cell_angle_gamma   119.99999724
_symmetry_Int_Tables_number   1
_chemical_formula_structural   Er9MgCd3Tc
_chemical_formula_sum   'Er18 Mg2 Cd6 Tc2'
_cell_volume   717.40877893
_cell_formula_units_Z   2
loop_
 _symmetry_equiv_pos_site_id
 _symmetry_equiv_pos_as_xyz
  1  'x, y, z'
loop_
 _atom_site_type_symbol
 _atom_site_label
 _atom_site_symmetry_multiplicity
 _atom_site_fract_x
 _atom_site_fract_y
 _atom_site_fract_z
 _atom_site_occupancy
  Er  Er0  1  0.208496  0.791504  0.442965  1
  Er  Er1  1  0.208496  0.416992  0.442965  1
  Er  Er2  1  0.583008  0.791504  0.442965  1
  Er  Er3  1  0.791504  0.208496  0.557035  1
  Er  Er4  1  0.791504  0.583008  0.557035  1
  Er  Er5  1  0.416992  0.208496  0.557035  1
  Er  Er6  1  0.791504  0.208496  0.942965  1
  Er  Er7  1  0.791504  0.583008  0.942965  1
  Er  Er8  1  0.416992  0.208496  0.942965  1
  Er  Er9  1  0.208496  0.791504  0.057035  1
  Er  Er10  1  0.208496  0.416992  0.057035  1
  Er  Er11  1  0.583008  0.791504  0.057035  1
  Er  Er12  1  0.540697  0.459303  0.250000  1
  Er  Er13  1  0.540697  0.081397  0.250000  1
  Er  Er14  1  0.918603  0.459303  0.250000  1
  Er  Er15  1  0.459303  0.540697  0.750000  1
  Er  Er16  1  0.459303  0.918603  0.750000  1
  Er  Er17  1  0.081397  0.540697  0.750000  1
  Mg  Mg18  1  0.000000  0.000000  0.500000  1
  Mg  Mg19  1  0.000000  0.000000  0.000000  1
  Cd  Cd20  1  0.888823  0.111177  0.250000  1
  Cd  Cd21  1  0.888823  0.777646  0.250000  1
  Cd  Cd22  1  0.222354  0.111177  0.250000  1
  Cd  Cd23  1  0.111177  0.888823  0.750000  1
  Cd  Cd24  1  0.111177  0.222354  0.750000  1
  Cd  Cd25  1  0.777646  0.888823  0.750000  1
  Tc  Tc26  1  0.333333  0.666667  0.250000  1
  Tc  Tc27  1  0.666667  0.333333  0.750000  1
