# generated using pymatgen
data_Yb2IrRhO6
_symmetry_space_group_name_H-M   'P 1'
_cell_length_a   3.16664700
_cell_length_b   5.06701079
_cell_length_c   7.29807471
_cell_angle_alpha   90.20914970
_cell_angle_beta   90.00000000
_cell_angle_gamma   71.79144625
_symmetry_Int_Tables_number   1
_chemical_formula_structural   Yb2IrRhO6
_chemical_formula_sum   'Yb2 Ir1 Rh1 O6'
_cell_volume   111.23618522
_cell_formula_units_Z   1
loop_
 _symmetry_equiv_pos_site_id
 _symmetry_equiv_pos_as_xyz
  1  'x, y, z'
loop_
 _atom_site_type_symbol
 _atom_site_label
 _atom_site_symmetry_multiplicity
 _atom_site_fract_x
 _atom_site_fract_y
 _atom_site_fract_z
 _atom_site_occupancy
  Yb  Yb0  1  0.751156  0.497687  0.241238  1
  Yb  Yb1  1  0.248847  0.502306  0.758758  1
  Ir  Ir2  1  0.000002  0.999996  0.499996  1
  Rh  Rh3  1  0.999985  0.000031  0.000028  1
  O  O4  1  0.078525  0.842950  0.252145  1
  O  O5  1  0.921478  0.157044  0.747847  1
  O  O6  1  0.367110  0.265781  0.051109  1
  O  O7  1  0.632894  0.734212  0.948885  1
  O  O8  1  0.372444  0.255112  0.448168  1
  O  O9  1  0.627560  0.744880  0.551826  1
