# generated using pymatgen
data_PrNd4SmTa2O14
_symmetry_space_group_name_H-M   'P 1'
_cell_length_a   6.69793809
_cell_length_b   6.68420924
_cell_length_c   7.71568704
_cell_angle_alpha   90.00856804
_cell_angle_beta   89.99054435
_cell_angle_gamma   108.68959154
_symmetry_Int_Tables_number   1
_chemical_formula_structural   PrNd4SmTa2O14
_chemical_formula_sum   'Pr1 Nd4 Sm1 Ta2 O14'
_cell_volume   327.21926047
_cell_formula_units_Z   1
loop_
 _symmetry_equiv_pos_site_id
 _symmetry_equiv_pos_as_xyz
  1  'x, y, z'
loop_
 _atom_site_type_symbol
 _atom_site_label
 _atom_site_symmetry_multiplicity
 _atom_site_fract_x
 _atom_site_fract_y
 _atom_site_fract_z
 _atom_site_occupancy
  Pr  Pr0  1  0.467617  0.471517  0.999718  1
  Nd  Nd1  1  0.463220  0.467070  0.500191  1
  Nd  Nd2  1  0.537264  0.995037  0.749364  1
  Nd  Nd3  1  0.993769  0.539269  0.250648  1
  Nd  Nd4  1  0.467957  0.996061  0.250243  1
  Sm  Sm5  1  0.995391  0.466643  0.749812  1
  Ta  Ta6  1  0.999397  0.999280  0.500842  1
  Ta  Ta7  1  0.999688  0.999526  0.999150  1
  O  O8  1  0.694899  0.938799  0.468957  1
  O  O9  1  0.959495  0.700186  0.536134  1
  O  O10  1  0.693773  0.936968  0.030527  1
  O  O11  1  0.957326  0.698910  0.964394  1
  O  O12  1  0.320142  0.079096  0.527343  1
  O  O13  1  0.072521  0.318785  0.472989  1
  O  O14  1  0.319613  0.077693  0.972215  1
  O  O15  1  0.071260  0.318336  0.027418  1
  O  O16  1  0.943849  0.062513  0.750059  1
  O  O17  1  0.056856  0.945435  0.249946  1
  O  O18  1  0.362294  0.625845  0.748181  1
  O  O19  1  0.627893  0.367966  0.251911  1
  O  O20  1  0.638209  0.362005  0.748211  1
  O  O21  1  0.357567  0.633064  0.251748  1
