# generated using pymatgen
data_V3GaTcSe8
_symmetry_space_group_name_H-M   'P 1'
_cell_length_a   7.16821810
_cell_length_b   7.16821813
_cell_length_c   7.16821866
_cell_angle_alpha   60.94242824
_cell_angle_beta   60.94242760
_cell_angle_gamma   60.94243626
_symmetry_Int_Tables_number   1
_chemical_formula_structural   V3GaTcSe8
_chemical_formula_sum   'V3 Ga1 Tc1 Se8'
_cell_volume   265.97753172
_cell_formula_units_Z   1
loop_
 _symmetry_equiv_pos_site_id
 _symmetry_equiv_pos_as_xyz
  1  'x, y, z'
loop_
 _atom_site_type_symbol
 _atom_site_label
 _atom_site_symmetry_multiplicity
 _atom_site_fract_x
 _atom_site_fract_y
 _atom_site_fract_z
 _atom_site_occupancy
  V  V0  1  0.606594  0.191655  0.606594  1
  V  V1  1  0.191655  0.606594  0.606594  1
  V  V2  1  0.606594  0.606594  0.191655  1
  Ga  Ga3  1  0.001728  0.001728  0.001728  1
  Tc  Tc4  1  0.599654  0.599654  0.599654  1
  Se  Se5  1  0.370790  0.370790  0.370790  1
  Se  Se6  1  0.363463  0.898363  0.363463  1
  Se  Se7  1  0.898363  0.363463  0.363463  1
  Se  Se8  1  0.363463  0.363463  0.898363  1
  Se  Se9  1  0.863248  0.863248  0.863248  1
  Se  Se10  1  0.859581  0.415286  0.859581  1
  Se  Se11  1  0.415286  0.859581  0.859581  1
  Se  Se12  1  0.859581  0.859581  0.415286  1
