# generated using pymatgen
data_Lu4Sc(In2Au)2
_symmetry_space_group_name_H-M   'P 1'
_cell_length_a   3.56144300
_cell_length_b   8.07985700
_cell_length_c   18.12142300
_cell_angle_alpha   90.00000000
_cell_angle_beta   90.00000000
_cell_angle_gamma   90.00000000
_symmetry_Int_Tables_number   1
_chemical_formula_structural   Lu4Sc(In2Au)2
_chemical_formula_sum   'Lu8 Sc2 In8 Au4'
_cell_volume   521.46116496
_cell_formula_units_Z   2
loop_
 _symmetry_equiv_pos_site_id
 _symmetry_equiv_pos_as_xyz
  1  'x, y, z'
loop_
 _atom_site_type_symbol
 _atom_site_label
 _atom_site_symmetry_multiplicity
 _atom_site_fract_x
 _atom_site_fract_y
 _atom_site_fract_z
 _atom_site_occupancy
  Lu  Lu0  1  0.000000  0.742205  0.281373  1
  Lu  Lu1  1  0.000000  0.257795  0.718627  1
  Lu  Lu2  1  0.000000  0.757795  0.781373  1
  Lu  Lu3  1  0.000000  0.242205  0.218627  1
  Lu  Lu4  1  0.000000  0.621906  0.078819  1
  Lu  Lu5  1  0.000000  0.378094  0.921181  1
  Lu  Lu6  1  0.000000  0.878094  0.578819  1
  Lu  Lu7  1  0.000000  0.121906  0.421181  1
  Sc  Sc8  1  0.000000  0.500000  0.500000  1
  Sc  Sc9  1  0.000000  0.000000  0.000000  1
  In  In10  1  0.500000  0.715130  0.934976  1
  In  In11  1  0.500000  0.284870  0.065024  1
  In  In12  1  0.500000  0.784870  0.434976  1
  In  In13  1  0.500000  0.215130  0.565024  1
  In  In14  1  0.500000  0.574504  0.643303  1
  In  In15  1  0.500000  0.425496  0.356697  1
  In  In16  1  0.500000  0.925496  0.143303  1
  In  In17  1  0.500000  0.074504  0.856697  1
  Au  Au18  1  0.500000  0.530879  0.196181  1
  Au  Au19  1  0.500000  0.469121  0.803819  1
  Au  Au20  1  0.500000  0.969121  0.696181  1
  Au  Au21  1  0.500000  0.030879  0.303819  1
