# generated using pymatgen
data_Y3Er10Th3(CdIr)4
_symmetry_space_group_name_H-M   'P 1'
_cell_length_a   9.67660388
_cell_length_b   9.68219099
_cell_length_c   9.67986414
_cell_angle_alpha   60.01457998
_cell_angle_beta   59.97368354
_cell_angle_gamma   59.96103227
_symmetry_Int_Tables_number   1
_chemical_formula_structural   Y3Er10Th3(CdIr)4
_chemical_formula_sum   'Y3 Er10 Th3 Cd4 Ir4'
_cell_volume   641.03862053
_cell_formula_units_Z   1
loop_
 _symmetry_equiv_pos_site_id
 _symmetry_equiv_pos_as_xyz
  1  'x, y, z'
loop_
 _atom_site_type_symbol
 _atom_site_label
 _atom_site_symmetry_multiplicity
 _atom_site_fract_x
 _atom_site_fract_y
 _atom_site_fract_z
 _atom_site_occupancy
  Y  Y0  1  0.936374  0.563596  0.936504  1
  Y  Y1  1  0.564583  0.565370  0.934774  1
  Y  Y2  1  0.935751  0.936363  0.563698  1
  Er  Er3  1  0.948966  0.350499  0.350561  1
  Er  Er4  1  0.811755  0.188664  0.189509  1
  Er  Er5  1  0.187909  0.812806  0.812549  1
  Er  Er6  1  0.187575  0.812614  0.187200  1
  Er  Er7  1  0.811915  0.189023  0.810017  1
  Er  Er8  1  0.187921  0.186772  0.812520  1
  Er  Er9  1  0.811785  0.810073  0.189486  1
  Er  Er10  1  0.936531  0.563427  0.562700  1
  Er  Er11  1  0.563851  0.936131  0.935370  1
  Er  Er12  1  0.564666  0.935367  0.564648  1
  Th  Th13  1  0.347587  0.350073  0.350628  1
  Th  Th14  1  0.348025  0.349903  0.951695  1
  Th  Th15  1  0.348189  0.951647  0.350128  1
  Cd  Cd16  1  0.584772  0.581263  0.580768  1
  Cd  Cd17  1  0.584310  0.581206  0.253753  1
  Cd  Cd18  1  0.584308  0.253187  0.581258  1
  Cd  Cd19  1  0.251681  0.582633  0.582583  1
  Ir  Ir20  1  0.143331  0.141716  0.141635  1
  Ir  Ir21  1  0.143101  0.142069  0.573219  1
  Ir  Ir22  1  0.142781  0.573335  0.142137  1
  Ir  Ir23  1  0.572336  0.142259  0.142658  1
