# generated using pymatgen
data_SmHoTm8(In2Pt)4
_symmetry_space_group_name_H-M   'P 1'
_cell_length_a   3.61991600
_cell_length_b   8.07948869
_cell_length_c   18.14812279
_cell_angle_alpha   89.92589340
_cell_angle_beta   90.00000000
_cell_angle_gamma   90.00000000
_symmetry_Int_Tables_number   1
_chemical_formula_structural   SmHoTm8(In2Pt)4
_chemical_formula_sum   'Sm1 Ho1 Tm8 In8 Pt4'
_cell_volume   530.77898066
_cell_formula_units_Z   1
loop_
 _symmetry_equiv_pos_site_id
 _symmetry_equiv_pos_as_xyz
  1  'x, y, z'
loop_
 _atom_site_type_symbol
 _atom_site_label
 _atom_site_symmetry_multiplicity
 _atom_site_fract_x
 _atom_site_fract_y
 _atom_site_fract_z
 _atom_site_occupancy
  Sm  Sm0  1  0.000000  0.000000  0.000000  1
  Ho  Ho1  1  0.000000  0.500000  0.500000  1
  Tm  Tm2  1  0.000000  0.116875  0.414122  1
  Tm  Tm3  1  0.000000  0.883125  0.585878  1
  Tm  Tm4  1  0.000000  0.381638  0.913761  1
  Tm  Tm5  1  0.000000  0.618362  0.086239  1
  Tm  Tm6  1  0.000000  0.244029  0.221167  1
  Tm  Tm7  1  0.000000  0.755971  0.778833  1
  Tm  Tm8  1  0.000000  0.256488  0.720528  1
  Tm  Tm9  1  0.000000  0.743512  0.279472  1
  In  In10  1  0.500000  0.423533  0.351465  1
  In  In11  1  0.500000  0.576467  0.648535  1
  In  In12  1  0.500000  0.076736  0.849526  1
  In  In13  1  0.500000  0.923264  0.150474  1
  In  In14  1  0.500000  0.297659  0.067682  1
  In  In15  1  0.500000  0.702341  0.932318  1
  In  In16  1  0.500000  0.206713  0.566814  1
  In  In17  1  0.500000  0.793287  0.433186  1
  Pt  Pt18  1  0.500000  0.025235  0.304635  1
  Pt  Pt19  1  0.500000  0.974765  0.695365  1
  Pt  Pt20  1  0.500000  0.474775  0.803645  1
  Pt  Pt21  1  0.500000  0.525225  0.196355  1
