# generated using pymatgen
data_Y4Th(MnB3)2
_symmetry_space_group_name_H-M   'P 1'
_cell_length_a   5.44762401
_cell_length_b   5.44762370
_cell_length_c   8.24703897
_cell_angle_alpha   70.71438830
_cell_angle_beta   70.71439021
_cell_angle_gamma   59.99998546
_symmetry_Int_Tables_number   1
_chemical_formula_structural   Y4Th(MnB3)2
_chemical_formula_sum   'Y4 Th1 Mn2 B6'
_cell_volume   195.93547115
_cell_formula_units_Z   1
loop_
 _symmetry_equiv_pos_site_id
 _symmetry_equiv_pos_as_xyz
  1  'x, y, z'
loop_
 _atom_site_type_symbol
 _atom_site_label
 _atom_site_symmetry_multiplicity
 _atom_site_fract_x
 _atom_site_fract_y
 _atom_site_fract_z
 _atom_site_occupancy
  Y  Y0  1  0.250930  0.250930  0.247210  1
  Y  Y1  1  0.749070  0.749070  0.752790  1
  Y  Y2  1  0.416302  0.416302  0.751094  1
  Y  Y3  1  0.583698  0.583698  0.248906  1
  Th  Th4  1  0.000000  0.000000  0.000000  1
  Mn  Mn5  1  0.113114  0.113114  0.660659  1
  Mn  Mn6  1  0.886886  0.886886  0.339341  1
  B  B7  1  0.166117  0.833883  0.500000  1
  B  B8  1  0.833883  0.500000  0.500000  1
  B  B9  1  0.500000  0.166117  0.500000  1
  B  B10  1  0.166117  0.500000  0.500000  1
  B  B11  1  0.500000  0.833883  0.500000  1
  B  B12  1  0.833883  0.166117  0.500000  1
