# generated using pymatgen
data_Ho12Er5(TmBi4)3
_symmetry_space_group_name_H-M   'P 1'
_cell_length_a   8.21767301
_cell_length_b   9.47210900
_cell_length_c   11.98769601
_cell_angle_alpha   89.99858486
_cell_angle_beta   89.99507731
_cell_angle_gamma   89.99790767
_symmetry_Int_Tables_number   1
_chemical_formula_structural   Ho12Er5(TmBi4)3
_chemical_formula_sum   'Ho12 Er5 Tm3 Bi12'
_cell_volume   933.10660312
_cell_formula_units_Z   1
loop_
 _symmetry_equiv_pos_site_id
 _symmetry_equiv_pos_as_xyz
  1  'x, y, z'
loop_
 _atom_site_type_symbol
 _atom_site_label
 _atom_site_symmetry_multiplicity
 _atom_site_fract_x
 _atom_site_fract_y
 _atom_site_fract_z
 _atom_site_occupancy
  Ho  Ho0  1  0.353453  0.749983  0.216450  1
  Ho  Ho1  1  0.853460  0.749998  0.283543  1
  Ho  Ho2  1  0.646561  0.249978  0.783532  1
  Ho  Ho3  1  0.146506  0.249970  0.716438  1
  Ho  Ho4  1  0.476785  0.249989  0.488949  1
  Ho  Ho5  1  0.976731  0.249981  0.011060  1
  Ho  Ho6  1  0.523209  0.749979  0.511047  1
  Ho  Ho7  1  0.023189  0.750022  0.988949  1
  Ho  Ho8  1  0.314341  0.250000  0.218057  1
  Ho  Ho9  1  0.814336  0.249984  0.281960  1
  Ho  Ho10  1  0.685656  0.750016  0.781961  1
  Ho  Ho11  1  0.185654  0.749983  0.718043  1
  Er  Er12  1  0.691887  0.564753  0.058992  1
  Er  Er13  1  0.191911  0.935236  0.441006  1
  Er  Er14  1  0.308117  0.064728  0.941005  1
  Er  Er15  1  0.808101  0.435230  0.558992  1
  Er  Er16  1  0.308131  0.435267  0.941012  1
  Tm  Tm17  1  0.808088  0.064846  0.558988  1
  Tm  Tm18  1  0.691915  0.935168  0.058984  1
  Tm  Tm19  1  0.191909  0.564847  0.441011  1
  Bi  Bi20  1  0.405474  0.750041  0.957499  1
  Bi  Bi21  1  0.905446  0.750080  0.542514  1
  Bi  Bi22  1  0.594593  0.249880  0.042529  1
  Bi  Bi23  1  0.094551  0.250076  0.457486  1
  Bi  Bi24  1  0.566182  0.996110  0.325674  1
  Bi  Bi25  1  0.066186  0.503879  0.174343  1
  Bi  Bi26  1  0.433828  0.496110  0.674314  1
  Bi  Bi27  1  0.933815  0.003881  0.825667  1
  Bi  Bi28  1  0.433840  0.003876  0.674323  1
  Bi  Bi29  1  0.933822  0.496115  0.825663  1
  Bi  Bi30  1  0.566170  0.503877  0.325678  1
  Bi  Bi31  1  0.066152  0.996116  0.174331  1
