# generated using pymatgen
data_LaTb(MoO4)3
_symmetry_space_group_name_H-M   'P 1'
_cell_length_a   7.61501273
_cell_length_b   7.61501273
_cell_length_c   10.92069400
_cell_angle_alpha   90.00000000
_cell_angle_beta   90.00000000
_cell_angle_gamma   89.53489170
_symmetry_Int_Tables_number   1
_chemical_formula_structural   LaTb(MoO4)3
_chemical_formula_sum   'La2 Tb2 Mo6 O24'
_cell_volume   633.25291216
_cell_formula_units_Z   2
loop_
 _symmetry_equiv_pos_site_id
 _symmetry_equiv_pos_as_xyz
  1  'x, y, z'
loop_
 _atom_site_type_symbol
 _atom_site_label
 _atom_site_symmetry_multiplicity
 _atom_site_fract_x
 _atom_site_fract_y
 _atom_site_fract_z
 _atom_site_occupancy
  La  La0  1  0.189759  0.689759  0.260872  1
  La  La1  1  0.810241  0.310241  0.260872  1
  Tb  Tb2  1  0.688287  0.811713  0.736964  1
  Tb  Tb3  1  0.311713  0.188287  0.736964  1
  Mo  Mo4  1  0.207646  0.707646  0.649258  1
  Mo  Mo5  1  0.792354  0.292354  0.649258  1
  Mo  Mo6  1  0.708083  0.791917  0.361506  1
  Mo  Mo7  1  0.291917  0.208083  0.361506  1
  Mo  Mo8  1  0.000000  0.000000  0.991339  1
  Mo  Mo9  1  0.500000  0.500000  0.991339  1
  O  O10  1  0.197352  0.697352  0.486379  1
  O  O11  1  0.802648  0.302648  0.486379  1
  O  O12  1  0.694201  0.805799  0.524504  1
  O  O13  1  0.305799  0.194201  0.524504  1
  O  O14  1  0.627880  0.127880  0.694194  1
  O  O15  1  0.372120  0.872120  0.694194  1
  O  O16  1  0.128565  0.371435  0.314271  1
  O  O17  1  0.871435  0.628565  0.314271  1
  O  O18  1  0.773818  0.997640  0.299984  1
  O  O19  1  0.226182  0.002360  0.299984  1
  O  O20  1  0.497640  0.273818  0.299984  1
  O  O21  1  0.502360  0.726182  0.299984  1
  O  O22  1  0.003989  0.227550  0.705112  1
  O  O23  1  0.996011  0.772450  0.705112  1
  O  O24  1  0.727550  0.503989  0.705112  1
  O  O25  1  0.272450  0.496011  0.705112  1
  O  O26  1  0.812498  0.954337  0.897266  1
  O  O27  1  0.187502  0.045663  0.897266  1
  O  O28  1  0.454337  0.312498  0.897266  1
  O  O29  1  0.545663  0.687502  0.897266  1
  O  O30  1  0.955869  0.185319  0.087994  1
  O  O31  1  0.044131  0.814681  0.087994  1
  O  O32  1  0.685319  0.455869  0.087994  1
  O  O33  1  0.314681  0.544131  0.087994  1
