# generated using pymatgen
data_DyHo15(AlIr)4
_symmetry_space_group_name_H-M   'P 1'
_cell_length_a   9.51115053
_cell_length_b   9.51115161
_cell_length_c   9.51383300
_cell_angle_alpha   59.99067021
_cell_angle_beta   59.99066646
_cell_angle_gamma   59.96106412
_symmetry_Int_Tables_number   1
_chemical_formula_structural   DyHo15(AlIr)4
_chemical_formula_sum   'Dy1 Ho15 Al4 Ir4'
_cell_volume   608.29954700
_cell_formula_units_Z   1
loop_
 _symmetry_equiv_pos_site_id
 _symmetry_equiv_pos_as_xyz
  1  'x, y, z'
loop_
 _atom_site_type_symbol
 _atom_site_label
 _atom_site_symmetry_multiplicity
 _atom_site_fract_x
 _atom_site_fract_y
 _atom_site_fract_z
 _atom_site_occupancy
  Dy  Dy0  1  0.437774  0.437774  0.062226  1
  Ho  Ho1  1  0.647842  0.647842  0.055241  1
  Ho  Ho2  1  0.195399  0.805515  0.194610  1
  Ho  Ho3  1  0.061460  0.437900  0.061908  1
  Ho  Ho4  1  0.195399  0.805515  0.804477  1
  Ho  Ho5  1  0.061460  0.437900  0.438733  1
  Ho  Ho6  1  0.805515  0.195399  0.194610  1
  Ho  Ho7  1  0.647842  0.647842  0.649074  1
  Ho  Ho8  1  0.805515  0.195399  0.804477  1
  Ho  Ho9  1  0.195195  0.195195  0.804805  1
  Ho  Ho10  1  0.056529  0.647224  0.648124  1
  Ho  Ho11  1  0.437900  0.061460  0.061908  1
  Ho  Ho12  1  0.061945  0.061945  0.438055  1
  Ho  Ho13  1  0.647224  0.056529  0.648124  1
  Ho  Ho14  1  0.805067  0.805067  0.194933  1
  Ho  Ho15  1  0.437900  0.061460  0.438733  1
  Al  Al16  1  0.421919  0.421919  0.422187  1
  Al  Al17  1  0.421919  0.421919  0.733975  1
  Al  Al18  1  0.421923  0.734193  0.421943  1
  Al  Al19  1  0.734193  0.421923  0.421943  1
  Ir  Ir20  1  0.424444  0.858819  0.858367  1
  Ir  Ir21  1  0.858407  0.858407  0.858486  1
  Ir  Ir22  1  0.858819  0.424444  0.858367  1
  Ir  Ir23  1  0.858407  0.858407  0.424698  1
