# generated using pymatgen
data_Nd2Th2P7Ir8
_symmetry_space_group_name_H-M   'P 1'
_cell_length_a   4.00388600
_cell_length_b   12.84906463
_cell_length_c   13.32757228
_cell_angle_alpha   99.26054997
_cell_angle_beta   90.00000000
_cell_angle_gamma   90.00000000
_symmetry_Int_Tables_number   1
_chemical_formula_structural   Nd2Th2P7Ir8
_chemical_formula_sum   'Nd4 Th4 P14 Ir16'
_cell_volume   676.71653259
_cell_formula_units_Z   2
loop_
 _symmetry_equiv_pos_site_id
 _symmetry_equiv_pos_as_xyz
  1  'x, y, z'
loop_
 _atom_site_type_symbol
 _atom_site_label
 _atom_site_symmetry_multiplicity
 _atom_site_fract_x
 _atom_site_fract_y
 _atom_site_fract_z
 _atom_site_occupancy
  Nd  Nd0  1  0.750000  0.280655  0.902342  1
  Nd  Nd1  1  0.250000  0.719345  0.097658  1
  Nd  Nd2  1  0.750000  0.103674  0.209926  1
  Nd  Nd3  1  0.250000  0.896326  0.790074  1
  Th  Th4  1  0.750000  0.208124  0.560096  1
  Th  Th5  1  0.250000  0.791876  0.439904  1
  Th  Th6  1  0.750000  0.516855  0.708796  1
  Th  Th7  1  0.250000  0.483145  0.291204  1
  P  P8  1  0.750000  0.743325  0.918799  1
  P  P9  1  0.250000  0.256675  0.081201  1
  P  P10  1  0.750000  0.909426  0.594351  1
  P  P11  1  0.250000  0.090574  0.405649  1
  P  P12  1  0.750000  0.530926  0.126299  1
  P  P13  1  0.250000  0.469074  0.873701  1
  P  P14  1  0.750000  0.842957  0.280664  1
  P  P15  1  0.250000  0.157043  0.719336  1
  P  P16  1  0.750000  0.607369  0.438657  1
  P  P17  1  0.250000  0.392631  0.561343  1
  P  P18  1  0.750000  0.313102  0.310044  1
  P  P19  1  0.250000  0.686898  0.689956  1
  P  P20  1  0.750000  0.051784  0.900771  1
  P  P21  1  0.250000  0.948216  0.099229  1
  Ir  Ir22  1  0.750000  0.341725  0.141060  1
  Ir  Ir23  1  0.250000  0.658275  0.858940  1
  Ir  Ir24  1  0.750000  0.728332  0.604683  1
  Ir  Ir25  1  0.250000  0.271668  0.395317  1
  Ir  Ir26  1  0.750000  0.916781  0.004383  1
  Ir  Ir27  1  0.250000  0.083219  0.995617  1
  Ir  Ir28  1  0.750000  0.424203  0.471357  1
  Ir  Ir29  1  0.250000  0.575797  0.528643  1
  Ir  Ir30  1  0.750000  0.063566  0.727461  1
  Ir  Ir31  1  0.250000  0.936434  0.272539  1
  Ir  Ir32  1  0.750000  0.549422  0.950248  1
  Ir  Ir33  1  0.250000  0.450578  0.049752  1
  Ir  Ir34  1  0.750000  0.661737  0.274839  1
  Ir  Ir35  1  0.250000  0.338263  0.725161  1
  Ir  Ir36  1  0.750000  0.990267  0.423360  1
  Ir  Ir37  1  0.250000  0.009733  0.576640  1
