# generated using pymatgen
data_Ho3Bi(Rh2O7)2
_symmetry_space_group_name_H-M   'P 1'
_cell_length_a   7.26416200
_cell_length_b   7.26416231
_cell_length_c   7.26416217
_cell_angle_alpha   59.50833800
_cell_angle_beta   59.50833683
_cell_angle_gamma   59.50833838
_symmetry_Int_Tables_number   1
_chemical_formula_structural   Ho3Bi(Rh2O7)2
_chemical_formula_sum   'Ho3 Bi1 Rh4 O14'
_cell_volume   268.01452365
_cell_formula_units_Z   1
loop_
 _symmetry_equiv_pos_site_id
 _symmetry_equiv_pos_as_xyz
  1  'x, y, z'
loop_
 _atom_site_type_symbol
 _atom_site_label
 _atom_site_symmetry_multiplicity
 _atom_site_fract_x
 _atom_site_fract_y
 _atom_site_fract_z
 _atom_site_occupancy
  Ho  Ho0  1  0.125000  0.625000  0.125000  1
  Ho  Ho1  1  0.625000  0.125000  0.125000  1
  Ho  Ho2  1  0.125000  0.125000  0.625000  1
  Bi  Bi3  1  0.125000  0.125000  0.125000  1
  Rh  Rh4  1  0.625000  0.625000  0.625000  1
  Rh  Rh5  1  0.625000  0.625000  0.125000  1
  Rh  Rh6  1  0.125000  0.625000  0.625000  1
  Rh  Rh7  1  0.625000  0.125000  0.625000  1
  O  O8  1  0.252089  0.252089  0.252089  1
  O  O9  1  0.288207  0.708187  0.288207  1
  O  O10  1  0.961793  0.961793  0.541813  1
  O  O11  1  0.537397  0.962824  0.537397  1
  O  O12  1  0.712603  0.712603  0.287176  1
  O  O13  1  0.962824  0.537397  0.537397  1
  O  O14  1  0.712603  0.287176  0.712603  1
  O  O15  1  0.288207  0.288207  0.708187  1
  O  O16  1  0.708187  0.288207  0.288207  1
  O  O17  1  0.287176  0.712603  0.712603  1
  O  O18  1  0.961793  0.541813  0.961793  1
  O  O19  1  0.537397  0.537397  0.962824  1
  O  O20  1  0.997911  0.997911  0.997911  1
  O  O21  1  0.541813  0.961793  0.961793  1
