# generated using pymatgen
data_TbErTcC2
_symmetry_space_group_name_H-M   'P 1'
_cell_length_a   5.08978700
_cell_length_b   6.57415600
_cell_length_c   9.83607400
_cell_angle_alpha   90.00000000
_cell_angle_beta   90.00000000
_cell_angle_gamma   90.00000000
_symmetry_Int_Tables_number   1
_chemical_formula_structural   TbErTcC2
_chemical_formula_sum   'Tb4 Er4 Tc4 C8'
_cell_volume   329.12540075
_cell_formula_units_Z   4
loop_
 _symmetry_equiv_pos_site_id
 _symmetry_equiv_pos_as_xyz
  1  'x, y, z'
loop_
 _atom_site_type_symbol
 _atom_site_label
 _atom_site_symmetry_multiplicity
 _atom_site_fract_x
 _atom_site_fract_y
 _atom_site_fract_z
 _atom_site_occupancy
  Tb  Tb0  1  0.750000  0.467998  0.784862  1
  Tb  Tb1  1  0.250000  0.032002  0.284862  1
  Tb  Tb2  1  0.750000  0.967998  0.715138  1
  Tb  Tb3  1  0.250000  0.532002  0.215138  1
  Er  Er4  1  0.750000  0.823497  0.057814  1
  Er  Er5  1  0.250000  0.676503  0.557814  1
  Er  Er6  1  0.750000  0.323497  0.442186  1
  Er  Er7  1  0.250000  0.176503  0.942186  1
  Tc  Tc8  1  0.750000  0.278170  0.134106  1
  Tc  Tc9  1  0.250000  0.221830  0.634106  1
  Tc  Tc10  1  0.750000  0.778170  0.365894  1
  Tc  Tc11  1  0.250000  0.721830  0.865894  1
  C  C12  1  0.750000  0.174869  0.951495  1
  C  C13  1  0.250000  0.825131  0.048505  1
  C  C14  1  0.750000  0.674869  0.548505  1
  C  C15  1  0.250000  0.325131  0.451495  1
  C  C16  1  0.750000  0.046036  0.259270  1
  C  C17  1  0.250000  0.453964  0.759270  1
  C  C18  1  0.750000  0.546036  0.240730  1
  C  C19  1  0.250000  0.953964  0.740730  1
