# generated using pymatgen
data_MnSb6Au
_symmetry_space_group_name_H-M   'P 1'
_cell_length_a   8.21727453
_cell_length_b   8.21727565
_cell_length_c   9.50380354
_cell_angle_alpha   54.25178735
_cell_angle_beta   54.25177966
_cell_angle_gamma   69.73081381
_symmetry_Int_Tables_number   1
_chemical_formula_structural   MnSb6Au
_chemical_formula_sum   'Mn2 Sb12 Au2'
_cell_volume   422.68390597
_cell_formula_units_Z   2
loop_
 _symmetry_equiv_pos_site_id
 _symmetry_equiv_pos_as_xyz
  1  'x, y, z'
loop_
 _atom_site_type_symbol
 _atom_site_label
 _atom_site_symmetry_multiplicity
 _atom_site_fract_x
 _atom_site_fract_y
 _atom_site_fract_z
 _atom_site_occupancy
  Mn  Mn0  1  0.000000  0.500000  0.000000  1
  Mn  Mn1  1  0.500000  0.000000  0.000000  1
  Sb  Sb2  1  0.159446  0.159446  0.159940  1
  Sb  Sb3  1  0.840554  0.840554  0.840060  1
  Sb  Sb4  1  0.851412  0.851412  0.508495  1
  Sb  Sb5  1  0.148588  0.148588  0.491505  1
  Sb  Sb6  1  0.814411  0.501482  0.325473  1
  Sb  Sb7  1  0.185589  0.498518  0.674527  1
  Sb  Sb8  1  0.501482  0.814411  0.325473  1
  Sb  Sb9  1  0.498518  0.185589  0.674527  1
  Sb  Sb10  1  0.643830  0.323972  0.862460  1
  Sb  Sb11  1  0.356170  0.676028  0.137540  1
  Sb  Sb12  1  0.676028  0.356170  0.137540  1
  Sb  Sb13  1  0.323972  0.643830  0.862460  1
  Au  Au14  1  0.000000  0.500000  0.500000  1
  Au  Au15  1  0.500000  0.000000  0.500000  1
