# generated using pymatgen
data_LiDy16Co4Hg3
_symmetry_space_group_name_H-M   'P 1'
_cell_length_a   9.48768182
_cell_length_b   9.48439466
_cell_length_c   9.48439500
_cell_angle_alpha   60.00000231
_cell_angle_beta   60.01146266
_cell_angle_gamma   60.01145535
_symmetry_Int_Tables_number   1
_chemical_formula_structural   LiDy16Co4Hg3
_chemical_formula_sum   'Li1 Dy16 Co4 Hg3'
_cell_volume   603.58657463
_cell_formula_units_Z   1
loop_
 _symmetry_equiv_pos_site_id
 _symmetry_equiv_pos_as_xyz
  1  'x, y, z'
loop_
 _atom_site_type_symbol
 _atom_site_label
 _atom_site_symmetry_multiplicity
 _atom_site_fract_x
 _atom_site_fract_y
 _atom_site_fract_z
 _atom_site_occupancy
  Li  Li0  1  0.296883  0.567706  0.567706  1
  Dy  Dy1  1  0.809472  0.189228  0.189228  1
  Dy  Dy2  1  0.184988  0.814766  0.814766  1
  Dy  Dy3  1  0.184988  0.814766  0.185480  1
  Dy  Dy4  1  0.809472  0.189228  0.812072  1
  Dy  Dy5  1  0.184988  0.185480  0.814766  1
  Dy  Dy6  1  0.809472  0.812072  0.189228  1
  Dy  Dy7  1  0.937024  0.562527  0.562527  1
  Dy  Dy8  1  0.562692  0.936937  0.936937  1
  Dy  Dy9  1  0.562692  0.936937  0.563433  1
  Dy  Dy10  1  0.937024  0.562527  0.937921  1
  Dy  Dy11  1  0.562692  0.563433  0.936937  1
  Dy  Dy12  1  0.937024  0.937921  0.562527  1
  Dy  Dy13  1  0.348477  0.345257  0.345257  1
  Dy  Dy14  1  0.348477  0.345257  0.961007  1
  Dy  Dy15  1  0.348477  0.961007  0.345257  1
  Dy  Dy16  1  0.951136  0.349621  0.349621  1
  Co  Co17  1  0.137745  0.142770  0.142770  1
  Co  Co18  1  0.137745  0.142770  0.576715  1
  Co  Co19  1  0.137745  0.576715  0.142770  1
  Co  Co20  1  0.576722  0.141093  0.141093  1
  Hg  Hg21  1  0.578021  0.586148  0.586148  1
  Hg  Hg22  1  0.578021  0.586148  0.249684  1
  Hg  Hg23  1  0.578021  0.249684  0.586148  1
