# generated using pymatgen
data_Tm8CdPb3Au8
_symmetry_space_group_name_H-M   'P 1'
_cell_length_a   8.08763800
_cell_length_b   8.08763800
_cell_length_c   7.21244900
_cell_angle_alpha   90.00000000
_cell_angle_beta   90.00000000
_cell_angle_gamma   90.00000000
_symmetry_Int_Tables_number   1
_chemical_formula_structural   Tm8CdPb3Au8
_chemical_formula_sum   'Tm8 Cd1 Pb3 Au8'
_cell_volume   471.76548432
_cell_formula_units_Z   1
loop_
 _symmetry_equiv_pos_site_id
 _symmetry_equiv_pos_as_xyz
  1  'x, y, z'
loop_
 _atom_site_type_symbol
 _atom_site_label
 _atom_site_symmetry_multiplicity
 _atom_site_fract_x
 _atom_site_fract_y
 _atom_site_fract_z
 _atom_site_occupancy
  Tm  Tm0  1  0.684143  0.324269  0.497532  1
  Tm  Tm1  1  0.315857  0.675731  0.497532  1
  Tm  Tm2  1  0.175731  0.184143  0.002468  1
  Tm  Tm3  1  0.824269  0.815857  0.002468  1
  Tm  Tm4  1  0.848410  0.839503  0.497063  1
  Tm  Tm5  1  0.151590  0.160497  0.497063  1
  Tm  Tm6  1  0.339503  0.651590  0.002937  1
  Tm  Tm7  1  0.660497  0.348410  0.002937  1
  Cd  Cd8  1  0.000000  0.500000  0.250000  1
  Pb  Pb9  1  0.500000  0.000000  0.250000  1
  Pb  Pb10  1  0.000000  0.500000  0.750000  1
  Pb  Pb11  1  0.500000  0.000000  0.750000  1
  Au  Au12  1  0.874585  0.131464  0.225832  1
  Au  Au13  1  0.125415  0.868536  0.225832  1
  Au  Au14  1  0.374442  0.371489  0.725118  1
  Au  Au15  1  0.625558  0.628511  0.725118  1
  Au  Au16  1  0.128511  0.874442  0.774882  1
  Au  Au17  1  0.871489  0.125558  0.774882  1
  Au  Au18  1  0.631464  0.625415  0.274168  1
  Au  Au19  1  0.368536  0.374585  0.274168  1
