# generated using pymatgen
data_Y2AlZnPd2
_symmetry_space_group_name_H-M   'P 1'
_cell_length_a   4.36874900
_cell_length_b   6.91442500
_cell_length_c   7.91525600
_cell_angle_alpha   90.00000000
_cell_angle_beta   90.00000000
_cell_angle_gamma   90.00000000
_symmetry_Int_Tables_number   1
_chemical_formula_structural   Y2AlZnPd2
_chemical_formula_sum   'Y4 Al2 Zn2 Pd4'
_cell_volume   239.09920360
_cell_formula_units_Z   2
loop_
 _symmetry_equiv_pos_site_id
 _symmetry_equiv_pos_as_xyz
  1  'x, y, z'
loop_
 _atom_site_type_symbol
 _atom_site_label
 _atom_site_symmetry_multiplicity
 _atom_site_fract_x
 _atom_site_fract_y
 _atom_site_fract_z
 _atom_site_occupancy
  Y  Y0  1  0.250000  0.034165  0.317990  1
  Y  Y1  1  0.250000  0.534165  0.182010  1
  Y  Y2  1  0.750000  0.970076  0.686586  1
  Y  Y3  1  0.750000  0.470076  0.813414  1
  Al  Al4  1  0.250000  0.641375  0.561139  1
  Al  Al5  1  0.250000  0.141375  0.938861  1
  Zn  Zn6  1  0.750000  0.351508  0.434742  1
  Zn  Zn7  1  0.750000  0.851508  0.065258  1
  Pd  Pd8  1  0.250000  0.269749  0.624504  1
  Pd  Pd9  1  0.250000  0.769749  0.875496  1
  Pd  Pd10  1  0.750000  0.733126  0.390050  1
  Pd  Pd11  1  0.750000  0.233126  0.109950  1
