# generated using pymatgen
data_Hf3TiOs2N
_symmetry_space_group_name_H-M   'P 1'
_cell_length_a   8.56636773
_cell_length_b   8.56636772
_cell_length_c   8.56636700
_cell_angle_alpha   59.99999894
_cell_angle_beta   59.99999898
_cell_angle_gamma   60.00000151
_symmetry_Int_Tables_number   1
_chemical_formula_structural   Hf3TiOs2N
_chemical_formula_sum   'Hf12 Ti4 Os8 N4'
_cell_volume   444.50341690
_cell_formula_units_Z   4
loop_
 _symmetry_equiv_pos_site_id
 _symmetry_equiv_pos_as_xyz
  1  'x, y, z'
loop_
 _atom_site_type_symbol
 _atom_site_label
 _atom_site_symmetry_multiplicity
 _atom_site_fract_x
 _atom_site_fract_y
 _atom_site_fract_z
 _atom_site_occupancy
  Hf  Hf0  1  0.811498  0.811498  0.188502  1
  Hf  Hf1  1  0.188502  0.188502  0.811498  1
  Hf  Hf2  1  0.811498  0.188502  0.811498  1
  Hf  Hf3  1  0.188502  0.811498  0.188502  1
  Hf  Hf4  1  0.188502  0.811498  0.811498  1
  Hf  Hf5  1  0.811498  0.188502  0.188502  1
  Hf  Hf6  1  0.438502  0.438502  0.061498  1
  Hf  Hf7  1  0.061498  0.061498  0.438502  1
  Hf  Hf8  1  0.438502  0.061498  0.438502  1
  Hf  Hf9  1  0.061498  0.438502  0.061498  1
  Hf  Hf10  1  0.061498  0.438502  0.438502  1
  Hf  Hf11  1  0.438502  0.061498  0.061498  1
  Ti  Ti12  1  0.125000  0.625000  0.625000  1
  Ti  Ti13  1  0.625000  0.125000  0.625000  1
  Ti  Ti14  1  0.625000  0.625000  0.125000  1
  Ti  Ti15  1  0.625000  0.625000  0.625000  1
  Os  Os16  1  0.752301  0.415899  0.415899  1
  Os  Os17  1  0.415899  0.752301  0.415899  1
  Os  Os18  1  0.415899  0.415899  0.752301  1
  Os  Os19  1  0.415899  0.415899  0.415899  1
  Os  Os20  1  0.497699  0.834101  0.834101  1
  Os  Os21  1  0.834101  0.497699  0.834101  1
  Os  Os22  1  0.834101  0.834101  0.497699  1
  Os  Os23  1  0.834101  0.834101  0.834101  1
  N  N24  1  0.625000  0.125000  0.125000  1
  N  N25  1  0.125000  0.625000  0.125000  1
  N  N26  1  0.125000  0.125000  0.625000  1
  N  N27  1  0.125000  0.125000  0.125000  1
