# generated using pymatgen
data_Hf11Zr7(Si8Mo)2
_symmetry_space_group_name_H-M   'P 1'
_cell_length_a   7.04031219
_cell_length_b   7.04031788
_cell_length_c   12.86377476
_cell_angle_alpha   90.03943012
_cell_angle_beta   89.99924343
_cell_angle_gamma   89.76149221
_symmetry_Int_Tables_number   1
_chemical_formula_structural   Hf11Zr7(Si8Mo)2
_chemical_formula_sum   'Hf11 Zr7 Si16 Mo2'
_cell_volume   637.60064459
_cell_formula_units_Z   1
loop_
 _symmetry_equiv_pos_site_id
 _symmetry_equiv_pos_as_xyz
  1  'x, y, z'
loop_
 _atom_site_type_symbol
 _atom_site_label
 _atom_site_symmetry_multiplicity
 _atom_site_fract_x
 _atom_site_fract_y
 _atom_site_fract_z
 _atom_site_occupancy
  Hf  Hf0  1  0.824716  0.824693  0.499821  1
  Hf  Hf1  1  0.175130  0.175657  0.000294  1
  Hf  Hf2  1  0.998501  0.346630  0.217239  1
  Hf  Hf3  1  0.497657  0.356143  0.127243  1
  Hf  Hf4  1  0.502370  0.644038  0.627091  1
  Hf  Hf5  1  0.852717  0.003238  0.875544  1
  Hf  Hf6  1  0.146992  0.996911  0.375039  1
  Hf  Hf7  1  0.644391  0.502007  0.372459  1
  Hf  Hf8  1  0.356002  0.497567  0.873056  1
  Hf  Hf9  1  0.003129  0.853360  0.124712  1
  Hf  Hf10  1  0.996774  0.147333  0.624593  1
  Zr  Zr11  1  0.495990  0.152609  0.531588  1
  Zr  Zr12  1  0.504150  0.847609  0.031763  1
  Zr  Zr13  1  0.653760  0.002459  0.282605  1
  Zr  Zr14  1  0.346392  0.997916  0.782797  1
  Zr  Zr15  1  0.847523  0.504007  0.968728  1
  Zr  Zr16  1  0.152291  0.495538  0.468050  1
  Zr  Zr17  1  0.002179  0.653493  0.717226  1
  Si  Si18  1  0.796752  0.147074  0.071875  1
  Si  Si19  1  0.204110  0.854133  0.571098  1
  Si  Si20  1  0.645947  0.703173  0.822169  1
  Si  Si21  1  0.353055  0.297254  0.321868  1
  Si  Si22  1  0.854288  0.204408  0.428524  1
  Si  Si23  1  0.145813  0.795787  0.928836  1
  Si  Si24  1  0.703940  0.645537  0.177730  1
  Si  Si25  1  0.296861  0.354056  0.677906  1
  Si  Si26  1  0.552054  0.202139  0.934312  1
  Si  Si27  1  0.448046  0.797836  0.434193  1
  Si  Si28  1  0.697529  0.954999  0.686018  1
  Si  Si29  1  0.302232  0.045399  0.185978  1
  Si  Si30  1  0.797873  0.447966  0.565661  1
  Si  Si31  1  0.201246  0.550984  0.066357  1
  Si  Si32  1  0.955504  0.696216  0.313704  1
  Si  Si33  1  0.044898  0.302456  0.814045  1
  Mo  Mo34  1  0.675081  0.324738  0.749965  1
  Mo  Mo35  1  0.324106  0.674636  0.249914  1
