# generated using pymatgen
data_Pr4Cd2Ag3Rh
_symmetry_space_group_name_H-M   'P 1'
_cell_length_a   8.11765665
_cell_length_b   8.11765665
_cell_length_c   3.96745400
_cell_angle_alpha   90.00000000
_cell_angle_beta   90.00000000
_cell_angle_gamma   90.33961128
_symmetry_Int_Tables_number   1
_chemical_formula_structural   Pr4Cd2Ag3Rh
_chemical_formula_sum   'Pr4 Cd2 Ag3 Rh1'
_cell_volume   261.43614273
_cell_formula_units_Z   1
loop_
 _symmetry_equiv_pos_site_id
 _symmetry_equiv_pos_as_xyz
  1  'x, y, z'
loop_
 _atom_site_type_symbol
 _atom_site_label
 _atom_site_symmetry_multiplicity
 _atom_site_fract_x
 _atom_site_fract_y
 _atom_site_fract_z
 _atom_site_occupancy
  Pr  Pr0  1  0.650243  0.181385  0.500000  1
  Pr  Pr1  1  0.318615  0.849757  0.500000  1
  Pr  Pr2  1  0.192602  0.307398  0.500000  1
  Pr  Pr3  1  0.827296  0.672704  0.500000  1
  Cd  Cd4  1  0.001395  0.000814  0.000000  1
  Cd  Cd5  1  0.499186  0.498605  0.000000  1
  Ag  Ag6  1  0.129645  0.620798  0.000000  1
  Ag  Ag7  1  0.879202  0.370355  0.000000  1
  Ag  Ag8  1  0.624958  0.875042  0.000000  1
  Rh  Rh9  1  0.376859  0.123141  0.000000  1
