# generated using pymatgen
data_Er3TmB16OsRu3
_symmetry_space_group_name_H-M   'P 1'
_cell_length_a   3.54402900
_cell_length_b   5.93654903
_cell_length_c   11.48720207
_cell_angle_alpha   90.00077511
_cell_angle_beta   90.00000000
_cell_angle_gamma   90.00000000
_symmetry_Int_Tables_number   1
_chemical_formula_structural   Er3TmB16OsRu3
_chemical_formula_sum   'Er3 Tm1 B16 Os1 Ru3'
_cell_volume   241.68271236
_cell_formula_units_Z   1
loop_
 _symmetry_equiv_pos_site_id
 _symmetry_equiv_pos_as_xyz
  1  'x, y, z'
loop_
 _atom_site_type_symbol
 _atom_site_label
 _atom_site_symmetry_multiplicity
 _atom_site_fract_x
 _atom_site_fract_y
 _atom_site_fract_z
 _atom_site_occupancy
  Er  Er0  1  0.000000  0.371023  0.649541  1
  Er  Er1  1  0.000000  0.129283  0.150425  1
  Er  Er2  1  0.000000  0.870539  0.849690  1
  Tm  Tm3  1  0.000000  0.629018  0.350461  1
  B  B4  1  0.500000  0.790309  0.186248  1
  B  B5  1  0.500000  0.209829  0.813937  1
  B  B6  1  0.500000  0.290378  0.314295  1
  B  B7  1  0.500000  0.709743  0.685605  1
  B  B8  1  0.500000  0.864425  0.029597  1
  B  B9  1  0.500000  0.135524  0.970061  1
  B  B10  1  0.500000  0.364678  0.469988  1
  B  B11  1  0.500000  0.635413  0.530013  1
  B  B12  1  0.500000  0.887387  0.453013  1
  B  B13  1  0.500000  0.112421  0.547038  1
  B  B14  1  0.500000  0.387500  0.047116  1
  B  B15  1  0.500000  0.612396  0.952813  1
  B  B16  1  0.500000  0.977056  0.307883  1
  B  B17  1  0.500000  0.023221  0.692219  1
  B  B18  1  0.500000  0.476222  0.192352  1
  B  B19  1  0.500000  0.523373  0.807698  1
  Os  Os20  1  0.000000  0.641762  0.093241  1
  Ru  Ru21  1  0.000000  0.358215  0.906925  1
  Ru  Ru22  1  0.000000  0.141051  0.406971  1
  Ru  Ru23  1  0.000000  0.859235  0.592870  1
