# generated using pymatgen
data_Nb2CuRu3
_symmetry_space_group_name_H-M   'P 1'
_cell_length_a   7.65943600
_cell_length_b   7.65943637
_cell_length_c   5.35192300
_cell_angle_alpha   90.00000000
_cell_angle_beta   90.00000000
_cell_angle_gamma   120.00000706
_symmetry_Int_Tables_number   1
_chemical_formula_structural   Nb2CuRu3
_chemical_formula_sum   'Nb6 Cu3 Ru9'
_cell_volume   271.91556074
_cell_formula_units_Z   3
loop_
 _symmetry_equiv_pos_site_id
 _symmetry_equiv_pos_as_xyz
  1  'x, y, z'
loop_
 _atom_site_type_symbol
 _atom_site_label
 _atom_site_symmetry_multiplicity
 _atom_site_fract_x
 _atom_site_fract_y
 _atom_site_fract_z
 _atom_site_occupancy
  Nb  Nb0  1  0.666666  0.333333  0.532185  1
  Nb  Nb1  1  0.333334  0.666667  0.532185  1
  Nb  Nb2  1  0.000000  0.000000  0.533598  1
  Nb  Nb3  1  0.333142  0.000000  0.917930  1
  Nb  Nb4  1  0.000000  0.333141  0.917930  1
  Nb  Nb5  1  0.666859  0.666859  0.917930  1
  Cu  Cu6  1  0.665706  0.000000  0.225746  1
  Cu  Cu7  1  0.334294  0.334293  0.225746  1
  Cu  Cu8  1  0.000000  0.665707  0.225746  1
  Ru  Ru9  1  0.666666  0.333333  0.037871  1
  Ru  Ru10  1  0.333334  0.666667  0.037871  1
  Ru  Ru11  1  0.000000  0.000000  0.039932  1
  Ru  Ru12  1  0.332896  0.000000  0.412114  1
  Ru  Ru13  1  0.000000  0.332895  0.412114  1
  Ru  Ru14  1  0.667105  0.667105  0.412114  1
  Ru  Ru15  1  0.666539  0.000000  0.725609  1
  Ru  Ru16  1  0.333461  0.333461  0.725609  1
  Ru  Ru17  1  0.000000  0.666539  0.725609  1
