# generated using pymatgen
data_Ca3Nd8Tm9Si16
_symmetry_space_group_name_H-M   'P 1'
_cell_length_a   7.75042224
_cell_length_b   7.75042224
_cell_length_c   14.19017427
_cell_angle_alpha   90.08729028
_cell_angle_beta   89.91270972
_cell_angle_gamma   89.99819973
_symmetry_Int_Tables_number   1
_chemical_formula_structural   Ca3Nd8Tm9Si16
_chemical_formula_sum   'Ca3 Nd8 Tm9 Si16'
_cell_volume   852.38823639
_cell_formula_units_Z   1
loop_
 _symmetry_equiv_pos_site_id
 _symmetry_equiv_pos_as_xyz
  1  'x, y, z'
loop_
 _atom_site_type_symbol
 _atom_site_label
 _atom_site_symmetry_multiplicity
 _atom_site_fract_x
 _atom_site_fract_y
 _atom_site_fract_z
 _atom_site_occupancy
  Ca  Ca0  1  0.317406  0.317406  0.500000  1
  Ca  Ca1  1  0.182646  0.817506  0.750409  1
  Ca  Ca2  1  0.817506  0.182646  0.249591  1
  Nd  Nd3  1  0.642781  0.991761  0.459557  1
  Nd  Nd4  1  0.356933  0.007923  0.959463  1
  Nd  Nd5  1  0.991761  0.642781  0.540443  1
  Nd  Nd6  1  0.492602  0.857076  0.209265  1
  Nd  Nd7  1  0.508566  0.141856  0.709443  1
  Nd  Nd8  1  0.857076  0.492602  0.790735  1
  Nd  Nd9  1  0.141856  0.508566  0.290557  1
  Nd  Nd10  1  0.007923  0.356933  0.040537  1
  Tm  Tm11  1  0.494286  0.362427  0.123519  1
  Tm  Tm12  1  0.993828  0.136619  0.626371  1
  Tm  Tm13  1  0.862684  0.006799  0.873836  1
  Tm  Tm14  1  0.136619  0.993828  0.373629  1
  Tm  Tm15  1  0.506278  0.638435  0.624043  1
  Tm  Tm16  1  0.362427  0.494286  0.876481  1
  Tm  Tm17  1  0.638435  0.506278  0.375957  1
  Tm  Tm18  1  0.006799  0.862684  0.126164  1
  Tm  Tm19  1  0.683031  0.683031  0.000000  1
  Si  Si20  1  0.290310  0.929000  0.558770  1
  Si  Si21  1  0.707962  0.061626  0.057891  1
  Si  Si22  1  0.929000  0.290310  0.441230  1
  Si  Si23  1  0.428990  0.210793  0.308929  1
  Si  Si24  1  0.571966  0.789364  0.812585  1
  Si  Si25  1  0.210793  0.428990  0.691071  1
  Si  Si26  1  0.789364  0.571966  0.187415  1
  Si  Si27  1  0.061626  0.707962  0.942109  1
  Si  Si28  1  0.787493  0.852118  0.686003  1
  Si  Si29  1  0.212307  0.147988  0.185621  1
  Si  Si30  1  0.852118  0.787493  0.313997  1
  Si  Si31  1  0.351413  0.711606  0.436264  1
  Si  Si32  1  0.650812  0.294809  0.937778  1
  Si  Si33  1  0.711606  0.351413  0.563736  1
  Si  Si34  1  0.294809  0.650812  0.062222  1
  Si  Si35  1  0.147988  0.212307  0.814379  1
