# generated using pymatgen
data_Tm4MgCo2Bi
_symmetry_space_group_name_H-M   'P 1'
_cell_length_a   8.89488432
_cell_length_b   8.89488560
_cell_length_c   8.89456668
_cell_angle_alpha   131.76187515
_cell_angle_beta   131.76188130
_cell_angle_gamma   70.60821348
_symmetry_Int_Tables_number   1
_chemical_formula_structural   Tm4MgCo2Bi
_chemical_formula_sum   'Tm8 Mg2 Co4 Bi2'
_cell_volume   383.59773857
_cell_formula_units_Z   2
loop_
 _symmetry_equiv_pos_site_id
 _symmetry_equiv_pos_as_xyz
  1  'x, y, z'
loop_
 _atom_site_type_symbol
 _atom_site_label
 _atom_site_symmetry_multiplicity
 _atom_site_fract_x
 _atom_site_fract_y
 _atom_site_fract_z
 _atom_site_occupancy
  Tm  Tm0  1  0.700508  0.558431  0.500000  1
  Tm  Tm1  1  0.441554  0.941554  0.142028  1
  Tm  Tm2  1  0.799526  0.299526  0.857972  1
  Tm  Tm3  1  0.558446  0.058446  0.857972  1
  Tm  Tm4  1  0.058431  0.200508  0.500000  1
  Tm  Tm5  1  0.299492  0.441569  0.500000  1
  Tm  Tm6  1  0.200474  0.700474  0.142028  1
  Tm  Tm7  1  0.941569  0.799492  0.500000  1
  Mg  Mg8  1  0.000000  0.000000  0.000000  1
  Mg  Mg9  1  0.500000  0.500000  0.000000  1
  Co  Co10  1  0.111264  0.611264  0.722528  1
  Co  Co11  1  0.888736  0.388736  0.277472  1
  Co  Co12  1  0.611253  0.888747  0.500000  1
  Co  Co13  1  0.388747  0.111253  0.500000  1
  Bi  Bi14  1  0.250000  0.250000  0.000000  1
  Bi  Bi15  1  0.750000  0.750000  0.000000  1
