# generated using pymatgen
data_Pr5Ho4Er11Bi12
_symmetry_space_group_name_H-M   'P 1'
_cell_length_a   8.22902903
_cell_length_b   9.48665412
_cell_length_c   11.99207100
_cell_angle_alpha   89.99243236
_cell_angle_beta   90.02863735
_cell_angle_gamma   90.00481132
_symmetry_Int_Tables_number   1
_chemical_formula_structural   Pr5Ho4Er11Bi12
_chemical_formula_sum   'Pr5 Ho4 Er11 Bi12'
_cell_volume   936.17231186
_cell_formula_units_Z   1
loop_
 _symmetry_equiv_pos_site_id
 _symmetry_equiv_pos_as_xyz
  1  'x, y, z'
loop_
 _atom_site_type_symbol
 _atom_site_label
 _atom_site_symmetry_multiplicity
 _atom_site_fract_x
 _atom_site_fract_y
 _atom_site_fract_z
 _atom_site_occupancy
  Pr  Pr0  1  0.191229  0.561270  0.439783  1
  Pr  Pr1  1  0.315542  0.250101  0.220011  1
  Pr  Pr2  1  0.816959  0.249600  0.279456  1
  Pr  Pr3  1  0.684062  0.750718  0.780511  1
  Pr  Pr4  1  0.184012  0.751347  0.721076  1
  Ho  Ho5  1  0.353869  0.750772  0.216935  1
  Ho  Ho6  1  0.850872  0.751089  0.281968  1
  Ho  Ho7  1  0.648529  0.250223  0.782684  1
  Ho  Ho8  1  0.148677  0.251108  0.717734  1
  Er  Er9  1  0.691802  0.564934  0.059924  1
  Er  Er10  1  0.191914  0.934611  0.439447  1
  Er  Er11  1  0.307981  0.064822  0.940340  1
  Er  Er12  1  0.809170  0.435007  0.559690  1
  Er  Er13  1  0.308329  0.435164  0.940059  1
  Er  Er14  1  0.806009  0.064587  0.560751  1
  Er  Er15  1  0.691981  0.935412  0.059887  1
  Er  Er16  1  0.476931  0.250341  0.487943  1
  Er  Er17  1  0.976594  0.250354  0.011499  1
  Er  Er18  1  0.524411  0.750149  0.512120  1
  Er  Er19  1  0.023568  0.750355  0.987705  1
  Bi  Bi20  1  0.404080  0.749985  0.962755  1
  Bi  Bi21  1  0.900911  0.753146  0.538875  1
  Bi  Bi22  1  0.595967  0.250240  0.037163  1
  Bi  Bi23  1  0.093571  0.241523  0.463903  1
  Bi  Bi24  1  0.564860  0.991364  0.327776  1
  Bi  Bi25  1  0.063842  0.509636  0.169635  1
  Bi  Bi26  1  0.436158  0.490688  0.673676  1
  Bi  Bi27  1  0.934941  0.010189  0.828252  1
  Bi  Bi28  1  0.435320  0.010081  0.671945  1
  Bi  Bi29  1  0.934532  0.490962  0.828319  1
  Bi  Bi30  1  0.568696  0.509460  0.326878  1
  Bi  Bi31  1  0.064681  0.990761  0.171297  1
