# generated using pymatgen
data_Ac12Ni6Bi
_symmetry_space_group_name_H-M   'P 1'
_cell_length_a   9.21526612
_cell_length_b   9.21526699
_cell_length_c   9.21526700
_cell_angle_alpha   109.47122285
_cell_angle_beta   109.47122476
_cell_angle_gamma   109.47122703
_symmetry_Int_Tables_number   1
_chemical_formula_structural   Ac12Ni6Bi
_chemical_formula_sum   'Ac12 Ni6 Bi1'
_cell_volume   602.42330970
_cell_formula_units_Z   1
loop_
 _symmetry_equiv_pos_site_id
 _symmetry_equiv_pos_as_xyz
  1  'x, y, z'
loop_
 _atom_site_type_symbol
 _atom_site_label
 _atom_site_symmetry_multiplicity
 _atom_site_fract_x
 _atom_site_fract_y
 _atom_site_fract_z
 _atom_site_occupancy
  Ac  Ac0  1  0.815099  0.689431  0.504530  1
  Ac  Ac1  1  0.184901  0.310569  0.495470  1
  Ac  Ac2  1  0.184901  0.689431  0.874332  1
  Ac  Ac3  1  0.815099  0.310569  0.125668  1
  Ac  Ac4  1  0.689431  0.504530  0.815099  1
  Ac  Ac5  1  0.310569  0.495470  0.184901  1
  Ac  Ac6  1  0.689431  0.874332  0.184901  1
  Ac  Ac7  1  0.310569  0.125668  0.815099  1
  Ac  Ac8  1  0.504530  0.815099  0.689431  1
  Ac  Ac9  1  0.495470  0.184901  0.310569  1
  Ac  Ac10  1  0.125668  0.815099  0.310569  1
  Ac  Ac11  1  0.874332  0.184901  0.689431  1
  Ni  Ni12  1  0.881738  0.381738  0.500000  1
  Ni  Ni13  1  0.118262  0.618262  0.500000  1
  Ni  Ni14  1  0.381738  0.500000  0.881738  1
  Ni  Ni15  1  0.618262  0.500000  0.118262  1
  Ni  Ni16  1  0.500000  0.881738  0.381738  1
  Ni  Ni17  1  0.500000  0.118262  0.618262  1
  Bi  Bi18  1  0.000000  0.000000  0.000000  1
