# generated using pymatgen
data_Y7HoTc2(B12Os)2
_symmetry_space_group_name_H-M   'P 1'
_cell_length_a   3.67437000
_cell_length_b   9.16697420
_cell_length_c   11.55864507
_cell_angle_alpha   89.92975920
_cell_angle_beta   90.00000000
_cell_angle_gamma   90.00000000
_symmetry_Int_Tables_number   1
_chemical_formula_structural   Y7HoTc2(B12Os)2
_chemical_formula_sum   'Y7 Ho1 Tc2 B24 Os2'
_cell_volume   389.32787309
_cell_formula_units_Z   1
loop_
 _symmetry_equiv_pos_site_id
 _symmetry_equiv_pos_as_xyz
  1  'x, y, z'
loop_
 _atom_site_type_symbol
 _atom_site_label
 _atom_site_symmetry_multiplicity
 _atom_site_fract_x
 _atom_site_fract_y
 _atom_site_fract_z
 _atom_site_occupancy
  Y  Y0  1  0.000000  0.324790  0.415387  1
  Y  Y1  1  0.000000  0.675184  0.584702  1
  Y  Y2  1  0.000000  0.820820  0.087212  1
  Y  Y3  1  0.000000  0.179224  0.912697  1
  Y  Y4  1  0.000000  0.941564  0.371013  1
  Y  Y5  1  0.000000  0.058419  0.629025  1
  Y  Y6  1  0.000000  0.443641  0.129735  1
  Ho  Ho7  1  0.000000  0.556568  0.869852  1
  Tc  Tc8  1  0.000000  0.638243  0.320364  1
  Tc  Tc9  1  0.000000  0.362021  0.679904  1
  B  B10  1  0.500000  0.553198  0.432830  1
  B  B11  1  0.500000  0.446810  0.567239  1
  B  B12  1  0.500000  0.053754  0.067101  1
  B  B13  1  0.500000  0.946175  0.932864  1
  B  B14  1  0.500000  0.747916  0.418676  1
  B  B15  1  0.500000  0.252111  0.581348  1
  B  B16  1  0.500000  0.248340  0.081495  1
  B  B17  1  0.500000  0.751301  0.918396  1
  B  B18  1  0.500000  0.790837  0.265313  1
  B  B19  1  0.500000  0.209253  0.734701  1
  B  B20  1  0.500000  0.290120  0.234299  1
  B  B21  1  0.500000  0.709596  0.765883  1
  B  B22  1  0.500000  0.631245  0.185494  1
  B  B23  1  0.500000  0.369117  0.814581  1
  B  B24  1  0.500000  0.130745  0.313701  1
  B  B25  1  0.500000  0.869189  0.686353  1
  B  B26  1  0.500000  0.982967  0.211784  1
  B  B27  1  0.500000  0.016976  0.788234  1
  B  B28  1  0.500000  0.482861  0.287824  1
  B  B29  1  0.500000  0.517237  0.712492  1
  B  B30  1  0.500000  0.603379  0.028176  1
  B  B31  1  0.500000  0.396880  0.971277  1
  B  B32  1  0.500000  0.103553  0.470988  1
  B  B33  1  0.500000  0.896442  0.529025  1
  Os  Os34  1  0.000000  0.137207  0.178059  1
  Os  Os35  1  0.000000  0.862316  0.821976  1
