# generated using pymatgen
data_Pa3(GeIr)4
_symmetry_space_group_name_H-M   'P 1'
_cell_length_a   3.97422343
_cell_length_b   4.24392305
_cell_length_c   12.92687900
_cell_angle_alpha   80.55207133
_cell_angle_beta   81.15747031
_cell_angle_gamma   90.00000126
_symmetry_Int_Tables_number   1
_chemical_formula_structural   Pa3(GeIr)4
_chemical_formula_sum   'Pa3 Ge4 Ir4'
_cell_volume   212.44364245
_cell_formula_units_Z   1
loop_
 _symmetry_equiv_pos_site_id
 _symmetry_equiv_pos_as_xyz
  1  'x, y, z'
loop_
 _atom_site_type_symbol
 _atom_site_label
 _atom_site_symmetry_multiplicity
 _atom_site_fract_x
 _atom_site_fract_y
 _atom_site_fract_z
 _atom_site_occupancy
  Pa  Pa0  1  0.000000  0.000000  0.000000  1
  Pa  Pa1  1  0.853403  0.353403  0.293194  1
  Pa  Pa2  1  0.146597  0.646597  0.706806  1
  Ge  Ge3  1  0.693171  0.193171  0.613659  1
  Ge  Ge4  1  0.306829  0.806829  0.386341  1
  Ge  Ge5  1  0.451079  0.451079  0.097842  1
  Ge  Ge6  1  0.548921  0.548921  0.902158  1
  Ir  Ir7  1  0.595409  0.095409  0.809182  1
  Ir  Ir8  1  0.404591  0.904591  0.190818  1
  Ir  Ir9  1  0.252458  0.252458  0.495085  1
  Ir  Ir10  1  0.747542  0.747542  0.504915  1
