# generated using pymatgen
data_Eu2Al20Fe3Pd
_symmetry_space_group_name_H-M   'P 1'
_cell_length_a   6.83804041
_cell_length_b   6.82298364
_cell_length_c   9.08012465
_cell_angle_alpha   90.12315131
_cell_angle_beta   89.94414366
_cell_angle_gamma   97.21261096
_symmetry_Int_Tables_number   1
_chemical_formula_structural   Eu2Al20Fe3Pd
_chemical_formula_sum   'Eu2 Al20 Fe3 Pd1'
_cell_volume   420.28751479
_cell_formula_units_Z   1
loop_
 _symmetry_equiv_pos_site_id
 _symmetry_equiv_pos_as_xyz
  1  'x, y, z'
loop_
 _atom_site_type_symbol
 _atom_site_label
 _atom_site_symmetry_multiplicity
 _atom_site_fract_x
 _atom_site_fract_y
 _atom_site_fract_z
 _atom_site_occupancy
  Eu  Eu0  1  0.879275  0.121182  0.249800  1
  Eu  Eu1  1  0.120725  0.878818  0.750200  1
  Al  Al2  1  0.219763  0.232970  0.495153  1
  Al  Al3  1  0.775894  0.772389  0.000434  1
  Al  Al4  1  0.780237  0.767030  0.504847  1
  Al  Al5  1  0.224106  0.227611  0.999566  1
  Al  Al6  1  0.370981  0.615219  0.551155  1
  Al  Al7  1  0.626303  0.376796  0.047930  1
  Al  Al8  1  0.588800  0.862584  0.756931  1
  Al  Al9  1  0.411200  0.137416  0.243069  1
  Al  Al10  1  0.866291  0.585438  0.248207  1
  Al  Al11  1  0.133709  0.414562  0.751793  1
  Al  Al12  1  0.478755  0.226176  0.760468  1
  Al  Al13  1  0.521245  0.773824  0.239532  1
  Al  Al14  1  0.219839  0.478870  0.248178  1
  Al  Al15  1  0.780161  0.521130  0.751822  1
  Al  Al16  1  0.154118  0.832757  0.397639  1
  Al  Al17  1  0.839732  0.159440  0.904071  1
  Al  Al18  1  0.845882  0.167243  0.602361  1
  Al  Al19  1  0.160268  0.840560  0.095929  1
  Al  Al20  1  0.373697  0.623204  0.952070  1
  Al  Al21  1  0.629019  0.384781  0.448845  1
  Fe  Fe22  1  0.000000  0.500000  0.500000  1
  Fe  Fe23  1  0.000000  0.500000  0.000000  1
  Fe  Fe24  1  0.500000  0.000000  0.000000  1
  Pd  Pd25  1  0.500000  0.000000  0.500000  1
