# generated using pymatgen
data_Mg8B23Os4C
_symmetry_space_group_name_H-M   'P 1'
_cell_length_a   8.88087128
_cell_length_b   10.89952392
_cell_length_c   3.50369800
_cell_angle_alpha   90.00000000
_cell_angle_beta   90.00000000
_cell_angle_gamma   89.51103688
_symmetry_Int_Tables_number   1
_chemical_formula_structural   Mg8B23Os4C
_chemical_formula_sum   'Mg8 B23 Os4 C1'
_cell_volume   339.13604788
_cell_formula_units_Z   1
loop_
 _symmetry_equiv_pos_site_id
 _symmetry_equiv_pos_as_xyz
  1  'x, y, z'
loop_
 _atom_site_type_symbol
 _atom_site_label
 _atom_site_symmetry_multiplicity
 _atom_site_fract_x
 _atom_site_fract_y
 _atom_site_fract_z
 _atom_site_occupancy
  Mg  Mg0  1  0.343811  0.090677  0.000000  1
  Mg  Mg1  1  0.945009  0.130498  0.000000  1
  Mg  Mg2  1  0.445193  0.372009  0.000000  1
  Mg  Mg3  1  0.830475  0.412893  0.000000  1
  Mg  Mg4  1  0.171169  0.585649  0.000000  1
  Mg  Mg5  1  0.552368  0.629356  0.000000  1
  Mg  Mg6  1  0.054627  0.868859  0.000000  1
  Mg  Mg7  1  0.663035  0.911580  0.000000  1
  B  B8  1  0.560224  0.063246  0.500000  1
  B  B9  1  0.761837  0.078377  0.500000  1
  B  B10  1  0.131066  0.172183  0.500000  1
  B  B11  1  0.484957  0.211305  0.500000  1
  B  B12  1  0.799290  0.239445  0.500000  1
  B  B13  1  0.298025  0.254282  0.500000  1
  B  B14  1  0.982730  0.285063  0.500000  1
  B  B15  1  0.632649  0.319962  0.500000  1
  B  B16  1  0.256530  0.416818  0.500000  1
  B  B17  1  0.055910  0.432667  0.500000  1
  B  B18  1  0.591478  0.476298  0.500000  1
  B  B19  1  0.405494  0.524947  0.500000  1
  B  B20  1  0.944163  0.563549  0.500000  1
  B  B21  1  0.742009  0.581022  0.500000  1
  B  B22  1  0.366076  0.682765  0.500000  1
  B  B23  1  0.018690  0.711327  0.500000  1
  B  B24  1  0.701580  0.743732  0.500000  1
  B  B25  1  0.199995  0.763042  0.500000  1
  B  B26  1  0.514521  0.790585  0.500000  1
  B  B27  1  0.870263  0.821605  0.500000  1
  B  B28  1  0.234919  0.926106  0.500000  1
  B  B29  1  0.439495  0.939566  0.500000  1
  B  B30  1  0.916795  0.977234  0.500000  1
  Os  Os31  1  0.646841  0.178501  0.000000  1
  Os  Os32  1  0.144603  0.313945  0.000000  1
  Os  Os33  1  0.855132  0.680941  0.000000  1
  Os  Os34  1  0.351455  0.826530  0.000000  1
  C  C35  1  0.087581  0.023433  0.500000  1
