# generated using pymatgen
data_Y12Ni5Pb
_symmetry_space_group_name_H-M   'P 1'
_cell_length_a   8.39652264
_cell_length_b   8.39652235
_cell_length_c   8.39652275
_cell_angle_alpha   111.66886590
_cell_angle_beta   109.50425635
_cell_angle_gamma   107.27037733
_symmetry_Int_Tables_number   1
_chemical_formula_structural   Y12Ni5Pb
_chemical_formula_sum   'Y12 Ni5 Pb1'
_cell_volume   455.02622574
_cell_formula_units_Z   1
loop_
 _symmetry_equiv_pos_site_id
 _symmetry_equiv_pos_as_xyz
  1  'x, y, z'
loop_
 _atom_site_type_symbol
 _atom_site_label
 _atom_site_symmetry_multiplicity
 _atom_site_fract_x
 _atom_site_fract_y
 _atom_site_fract_z
 _atom_site_occupancy
  Y  Y0  1  0.401857  0.210901  0.190957  1
  Y  Y1  1  0.598143  0.789099  0.809043  1
  Y  Y2  1  0.019944  0.210901  0.809043  1
  Y  Y3  1  0.980056  0.789099  0.190957  1
  Y  Y4  1  0.180750  0.293802  0.474549  1
  Y  Y5  1  0.819250  0.706198  0.525451  1
  Y  Y6  1  0.180750  0.706198  0.886949  1
  Y  Y7  1  0.819250  0.293802  0.113051  1
  Y  Y8  1  0.322391  0.630412  0.308022  1
  Y  Y9  1  0.677609  0.369588  0.691978  1
  Y  Y10  1  0.322391  0.014369  0.691978  1
  Y  Y11  1  0.677609  0.985631  0.308022  1
  Ni  Ni12  1  0.000000  0.000000  0.000000  1
  Ni  Ni13  1  0.363720  0.000000  0.363720  1
  Ni  Ni14  1  0.636280  0.000000  0.636280  1
  Ni  Ni15  1  0.123267  0.623267  0.500000  1
  Ni  Ni16  1  0.876733  0.376733  0.500000  1
  Pb  Pb17  1  0.500000  0.500000  0.000000  1
