# generated using pymatgen
data_Nd15ThCdHg3Ir4
_symmetry_space_group_name_H-M   'P 1'
_cell_length_a   9.94147867
_cell_length_b   9.97674238
_cell_length_c   9.97674312
_cell_angle_alpha   60.04679140
_cell_angle_beta   60.15059470
_cell_angle_gamma   60.15060511
_symmetry_Int_Tables_number   1
_chemical_formula_structural   Nd15ThCdHg3Ir4
_chemical_formula_sum   'Nd15 Th1 Cd1 Hg3 Ir4'
_cell_volume   701.53997617
_cell_formula_units_Z   1
loop_
 _symmetry_equiv_pos_site_id
 _symmetry_equiv_pos_as_xyz
  1  'x, y, z'
loop_
 _atom_site_type_symbol
 _atom_site_label
 _atom_site_symmetry_multiplicity
 _atom_site_fract_x
 _atom_site_fract_y
 _atom_site_fract_z
 _atom_site_occupancy
  Nd  Nd0  1  0.350003  0.349693  0.951252  1
  Nd  Nd1  1  0.350003  0.951252  0.349693  1
  Nd  Nd2  1  0.949689  0.350296  0.350296  1
  Nd  Nd3  1  0.810111  0.190212  0.190212  1
  Nd  Nd4  1  0.189060  0.809172  0.809172  1
  Nd  Nd5  1  0.189361  0.810717  0.189941  1
  Nd  Nd6  1  0.807997  0.190374  0.808267  1
  Nd  Nd7  1  0.189361  0.189941  0.810717  1
  Nd  Nd8  1  0.807997  0.808267  0.190374  1
  Nd  Nd9  1  0.939933  0.562409  0.562409  1
  Nd  Nd10  1  0.559158  0.939738  0.939738  1
  Nd  Nd11  1  0.561735  0.941055  0.562279  1
  Nd  Nd12  1  0.938877  0.559381  0.940129  1
  Nd  Nd13  1  0.561735  0.562279  0.941055  1
  Nd  Nd14  1  0.938877  0.940129  0.559381  1
  Th  Th15  1  0.345025  0.344905  0.344905  1
  Cd  Cd16  1  0.259743  0.579089  0.579089  1
  Hg  Hg17  1  0.582221  0.584128  0.584128  1
  Hg  Hg18  1  0.582005  0.584360  0.247563  1
  Hg  Hg19  1  0.582005  0.247563  0.584360  1
  Ir  Ir20  1  0.142053  0.142302  0.142302  1
  Ir  Ir21  1  0.145956  0.145585  0.571220  1
  Ir  Ir22  1  0.145956  0.571220  0.145585  1
  Ir  Ir23  1  0.571135  0.145931  0.145931  1
