# generated using pymatgen
data_YbEr6Sn23Ir6
_symmetry_space_group_name_H-M   'P 1'
_cell_length_a   9.85424500
_cell_length_b   9.85424481
_cell_length_c   10.07463100
_cell_angle_alpha   90.00000000
_cell_angle_beta   90.00000000
_cell_angle_gamma   120.00000399
_symmetry_Int_Tables_number   1
_chemical_formula_structural   YbEr6Sn23Ir6
_chemical_formula_sum   'Yb1 Er6 Sn23 Ir6'
_cell_volume   847.24002757
_cell_formula_units_Z   1
loop_
 _symmetry_equiv_pos_site_id
 _symmetry_equiv_pos_as_xyz
  1  'x, y, z'
loop_
 _atom_site_type_symbol
 _atom_site_label
 _atom_site_symmetry_multiplicity
 _atom_site_fract_x
 _atom_site_fract_y
 _atom_site_fract_z
 _atom_site_occupancy
  Yb  Yb0  1  0.000000  0.000000  0.000000  1
  Er  Er1  1  0.481500  0.518500  0.306549  1
  Er  Er2  1  0.518500  0.481500  0.693451  1
  Er  Er3  1  0.481500  0.963001  0.306549  1
  Er  Er4  1  0.518500  0.036999  0.693451  1
  Er  Er5  1  0.036999  0.518500  0.306549  1
  Er  Er6  1  0.963001  0.481500  0.693451  1
  Sn  Sn7  1  0.118882  0.881118  0.283729  1
  Sn  Sn8  1  0.881118  0.118882  0.716271  1
  Sn  Sn9  1  0.118882  0.237762  0.283729  1
  Sn  Sn10  1  0.881118  0.762238  0.716271  1
  Sn  Sn11  1  0.762238  0.881118  0.283729  1
  Sn  Sn12  1  0.237762  0.118882  0.716271  1
  Sn  Sn13  1  0.777215  0.222785  0.457314  1
  Sn  Sn14  1  0.222785  0.777215  0.542686  1
  Sn  Sn15  1  0.777215  0.554430  0.457314  1
  Sn  Sn16  1  0.222785  0.445570  0.542686  1
  Sn  Sn17  1  0.445570  0.222785  0.457314  1
  Sn  Sn18  1  0.554430  0.777215  0.542686  1
  Sn  Sn19  1  0.351795  0.000000  0.000000  1
  Sn  Sn20  1  0.648205  0.000000  0.000000  1
  Sn  Sn21  1  0.000000  0.351795  0.000000  1
  Sn  Sn22  1  0.000000  0.648205  0.000000  1
  Sn  Sn23  1  0.648205  0.648205  0.000000  1
  Sn  Sn24  1  0.351795  0.351795  0.000000  1
  Sn  Sn25  1  0.333333  0.666667  0.125019  1
  Sn  Sn26  1  0.666667  0.333333  0.874981  1
  Sn  Sn27  1  0.333333  0.666667  0.826514  1
  Sn  Sn28  1  0.666667  0.333333  0.173486  1
  Sn  Sn29  1  0.000000  0.000000  0.500000  1
  Ir  Ir30  1  0.830016  0.169984  0.200280  1
  Ir  Ir31  1  0.169984  0.830016  0.799720  1
  Ir  Ir32  1  0.830016  0.660034  0.200280  1
  Ir  Ir33  1  0.169984  0.339966  0.799720  1
  Ir  Ir34  1  0.339966  0.169984  0.200280  1
  Ir  Ir35  1  0.660034  0.830016  0.799720  1
