# generated using pymatgen
data_YLu(FeOs)2
_symmetry_space_group_name_H-M   'P 1'
_cell_length_a   5.20841571
_cell_length_b   5.25898417
_cell_length_c   5.25898430
_cell_angle_alpha   59.62000384
_cell_angle_beta   60.31758499
_cell_angle_gamma   60.31758018
_symmetry_Int_Tables_number   1
_chemical_formula_structural   YLu(FeOs)2
_chemical_formula_sum   'Y1 Lu1 Fe2 Os2'
_cell_volume   102.04412937
_cell_formula_units_Z   1
loop_
 _symmetry_equiv_pos_site_id
 _symmetry_equiv_pos_as_xyz
  1  'x, y, z'
loop_
 _atom_site_type_symbol
 _atom_site_label
 _atom_site_symmetry_multiplicity
 _atom_site_fract_x
 _atom_site_fract_y
 _atom_site_fract_z
 _atom_site_occupancy
  Y  Y0  1  0.997915  0.002085  0.002085  1
  Lu  Lu1  1  0.252432  0.247568  0.247568  1
  Fe  Fe2  1  0.125245  0.625016  0.625016  1
  Fe  Fe3  1  0.624723  0.625016  0.625016  1
  Os  Os4  1  0.624842  0.624975  0.125340  1
  Os  Os5  1  0.624842  0.125340  0.624975  1
