# generated using pymatgen
data_PrDy9(Pb3Cl)2
_symmetry_space_group_name_H-M   'P 1'
_cell_length_a   9.25799529
_cell_length_b   9.25799459
_cell_length_c   6.63817300
_cell_angle_alpha   90.00000000
_cell_angle_beta   90.00000000
_cell_angle_gamma   119.98763840
_symmetry_Int_Tables_number   1
_chemical_formula_structural   PrDy9(Pb3Cl)2
_chemical_formula_sum   'Pr1 Dy9 Pb6 Cl2'
_cell_volume   492.79598419
_cell_formula_units_Z   1
loop_
 _symmetry_equiv_pos_site_id
 _symmetry_equiv_pos_as_xyz
  1  'x, y, z'
loop_
 _atom_site_type_symbol
 _atom_site_label
 _atom_site_symmetry_multiplicity
 _atom_site_fract_x
 _atom_site_fract_y
 _atom_site_fract_z
 _atom_site_occupancy
  Pr  Pr0  1  0.260111  0.260111  0.750000  1
  Dy  Dy1  1  0.261222  0.999282  0.250000  1
  Dy  Dy2  1  0.741459  0.001472  0.750000  1
  Dy  Dy3  1  0.999282  0.261222  0.250000  1
  Dy  Dy4  1  0.001472  0.741459  0.750000  1
  Dy  Dy5  1  0.738173  0.738173  0.250000  1
  Dy  Dy6  1  0.333522  0.667305  0.000737  1
  Dy  Dy7  1  0.667305  0.333522  0.000737  1
  Dy  Dy8  1  0.667305  0.333522  0.499263  1
  Dy  Dy9  1  0.333522  0.667305  0.499263  1
  Pb  Pb10  1  0.611333  0.000169  0.250000  1
  Pb  Pb11  1  0.391130  0.996107  0.750000  1
  Pb  Pb12  1  0.000169  0.611333  0.250000  1
  Pb  Pb13  1  0.996107  0.391130  0.750000  1
  Pb  Pb14  1  0.389057  0.389057  0.250000  1
  Pb  Pb15  1  0.616082  0.616082  0.750000  1
  Cl  Cl16  1  0.996376  0.996376  0.004294  1
  Cl  Cl17  1  0.996376  0.996376  0.495706  1
