# generated using pymatgen
data_LiLa19Si15Br
_symmetry_space_group_name_H-M   'P 1'
_cell_length_a   8.00992842
_cell_length_b   8.12619764
_cell_length_c   15.64713600
_cell_angle_alpha   89.52227802
_cell_angle_beta   84.26174860
_cell_angle_gamma   89.61738724
_symmetry_Int_Tables_number   1
_chemical_formula_structural   LiLa19Si15Br
_chemical_formula_sum   'Li1 La19 Si15 Br1'
_cell_volume   1013.31992572
_cell_formula_units_Z   1
loop_
 _symmetry_equiv_pos_site_id
 _symmetry_equiv_pos_as_xyz
  1  'x, y, z'
loop_
 _atom_site_type_symbol
 _atom_site_label
 _atom_site_symmetry_multiplicity
 _atom_site_fract_x
 _atom_site_fract_y
 _atom_site_fract_z
 _atom_site_occupancy
  Li  Li0  1  0.190200  0.513056  0.747431  1
  La  La1  1  0.899138  0.332999  0.621449  1
  La  La2  1  0.467789  0.689104  0.892169  1
  La  La3  1  0.976193  0.800948  0.892012  1
  La  La4  1  0.172742  0.683143  0.121211  1
  La  La5  1  0.671595  0.815903  0.120007  1
  La  La6  1  0.329828  0.190627  0.876498  1
  La  La7  1  0.122596  0.670595  0.386378  1
  La  La8  1  0.026505  0.186112  0.104446  1
  La  La9  1  0.377187  0.174273  0.615763  1
  La  La10  1  0.817229  0.494698  0.238682  1
  La  La11  1  0.316155  0.001346  0.250901  1
  La  La12  1  0.462629  0.311587  0.392602  1
  La  La13  1  0.840141  0.323664  0.876989  1
  La  La14  1  0.035933  0.822526  0.611376  1
  La  La15  1  0.506892  0.683576  0.615498  1
  La  La16  1  0.974450  0.166264  0.392796  1
  La  La17  1  0.611985  0.841416  0.387029  1
  La  La18  1  0.681939  0.997139  0.746073  1
  La  La19  1  0.523681  0.309421  0.103501  1
  Si  Si20  1  0.434746  0.602023  0.254168  1
  Si  Si21  1  0.207453  0.378713  0.250547  1
  Si  Si22  1  0.569762  0.401768  0.749414  1
  Si  Si23  1  0.638158  0.025223  0.956364  1
  Si  Si24  1  0.060747  0.092179  0.752312  1
  Si  Si25  1  0.781068  0.621854  0.751188  1
  Si  Si26  1  0.707381  0.117445  0.249913  1
  Si  Si27  1  0.273570  0.984134  0.452957  1
  Si  Si28  1  0.933167  0.894871  0.252326  1
  Si  Si29  1  0.366704  0.976961  0.039214  1
  Si  Si30  1  0.727895  0.018791  0.545779  1
  Si  Si31  1  0.141286  0.472157  0.963560  1
  Si  Si32  1  0.228070  0.488894  0.544129  1
  Si  Si33  1  0.866457  0.521619  0.041010  1
  Si  Si34  1  0.289166  0.886409  0.753424  1
  Br  Br35  1  0.769561  0.508564  0.450881  1
