# generated using pymatgen
data_Dy8Ta11TiGe16
_symmetry_space_group_name_H-M   'P 1'
_cell_length_a   7.02297728
_cell_length_b   7.12891282
_cell_length_c   13.64700500
_cell_angle_alpha   89.99991963
_cell_angle_beta   89.96539235
_cell_angle_gamma   89.95900271
_symmetry_Int_Tables_number   1
_chemical_formula_structural   Dy8Ta11TiGe16
_chemical_formula_sum   'Dy8 Ta11 Ti1 Ge16'
_cell_volume   683.25328405
_cell_formula_units_Z   1
loop_
 _symmetry_equiv_pos_site_id
 _symmetry_equiv_pos_as_xyz
  1  'x, y, z'
loop_
 _atom_site_type_symbol
 _atom_site_label
 _atom_site_symmetry_multiplicity
 _atom_site_fract_x
 _atom_site_fract_y
 _atom_site_fract_z
 _atom_site_occupancy
  Dy  Dy0  1  0.494036  0.672932  0.594185  1
  Dy  Dy1  1  0.993582  0.826801  0.905954  1
  Dy  Dy2  1  0.506646  0.326402  0.093796  1
  Dy  Dy3  1  0.006462  0.173590  0.406013  1
  Dy  Dy4  1  0.505849  0.327240  0.405344  1
  Dy  Dy5  1  0.005858  0.173590  0.094105  1
  Dy  Dy6  1  0.494157  0.673005  0.905611  1
  Dy  Dy7  1  0.995390  0.824758  0.594228  1
  Ta  Ta8  1  0.158557  0.330426  0.873119  1
  Ta  Ta9  1  0.341856  0.830219  0.126602  1
  Ta  Ta10  1  0.841106  0.669689  0.373609  1
  Ta  Ta11  1  0.342122  0.831023  0.373452  1
  Ta  Ta12  1  0.841774  0.669336  0.126810  1
  Ta  Ta13  1  0.656409  0.170255  0.872731  1
  Ta  Ta14  1  0.159055  0.331166  0.627006  1
  Ta  Ta15  1  0.835584  0.485694  0.751050  1
  Ta  Ta16  1  0.333193  0.014604  0.750842  1
  Ta  Ta17  1  0.165417  0.515463  0.249928  1
  Ta  Ta18  1  0.665237  0.984609  0.250272  1
  Ti  Ti19  1  0.658574  0.169056  0.626181  1
  Ge  Ge20  1  0.677020  0.961989  0.459093  1
  Ge  Ge21  1  0.177349  0.539556  0.041581  1
  Ge  Ge22  1  0.322584  0.038947  0.958243  1
  Ge  Ge23  1  0.821857  0.457571  0.542805  1
  Ge  Ge24  1  0.323265  0.039759  0.542470  1
  Ge  Ge25  1  0.823194  0.460402  0.958030  1
  Ge  Ge26  1  0.676994  0.960422  0.041626  1
  Ge  Ge27  1  0.176114  0.540279  0.458293  1
  Ge  Ge28  1  0.460759  0.377514  0.747850  1
  Ge  Ge29  1  0.956874  0.121175  0.748891  1
  Ge  Ge30  1  0.541067  0.620135  0.250102  1
  Ge  Ge31  1  0.040990  0.879960  0.250351  1
  Ge  Ge32  1  0.693167  0.860354  0.749084  1
  Ge  Ge33  1  0.194009  0.641675  0.750506  1
  Ge  Ge34  1  0.306868  0.142165  0.250082  1
  Ge  Ge35  1  0.807025  0.358237  0.250155  1
