# generated using pymatgen
data_Sc2TiCo8MoP6
_symmetry_space_group_name_H-M   'P 1'
_cell_length_a   3.62043200
_cell_length_b   10.32048000
_cell_length_c   11.81494200
_cell_angle_alpha   90.00000000
_cell_angle_beta   90.00000000
_cell_angle_gamma   90.00000000
_symmetry_Int_Tables_number   1
_chemical_formula_structural   Sc2TiCo8MoP6
_chemical_formula_sum   'Sc4 Ti2 Co16 Mo2 P12'
_cell_volume   441.46053515
_cell_formula_units_Z   2
loop_
 _symmetry_equiv_pos_site_id
 _symmetry_equiv_pos_as_xyz
  1  'x, y, z'
loop_
 _atom_site_type_symbol
 _atom_site_label
 _atom_site_symmetry_multiplicity
 _atom_site_fract_x
 _atom_site_fract_y
 _atom_site_fract_z
 _atom_site_occupancy
  Sc  Sc0  1  0.250000  0.582221  0.706700  1
  Sc  Sc1  1  0.250000  0.917779  0.206700  1
  Sc  Sc2  1  0.750000  0.417796  0.293197  1
  Sc  Sc3  1  0.750000  0.082204  0.793197  1
  Ti  Ti4  1  0.750000  0.294235  0.009966  1
  Ti  Ti5  1  0.750000  0.205765  0.509966  1
  Co  Co6  1  0.250000  0.406355  0.486211  1
  Co  Co7  1  0.250000  0.093645  0.986211  1
  Co  Co8  1  0.750000  0.592673  0.513074  1
  Co  Co9  1  0.750000  0.907327  0.013074  1
  Co  Co10  1  0.250000  0.220174  0.175687  1
  Co  Co11  1  0.250000  0.279827  0.675687  1
  Co  Co12  1  0.750000  0.777184  0.821745  1
  Co  Co13  1  0.750000  0.722816  0.321745  1
  Co  Co14  1  0.250000  0.887439  0.702191  1
  Co  Co15  1  0.250000  0.612561  0.202191  1
  Co  Co16  1  0.750000  0.113615  0.299084  1
  Co  Co17  1  0.750000  0.386385  0.799084  1
  Co  Co18  1  0.250000  0.463862  0.933493  1
  Co  Co19  1  0.250000  0.036138  0.433493  1
  Co  Co20  1  0.750000  0.535324  0.068794  1
  Co  Co21  1  0.750000  0.964676  0.568794  1
  Mo  Mo22  1  0.250000  0.709779  0.988467  1
  Mo  Mo23  1  0.250000  0.790221  0.488467  1
  P  P24  1  0.250000  0.420681  0.119054  1
  P  P25  1  0.250000  0.079319  0.619054  1
  P  P26  1  0.750000  0.578734  0.882911  1
  P  P27  1  0.750000  0.921266  0.382911  1
  P  P28  1  0.250000  0.264528  0.861181  1
  P  P29  1  0.250000  0.235472  0.361181  1
  P  P30  1  0.750000  0.736672  0.136453  1
  P  P31  1  0.750000  0.763328  0.636453  1
  P  P32  1  0.250000  0.592952  0.389419  1
  P  P33  1  0.250000  0.907048  0.889419  1
  P  P34  1  0.750000  0.411015  0.612372  1
  P  P35  1  0.750000  0.088985  0.112372  1
