# generated using pymatgen
data_DyHo4(In2Ni)2
_symmetry_space_group_name_H-M   'P 1'
_cell_length_a   3.55074900
_cell_length_b   8.03934600
_cell_length_c   17.90978400
_cell_angle_alpha   90.00000000
_cell_angle_beta   90.00000000
_cell_angle_gamma   90.00000000
_symmetry_Int_Tables_number   1
_chemical_formula_structural   DyHo4(In2Ni)2
_chemical_formula_sum   'Dy2 Ho8 In8 Ni4'
_cell_volume   511.24731701
_cell_formula_units_Z   2
loop_
 _symmetry_equiv_pos_site_id
 _symmetry_equiv_pos_as_xyz
  1  'x, y, z'
loop_
 _atom_site_type_symbol
 _atom_site_label
 _atom_site_symmetry_multiplicity
 _atom_site_fract_x
 _atom_site_fract_y
 _atom_site_fract_z
 _atom_site_occupancy
  Dy  Dy0  1  0.500000  0.500000  0.000000  1
  Dy  Dy1  1  0.500000  0.000000  0.500000  1
  Ho  Ho2  1  0.500000  0.382266  0.588148  1
  Ho  Ho3  1  0.500000  0.882266  0.911852  1
  Ho  Ho4  1  0.500000  0.117734  0.088148  1
  Ho  Ho5  1  0.500000  0.755564  0.720635  1
  Ho  Ho6  1  0.500000  0.255564  0.779365  1
  Ho  Ho7  1  0.500000  0.744436  0.220635  1
  Ho  Ho8  1  0.500000  0.244436  0.279365  1
  Ho  Ho9  1  0.500000  0.617734  0.411852  1
  In  In10  1  0.000000  0.796282  0.068555  1
  In  In11  1  0.000000  0.925810  0.347145  1
  In  In12  1  0.000000  0.074190  0.652855  1
  In  In13  1  0.000000  0.574190  0.847145  1
  In  In14  1  0.000000  0.703718  0.568555  1
  In  In15  1  0.000000  0.203718  0.931445  1
  In  In16  1  0.000000  0.296282  0.431445  1
  In  In17  1  0.000000  0.425810  0.152855  1
  Ni  Ni18  1  0.000000  0.976731  0.803589  1
  Ni  Ni19  1  0.000000  0.523269  0.303589  1
  Ni  Ni20  1  0.000000  0.476731  0.696411  1
  Ni  Ni21  1  0.000000  0.023269  0.196411  1
