# generated using pymatgen
data_Dy17Y3(Cd3Ir)2
_symmetry_space_group_name_H-M   'P 1'
_cell_length_a   9.64249900
_cell_length_b   9.64249954
_cell_length_c   9.85566600
_cell_angle_alpha   90.00000000
_cell_angle_beta   90.00000000
_cell_angle_gamma   119.99999472
_symmetry_Int_Tables_number   1
_chemical_formula_structural   Dy17Y3(Cd3Ir)2
_chemical_formula_sum   'Dy17 Y3 Cd6 Ir2'
_cell_volume   793.58940535
_cell_formula_units_Z   1
loop_
 _symmetry_equiv_pos_site_id
 _symmetry_equiv_pos_as_xyz
  1  'x, y, z'
loop_
 _atom_site_type_symbol
 _atom_site_label
 _atom_site_symmetry_multiplicity
 _atom_site_fract_x
 _atom_site_fract_y
 _atom_site_fract_z
 _atom_site_occupancy
  Dy  Dy0  1  0.000000  0.000000  0.500135  1
  Dy  Dy1  1  0.000000  0.000000  0.999865  1
  Dy  Dy2  1  0.541903  0.458097  0.250000  1
  Dy  Dy3  1  0.541903  0.083806  0.250000  1
  Dy  Dy4  1  0.916194  0.458097  0.250000  1
  Dy  Dy5  1  0.209159  0.790841  0.439614  1
  Dy  Dy6  1  0.209159  0.418319  0.439614  1
  Dy  Dy7  1  0.581681  0.790841  0.439614  1
  Dy  Dy8  1  0.790818  0.209182  0.560182  1
  Dy  Dy9  1  0.790818  0.581636  0.560182  1
  Dy  Dy10  1  0.418364  0.209182  0.560182  1
  Dy  Dy11  1  0.790818  0.209182  0.939818  1
  Dy  Dy12  1  0.790818  0.581636  0.939818  1
  Dy  Dy13  1  0.418364  0.209182  0.939818  1
  Dy  Dy14  1  0.209159  0.790841  0.060386  1
  Dy  Dy15  1  0.209159  0.418319  0.060386  1
  Dy  Dy16  1  0.581681  0.790841  0.060386  1
  Y  Y17  1  0.458223  0.541777  0.750000  1
  Y  Y18  1  0.458223  0.916445  0.750000  1
  Y  Y19  1  0.083555  0.541777  0.750000  1
  Cd  Cd20  1  0.885318  0.114682  0.250000  1
  Cd  Cd21  1  0.885318  0.770637  0.250000  1
  Cd  Cd22  1  0.229363  0.114682  0.250000  1
  Cd  Cd23  1  0.114790  0.885210  0.750000  1
  Cd  Cd24  1  0.114790  0.229579  0.750000  1
  Cd  Cd25  1  0.770421  0.885210  0.750000  1
  Ir  Ir26  1  0.333333  0.666667  0.250000  1
  Ir  Ir27  1  0.666667  0.333333  0.750000  1
