# generated using pymatgen
data_Nd6Al2SiS14
_symmetry_space_group_name_H-M   'P 1'
_cell_length_a   10.08482800
_cell_length_b   10.08482793
_cell_length_c   5.91426000
_cell_angle_alpha   90.00000000
_cell_angle_beta   90.00000000
_cell_angle_gamma   120.00001337
_symmetry_Int_Tables_number   1
_chemical_formula_structural   Nd6Al2SiS14
_chemical_formula_sum   'Nd6 Al2 Si1 S14'
_cell_volume   520.91633222
_cell_formula_units_Z   1
loop_
 _symmetry_equiv_pos_site_id
 _symmetry_equiv_pos_as_xyz
  1  'x, y, z'
loop_
 _atom_site_type_symbol
 _atom_site_label
 _atom_site_symmetry_multiplicity
 _atom_site_fract_x
 _atom_site_fract_y
 _atom_site_fract_z
 _atom_site_occupancy
  Nd  Nd0  1  0.802830  0.698434  0.523003  1
  Nd  Nd1  1  0.895604  0.197170  0.523003  1
  Nd  Nd2  1  0.301566  0.104396  0.523003  1
  Nd  Nd3  1  0.523353  0.965398  0.040531  1
  Nd  Nd4  1  0.442045  0.476647  0.040531  1
  Nd  Nd5  1  0.034602  0.557955  0.040531  1
  Al  Al6  1  0.666667  0.333333  0.315555  1
  Al  Al7  1  0.333333  0.666667  0.452520  1
  Si  Si8  1  0.000000  0.000000  0.943021  1
  S  S9  1  0.000000  0.000000  0.301988  1
  S  S10  1  0.333333  0.666667  0.827181  1
  S  S11  1  0.081393  0.857471  0.804444  1
  S  S12  1  0.776078  0.918607  0.804444  1
  S  S13  1  0.142529  0.223922  0.804444  1
  S  S14  1  0.242341  0.812658  0.305107  1
  S  S15  1  0.570315  0.757659  0.305107  1
  S  S16  1  0.187342  0.429685  0.305107  1
  S  S17  1  0.905320  0.482610  0.543200  1
  S  S18  1  0.577292  0.094680  0.543200  1
  S  S19  1  0.517390  0.422708  0.543200  1
  S  S20  1  0.433211  0.192821  0.084298  1
  S  S21  1  0.759609  0.566789  0.084298  1
  S  S22  1  0.807179  0.240391  0.084298  1
