# generated using pymatgen
data_TbPr2In5
_symmetry_space_group_name_H-M   'P 1'
_cell_length_a   6.58152582
_cell_length_b   6.58152665
_cell_length_c   10.55849500
_cell_angle_alpha   90.00000000
_cell_angle_beta   90.00000000
_cell_angle_gamma   102.61958581
_symmetry_Int_Tables_number   1
_chemical_formula_structural   TbPr2In5
_chemical_formula_sum   'Tb2 Pr4 In10'
_cell_volume   446.30815143
_cell_formula_units_Z   2
loop_
 _symmetry_equiv_pos_site_id
 _symmetry_equiv_pos_as_xyz
  1  'x, y, z'
loop_
 _atom_site_type_symbol
 _atom_site_label
 _atom_site_symmetry_multiplicity
 _atom_site_fract_x
 _atom_site_fract_y
 _atom_site_fract_z
 _atom_site_occupancy
  Tb  Tb0  1  0.628026  0.628026  0.250000  1
  Tb  Tb1  1  0.371974  0.371974  0.750000  1
  Pr  Pr2  1  0.203802  0.796198  0.500000  1
  Pr  Pr3  1  0.203802  0.796198  0.000000  1
  Pr  Pr4  1  0.796198  0.203802  0.500000  1
  Pr  Pr5  1  0.796198  0.203802  0.000000  1
  In  In6  1  0.010792  0.010792  0.250000  1
  In  In7  1  0.989208  0.989208  0.750000  1
  In  In8  1  0.312735  0.312735  0.048295  1
  In  In9  1  0.687265  0.687265  0.951705  1
  In  In10  1  0.312735  0.312735  0.451705  1
  In  In11  1  0.687265  0.687265  0.548295  1
  In  In12  1  0.501186  0.071708  0.250000  1
  In  In13  1  0.928292  0.498814  0.750000  1
  In  In14  1  0.498814  0.928292  0.750000  1
  In  In15  1  0.071708  0.501186  0.250000  1
