# generated using pymatgen
data_CsNa8(GaP2)3
_symmetry_space_group_name_H-M   'P 1'
_cell_length_a   4.74266600
_cell_length_b   16.48672900
_cell_length_c   22.45069500
_cell_angle_alpha   90.00000000
_cell_angle_beta   90.00000000
_cell_angle_gamma   90.00000000
_symmetry_Int_Tables_number   1
_chemical_formula_structural   CsNa8(GaP2)3
_chemical_formula_sum   'Cs4 Na32 Ga12 P24'
_cell_volume   1755.44339461
_cell_formula_units_Z   4
loop_
 _symmetry_equiv_pos_site_id
 _symmetry_equiv_pos_as_xyz
  1  'x, y, z'
loop_
 _atom_site_type_symbol
 _atom_site_label
 _atom_site_symmetry_multiplicity
 _atom_site_fract_x
 _atom_site_fract_y
 _atom_site_fract_z
 _atom_site_occupancy
  Cs  Cs0  1  0.250000  0.807880  0.499739  1
  Cs  Cs1  1  0.250000  0.692120  0.999739  1
  Cs  Cs2  1  0.750000  0.192120  0.500261  1
  Cs  Cs3  1  0.750000  0.307880  0.000261  1
  Na  Na4  1  0.250000  0.032152  0.552473  1
  Na  Na5  1  0.250000  0.467848  0.052473  1
  Na  Na6  1  0.750000  0.967848  0.447527  1
  Na  Na7  1  0.750000  0.532152  0.947527  1
  Na  Na8  1  0.250000  0.351539  0.557186  1
  Na  Na9  1  0.250000  0.148461  0.057186  1
  Na  Na10  1  0.750000  0.648461  0.442814  1
  Na  Na11  1  0.750000  0.851539  0.942814  1
  Na  Na12  1  0.250000  0.921895  0.680793  1
  Na  Na13  1  0.250000  0.578105  0.180793  1
  Na  Na14  1  0.750000  0.078105  0.319207  1
  Na  Na15  1  0.750000  0.421895  0.819207  1
  Na  Na16  1  0.250000  0.692525  0.680947  1
  Na  Na17  1  0.250000  0.807475  0.180947  1
  Na  Na18  1  0.750000  0.307475  0.319053  1
  Na  Na19  1  0.750000  0.192525  0.819053  1
  Na  Na20  1  0.250000  0.457175  0.691981  1
  Na  Na21  1  0.250000  0.042825  0.191981  1
  Na  Na22  1  0.750000  0.542825  0.308019  1
  Na  Na23  1  0.750000  0.957175  0.808019  1
  Na  Na24  1  0.250000  0.799705  0.836894  1
  Na  Na25  1  0.250000  0.700295  0.336894  1
  Na  Na26  1  0.750000  0.200295  0.163106  1
  Na  Na27  1  0.750000  0.299705  0.663106  1
  Na  Na28  1  0.250000  0.580416  0.840208  1
  Na  Na29  1  0.250000  0.919584  0.340208  1
  Na  Na30  1  0.750000  0.419584  0.159792  1
  Na  Na31  1  0.750000  0.080416  0.659792  1
  Na  Na32  1  0.250000  0.943773  0.039877  1
  Na  Na33  1  0.250000  0.556227  0.539877  1
  Na  Na34  1  0.750000  0.056227  0.960123  1
  Na  Na35  1  0.750000  0.443773  0.460123  1
  Ga  Ga36  1  0.250000  0.190667  0.717376  1
  Ga  Ga37  1  0.250000  0.309333  0.217376  1
  Ga  Ga38  1  0.750000  0.809333  0.282624  1
  Ga  Ga39  1  0.750000  0.690667  0.782624  1
  Ga  Ga40  1  0.250000  0.068397  0.864143  1
  Ga  Ga41  1  0.250000  0.431603  0.364143  1
  Ga  Ga42  1  0.750000  0.931603  0.135857  1
  Ga  Ga43  1  0.750000  0.568397  0.635857  1
  Ga  Ga44  1  0.250000  0.309881  0.872411  1
  Ga  Ga45  1  0.250000  0.190119  0.372411  1
  Ga  Ga46  1  0.750000  0.690119  0.127589  1
  Ga  Ga47  1  0.750000  0.809881  0.627589  1
  P  P48  1  0.250000  0.192281  0.617039  1
  P  P49  1  0.250000  0.307719  0.117039  1
  P  P50  1  0.750000  0.807719  0.382961  1
  P  P51  1  0.750000  0.692281  0.882961  1
  P  P52  1  0.250000  0.063357  0.761297  1
  P  P53  1  0.250000  0.436643  0.261297  1
  P  P54  1  0.750000  0.936643  0.238703  1
  P  P55  1  0.750000  0.563357  0.738703  1
  P  P56  1  0.250000  0.313762  0.768075  1
  P  P57  1  0.250000  0.186238  0.268075  1
  P  P58  1  0.750000  0.686238  0.231925  1
  P  P59  1  0.750000  0.813762  0.731925  1
  P  P60  1  0.250000  0.945227  0.910364  1
  P  P61  1  0.250000  0.554773  0.410364  1
  P  P62  1  0.750000  0.054773  0.089636  1
  P  P63  1  0.750000  0.445227  0.589636  1
  P  P64  1  0.250000  0.435583  0.915489  1
  P  P65  1  0.250000  0.064417  0.415489  1
  P  P66  1  0.750000  0.564417  0.084511  1
  P  P67  1  0.750000  0.935583  0.584511  1
  P  P68  1  0.250000  0.184001  0.923137  1
  P  P69  1  0.250000  0.315999  0.423137  1
  P  P70  1  0.750000  0.815999  0.076863  1
  P  P71  1  0.750000  0.684001  0.576863  1
