# generated using pymatgen
data_Dy4Mn13Co3(TcP3)4
_symmetry_space_group_name_H-M   'P 1'
_cell_length_a   3.70009600
_cell_length_b   10.54908867
_cell_length_c   12.12131330
_cell_angle_alpha   90.10752718
_cell_angle_beta   90.00000000
_cell_angle_gamma   90.00000000
_symmetry_Int_Tables_number   1
_chemical_formula_structural   Dy4Mn13Co3(TcP3)4
_chemical_formula_sum   'Dy4 Mn13 Co3 Tc4 P12'
_cell_volume   473.12603505
_cell_formula_units_Z   1
loop_
 _symmetry_equiv_pos_site_id
 _symmetry_equiv_pos_as_xyz
  1  'x, y, z'
loop_
 _atom_site_type_symbol
 _atom_site_label
 _atom_site_symmetry_multiplicity
 _atom_site_fract_x
 _atom_site_fract_y
 _atom_site_fract_z
 _atom_site_occupancy
  Dy  Dy0  1  0.250000  0.585921  0.706631  1
  Dy  Dy1  1  0.250000  0.915532  0.207651  1
  Dy  Dy2  1  0.750000  0.415516  0.292105  1
  Dy  Dy3  1  0.750000  0.084148  0.792456  1
  Mn  Mn4  1  0.250000  0.409568  0.493057  1
  Mn  Mn5  1  0.250000  0.088575  0.994138  1
  Mn  Mn6  1  0.750000  0.590364  0.506694  1
  Mn  Mn7  1  0.750000  0.909448  0.006465  1
  Mn  Mn8  1  0.250000  0.214052  0.179390  1
  Mn  Mn9  1  0.250000  0.284401  0.678645  1
  Mn  Mn10  1  0.750000  0.786056  0.820512  1
  Mn  Mn11  1  0.750000  0.715643  0.320785  1
  Mn  Mn12  1  0.250000  0.879587  0.696389  1
  Mn  Mn13  1  0.250000  0.620703  0.197110  1
  Mn  Mn14  1  0.750000  0.120402  0.304100  1
  Mn  Mn15  1  0.750000  0.380250  0.804398  1
  Mn  Mn16  1  0.250000  0.465678  0.933612  1
  Co  Co17  1  0.250000  0.036665  0.435311  1
  Co  Co18  1  0.750000  0.537131  0.066027  1
  Co  Co19  1  0.750000  0.963931  0.564603  1
  Tc  Tc20  1  0.250000  0.708123  0.984947  1
  Tc  Tc21  1  0.250000  0.789770  0.484958  1
  Tc  Tc22  1  0.750000  0.290104  0.014504  1
  Tc  Tc23  1  0.750000  0.210364  0.515830  1
  P  P24  1  0.250000  0.418847  0.112214  1
  P  P25  1  0.250000  0.079111  0.613553  1
  P  P26  1  0.750000  0.581201  0.886414  1
  P  P27  1  0.750000  0.920701  0.386655  1
  P  P28  1  0.250000  0.263233  0.872437  1
  P  P29  1  0.250000  0.233589  0.371338  1
  P  P30  1  0.750000  0.734508  0.127943  1
  P  P31  1  0.750000  0.766899  0.628240  1
  P  P32  1  0.250000  0.594522  0.386470  1
  P  P33  1  0.250000  0.905089  0.886734  1
  P  P34  1  0.750000  0.405802  0.614211  1
  P  P35  1  0.750000  0.094565  0.113474  1
