# generated using pymatgen
data_CePr3TmP12Ru19
_symmetry_space_group_name_H-M   'P 1'
_cell_length_a   12.62950500
_cell_length_b   12.62950461
_cell_length_c   4.01672700
_cell_angle_alpha   90.00000000
_cell_angle_beta   90.00000000
_cell_angle_gamma   119.99999841
_symmetry_Int_Tables_number   1
_chemical_formula_structural   CePr3TmP12Ru19
_chemical_formula_sum   'Ce1 Pr3 Tm1 P12 Ru19'
_cell_volume   554.85001100
_cell_formula_units_Z   1
loop_
 _symmetry_equiv_pos_site_id
 _symmetry_equiv_pos_as_xyz
  1  'x, y, z'
loop_
 _atom_site_type_symbol
 _atom_site_label
 _atom_site_symmetry_multiplicity
 _atom_site_fract_x
 _atom_site_fract_y
 _atom_site_fract_z
 _atom_site_occupancy
  Ce  Ce0  1  0.666667  0.333333  0.000000  1
  Pr  Pr1  1  0.184680  0.184704  0.500000  1
  Pr  Pr2  1  0.815296  0.999976  0.500000  1
  Pr  Pr3  1  0.000024  0.815320  0.500000  1
  Tm  Tm4  1  0.333333  0.666667  0.000000  1
  P  P5  1  0.811082  0.812105  0.000000  1
  P  P6  1  0.187895  0.998977  0.000000  1
  P  P7  1  0.001023  0.188918  0.000000  1
  P  P8  1  0.174505  0.479239  0.500000  1
  P  P9  1  0.520761  0.695265  0.500000  1
  P  P10  1  0.304735  0.825495  0.500000  1
  P  P11  1  0.695674  0.523543  0.500000  1
  P  P12  1  0.827868  0.304326  0.500000  1
  P  P13  1  0.476457  0.172132  0.500000  1
  P  P14  1  0.374377  0.374811  0.000000  1
  P  P15  1  0.625189  0.999565  0.000000  1
  P  P16  1  0.000435  0.625623  0.000000  1
  Ru  Ru17  1  0.553892  0.553987  0.000000  1
  Ru  Ru18  1  0.446013  0.999905  0.000000  1
  Ru  Ru19  1  0.000095  0.446108  0.000000  1
  Ru  Ru20  1  0.712735  0.713617  0.500000  1
  Ru  Ru21  1  0.286383  0.999118  0.500000  1
  Ru  Ru22  1  0.000882  0.287265  0.500000  1
  Ru  Ru23  1  0.185978  0.381723  0.000000  1
  Ru  Ru24  1  0.618277  0.804256  0.000000  1
  Ru  Ru25  1  0.195744  0.814022  0.000000  1
  Ru  Ru26  1  0.804422  0.619513  0.000000  1
  Ru  Ru27  1  0.815091  0.195578  0.000000  1
  Ru  Ru28  1  0.380487  0.184909  0.000000  1
  Ru  Ru29  1  0.367813  0.494827  0.500000  1
  Ru  Ru30  1  0.505173  0.872985  0.500000  1
  Ru  Ru31  1  0.127015  0.632187  0.500000  1
  Ru  Ru32  1  0.874421  0.506535  0.500000  1
  Ru  Ru33  1  0.632114  0.125579  0.500000  1
  Ru  Ru34  1  0.493465  0.367886  0.500000  1
  Ru  Ru35  1  0.000000  0.000000  0.000000  1
