# generated using pymatgen
data_Ce8Cu3Si12Ge
_symmetry_space_group_name_H-M   'P 1'
_cell_length_a   8.10281900
_cell_length_b   8.10281953
_cell_length_c   8.42325300
_cell_angle_alpha   90.00000000
_cell_angle_beta   90.00000000
_cell_angle_gamma   119.99999374
_symmetry_Int_Tables_number   1
_chemical_formula_structural   Ce8Cu3Si12Ge
_chemical_formula_sum   'Ce8 Cu3 Si12 Ge1'
_cell_volume   478.94187328
_cell_formula_units_Z   1
loop_
 _symmetry_equiv_pos_site_id
 _symmetry_equiv_pos_as_xyz
  1  'x, y, z'
loop_
 _atom_site_type_symbol
 _atom_site_label
 _atom_site_symmetry_multiplicity
 _atom_site_fract_x
 _atom_site_fract_y
 _atom_site_fract_z
 _atom_site_occupancy
  Ce  Ce0  1  0.000000  0.000000  0.249828  1
  Ce  Ce1  1  0.000000  0.000000  0.750175  1
  Ce  Ce2  1  0.499173  0.500827  0.247800  1
  Ce  Ce3  1  0.499173  0.998347  0.247800  1
  Ce  Ce4  1  0.001653  0.500827  0.247800  1
  Ce  Ce5  1  0.498629  0.501371  0.752198  1
  Ce  Ce6  1  0.498629  0.997258  0.752198  1
  Ce  Ce7  1  0.002742  0.501371  0.752198  1
  Cu  Cu8  1  0.333333  0.666667  0.499223  1
  Cu  Cu9  1  0.666667  0.333333  0.502733  1
  Cu  Cu10  1  0.666667  0.333333  0.997742  1
  Si  Si11  1  0.168592  0.831408  0.499826  1
  Si  Si12  1  0.168592  0.337185  0.499826  1
  Si  Si13  1  0.662815  0.831408  0.499826  1
  Si  Si14  1  0.831033  0.168967  0.500387  1
  Si  Si15  1  0.831033  0.662066  0.500387  1
  Si  Si16  1  0.337934  0.168967  0.500387  1
  Si  Si17  1  0.829153  0.170847  0.999531  1
  Si  Si18  1  0.829153  0.658304  0.999531  1
  Si  Si19  1  0.341696  0.170847  0.999531  1
  Si  Si20  1  0.160852  0.839148  0.000266  1
  Si  Si21  1  0.160852  0.321705  0.000266  1
  Si  Si22  1  0.678295  0.839148  0.000266  1
  Ge  Ge23  1  0.333333  0.666667  0.000276  1
