# generated using pymatgen
data_NdSm3(Zn4Ru)2
_symmetry_space_group_name_H-M   'P 1'
_cell_length_a   7.06061500
_cell_length_b   7.06061500
_cell_length_c   5.43090400
_cell_angle_alpha   90.00000000
_cell_angle_beta   90.00000000
_cell_angle_gamma   90.00000000
_symmetry_Int_Tables_number   1
_chemical_formula_structural   NdSm3(Zn4Ru)2
_chemical_formula_sum   'Nd1 Sm3 Zn8 Ru2'
_cell_volume   270.74296955
_cell_formula_units_Z   1
loop_
 _symmetry_equiv_pos_site_id
 _symmetry_equiv_pos_as_xyz
  1  'x, y, z'
loop_
 _atom_site_type_symbol
 _atom_site_label
 _atom_site_symmetry_multiplicity
 _atom_site_fract_x
 _atom_site_fract_y
 _atom_site_fract_z
 _atom_site_occupancy
  Nd  Nd0  1  0.000000  0.500000  0.769425  1
  Sm  Sm1  1  0.000000  0.000000  0.000089  1
  Sm  Sm2  1  0.500000  0.000000  0.231989  1
  Sm  Sm3  1  0.500000  0.500000  0.000089  1
  Zn  Zn4  1  0.186643  0.686643  0.296791  1
  Zn  Zn5  1  0.813357  0.686643  0.296791  1
  Zn  Zn6  1  0.813357  0.313357  0.296791  1
  Zn  Zn7  1  0.314554  0.185446  0.702869  1
  Zn  Zn8  1  0.186643  0.313357  0.296791  1
  Zn  Zn9  1  0.685446  0.185446  0.702869  1
  Zn  Zn10  1  0.685446  0.814554  0.702869  1
  Zn  Zn11  1  0.314554  0.814554  0.702869  1
  Ru  Ru12  1  0.500000  0.500000  0.499883  1
  Ru  Ru13  1  0.000000  0.000000  0.499883  1
