# generated using pymatgen
data_ErTm4(SiHg)2
_symmetry_space_group_name_H-M   'P 1'
_cell_length_a   8.66636268
_cell_length_b   8.66636210
_cell_length_c   7.44669034
_cell_angle_alpha   90.03108283
_cell_angle_beta   89.96891481
_cell_angle_gamma   129.20344466
_symmetry_Int_Tables_number   1
_chemical_formula_structural   ErTm4(SiHg)2
_chemical_formula_sum   'Er2 Tm8 Si4 Hg4'
_cell_volume   433.39730363
_cell_formula_units_Z   2
loop_
 _symmetry_equiv_pos_site_id
 _symmetry_equiv_pos_as_xyz
  1  'x, y, z'
loop_
 _atom_site_type_symbol
 _atom_site_label
 _atom_site_symmetry_multiplicity
 _atom_site_fract_x
 _atom_site_fract_y
 _atom_site_fract_z
 _atom_site_occupancy
  Er  Er0  1  0.553868  0.809037  0.175960  1
  Er  Er1  1  0.309037  0.053868  0.324040  1
  Tm  Tm2  1  0.191445  0.446053  0.824475  1
  Tm  Tm3  1  0.946053  0.691445  0.675525  1
  Tm  Tm4  1  0.691567  0.946284  0.675369  1
  Tm  Tm5  1  0.446284  0.191567  0.824631  1
  Tm  Tm6  1  0.808333  0.553736  0.175362  1
  Tm  Tm7  1  0.053736  0.308333  0.324638  1
  Tm  Tm8  1  0.500071  0.499962  0.500194  1
  Tm  Tm9  1  0.999962  0.000071  0.999806  1
  Si  Si10  1  0.620375  0.620273  0.876188  1
  Si  Si11  1  0.120273  0.120375  0.623812  1
  Si  Si12  1  0.879695  0.879496  0.376776  1
  Si  Si13  1  0.379496  0.379695  0.123224  1
  Hg  Hg14  1  0.281869  0.717061  0.500734  1
  Hg  Hg15  1  0.217061  0.781869  0.999266  1
  Hg  Hg16  1  0.718286  0.282592  0.500293  1
  Hg  Hg17  1  0.782592  0.218286  0.999707  1
