# generated using pymatgen
data_Ta4CrFe5Os2
_symmetry_space_group_name_H-M   'P 1'
_cell_length_a   4.83194832
_cell_length_b   4.83194797
_cell_length_c   8.13984900
_cell_angle_alpha   90.00000000
_cell_angle_beta   90.00000000
_cell_angle_gamma   119.51476184
_symmetry_Int_Tables_number   1
_chemical_formula_structural   Ta4CrFe5Os2
_chemical_formula_sum   'Ta4 Cr1 Fe5 Os2'
_cell_volume   165.38431874
_cell_formula_units_Z   1
loop_
 _symmetry_equiv_pos_site_id
 _symmetry_equiv_pos_as_xyz
  1  'x, y, z'
loop_
 _atom_site_type_symbol
 _atom_site_label
 _atom_site_symmetry_multiplicity
 _atom_site_fract_x
 _atom_site_fract_y
 _atom_site_fract_z
 _atom_site_occupancy
  Ta  Ta0  1  0.333364  0.666636  0.431137  1
  Ta  Ta1  1  0.667043  0.332957  0.565702  1
  Ta  Ta2  1  0.667043  0.332957  0.934298  1
  Ta  Ta3  1  0.333364  0.666636  0.068863  1
  Cr  Cr4  1  0.177651  0.822349  0.750000  1
  Fe  Fe5  1  0.170853  0.351425  0.750000  1
  Fe  Fe6  1  0.648575  0.829147  0.750000  1
  Fe  Fe7  1  0.827104  0.172896  0.250000  1
  Fe  Fe8  1  0.826121  0.651952  0.250000  1
  Fe  Fe9  1  0.348048  0.173879  0.250000  1
  Os  Os10  1  0.000417  0.999583  0.500802  1
  Os  Os11  1  0.000417  0.999583  0.999198  1
