# generated using pymatgen
data_Sm8In(CuPd11)2
_symmetry_space_group_name_H-M   'P 1'
_cell_length_a   8.39618700
_cell_length_b   8.45473400
_cell_length_c   8.57219300
_cell_angle_alpha   90.00000000
_cell_angle_beta   90.00000000
_cell_angle_gamma   90.00000000
_symmetry_Int_Tables_number   1
_chemical_formula_structural   Sm8In(CuPd11)2
_chemical_formula_sum   'Sm8 In1 Cu2 Pd22'
_cell_volume   608.51878803
_cell_formula_units_Z   1
loop_
 _symmetry_equiv_pos_site_id
 _symmetry_equiv_pos_as_xyz
  1  'x, y, z'
loop_
 _atom_site_type_symbol
 _atom_site_label
 _atom_site_symmetry_multiplicity
 _atom_site_fract_x
 _atom_site_fract_y
 _atom_site_fract_z
 _atom_site_occupancy
  Sm  Sm0  1  0.250958  0.250036  0.253546  1
  Sm  Sm1  1  0.749042  0.749964  0.746454  1
  Sm  Sm2  1  0.749042  0.749964  0.253546  1
  Sm  Sm3  1  0.749042  0.250036  0.746454  1
  Sm  Sm4  1  0.250958  0.250036  0.746454  1
  Sm  Sm5  1  0.250958  0.749964  0.253546  1
  Sm  Sm6  1  0.250958  0.749964  0.746454  1
  Sm  Sm7  1  0.749042  0.250036  0.253546  1
  In  In8  1  0.000000  0.000000  0.000000  1
  Cu  Cu9  1  0.269544  0.500000  0.000000  1
  Cu  Cu10  1  0.730456  0.500000  0.000000  1
  Pd  Pd11  1  0.000000  0.266460  0.500000  1
  Pd  Pd12  1  0.500000  0.276936  0.000000  1
  Pd  Pd13  1  0.000000  0.733540  0.500000  1
  Pd  Pd14  1  0.500000  0.723064  0.000000  1
  Pd  Pd15  1  0.500000  0.000000  0.267189  1
  Pd  Pd16  1  0.266866  0.000000  0.500000  1
  Pd  Pd17  1  0.500000  0.000000  0.732811  1
  Pd  Pd18  1  0.733134  0.000000  0.500000  1
  Pd  Pd19  1  0.000000  0.500000  0.267962  1
  Pd  Pd20  1  0.000000  0.500000  0.732038  1
  Pd  Pd21  1  0.255848  0.500000  0.500000  1
  Pd  Pd22  1  0.744152  0.500000  0.500000  1
  Pd  Pd23  1  0.500000  0.257264  0.500000  1
  Pd  Pd24  1  0.500000  0.742736  0.500000  1
  Pd  Pd25  1  0.500000  0.500000  0.252789  1
  Pd  Pd26  1  0.500000  0.500000  0.747211  1
  Pd  Pd27  1  0.317225  0.000000  0.000000  1
  Pd  Pd28  1  0.682775  0.000000  0.000000  1
  Pd  Pd29  1  0.000000  0.319969  0.000000  1
  Pd  Pd30  1  0.000000  0.680031  0.000000  1
  Pd  Pd31  1  0.000000  0.000000  0.310026  1
  Pd  Pd32  1  0.000000  0.000000  0.689974  1
