# generated using pymatgen
data_Na4Mo2Se3O16
_symmetry_space_group_name_H-M   'P 1'
_cell_length_a   5.64035500
_cell_length_b   15.70510200
_cell_length_c   15.75738000
_cell_angle_alpha   90.00000000
_cell_angle_beta   90.00000000
_cell_angle_gamma   90.00000000
_symmetry_Int_Tables_number   1
_chemical_formula_structural   Na4Mo2Se3O16
_chemical_formula_sum   'Na16 Mo8 Se12 O64'
_cell_volume   1395.82575956
_cell_formula_units_Z   4
loop_
 _symmetry_equiv_pos_site_id
 _symmetry_equiv_pos_as_xyz
  1  'x, y, z'
loop_
 _atom_site_type_symbol
 _atom_site_label
 _atom_site_symmetry_multiplicity
 _atom_site_fract_x
 _atom_site_fract_y
 _atom_site_fract_z
 _atom_site_occupancy
  Na  Na0  1  0.824475  0.250000  0.157708  1
  Na  Na1  1  0.176649  0.084511  0.497816  1
  Na  Na2  1  0.823351  0.084511  0.997816  1
  Na  Na3  1  0.176649  0.415489  0.497816  1
  Na  Na4  1  0.686684  0.750000  0.996146  1
  Na  Na5  1  0.686684  0.250000  0.503854  1
  Na  Na6  1  0.823351  0.415489  0.997816  1
  Na  Na7  1  0.313316  0.750000  0.496146  1
  Na  Na8  1  0.824475  0.750000  0.342292  1
  Na  Na9  1  0.823351  0.584511  0.502184  1
  Na  Na10  1  0.313316  0.250000  0.003854  1
  Na  Na11  1  0.176649  0.584511  0.002184  1
  Na  Na12  1  0.175525  0.750000  0.842292  1
  Na  Na13  1  0.823351  0.915489  0.502184  1
  Na  Na14  1  0.176649  0.915489  0.002184  1
  Na  Na15  1  0.175525  0.250000  0.657708  1
  Mo  Mo16  1  0.353294  0.412048  0.831348  1
  Mo  Mo17  1  0.646706  0.912048  0.168652  1
  Mo  Mo18  1  0.353294  0.587952  0.668652  1
  Mo  Mo19  1  0.353294  0.912048  0.668652  1
  Mo  Mo20  1  0.646706  0.587952  0.168652  1
  Mo  Mo21  1  0.353294  0.087952  0.831348  1
  Mo  Mo22  1  0.646706  0.087952  0.331348  1
  Mo  Mo23  1  0.646706  0.412048  0.331348  1
  Se  Se24  1  0.242287  0.750000  0.135489  1
  Se  Se25  1  0.757713  0.250000  0.864511  1
  Se  Se26  1  0.242287  0.250000  0.364511  1
  Se  Se27  1  0.331946  0.603331  0.360529  1
  Se  Se28  1  0.668054  0.896669  0.860529  1
  Se  Se29  1  0.331946  0.103331  0.139471  1
  Se  Se30  1  0.668054  0.396669  0.639471  1
  Se  Se31  1  0.757713  0.750000  0.635489  1
  Se  Se32  1  0.668054  0.603331  0.860529  1
  Se  Se33  1  0.668054  0.103331  0.639471  1
  Se  Se34  1  0.331946  0.396669  0.139471  1
  Se  Se35  1  0.331946  0.896669  0.360529  1
  O  O36  1  0.170967  0.164338  0.786195  1
  O  O37  1  0.444062  0.848171  0.909369  1
  O  O38  1  0.560103  0.666840  0.599303  1
  O  O39  1  0.809247  0.552014  0.080415  1
  O  O40  1  0.560103  0.833160  0.599303  1
  O  O41  1  0.190753  0.447986  0.919585  1
  O  O42  1  0.809247  0.947986  0.080415  1
  O  O43  1  0.653788  0.122702  0.744609  1
  O  O44  1  0.346212  0.377298  0.244609  1
  O  O45  1  0.170967  0.664338  0.713805  1
  O  O46  1  0.298660  0.000000  0.750000  1
  O  O47  1  0.444062  0.651829  0.909369  1
  O  O48  1  0.918012  0.143461  0.601793  1
  O  O49  1  0.829033  0.164338  0.286195  1
  O  O50  1  0.081988  0.856539  0.398207  1
  O  O51  1  0.444062  0.348171  0.590631  1
  O  O52  1  0.659905  0.497621  0.878332  1
  O  O53  1  0.918012  0.856539  0.898207  1
  O  O54  1  0.918012  0.356539  0.601793  1
  O  O55  1  0.653788  0.877298  0.755391  1
  O  O56  1  0.439897  0.333160  0.400697  1
  O  O57  1  0.659905  0.997621  0.621668  1
  O  O58  1  0.439897  0.166840  0.400697  1
  O  O59  1  0.346212  0.877298  0.255391  1
  O  O60  1  0.653788  0.377298  0.744609  1
  O  O61  1  0.444062  0.151829  0.590631  1
  O  O62  1  0.190753  0.947986  0.580415  1
  O  O63  1  0.809247  0.052014  0.419585  1
  O  O64  1  0.170967  0.835662  0.713805  1
  O  O65  1  0.298660  0.500000  0.750000  1
  O  O66  1  0.190753  0.552014  0.580415  1
  O  O67  1  0.701340  0.500000  0.250000  1
  O  O68  1  0.555938  0.848171  0.409369  1
  O  O69  1  0.340095  0.997621  0.121668  1
  O  O70  1  0.439897  0.666840  0.099303  1
  O  O71  1  0.659905  0.502379  0.621668  1
  O  O72  1  0.934821  0.250000  0.948369  1
  O  O73  1  0.934821  0.750000  0.551631  1
  O  O74  1  0.829033  0.664338  0.213805  1
  O  O75  1  0.555938  0.348171  0.090631  1
  O  O76  1  0.560103  0.333160  0.900697  1
  O  O77  1  0.081988  0.143461  0.101793  1
  O  O78  1  0.190753  0.052014  0.919585  1
  O  O79  1  0.560103  0.166840  0.900697  1
  O  O80  1  0.065179  0.250000  0.448369  1
  O  O81  1  0.340095  0.002379  0.378332  1
  O  O82  1  0.809247  0.447986  0.419585  1
  O  O83  1  0.829033  0.835662  0.213805  1
  O  O84  1  0.081988  0.643461  0.398207  1
  O  O85  1  0.340095  0.497621  0.378332  1
  O  O86  1  0.081988  0.356539  0.101793  1
  O  O87  1  0.340095  0.502379  0.121668  1
  O  O88  1  0.918012  0.643461  0.898207  1
  O  O89  1  0.555938  0.651829  0.409369  1
  O  O90  1  0.701340  0.000000  0.250000  1
  O  O91  1  0.439897  0.833160  0.099303  1
  O  O92  1  0.346212  0.122702  0.244609  1
  O  O93  1  0.659905  0.002379  0.878332  1
  O  O94  1  0.653788  0.622702  0.755391  1
  O  O95  1  0.065179  0.750000  0.051631  1
  O  O96  1  0.346212  0.622702  0.255391  1
  O  O97  1  0.555938  0.151829  0.090631  1
  O  O98  1  0.829033  0.335662  0.286195  1
  O  O99  1  0.170967  0.335662  0.786195  1
