# generated using pymatgen
data_Li2Nd3MgAg2Ru
_symmetry_space_group_name_H-M   'P 1'
_cell_length_a   7.69984139
_cell_length_b   7.75737930
_cell_length_c   4.04368900
_cell_angle_alpha   90.00000000
_cell_angle_beta   90.00000000
_cell_angle_gamma   119.39484180
_symmetry_Int_Tables_number   1
_chemical_formula_structural   Li2Nd3MgAg2Ru
_chemical_formula_sum   'Li2 Nd3 Mg1 Ag2 Ru1'
_cell_volume   210.43662758
_cell_formula_units_Z   1
loop_
 _symmetry_equiv_pos_site_id
 _symmetry_equiv_pos_as_xyz
  1  'x, y, z'
loop_
 _atom_site_type_symbol
 _atom_site_label
 _atom_site_symmetry_multiplicity
 _atom_site_fract_x
 _atom_site_fract_y
 _atom_site_fract_z
 _atom_site_occupancy
  Li  Li0  1  0.243249  0.998599  0.500000  1
  Li  Li1  1  0.000414  0.244489  0.500000  1
  Nd  Nd2  1  0.566224  0.971156  0.000000  1
  Nd  Nd3  1  0.030609  0.599019  0.000000  1
  Nd  Nd4  1  0.395132  0.425999  0.000000  1
  Mg  Mg5  1  0.753814  0.755145  0.500000  1
  Ag  Ag6  1  0.666829  0.332758  0.500000  1
  Ag  Ag7  1  0.003245  0.003819  0.000000  1
  Ru  Ru8  1  0.340484  0.669016  0.500000  1
