# generated using pymatgen
data_Tm2Co3P7IrRu8
_symmetry_space_group_name_H-M   'P 1'
_cell_length_a   9.28500348
_cell_length_b   9.31249373
_cell_length_c   3.81142300
_cell_angle_alpha   90.00000000
_cell_angle_beta   90.00000000
_cell_angle_gamma   119.80378624
_symmetry_Int_Tables_number   1
_chemical_formula_structural   Tm2Co3P7IrRu8
_chemical_formula_sum   'Tm2 Co3 P7 Ir1 Ru8'
_cell_volume   285.97043344
_cell_formula_units_Z   1
loop_
 _symmetry_equiv_pos_site_id
 _symmetry_equiv_pos_as_xyz
  1  'x, y, z'
loop_
 _atom_site_type_symbol
 _atom_site_label
 _atom_site_symmetry_multiplicity
 _atom_site_fract_x
 _atom_site_fract_y
 _atom_site_fract_z
 _atom_site_occupancy
  Tm  Tm0  1  0.666368  0.332653  0.000000  1
  Tm  Tm1  1  0.000762  0.001146  0.500000  1
  Co  Co2  1  0.490903  0.935224  0.000000  1
  Co  Co3  1  0.061686  0.554603  0.000000  1
  Co  Co4  1  0.446897  0.508279  0.000000  1
  P  P5  1  0.332623  0.665630  0.000000  1
  P  P6  1  0.449502  0.067822  0.500000  1
  P  P7  1  0.930444  0.381584  0.500000  1
  P  P8  1  0.614205  0.543928  0.500000  1
  P  P9  1  0.744368  0.970909  0.000000  1
  P  P10  1  0.037233  0.778051  0.000000  1
  P  P11  1  0.222407  0.256004  0.000000  1
  Ir  Ir12  1  0.764075  0.734133  0.000000  1
  Ru  Ru13  1  0.270330  0.031105  0.000000  1
  Ru  Ru14  1  0.968739  0.240046  0.000000  1
  Ru  Ru15  1  0.715719  0.102437  0.500000  1
  Ru  Ru16  1  0.895477  0.614083  0.500000  1
  Ru  Ru17  1  0.384667  0.281889  0.500000  1
  Ru  Ru18  1  0.545516  0.752752  0.500000  1
  Ru  Ru19  1  0.247043  0.788103  0.500000  1
  Ru  Ru20  1  0.211039  0.459619  0.500000  1
