# generated using pymatgen
data_Yb4In3Au10
_symmetry_space_group_name_H-M   'P 1'
_cell_length_a   8.66227425
_cell_length_b   8.66227446
_cell_length_c   10.09948400
_cell_angle_alpha   90.00000000
_cell_angle_beta   90.00000000
_cell_angle_gamma   71.93199272
_symmetry_Int_Tables_number   1
_chemical_formula_structural   Yb4In3Au10
_chemical_formula_sum   'Yb8 In6 Au20'
_cell_volume   720.44619191
_cell_formula_units_Z   2
loop_
 _symmetry_equiv_pos_site_id
 _symmetry_equiv_pos_as_xyz
  1  'x, y, z'
loop_
 _atom_site_type_symbol
 _atom_site_label
 _atom_site_symmetry_multiplicity
 _atom_site_fract_x
 _atom_site_fract_y
 _atom_site_fract_z
 _atom_site_occupancy
  Yb  Yb0  1  0.302837  0.302837  0.000000  1
  Yb  Yb1  1  0.697163  0.697163  0.000000  1
  Yb  Yb2  1  0.696300  0.303700  0.203659  1
  Yb  Yb3  1  0.196300  0.803700  0.296341  1
  Yb  Yb4  1  0.197163  0.197163  0.500000  1
  Yb  Yb5  1  0.802837  0.802837  0.500000  1
  Yb  Yb6  1  0.803700  0.196300  0.703659  1
  Yb  Yb7  1  0.303700  0.696300  0.796341  1
  In  In8  1  0.000000  0.000000  0.000000  1
  In  In9  1  0.482313  0.017687  0.250000  1
  In  In10  1  0.982312  0.517687  0.250000  1
  In  In11  1  0.500000  0.500000  0.500000  1
  In  In12  1  0.017687  0.482313  0.750000  1
  In  In13  1  0.517687  0.982312  0.750000  1
  Au  Au14  1  0.067982  0.648777  0.010566  1
  Au  Au15  1  0.351223  0.932018  0.010566  1
  Au  Au16  1  0.400325  0.599676  0.095858  1
  Au  Au17  1  0.122010  0.164011  0.210272  1
  Au  Au18  1  0.835988  0.877990  0.210272  1
  Au  Au19  1  0.335989  0.377991  0.289728  1
  Au  Au20  1  0.622009  0.664011  0.289728  1
  Au  Au21  1  0.900325  0.099676  0.404141  1
  Au  Au22  1  0.567982  0.148777  0.489434  1
  Au  Au23  1  0.851223  0.432018  0.489434  1
  Au  Au24  1  0.148777  0.567982  0.510566  1
  Au  Au25  1  0.432018  0.851223  0.510566  1
  Au  Au26  1  0.099676  0.900325  0.595858  1
  Au  Au27  1  0.377991  0.335989  0.710272  1
  Au  Au28  1  0.664011  0.622009  0.710272  1
  Au  Au29  1  0.164011  0.122010  0.789728  1
  Au  Au30  1  0.877990  0.835988  0.789728  1
  Au  Au31  1  0.599676  0.400325  0.904142  1
  Au  Au32  1  0.648777  0.067982  0.989434  1
  Au  Au33  1  0.932018  0.351223  0.989434  1
