# generated using pymatgen
data_Sm2DySn3Hg2
_symmetry_space_group_name_H-M   'P 1'
_cell_length_a   6.50169683
_cell_length_b   6.50169651
_cell_length_c   10.30758600
_cell_angle_alpha   90.00000000
_cell_angle_beta   90.00000000
_cell_angle_gamma   102.94923653
_symmetry_Int_Tables_number   1
_chemical_formula_structural   Sm2DySn3Hg2
_chemical_formula_sum   'Sm4 Dy2 Sn6 Hg4'
_cell_volume   424.64201487
_cell_formula_units_Z   2
loop_
 _symmetry_equiv_pos_site_id
 _symmetry_equiv_pos_as_xyz
  1  'x, y, z'
loop_
 _atom_site_type_symbol
 _atom_site_label
 _atom_site_symmetry_multiplicity
 _atom_site_fract_x
 _atom_site_fract_y
 _atom_site_fract_z
 _atom_site_occupancy
  Sm  Sm0  1  0.795540  0.204460  0.000000  1
  Sm  Sm1  1  0.204460  0.795540  0.000000  1
  Sm  Sm2  1  0.204460  0.795540  0.500000  1
  Sm  Sm3  1  0.795540  0.204460  0.500000  1
  Dy  Dy4  1  0.626003  0.626003  0.250000  1
  Dy  Dy5  1  0.373997  0.373997  0.750000  1
  Sn  Sn6  1  0.065627  0.494883  0.250000  1
  Sn  Sn7  1  0.934373  0.505117  0.750000  1
  Sn  Sn8  1  0.494883  0.065627  0.250000  1
  Sn  Sn9  1  0.505117  0.934373  0.750000  1
  Sn  Sn10  1  0.013812  0.013812  0.250000  1
  Sn  Sn11  1  0.986188  0.986188  0.750000  1
  Hg  Hg12  1  0.314151  0.314151  0.039427  1
  Hg  Hg13  1  0.685849  0.685849  0.960573  1
  Hg  Hg14  1  0.685849  0.685849  0.539427  1
  Hg  Hg15  1  0.314151  0.314151  0.460573  1
