# generated using pymatgen
data_Cs3ScTe3
_symmetry_space_group_name_H-M   'P 1'
_cell_length_a   15.15058800
_cell_length_b   9.46373580
_cell_length_c   12.32448973
_cell_angle_alpha   53.08182878
_cell_angle_beta   90.00000000
_cell_angle_gamma   90.00000000
_symmetry_Int_Tables_number   1
_chemical_formula_structural   Cs3ScTe3
_chemical_formula_sum   'Cs12 Sc4 Te12'
_cell_volume   1412.78592171
_cell_formula_units_Z   4
loop_
 _symmetry_equiv_pos_site_id
 _symmetry_equiv_pos_as_xyz
  1  'x, y, z'
loop_
 _atom_site_type_symbol
 _atom_site_label
 _atom_site_symmetry_multiplicity
 _atom_site_fract_x
 _atom_site_fract_y
 _atom_site_fract_z
 _atom_site_occupancy
  Cs  Cs0  1  0.581467  0.647966  0.110751  1
  Cs  Cs1  1  0.081467  0.352034  0.389249  1
  Cs  Cs2  1  0.418533  0.352034  0.889249  1
  Cs  Cs3  1  0.918533  0.647966  0.610751  1
  Cs  Cs4  1  0.311740  0.870729  0.915691  1
  Cs  Cs5  1  0.811740  0.129271  0.584309  1
  Cs  Cs6  1  0.688260  0.129271  0.084309  1
  Cs  Cs7  1  0.188260  0.870729  0.415691  1
  Cs  Cs8  1  0.873450  0.619636  0.017012  1
  Cs  Cs9  1  0.373450  0.380364  0.482988  1
  Cs  Cs10  1  0.126550  0.380364  0.982988  1
  Cs  Cs11  1  0.626550  0.619636  0.517012  1
  Sc  Sc12  1  0.559560  0.933728  0.659202  1
  Sc  Sc13  1  0.059560  0.066272  0.840798  1
  Sc  Sc14  1  0.440440  0.066272  0.340798  1
  Sc  Sc15  1  0.940440  0.933728  0.159202  1
  Te  Te16  1  0.111037  0.853082  0.118674  1
  Te  Te17  1  0.611037  0.146918  0.381326  1
  Te  Te18  1  0.888963  0.146918  0.881326  1
  Te  Te19  1  0.388963  0.853082  0.618674  1
  Te  Te20  1  0.829904  0.642827  0.311695  1
  Te  Te21  1  0.329904  0.357173  0.188305  1
  Te  Te22  1  0.170096  0.357173  0.688305  1
  Te  Te23  1  0.670096  0.642827  0.811695  1
  Te  Te24  1  0.053416  0.878986  0.734763  1
  Te  Te25  1  0.553416  0.121014  0.765237  1
  Te  Te26  1  0.946584  0.121014  0.265237  1
  Te  Te27  1  0.446584  0.878986  0.234763  1
