# generated using pymatgen
data_LaZnCd2As3
_symmetry_space_group_name_H-M   'P 1'
_cell_length_a   4.36185841
_cell_length_b   4.36161416
_cell_length_c   22.02441800
_cell_angle_alpha   90.00000000
_cell_angle_beta   90.00000000
_cell_angle_gamma   120.04795581
_symmetry_Int_Tables_number   1
_chemical_formula_structural   LaZnCd2As3
_chemical_formula_sum   'La2 Zn2 Cd4 As6'
_cell_volume   362.69687350
_cell_formula_units_Z   2
loop_
 _symmetry_equiv_pos_site_id
 _symmetry_equiv_pos_as_xyz
  1  'x, y, z'
loop_
 _atom_site_type_symbol
 _atom_site_label
 _atom_site_symmetry_multiplicity
 _atom_site_fract_x
 _atom_site_fract_y
 _atom_site_fract_z
 _atom_site_occupancy
  La  La0  1  0.002505  0.001962  0.499900  1
  La  La1  1  0.002505  0.001962  0.000100  1
  Zn  Zn2  1  0.727221  0.365759  0.750000  1
  Zn  Zn3  1  0.362775  0.728147  0.250000  1
  Cd  Cd4  1  0.667044  0.333435  0.127390  1
  Cd  Cd5  1  0.334477  0.667375  0.872735  1
  Cd  Cd6  1  0.334477  0.667375  0.627265  1
  Cd  Cd7  1  0.667044  0.333435  0.372610  1
  As  As8  1  0.668855  0.334844  0.578149  1
  As  As9  1  0.334876  0.668145  0.421667  1
  As  As10  1  0.334876  0.668145  0.078333  1
  As  As11  1  0.668855  0.334844  0.921851  1
  As  As12  1  0.397786  0.700887  0.750000  1
  As  As13  1  0.698005  0.398884  0.250000  1
