# generated using pymatgen
data_NbGeF7
_symmetry_space_group_name_H-M   'P 1'
_cell_length_a   5.74261700
_cell_length_b   9.27213257
_cell_length_c   12.73075600
_cell_angle_alpha   63.91401103
_cell_angle_beta   90.00000000
_cell_angle_gamma   90.00000000
_symmetry_Int_Tables_number   1
_chemical_formula_structural   NbGeF7
_chemical_formula_sum   'Nb4 Ge4 F28'
_cell_volume   608.81502722
_cell_formula_units_Z   4
loop_
 _symmetry_equiv_pos_site_id
 _symmetry_equiv_pos_as_xyz
  1  'x, y, z'
loop_
 _atom_site_type_symbol
 _atom_site_label
 _atom_site_symmetry_multiplicity
 _atom_site_fract_x
 _atom_site_fract_y
 _atom_site_fract_z
 _atom_site_occupancy
  Nb  Nb0  1  0.214615  0.282153  0.459392  1
  Nb  Nb1  1  0.714615  0.717847  0.040608  1
  Nb  Nb2  1  0.785385  0.717847  0.540608  1
  Nb  Nb3  1  0.285385  0.282153  0.959392  1
  Ge  Ge4  1  0.274424  0.864176  0.734499  1
  Ge  Ge5  1  0.774424  0.135824  0.765501  1
  Ge  Ge6  1  0.725576  0.135824  0.265501  1
  Ge  Ge7  1  0.225576  0.864176  0.234499  1
  F  F8  1  0.577247  0.988500  0.731593  1
  F  F9  1  0.077247  0.011500  0.768407  1
  F  F10  1  0.422753  0.011500  0.268407  1
  F  F11  1  0.922753  0.988500  0.231593  1
  F  F12  1  0.379502  0.314071  0.577633  1
  F  F13  1  0.879502  0.685929  0.922367  1
  F  F14  1  0.620498  0.685929  0.422367  1
  F  F15  1  0.120498  0.314071  0.077633  1
  F  F16  1  0.442367  0.223928  0.847231  1
  F  F17  1  0.942367  0.776072  0.652769  1
  F  F18  1  0.557633  0.776072  0.152769  1
  F  F19  1  0.057633  0.223928  0.347231  1
  F  F20  1  0.998431  0.272423  0.884315  1
  F  F21  1  0.498431  0.727577  0.615685  1
  F  F22  1  0.001569  0.727577  0.115685  1
  F  F23  1  0.501569  0.272423  0.384315  1
  F  F24  1  0.243368  0.038801  0.061668  1
  F  F25  1  0.743368  0.961199  0.438332  1
  F  F26  1  0.756632  0.961199  0.938332  1
  F  F27  1  0.256632  0.038801  0.561668  1
  F  F28  1  0.334382  0.503969  0.865876  1
  F  F29  1  0.834382  0.496031  0.634124  1
  F  F30  1  0.665618  0.496031  0.134124  1
  F  F31  1  0.165618  0.503969  0.365876  1
  F  F32  1  0.576835  0.253487  0.042027  1
  F  F33  1  0.076835  0.746513  0.457973  1
  F  F34  1  0.423165  0.746513  0.957973  1
  F  F35  1  0.923165  0.253487  0.542027  1
