# generated using pymatgen
data_Er3Ga2Pt3Au
_symmetry_space_group_name_H-M   'P 1'
_cell_length_a   7.30551495
_cell_length_b   7.30551399
_cell_length_c   3.77967300
_cell_angle_alpha   90.00000000
_cell_angle_beta   90.00000000
_cell_angle_gamma   117.53567657
_symmetry_Int_Tables_number   1
_chemical_formula_structural   Er3Ga2Pt3Au
_chemical_formula_sum   'Er3 Ga2 Pt3 Au1'
_cell_volume   178.87262554
_cell_formula_units_Z   1
loop_
 _symmetry_equiv_pos_site_id
 _symmetry_equiv_pos_as_xyz
  1  'x, y, z'
loop_
 _atom_site_type_symbol
 _atom_site_label
 _atom_site_symmetry_multiplicity
 _atom_site_fract_x
 _atom_site_fract_y
 _atom_site_fract_z
 _atom_site_occupancy
  Er  Er0  1  0.409645  0.409645  0.500000  1
  Er  Er1  1  0.604159  0.989567  0.500000  1
  Er  Er2  1  0.989567  0.604159  0.500000  1
  Ga  Ga3  1  0.261847  0.002734  0.000000  1
  Ga  Ga4  1  0.002734  0.261847  0.000000  1
  Pt  Pt5  1  0.658075  0.308322  0.000000  1
  Pt  Pt6  1  0.308322  0.658075  0.000000  1
  Pt  Pt7  1  0.030430  0.030430  0.500000  1
  Au  Au8  1  0.735221  0.735221  0.000000  1
