# generated using pymatgen
data_YbGaSn5Ir4
_symmetry_space_group_name_H-M   'P 1'
_cell_length_a   6.96607359
_cell_length_b   6.88087169
_cell_length_c   6.88434445
_cell_angle_alpha   119.25134381
_cell_angle_beta   119.66747135
_cell_angle_gamma   91.25783992
_symmetry_Int_Tables_number   1
_chemical_formula_structural   YbGaSn5Ir4
_chemical_formula_sum   'Yb1 Ga1 Sn5 Ir4'
_cell_volume   234.53041996
_cell_formula_units_Z   1
loop_
 _symmetry_equiv_pos_site_id
 _symmetry_equiv_pos_as_xyz
  1  'x, y, z'
loop_
 _atom_site_type_symbol
 _atom_site_label
 _atom_site_symmetry_multiplicity
 _atom_site_fract_x
 _atom_site_fract_y
 _atom_site_fract_z
 _atom_site_occupancy
  Yb  Yb0  1  0.012924  0.001765  0.000000  1
  Ga  Ga1  1  0.463492  0.123534  0.000000  1
  Sn  Sn2  1  0.122233  0.464376  0.000000  1
  Sn  Sn3  1  0.870087  0.876663  0.332003  1
  Sn  Sn4  1  0.499954  0.997110  0.502452  1
  Sn  Sn5  1  0.997502  0.494658  0.497548  1
  Sn  Sn6  1  0.538084  0.544660  0.667997  1
  Ir  Ir7  1  0.756545  0.392295  0.000000  1
  Ir  Ir8  1  0.394232  0.770045  0.000000  1
  Ir  Ir9  1  0.592292  0.587265  0.339634  1
  Ir  Ir10  1  0.252656  0.247630  0.660366  1
