# generated using pymatgen
data_TbGd5Rh18
_symmetry_space_group_name_H-M   'P 1'
_cell_length_a   5.26432300
_cell_length_b   5.26432236
_cell_length_c   17.57218500
_cell_angle_alpha   90.00000000
_cell_angle_beta   90.00000000
_cell_angle_gamma   119.99999775
_symmetry_Int_Tables_number   1
_chemical_formula_structural   TbGd5Rh18
_chemical_formula_sum   'Tb1 Gd5 Rh18'
_cell_volume   421.73671596
_cell_formula_units_Z   1
loop_
 _symmetry_equiv_pos_site_id
 _symmetry_equiv_pos_as_xyz
  1  'x, y, z'
loop_
 _atom_site_type_symbol
 _atom_site_label
 _atom_site_symmetry_multiplicity
 _atom_site_fract_x
 _atom_site_fract_y
 _atom_site_fract_z
 _atom_site_occupancy
  Tb  Tb0  1  0.666667  0.333333  0.250000  1
  Gd  Gd1  1  0.333333  0.666667  0.541772  1
  Gd  Gd2  1  0.666667  0.333333  0.041580  1
  Gd  Gd3  1  0.666667  0.333333  0.458420  1
  Gd  Gd4  1  0.333333  0.666667  0.958228  1
  Gd  Gd5  1  0.333333  0.666667  0.750000  1
  Rh  Rh6  1  0.167138  0.334275  0.126145  1
  Rh  Rh7  1  0.832862  0.665725  0.625998  1
  Rh  Rh8  1  0.665725  0.832862  0.126145  1
  Rh  Rh9  1  0.167138  0.832862  0.126145  1
  Rh  Rh10  1  0.832862  0.167138  0.625998  1
  Rh  Rh11  1  0.334275  0.167138  0.625998  1
  Rh  Rh12  1  0.832862  0.665725  0.874002  1
  Rh  Rh13  1  0.832862  0.167138  0.874002  1
  Rh  Rh14  1  0.334275  0.167138  0.874002  1
  Rh  Rh15  1  0.665725  0.832862  0.373855  1
  Rh  Rh16  1  0.167138  0.832862  0.373855  1
  Rh  Rh17  1  0.167138  0.334275  0.373855  1
  Rh  Rh18  1  0.000000  0.000000  0.250000  1
  Rh  Rh19  1  0.000000  0.000000  0.750000  1
  Rh  Rh20  1  0.333333  0.666667  0.250000  1
  Rh  Rh21  1  0.666667  0.333333  0.750000  1
  Rh  Rh22  1  0.000000  0.000000  0.000023  1
  Rh  Rh23  1  0.000000  0.000000  0.499977  1
