# generated using pymatgen
data_Er6Sc4In5Bi
_symmetry_space_group_name_H-M   'P 1'
_cell_length_a   8.83676907
_cell_length_b   8.83676944
_cell_length_c   6.24401100
_cell_angle_alpha   90.00000000
_cell_angle_beta   90.00000000
_cell_angle_gamma   119.72164716
_symmetry_Int_Tables_number   1
_chemical_formula_structural   Er6Sc4In5Bi
_chemical_formula_sum   'Er6 Sc4 In5 Bi1'
_cell_volume   423.44073877
_cell_formula_units_Z   1
loop_
 _symmetry_equiv_pos_site_id
 _symmetry_equiv_pos_as_xyz
  1  'x, y, z'
loop_
 _atom_site_type_symbol
 _atom_site_label
 _atom_site_symmetry_multiplicity
 _atom_site_fract_x
 _atom_site_fract_y
 _atom_site_fract_z
 _atom_site_occupancy
  Er  Er0  1  0.768294  0.768294  0.750000  1
  Er  Er1  1  0.234777  0.993812  0.750000  1
  Er  Er2  1  0.993812  0.234777  0.750000  1
  Er  Er3  1  0.236386  0.236386  0.250000  1
  Er  Er4  1  0.764043  0.998857  0.250000  1
  Er  Er5  1  0.998857  0.764043  0.250000  1
  Sc  Sc6  1  0.669328  0.333556  0.004072  1
  Sc  Sc7  1  0.333556  0.669328  0.004072  1
  Sc  Sc8  1  0.333556  0.669328  0.495928  1
  Sc  Sc9  1  0.669328  0.333556  0.495928  1
  In  In10  1  0.590703  0.998525  0.750000  1
  In  In11  1  0.998525  0.590703  0.750000  1
  In  In12  1  0.598977  0.598977  0.250000  1
  In  In13  1  0.407755  0.002956  0.250000  1
  In  In14  1  0.002956  0.407755  0.250000  1
  Bi  Bi15  1  0.399146  0.399146  0.750000  1
