# generated using pymatgen
data_DyAgH6Ru
_symmetry_space_group_name_H-M   'P 1'
_cell_length_a   4.89731544
_cell_length_b   4.89731722
_cell_length_c   4.89731800
_cell_angle_alpha   60.00002174
_cell_angle_beta   60.00000974
_cell_angle_gamma   60.00002239
_symmetry_Int_Tables_number   1
_chemical_formula_structural   DyAgH6Ru
_chemical_formula_sum   'Dy1 Ag1 H6 Ru1'
_cell_volume   83.05385560
_cell_formula_units_Z   1
loop_
 _symmetry_equiv_pos_site_id
 _symmetry_equiv_pos_as_xyz
  1  'x, y, z'
loop_
 _atom_site_type_symbol
 _atom_site_label
 _atom_site_symmetry_multiplicity
 _atom_site_fract_x
 _atom_site_fract_y
 _atom_site_fract_z
 _atom_site_occupancy
  Dy  Dy0  1  0.250000  0.250000  0.250000  1
  Ag  Ag1  1  0.750000  0.750000  0.750000  1
  H  H2  1  0.754268  0.754268  0.245732  1
  H  H3  1  0.245732  0.754268  0.245732  1
  H  H4  1  0.754268  0.245732  0.245732  1
  H  H5  1  0.245732  0.245732  0.754268  1
  H  H6  1  0.754268  0.245732  0.754268  1
  H  H7  1  0.245732  0.754268  0.754268  1
  Ru  Ru8  1  0.000000  0.000000  0.000000  1
