# generated using pymatgen
data_BaTiP2Ir
_symmetry_space_group_name_H-M   'P 1'
_cell_length_a   7.15695771
_cell_length_b   7.15695808
_cell_length_c   7.15695837
_cell_angle_alpha   147.55778155
_cell_angle_beta   147.55778625
_cell_angle_gamma   46.53859423
_symmetry_Int_Tables_number   1
_chemical_formula_structural   BaTiP2Ir
_chemical_formula_sum   'Ba1 Ti1 P2 Ir1'
_cell_volume   105.11888582
_cell_formula_units_Z   1
loop_
 _symmetry_equiv_pos_site_id
 _symmetry_equiv_pos_as_xyz
  1  'x, y, z'
loop_
 _atom_site_type_symbol
 _atom_site_label
 _atom_site_symmetry_multiplicity
 _atom_site_fract_x
 _atom_site_fract_y
 _atom_site_fract_z
 _atom_site_occupancy
  Ba  Ba0  1  0.000000  0.000000  0.000000  1
  Ti  Ti1  1  0.250000  0.750000  0.500000  1
  P  P2  1  0.643654  0.643654  0.000000  1
  P  P3  1  0.356346  0.356346  0.000000  1
  Ir  Ir4  1  0.750000  0.250000  0.500000  1
