# generated using pymatgen
data_Tb7DySc12Si15Bi
_symmetry_space_group_name_H-M   'P 1'
_cell_length_a   7.17686592
_cell_length_b   7.42591926
_cell_length_c   14.08459115
_cell_angle_alpha   90.07691557
_cell_angle_beta   88.86254421
_cell_angle_gamma   90.18212219
_symmetry_Int_Tables_number   1
_chemical_formula_structural   Tb7DySc12Si15Bi
_chemical_formula_sum   'Tb7 Dy1 Sc12 Si15 Bi1'
_cell_volume   750.48352753
_cell_formula_units_Z   1
loop_
 _symmetry_equiv_pos_site_id
 _symmetry_equiv_pos_as_xyz
  1  'x, y, z'
loop_
 _atom_site_type_symbol
 _atom_site_label
 _atom_site_symmetry_multiplicity
 _atom_site_fract_x
 _atom_site_fract_y
 _atom_site_fract_z
 _atom_site_occupancy
  Tb  Tb0  1  0.012626  0.176438  0.096770  1
  Tb  Tb1  1  0.987748  0.825002  0.903903  1
  Tb  Tb2  1  0.488374  0.675510  0.903826  1
  Tb  Tb3  1  0.991537  0.831357  0.598542  1
  Tb  Tb4  1  0.512181  0.324589  0.097441  1
  Tb  Tb5  1  0.001169  0.169726  0.398862  1
  Tb  Tb6  1  0.512176  0.318361  0.397567  1
  Dy  Dy7  1  0.510512  0.685862  0.601349  1
  Sc  Sc8  1  0.163252  0.500935  0.756341  1
  Sc  Sc9  1  0.836091  0.499047  0.251289  1
  Sc  Sc10  1  0.336222  0.001490  0.249944  1
  Sc  Sc11  1  0.665500  0.999105  0.751423  1
  Sc  Sc12  1  0.347413  0.156150  0.632127  1
  Sc  Sc13  1  0.660311  0.826909  0.372271  1
  Sc  Sc14  1  0.156455  0.683376  0.369166  1
  Sc  Sc15  1  0.668036  0.823022  0.123923  1
  Sc  Sc16  1  0.824803  0.326073  0.625912  1
  Sc  Sc17  1  0.330169  0.175212  0.875289  1
  Sc  Sc18  1  0.830905  0.323609  0.875594  1
  Sc  Sc19  1  0.169015  0.676483  0.124871  1
  Si  Si20  1  0.035168  0.120275  0.751009  1
  Si  Si21  1  0.961970  0.884223  0.246156  1
  Si  Si22  1  0.462033  0.617282  0.247508  1
  Si  Si23  1  0.534861  0.383479  0.752903  1
  Si  Si24  1  0.288512  0.867877  0.752860  1
  Si  Si25  1  0.711741  0.125431  0.246539  1
  Si  Si26  1  0.210589  0.374621  0.248948  1
  Si  Si27  1  0.792576  0.627457  0.751597  1
  Si  Si28  1  0.814410  0.541566  0.456428  1
  Si  Si29  1  0.333499  0.963379  0.460071  1
  Si  Si30  1  0.844417  0.534536  0.039773  1
  Si  Si31  1  0.667741  0.038534  0.538560  1
  Si  Si32  1  0.154771  0.465275  0.961299  1
  Si  Si33  1  0.654631  0.034766  0.960239  1
  Si  Si34  1  0.343961  0.965962  0.040035  1
  Bi  Bi35  1  0.184621  0.457080  0.539664  1
