# generated using pymatgen
data_Ag3BiPtRh3O14
_symmetry_space_group_name_H-M   'P 1'
_cell_length_a   7.17176973
_cell_length_b   7.17177009
_cell_length_c   7.26060471
_cell_angle_alpha   60.40391379
_cell_angle_beta   60.40391301
_cell_angle_gamma   59.99999703
_symmetry_Int_Tables_number   1
_chemical_formula_structural   Ag3BiPtRh3O14
_chemical_formula_sum   'Ag3 Bi1 Pt1 Rh3 O14'
_cell_volume   265.66546891
_cell_formula_units_Z   1
loop_
 _symmetry_equiv_pos_site_id
 _symmetry_equiv_pos_as_xyz
  1  'x, y, z'
loop_
 _atom_site_type_symbol
 _atom_site_label
 _atom_site_symmetry_multiplicity
 _atom_site_fract_x
 _atom_site_fract_y
 _atom_site_fract_z
 _atom_site_occupancy
  Ag  Ag0  1  0.125000  0.625000  0.125000  1
  Ag  Ag1  1  0.625000  0.125000  0.125000  1
  Ag  Ag2  1  0.125000  0.125000  0.125000  1
  Bi  Bi3  1  0.125000  0.125000  0.625000  1
  Pt  Pt4  1  0.625000  0.625000  0.125000  1
  Rh  Rh5  1  0.625000  0.125000  0.625000  1
  Rh  Rh6  1  0.125000  0.625000  0.625000  1
  Rh  Rh7  1  0.625000  0.625000  0.625000  1
  O  O8  1  0.254566  0.254566  0.236303  1
  O  O9  1  0.995434  0.995434  0.013697  1
  O  O10  1  0.535068  0.954034  0.556864  1
  O  O11  1  0.292082  0.704438  0.299044  1
  O  O12  1  0.545562  0.545562  0.950956  1
  O  O13  1  0.954034  0.535068  0.556864  1
  O  O14  1  0.545562  0.957918  0.950956  1
  O  O15  1  0.954034  0.954034  0.556864  1
  O  O16  1  0.957918  0.545562  0.950956  1
  O  O17  1  0.704438  0.292082  0.299044  1
  O  O18  1  0.295966  0.714932  0.693136  1
  O  O19  1  0.714932  0.295966  0.693136  1
  O  O20  1  0.295966  0.295966  0.693136  1
  O  O21  1  0.704438  0.704438  0.299044  1
