# generated using pymatgen
data_Sm2Y4NiI10
_symmetry_space_group_name_H-M   'P 1'
_cell_length_a   7.73548291
_cell_length_b   9.72609907
_cell_length_c   9.77939067
_cell_angle_alpha   107.26906036
_cell_angle_beta   96.82016911
_cell_angle_gamma   104.94461835
_symmetry_Int_Tables_number   1
_chemical_formula_structural   Sm2Y4NiI10
_chemical_formula_sum   'Sm2 Y4 Ni1 I10'
_cell_volume   663.44642302
_cell_formula_units_Z   1
loop_
 _symmetry_equiv_pos_site_id
 _symmetry_equiv_pos_as_xyz
  1  'x, y, z'
loop_
 _atom_site_type_symbol
 _atom_site_label
 _atom_site_symmetry_multiplicity
 _atom_site_fract_x
 _atom_site_fract_y
 _atom_site_fract_z
 _atom_site_occupancy
  Sm  Sm0  1  0.885383  0.958989  0.238692  1
  Sm  Sm1  1  0.114617  0.041011  0.761308  1
  Y  Y2  1  0.029493  0.719023  0.915401  1
  Y  Y3  1  0.970507  0.280977  0.084599  1
  Y  Y4  1  0.657361  0.877556  0.837794  1
  Y  Y5  1  0.342639  0.122444  0.162206  1
  Ni  Ni6  1  0.000000  0.000000  0.000000  1
  I  I7  1  0.646767  0.548589  0.728033  1
  I  I8  1  0.353233  0.451411  0.271967  1
  I  I9  1  0.733951  0.909822  0.538079  1
  I  I10  1  0.266049  0.090178  0.461921  1
  I  I11  1  0.084254  0.375669  0.821484  1
  I  I12  1  0.915746  0.624331  0.178516  1
  I  I13  1  0.449864  0.814803  0.090718  1
  I  I14  1  0.550136  0.185197  0.909282  1
  I  I15  1  0.223649  0.738389  0.654400  1
  I  I16  1  0.776351  0.261611  0.345600  1
