# generated using pymatgen
data_Tm5Ru4Pb
_symmetry_space_group_name_H-M   'P 1'
_cell_length_a   3.41679800
_cell_length_b   3.41679800
_cell_length_c   17.65786100
_cell_angle_alpha   90.00000000
_cell_angle_beta   90.00000000
_cell_angle_gamma   90.00000000
_symmetry_Int_Tables_number   1
_chemical_formula_structural   Tm5Ru4Pb
_chemical_formula_sum   'Tm5 Ru4 Pb1'
_cell_volume   206.14684962
_cell_formula_units_Z   1
loop_
 _symmetry_equiv_pos_site_id
 _symmetry_equiv_pos_as_xyz
  1  'x, y, z'
loop_
 _atom_site_type_symbol
 _atom_site_label
 _atom_site_symmetry_multiplicity
 _atom_site_fract_x
 _atom_site_fract_y
 _atom_site_fract_z
 _atom_site_occupancy
  Tm  Tm0  1  0.000000  0.000000  0.869820  1
  Tm  Tm1  1  0.000000  0.000000  0.130180  1
  Tm  Tm2  1  0.000000  0.000000  0.313205  1
  Tm  Tm3  1  0.000000  0.000000  0.500000  1
  Tm  Tm4  1  0.000000  0.000000  0.686795  1
  Ru  Ru5  1  0.500000  0.500000  0.215338  1
  Ru  Ru6  1  0.500000  0.500000  0.405369  1
  Ru  Ru7  1  0.500000  0.500000  0.594631  1
  Ru  Ru8  1  0.500000  0.500000  0.784662  1
  Pb  Pb9  1  0.500000  0.500000  0.000000  1
