# generated using pymatgen
data_Pr10Si4HgIr
_symmetry_space_group_name_H-M   'P 1'
_cell_length_a   7.72509520
_cell_length_b   7.72509496
_cell_length_c   9.32007629
_cell_angle_alpha   114.48362687
_cell_angle_beta   114.48362253
_cell_angle_gamma   89.99999476
_symmetry_Int_Tables_number   1
_chemical_formula_structural   Pr10Si4HgIr
_chemical_formula_sum   'Pr10 Si4 Hg1 Ir1'
_cell_volume   450.65200431
_cell_formula_units_Z   1
loop_
 _symmetry_equiv_pos_site_id
 _symmetry_equiv_pos_as_xyz
  1  'x, y, z'
loop_
 _atom_site_type_symbol
 _atom_site_label
 _atom_site_symmetry_multiplicity
 _atom_site_fract_x
 _atom_site_fract_y
 _atom_site_fract_z
 _atom_site_occupancy
  Pr  Pr0  1  0.470604  0.470604  0.941207  1
  Pr  Pr1  1  0.029396  0.029396  0.058793  1
  Pr  Pr2  1  0.944006  0.796910  0.281568  1
  Pr  Pr3  1  0.337562  0.484658  0.281568  1
  Pr  Pr4  1  0.796910  0.337562  0.281568  1
  Pr  Pr5  1  0.484658  0.944006  0.281568  1
  Pr  Pr6  1  0.015342  0.162438  0.718432  1
  Pr  Pr7  1  0.703090  0.555994  0.718432  1
  Pr  Pr8  1  0.162438  0.703090  0.718432  1
  Pr  Pr9  1  0.555994  0.015342  0.718432  1
  Si  Si10  1  0.614916  0.885084  0.000000  1
  Si  Si11  1  0.385084  0.114916  0.000000  1
  Si  Si12  1  0.885084  0.385084  0.000000  1
  Si  Si13  1  0.114916  0.614916  0.000000  1
  Hg  Hg14  1  0.250000  0.250000  0.500000  1
  Ir  Ir15  1  0.750000  0.750000  0.500000  1
