# generated using pymatgen
data_TbLuMnFe11P7
_symmetry_space_group_name_H-M   'P 1'
_cell_length_a   8.96880141
_cell_length_b   8.97225294
_cell_length_c   3.62822000
_cell_angle_alpha   90.00000000
_cell_angle_beta   90.00000000
_cell_angle_gamma   120.05150221
_symmetry_Int_Tables_number   1
_chemical_formula_structural   TbLuMnFe11P7
_chemical_formula_sum   'Tb1 Lu1 Mn1 Fe11 P7'
_cell_volume   252.71704875
_cell_formula_units_Z   1
loop_
 _symmetry_equiv_pos_site_id
 _symmetry_equiv_pos_as_xyz
  1  'x, y, z'
loop_
 _atom_site_type_symbol
 _atom_site_label
 _atom_site_symmetry_multiplicity
 _atom_site_fract_x
 _atom_site_fract_y
 _atom_site_fract_z
 _atom_site_occupancy
  Tb  Tb0  1  0.998678  0.999091  0.500000  1
  Lu  Lu1  1  0.665993  0.333377  0.000000  1
  Mn  Mn2  1  0.217223  0.450742  0.500000  1
  Fe  Fe3  1  0.759503  0.721652  0.000000  1
  Fe  Fe4  1  0.278475  0.037053  0.000000  1
  Fe  Fe5  1  0.962011  0.240442  0.000000  1
  Fe  Fe6  1  0.487553  0.941658  0.000000  1
  Fe  Fe7  1  0.061290  0.547400  0.000000  1
  Fe  Fe8  1  0.453451  0.514077  0.000000  1
  Fe  Fe9  1  0.715429  0.101572  0.500000  1
  Fe  Fe10  1  0.898117  0.614648  0.500000  1
  Fe  Fe11  1  0.384170  0.282364  0.500000  1
  Fe  Fe12  1  0.553191  0.765701  0.500000  1
  Fe  Fe13  1  0.235383  0.784563  0.500000  1
  P  P14  1  0.446368  0.069143  0.500000  1
  P  P15  1  0.923907  0.375391  0.500000  1
  P  P16  1  0.623156  0.553544  0.500000  1
  P  P17  1  0.742259  0.964613  0.000000  1
  P  P18  1  0.035119  0.777182  0.000000  1
  P  P19  1  0.222191  0.254860  0.000000  1
  P  P20  1  0.336531  0.670931  0.000000  1
