# generated using pymatgen
data_Fe3SbBr7O
_symmetry_space_group_name_H-M   'P 1'
_cell_length_a   8.12015111
_cell_length_b   8.23939164
_cell_length_c   8.12015140
_cell_angle_alpha   56.40432722
_cell_angle_beta   55.93345817
_cell_angle_gamma   56.40431694
_symmetry_Int_Tables_number   1
_chemical_formula_structural   Fe3SbBr7O
_chemical_formula_sum   'Fe3 Sb1 Br7 O1'
_cell_volume   350.77908269
_cell_formula_units_Z   1
loop_
 _symmetry_equiv_pos_site_id
 _symmetry_equiv_pos_as_xyz
  1  'x, y, z'
loop_
 _atom_site_type_symbol
 _atom_site_label
 _atom_site_symmetry_multiplicity
 _atom_site_fract_x
 _atom_site_fract_y
 _atom_site_fract_z
 _atom_site_occupancy
  Fe  Fe0  1  0.480395  0.507813  0.027584  1
  Fe  Fe1  1  0.027584  0.507813  0.480395  1
  Fe  Fe2  1  0.500114  0.014952  0.500114  1
  Sb  Sb3  1  0.037625  0.945527  0.037625  1
  Br  Br4  1  0.267292  0.239550  0.267292  1
  Br  Br5  1  0.742478  0.760431  0.261115  1
  Br  Br6  1  0.261115  0.760431  0.742478  1
  Br  Br7  1  0.733428  0.757314  0.733428  1
  Br  Br8  1  0.755607  0.297636  0.755607  1
  Br  Br9  1  0.258702  0.263936  0.725826  1
  Br  Br10  1  0.725826  0.263936  0.258702  1
  O  O11  1  0.209833  0.680662  0.209833  1
