# generated using pymatgen
data_DyHo4(MnB3)2
_symmetry_space_group_name_H-M   'P 1'
_cell_length_a   5.42501910
_cell_length_b   5.42501998
_cell_length_c   8.23913127
_cell_angle_alpha   70.77839310
_cell_angle_beta   70.77838620
_cell_angle_gamma   60.00001373
_symmetry_Int_Tables_number   1
_chemical_formula_structural   DyHo4(MnB3)2
_chemical_formula_sum   'Dy1 Ho4 Mn2 B6'
_cell_volume   194.23184872
_cell_formula_units_Z   1
loop_
 _symmetry_equiv_pos_site_id
 _symmetry_equiv_pos_as_xyz
  1  'x, y, z'
loop_
 _atom_site_type_symbol
 _atom_site_label
 _atom_site_symmetry_multiplicity
 _atom_site_fract_x
 _atom_site_fract_y
 _atom_site_fract_z
 _atom_site_occupancy
  Dy  Dy0  1  0.000000  0.000000  0.000000  1
  Ho  Ho1  1  0.250850  0.250850  0.247450  1
  Ho  Ho2  1  0.749150  0.749150  0.752550  1
  Ho  Ho3  1  0.416349  0.416349  0.750953  1
  Ho  Ho4  1  0.583651  0.583651  0.249047  1
  Mn  Mn5  1  0.114607  0.114607  0.656179  1
  Mn  Mn6  1  0.885393  0.885393  0.343821  1
  B  B7  1  0.166586  0.833414  0.500000  1
  B  B8  1  0.833414  0.500000  0.500000  1
  B  B9  1  0.500000  0.166586  0.500000  1
  B  B10  1  0.166586  0.500000  0.500000  1
  B  B11  1  0.500000  0.833414  0.500000  1
  B  B12  1  0.833414  0.166586  0.500000  1
