# generated using pymatgen
data_Ce3Sm6Tm(Al2Ru3)2
_symmetry_space_group_name_H-M   'P 1'
_cell_length_a   8.53069506
_cell_length_b   8.53069474
_cell_length_c   8.53069496
_cell_angle_alpha   110.22076080
_cell_angle_beta   110.22075847
_cell_angle_gamma   110.22076243
_symmetry_Int_Tables_number   1
_chemical_formula_structural   Ce3Sm6Tm(Al2Ru3)2
_chemical_formula_sum   'Ce3 Sm6 Tm1 Al4 Ru6'
_cell_volume   464.15862160
_cell_formula_units_Z   1
loop_
 _symmetry_equiv_pos_site_id
 _symmetry_equiv_pos_as_xyz
  1  'x, y, z'
loop_
 _atom_site_type_symbol
 _atom_site_label
 _atom_site_symmetry_multiplicity
 _atom_site_fract_x
 _atom_site_fract_y
 _atom_site_fract_z
 _atom_site_occupancy
  Ce  Ce0  1  0.251360  0.199370  0.943451  1
  Ce  Ce1  1  0.943451  0.251360  0.199370  1
  Ce  Ce2  1  0.199370  0.943451  0.251360  1
  Sm  Sm3  1  0.314129  0.565328  0.753447  1
  Sm  Sm4  1  0.753447  0.314129  0.565328  1
  Sm  Sm5  1  0.565328  0.753447  0.314129  1
  Sm  Sm6  1  0.721323  0.506388  0.992409  1
  Sm  Sm7  1  0.992409  0.721323  0.506388  1
  Sm  Sm8  1  0.506388  0.992409  0.721323  1
  Tm  Tm9  1  0.786678  0.786678  0.786678  1
  Al  Al10  1  0.414072  0.414072  0.414072  1
  Al  Al11  1  0.093116  0.495845  0.004733  1
  Al  Al12  1  0.004733  0.093116  0.495845  1
  Al  Al13  1  0.495845  0.004733  0.093116  1
  Ru  Ru14  1  0.910776  0.118994  0.754562  1
  Ru  Ru15  1  0.754562  0.910776  0.118994  1
  Ru  Ru16  1  0.118994  0.754562  0.910776  1
  Ru  Ru17  1  0.220492  0.589155  0.364371  1
  Ru  Ru18  1  0.364371  0.220492  0.589155  1
  Ru  Ru19  1  0.589155  0.364371  0.220492  1
