# generated using pymatgen
data_Hf6Al5ZnIr12
_symmetry_space_group_name_H-M   'P 1'
_cell_length_a   4.27999000
_cell_length_b   6.95134100
_cell_length_c   12.77523800
_cell_angle_alpha   90.00000000
_cell_angle_beta   90.00047866
_cell_angle_gamma   90.00000000
_symmetry_Int_Tables_number   1
_chemical_formula_structural   Hf6Al5ZnIr12
_chemical_formula_sum   'Hf6 Al5 Zn1 Ir12'
_cell_volume   380.08466471
_cell_formula_units_Z   1
loop_
 _symmetry_equiv_pos_site_id
 _symmetry_equiv_pos_as_xyz
  1  'x, y, z'
loop_
 _atom_site_type_symbol
 _atom_site_label
 _atom_site_symmetry_multiplicity
 _atom_site_fract_x
 _atom_site_fract_y
 _atom_site_fract_z
 _atom_site_occupancy
  Hf  Hf0  1  0.999995  0.500000  0.995250  1
  Hf  Hf1  1  0.499937  0.000000  0.167225  1
  Hf  Hf2  1  0.999934  0.500000  0.333346  1
  Hf  Hf3  1  0.499999  0.000000  0.499441  1
  Hf  Hf4  1  0.000066  0.500000  0.671412  1
  Hf  Hf5  1  0.500069  0.000000  0.833332  1
  Al  Al6  1  0.999996  0.000000  0.000650  1
  Al  Al7  1  0.499918  0.500000  0.164964  1
  Al  Al8  1  0.999931  0.000000  0.333321  1
  Al  Al9  1  0.499997  0.500000  0.501718  1
  Al  Al10  1  0.000068  0.000000  0.666025  1
  Zn  Zn11  1  0.500081  0.500000  0.833299  1
  Ir  Ir12  1  0.499993  0.247086  0.001846  1
  Ir  Ir13  1  0.499993  0.752913  0.001846  1
  Ir  Ir14  1  0.999937  0.251801  0.166527  1
  Ir  Ir15  1  0.999937  0.748199  0.166527  1
  Ir  Ir16  1  0.499938  0.252103  0.333349  1
  Ir  Ir17  1  0.499938  0.747896  0.333349  1
  Ir  Ir18  1  0.000000  0.251785  0.500156  1
  Ir  Ir19  1  0.000000  0.748215  0.500156  1
  Ir  Ir20  1  0.500066  0.247076  0.664811  1
  Ir  Ir21  1  0.500066  0.752923  0.664811  1
  Ir  Ir22  1  0.000070  0.241939  0.833319  1
  Ir  Ir23  1  0.000070  0.758061  0.833319  1
