# generated using pymatgen
data_LiYb2AlSi2
_symmetry_space_group_name_H-M   'P 1'
_cell_length_a   4.32742600
_cell_length_b   7.25759300
_cell_length_c   7.88219600
_cell_angle_alpha   90.00000000
_cell_angle_beta   90.00000000
_cell_angle_gamma   90.00000000
_symmetry_Int_Tables_number   1
_chemical_formula_structural   LiYb2AlSi2
_chemical_formula_sum   'Li2 Yb4 Al2 Si4'
_cell_volume   247.55373867
_cell_formula_units_Z   2
loop_
 _symmetry_equiv_pos_site_id
 _symmetry_equiv_pos_as_xyz
  1  'x, y, z'
loop_
 _atom_site_type_symbol
 _atom_site_label
 _atom_site_symmetry_multiplicity
 _atom_site_fract_x
 _atom_site_fract_y
 _atom_site_fract_z
 _atom_site_occupancy
  Li  Li0  1  0.250000  0.149151  0.940599  1
  Li  Li1  1  0.250000  0.649151  0.559401  1
  Yb  Yb2  1  0.250000  0.009180  0.313726  1
  Yb  Yb3  1  0.250000  0.509180  0.186274  1
  Yb  Yb4  1  0.750000  0.992186  0.688338  1
  Yb  Yb5  1  0.750000  0.492186  0.811662  1
  Al  Al6  1  0.750000  0.853635  0.073879  1
  Al  Al7  1  0.750000  0.353635  0.426121  1
  Si  Si8  1  0.250000  0.279579  0.598933  1
  Si  Si9  1  0.250000  0.779579  0.901067  1
  Si  Si10  1  0.750000  0.716268  0.382676  1
  Si  Si11  1  0.750000  0.216268  0.117324  1
