# generated using pymatgen
data_Dy3Ho13Cd4Ir3Os
_symmetry_space_group_name_H-M   'P 1'
_cell_length_a   9.64106857
_cell_length_b   9.64038923
_cell_length_c   9.63920616
_cell_angle_alpha   59.47860377
_cell_angle_beta   59.46750508
_cell_angle_gamma   59.46903811
_symmetry_Int_Tables_number   1
_chemical_formula_structural   Dy3Ho13Cd4Ir3Os
_chemical_formula_sum   'Dy3 Ho13 Cd4 Ir3 Os1'
_cell_volume   625.88655436
_cell_formula_units_Z   1
loop_
 _symmetry_equiv_pos_site_id
 _symmetry_equiv_pos_as_xyz
  1  'x, y, z'
loop_
 _atom_site_type_symbol
 _atom_site_label
 _atom_site_symmetry_multiplicity
 _atom_site_fract_x
 _atom_site_fract_y
 _atom_site_fract_z
 _atom_site_occupancy
  Dy  Dy0  1  0.189109  0.807032  0.189085  1
  Dy  Dy1  1  0.811656  0.811806  0.188075  1
  Dy  Dy2  1  0.188952  0.189111  0.807036  1
  Ho  Ho3  1  0.599565  0.599517  0.599556  1
  Ho  Ho4  1  0.598634  0.598481  0.207085  1
  Ho  Ho5  1  0.598624  0.207008  0.598597  1
  Ho  Ho6  1  0.207059  0.598544  0.598650  1
  Ho  Ho7  1  0.061931  0.438631  0.438777  1
  Ho  Ho8  1  0.437446  0.059872  0.059751  1
  Ho  Ho9  1  0.438737  0.061972  0.438700  1
  Ho  Ho10  1  0.059796  0.437385  0.059778  1
  Ho  Ho11  1  0.438817  0.438638  0.061942  1
  Ho  Ho12  1  0.059710  0.059788  0.437500  1
  Ho  Ho13  1  0.188297  0.811612  0.811465  1
  Ho  Ho14  1  0.806890  0.189269  0.189090  1
  Ho  Ho15  1  0.811616  0.188288  0.811627  1
  Cd  Cd16  1  0.829868  0.829870  0.829728  1
  Cd  Cd17  1  0.830306  0.830473  0.507113  1
  Cd  Cd18  1  0.830297  0.507014  0.830474  1
  Cd  Cd19  1  0.507140  0.830308  0.830326  1
  Ir  Ir20  1  0.393388  0.393404  0.826932  1
  Ir  Ir21  1  0.393248  0.826956  0.393478  1
  Ir  Ir22  1  0.826915  0.393208  0.393427  1
  Os  Os23  1  0.392001  0.391814  0.391809  1
