# generated using pymatgen
data_NdY7(CdNi)2
_symmetry_space_group_name_H-M   'P 1'
_cell_length_a   9.63613908
_cell_length_b   9.63613881
_cell_length_c   9.62913600
_cell_angle_alpha   60.02403690
_cell_angle_beta   60.02403784
_cell_angle_gamma   60.12701761
_symmetry_Int_Tables_number   1
_chemical_formula_structural   NdY7(CdNi)2
_chemical_formula_sum   'Nd2 Y14 Cd4 Ni4'
_cell_volume   633.06978852
_cell_formula_units_Z   2
loop_
 _symmetry_equiv_pos_site_id
 _symmetry_equiv_pos_as_xyz
  1  'x, y, z'
loop_
 _atom_site_type_symbol
 _atom_site_label
 _atom_site_symmetry_multiplicity
 _atom_site_fract_x
 _atom_site_fract_y
 _atom_site_fract_z
 _atom_site_occupancy
  Nd  Nd0  1  0.597987  0.597987  0.599918  1
  Nd  Nd1  1  0.597987  0.597987  0.204107  1
  Y  Y2  1  0.600340  0.198051  0.600805  1
  Y  Y3  1  0.198051  0.600340  0.600805  1
  Y  Y4  1  0.063145  0.438930  0.437278  1
  Y  Y5  1  0.438930  0.063145  0.060647  1
  Y  Y6  1  0.438930  0.063145  0.437278  1
  Y  Y7  1  0.063145  0.438930  0.060647  1
  Y  Y8  1  0.438489  0.438489  0.061511  1
  Y  Y9  1  0.062275  0.062275  0.437725  1
  Y  Y10  1  0.186968  0.813878  0.814161  1
  Y  Y11  1  0.813878  0.186968  0.184993  1
  Y  Y12  1  0.813878  0.186968  0.814161  1
  Y  Y13  1  0.186968  0.813878  0.184993  1
  Y  Y14  1  0.814394  0.814394  0.185606  1
  Y  Y15  1  0.186520  0.186520  0.813480  1
  Cd  Cd16  1  0.832036  0.832036  0.829458  1
  Cd  Cd17  1  0.832036  0.832036  0.506468  1
  Cd  Cd18  1  0.832897  0.505147  0.830978  1
  Cd  Cd19  1  0.505147  0.832897  0.830978  1
  Ni  Ni20  1  0.391228  0.391228  0.395782  1
  Ni  Ni21  1  0.391228  0.391228  0.821762  1
  Ni  Ni22  1  0.389190  0.824351  0.393230  1
  Ni  Ni23  1  0.824351  0.389190  0.393230  1
