# generated using pymatgen
data_Ca3Th(Ga5Ir3)2
_symmetry_space_group_name_H-M   'P 1'
_cell_length_a   8.64368588
_cell_length_b   8.59878152
_cell_length_c   8.59878000
_cell_angle_alpha   140.96057290
_cell_angle_beta   109.04152280
_cell_angle_gamma   84.02318342
_symmetry_Int_Tables_number   1
_chemical_formula_structural   Ca3Th(Ga5Ir3)2
_chemical_formula_sum   'Ca3 Th1 Ga10 Ir6'
_cell_volume   368.36341498
_cell_formula_units_Z   1
loop_
 _symmetry_equiv_pos_site_id
 _symmetry_equiv_pos_as_xyz
  1  'x, y, z'
loop_
 _atom_site_type_symbol
 _atom_site_label
 _atom_site_symmetry_multiplicity
 _atom_site_fract_x
 _atom_site_fract_y
 _atom_site_fract_z
 _atom_site_occupancy
  Ca  Ca0  1  0.587324  0.358072  0.229251  1
  Ca  Ca1  1  0.128722  0.856360  0.272363  1
  Ca  Ca2  1  0.872087  0.145502  0.726585  1
  Th  Th3  1  0.418539  0.643549  0.774991  1
  Ga  Ga4  1  0.737078  0.914831  0.822248  1
  Ga  Ga5  1  0.260899  0.084877  0.176021  1
  Ga  Ga6  1  0.902897  0.584359  0.318539  1
  Ga  Ga7  1  0.090568  0.412254  0.678314  1
  Ga  Ga8  1  0.198958  0.956787  0.747933  1
  Ga  Ga9  1  0.800696  0.544598  0.748589  1
  Ga  Ga10  1  0.800696  0.052108  0.256099  1
  Ga  Ga11  1  0.198958  0.451025  0.242171  1
  Ga  Ga12  1  0.503832  0.755048  0.262645  1
  Ga  Ga13  1  0.503832  0.241188  0.748785  1
  Ir  Ir14  1  0.001607  0.752959  0.751483  1
  Ir  Ir15  1  0.001607  0.250124  0.248648  1
  Ir  Ir16  1  0.438033  0.844300  0.593732  1
  Ir  Ir17  1  0.554942  0.149852  0.405091  1
  Ir  Ir18  1  0.731639  0.648704  0.082934  1
  Ir  Ir19  1  0.267083  0.353505  0.913579  1
