# generated using pymatgen
data_Tb4YbSm2FeI12
_symmetry_space_group_name_H-M   'P 1'
_cell_length_a   9.84255588
_cell_length_b   9.78135277
_cell_length_c   9.78267420
_cell_angle_alpha   106.86047734
_cell_angle_beta   106.81484138
_cell_angle_gamma   107.08600976
_symmetry_Int_Tables_number   1
_chemical_formula_structural   Tb4YbSm2FeI12
_chemical_formula_sum   'Tb4 Yb1 Sm2 Fe1 I12'
_cell_volume   786.04247279
_cell_formula_units_Z   1
loop_
 _symmetry_equiv_pos_site_id
 _symmetry_equiv_pos_as_xyz
  1  'x, y, z'
loop_
 _atom_site_type_symbol
 _atom_site_label
 _atom_site_symmetry_multiplicity
 _atom_site_fract_x
 _atom_site_fract_y
 _atom_site_fract_z
 _atom_site_occupancy
  Tb  Tb0  1  0.301385  0.025018  0.097324  1
  Tb  Tb1  1  0.906571  0.712011  0.974784  1
  Tb  Tb2  1  0.975019  0.905771  0.712736  1
  Tb  Tb3  1  0.697999  0.973905  0.901167  1
  Yb  Yb4  1  0.499954  0.499897  0.499945  1
  Sm  Sm5  1  0.094286  0.290736  0.024512  1
  Sm  Sm6  1  0.024511  0.093628  0.290200  1
  Fe  Fe7  1  0.999837  0.000309  0.000069  1
  I  I8  1  0.459322  0.379561  0.152274  1
  I  I9  1  0.154974  0.461512  0.383333  1
  I  I10  1  0.381077  0.151476  0.457598  1
  I  I11  1  0.544713  0.620631  0.849518  1
  I  I12  1  0.847561  0.543417  0.620866  1
  I  I13  1  0.622687  0.848862  0.542856  1
  I  I14  1  0.773169  0.317457  0.926582  1
  I  I15  1  0.925754  0.770717  0.315822  1
  I  I16  1  0.316336  0.926710  0.773823  1
  I  I17  1  0.223008  0.683161  0.072260  1
  I  I18  1  0.072247  0.222821  0.680496  1
  I  I19  1  0.679591  0.072400  0.223835  1
