# generated using pymatgen
data_TbTi(GaPt)2
_symmetry_space_group_name_H-M   'P 1'
_cell_length_a   7.21161400
_cell_length_b   7.21161233
_cell_length_c   7.21431300
_cell_angle_alpha   90.00000000
_cell_angle_beta   90.00000000
_cell_angle_gamma   120.00000765
_symmetry_Int_Tables_number   1
_chemical_formula_structural   TbTi(GaPt)2
_chemical_formula_sum   'Tb3 Ti3 Ga6 Pt6'
_cell_volume   324.93045952
_cell_formula_units_Z   3
loop_
 _symmetry_equiv_pos_site_id
 _symmetry_equiv_pos_as_xyz
  1  'x, y, z'
loop_
 _atom_site_type_symbol
 _atom_site_label
 _atom_site_symmetry_multiplicity
 _atom_site_fract_x
 _atom_site_fract_y
 _atom_site_fract_z
 _atom_site_occupancy
  Tb  Tb0  1  0.408422  0.408231  0.250000  1
  Tb  Tb1  1  0.999809  0.591578  0.250000  1
  Tb  Tb2  1  0.591769  0.000191  0.250000  1
  Ti  Ti3  1  0.614995  0.999731  0.750000  1
  Ti  Ti4  1  0.384736  0.385005  0.750000  1
  Ti  Ti5  1  0.000269  0.615264  0.750000  1
  Ga  Ga6  1  0.268975  0.000201  0.982059  1
  Ga  Ga7  1  0.268975  0.000201  0.517941  1
  Ga  Ga8  1  0.999799  0.268774  0.517941  1
  Ga  Ga9  1  0.999799  0.268774  0.982059  1
  Ga  Ga10  1  0.731226  0.731025  0.982059  1
  Ga  Ga11  1  0.731226  0.731025  0.517941  1
  Pt  Pt12  1  0.666667  0.333333  0.544029  1
  Pt  Pt13  1  0.000000  0.000000  0.750000  1
  Pt  Pt14  1  0.666667  0.333333  0.955971  1
  Pt  Pt15  1  0.333333  0.666667  0.956573  1
  Pt  Pt16  1  0.333333  0.666667  0.543427  1
  Pt  Pt17  1  0.000000  0.000000  0.250000  1
