# generated using pymatgen
data_Dy20Bi7Pt4Pb
_symmetry_space_group_name_H-M   'P 1'
_cell_length_a   8.07654347
_cell_length_b   9.05165852
_cell_length_c   12.42959289
_cell_angle_alpha   90.03050498
_cell_angle_beta   90.03078712
_cell_angle_gamma   90.02418061
_symmetry_Int_Tables_number   1
_chemical_formula_structural   Dy20Bi7Pt4Pb
_chemical_formula_sum   'Dy20 Bi7 Pt4 Pb1'
_cell_volume   908.67888807
_cell_formula_units_Z   1
loop_
 _symmetry_equiv_pos_site_id
 _symmetry_equiv_pos_as_xyz
  1  'x, y, z'
loop_
 _atom_site_type_symbol
 _atom_site_label
 _atom_site_symmetry_multiplicity
 _atom_site_fract_x
 _atom_site_fract_y
 _atom_site_fract_z
 _atom_site_occupancy
  Dy  Dy0  1  0.836429  0.748630  0.790125  1
  Dy  Dy1  1  0.162248  0.249865  0.209707  1
  Dy  Dy2  1  0.339037  0.251398  0.710655  1
  Dy  Dy3  1  0.661783  0.750019  0.290156  1
  Dy  Dy4  1  0.373085  0.748661  0.698043  1
  Dy  Dy5  1  0.628131  0.250032  0.302740  1
  Dy  Dy6  1  0.870000  0.251409  0.802603  1
  Dy  Dy7  1  0.128581  0.749926  0.197349  1
  Dy  Dy8  1  0.950334  0.750026  0.500039  1
  Dy  Dy9  1  0.050368  0.250107  0.499949  1
  Dy  Dy10  1  0.451199  0.251986  0.998803  1
  Dy  Dy11  1  0.550109  0.747878  0.998962  1
  Dy  Dy12  1  0.679583  0.045232  0.566640  1
  Dy  Dy13  1  0.320654  0.954255  0.433210  1
  Dy  Dy14  1  0.179051  0.954458  0.933202  1
  Dy  Dy15  1  0.320603  0.545601  0.433101  1
  Dy  Dy16  1  0.820804  0.045129  0.066883  1
  Dy  Dy17  1  0.678573  0.454951  0.568321  1
  Dy  Dy18  1  0.819889  0.454878  0.065825  1
  Dy  Dy19  1  0.181138  0.544956  0.932892  1
  Bi  Bi20  1  0.430880  0.509050  0.173288  1
  Bi  Bi21  1  0.068814  0.509068  0.672522  1
  Bi  Bi22  1  0.431256  0.991085  0.172669  1
  Bi  Bi23  1  0.931268  0.490884  0.327316  1
  Bi  Bi24  1  0.568678  0.008810  0.827344  1
  Bi  Bi25  1  0.931130  0.009114  0.327326  1
  Bi  Bi26  1  0.068730  0.991071  0.672760  1
  Pt  Pt27  1  0.574697  0.750176  0.511068  1
  Pt  Pt28  1  0.425152  0.249748  0.488394  1
  Pt  Pt29  1  0.074009  0.249756  0.988761  1
  Pt  Pt30  1  0.925139  0.750431  0.011886  1
  Pb  Pb31  1  0.568648  0.491410  0.827462  1
