# generated using pymatgen
data_CsK(BiPb)2
_symmetry_space_group_name_H-M   'P 1'
_cell_length_a   6.88782685
_cell_length_b   6.88782627
_cell_length_c   6.88782631
_cell_angle_alpha   120.83691736
_cell_angle_beta   118.49914066
_cell_angle_gamma   90.58776304
_symmetry_Int_Tables_number   1
_chemical_formula_structural   CsK(BiPb)2
_chemical_formula_sum   'Cs1 K1 Bi2 Pb2'
_cell_volume   232.09051069
_cell_formula_units_Z   1
loop_
 _symmetry_equiv_pos_site_id
 _symmetry_equiv_pos_as_xyz
  1  'x, y, z'
loop_
 _atom_site_type_symbol
 _atom_site_label
 _atom_site_symmetry_multiplicity
 _atom_site_fract_x
 _atom_site_fract_y
 _atom_site_fract_z
 _atom_site_occupancy
  Cs  Cs0  1  0.002075  0.002075  0.000000  1
  K  K1  1  0.254692  0.754692  0.500000  1
  Bi  Bi2  1  0.634100  0.368176  0.265924  1
  Bi  Bi3  1  0.102254  0.368176  0.734076  1
  Pb  Pb4  1  0.628439  0.368616  0.740177  1
  Pb  Pb5  1  0.628439  0.888262  0.259823  1
