# generated using pymatgen
data_Dy2Ga3Au
_symmetry_space_group_name_H-M   'P 1'
_cell_length_a   4.49617300
_cell_length_b   4.49617272
_cell_length_c   7.23570000
_cell_angle_alpha   90.00000000
_cell_angle_beta   90.00000000
_cell_angle_gamma   119.99999472
_symmetry_Int_Tables_number   1
_chemical_formula_structural   Dy2Ga3Au
_chemical_formula_sum   'Dy2 Ga3 Au1'
_cell_volume   126.67683566
_cell_formula_units_Z   1
loop_
 _symmetry_equiv_pos_site_id
 _symmetry_equiv_pos_as_xyz
  1  'x, y, z'
loop_
 _atom_site_type_symbol
 _atom_site_label
 _atom_site_symmetry_multiplicity
 _atom_site_fract_x
 _atom_site_fract_y
 _atom_site_fract_z
 _atom_site_occupancy
  Dy  Dy0  1  0.333333  0.666667  0.737121  1
  Dy  Dy1  1  0.333333  0.666667  0.257214  1
  Ga  Ga2  1  0.666667  0.333333  0.471362  1
  Ga  Ga3  1  0.666667  0.333333  0.047563  1
  Ga  Ga4  1  0.000000  0.000000  0.953980  1
  Au  Au5  1  0.000000  0.000000  0.532761  1
