# generated using pymatgen
data_Ho9Tm(InSb2)2
_symmetry_space_group_name_H-M   'P 1'
_cell_length_a   8.92995115
_cell_length_b   8.93063488
_cell_length_c   6.41870233
_cell_angle_alpha   89.96352242
_cell_angle_beta   90.01824144
_cell_angle_gamma   120.00252658
_symmetry_Int_Tables_number   1
_chemical_formula_structural   Ho9Tm(InSb2)2
_chemical_formula_sum   'Ho9 Tm1 In2 Sb4'
_cell_volume   443.30041561
_cell_formula_units_Z   1
loop_
 _symmetry_equiv_pos_site_id
 _symmetry_equiv_pos_as_xyz
  1  'x, y, z'
loop_
 _atom_site_type_symbol
 _atom_site_label
 _atom_site_symmetry_multiplicity
 _atom_site_fract_x
 _atom_site_fract_y
 _atom_site_fract_z
 _atom_site_occupancy
  Ho  Ho0  1  0.663425  0.331712  0.500000  1
  Ho  Ho1  1  0.663583  0.331791  0.000000  1
  Ho  Ho2  1  0.334853  0.667427  0.500000  1
  Ho  Ho3  1  0.758784  0.998648  0.749978  1
  Ho  Ho4  1  0.758784  0.760136  0.250022  1
  Ho  Ho5  1  0.002038  0.241796  0.249895  1
  Ho  Ho6  1  0.002038  0.760242  0.750105  1
  Ho  Ho7  1  0.240131  0.236800  0.750136  1
  Ho  Ho8  1  0.240131  0.003331  0.249864  1
  Tm  Tm9  1  0.334857  0.667429  0.000000  1
  In  In10  1  0.395069  0.997596  0.750525  1
  In  In11  1  0.395069  0.397473  0.249475  1
  Sb  Sb12  1  0.999677  0.607368  0.249539  1
  Sb  Sb13  1  0.999677  0.392309  0.750461  1
  Sb  Sb14  1  0.605942  0.606097  0.750440  1
  Sb  Sb15  1  0.605942  0.999845  0.249560  1
