# generated using pymatgen
data_Tb7Ho(ThRh)6
_symmetry_space_group_name_H-M   'P 1'
_cell_length_a   9.90969600
_cell_length_b   9.80453923
_cell_length_c   6.37461647
_cell_angle_alpha   90.14135206
_cell_angle_beta   90.00000000
_cell_angle_gamma   120.35543609
_symmetry_Int_Tables_number   1
_chemical_formula_structural   Tb7Ho(ThRh)6
_chemical_formula_sum   'Tb7 Ho1 Th6 Rh6'
_cell_volume   534.44595633
_cell_formula_units_Z   1
loop_
 _symmetry_equiv_pos_site_id
 _symmetry_equiv_pos_as_xyz
  1  'x, y, z'
loop_
 _atom_site_type_symbol
 _atom_site_label
 _atom_site_symmetry_multiplicity
 _atom_site_fract_x
 _atom_site_fract_y
 _atom_site_fract_z
 _atom_site_occupancy
  Tb  Tb0  1  0.873233  0.746467  0.739899  1
  Tb  Tb1  1  0.538669  0.462642  0.445228  1
  Tb  Tb2  1  0.923973  0.462642  0.445228  1
  Tb  Tb3  1  0.538291  0.076583  0.444398  1
  Tb  Tb4  1  0.461747  0.539815  0.940613  1
  Tb  Tb5  1  0.078068  0.539815  0.940613  1
  Tb  Tb6  1  0.461370  0.922740  0.940824  1
  Ho  Ho7  1  0.332955  0.665911  0.460878  1
  Th  Th8  1  0.666706  0.333411  0.962525  1
  Th  Th9  1  0.127328  0.870159  0.243898  1
  Th  Th10  1  0.742831  0.870159  0.243898  1
  Th  Th11  1  0.128526  0.257053  0.242820  1
  Th  Th12  1  0.870100  0.124526  0.738983  1
  Th  Th13  1  0.254426  0.124526  0.738983  1
  Rh  Rh14  1  0.813897  0.184903  0.191822  1
  Rh  Rh15  1  0.371007  0.184903  0.191822  1
  Rh  Rh16  1  0.814208  0.628414  0.197249  1
  Rh  Rh17  1  0.192452  0.819768  0.690033  1
  Rh  Rh18  1  0.627315  0.819768  0.690033  1
  Rh  Rh19  1  0.182897  0.365795  0.696819  1
