# generated using pymatgen
data_La2YbPa(Ga3Ir)6
_symmetry_space_group_name_H-M   'P 1'
_cell_length_a   7.66899707
_cell_length_b   7.66930121
_cell_length_c   9.55463300
_cell_angle_alpha   90.00000000
_cell_angle_beta   90.00000000
_cell_angle_gamma   119.70385827
_symmetry_Int_Tables_number   1
_chemical_formula_structural   La2YbPa(Ga3Ir)6
_chemical_formula_sum   'La2 Yb1 Pa1 Ga18 Ir6'
_cell_volume   488.12075709
_cell_formula_units_Z   1
loop_
 _symmetry_equiv_pos_site_id
 _symmetry_equiv_pos_as_xyz
  1  'x, y, z'
loop_
 _atom_site_type_symbol
 _atom_site_label
 _atom_site_symmetry_multiplicity
 _atom_site_fract_x
 _atom_site_fract_y
 _atom_site_fract_z
 _atom_site_occupancy
  La  La0  1  0.002098  0.331035  0.750000  1
  La  La1  1  0.331689  0.003399  0.750000  1
  Yb  Yb2  1  0.671245  0.997375  0.250000  1
  Pa  Pa3  1  0.000445  0.670813  0.250000  1
  Ga  Ga4  1  0.129611  0.128296  0.250000  1
  Ga  Ga5  1  0.867661  0.870488  0.750000  1
  Ga  Ga6  1  0.996341  0.328768  0.084879  1
  Ga  Ga7  1  0.996229  0.665013  0.923233  1
  Ga  Ga8  1  0.996229  0.665013  0.576767  1
  Ga  Ga9  1  0.341768  0.003095  0.415323  1
  Ga  Ga10  1  0.996341  0.328768  0.415121  1
  Ga  Ga11  1  0.665193  0.996620  0.570956  1
  Ga  Ga12  1  0.665193  0.996620  0.929044  1
  Ga  Ga13  1  0.341768  0.003095  0.084677  1
  Ga  Ga14  1  0.334059  0.334431  0.557488  1
  Ga  Ga15  1  0.664560  0.669297  0.432603  1
  Ga  Ga16  1  0.664560  0.669297  0.067397  1
  Ga  Ga17  1  0.334059  0.334431  0.942512  1
  Ga  Ga18  1  0.339114  0.546107  0.250000  1
  Ga  Ga19  1  0.661021  0.458105  0.750000  1
  Ga  Ga20  1  0.548243  0.342698  0.250000  1
  Ga  Ga21  1  0.457498  0.663628  0.750000  1
  Ir  Ir22  1  0.673314  0.332708  0.003132  1
  Ir  Ir23  1  0.324863  0.669405  0.004152  1
  Ir  Ir24  1  0.324863  0.669405  0.495848  1
  Ir  Ir25  1  0.673314  0.332708  0.496868  1
  Ir  Ir26  1  0.999361  0.994690  0.005296  1
  Ir  Ir27  1  0.999361  0.994690  0.494704  1
