# generated using pymatgen
data_Rb2AlIn(SiTe4)2
_symmetry_space_group_name_H-M   'P 1'
_cell_length_a   18.84320500
_cell_length_b   7.91691309
_cell_length_c   8.39210111
_cell_angle_alpha   68.99411557
_cell_angle_beta   90.00000000
_cell_angle_gamma   90.00000000
_symmetry_Int_Tables_number   1
_chemical_formula_structural   Rb2AlIn(SiTe4)2
_chemical_formula_sum   'Rb4 Al2 In2 Si4 Te16'
_cell_volume   1168.73478884
_cell_formula_units_Z   2
loop_
 _symmetry_equiv_pos_site_id
 _symmetry_equiv_pos_as_xyz
  1  'x, y, z'
loop_
 _atom_site_type_symbol
 _atom_site_label
 _atom_site_symmetry_multiplicity
 _atom_site_fract_x
 _atom_site_fract_y
 _atom_site_fract_z
 _atom_site_occupancy
  Rb  Rb0  1  0.394088  0.965739  0.186860  1
  Rb  Rb1  1  0.894088  0.034261  0.813140  1
  Rb  Rb2  1  0.601199  0.511188  0.826369  1
  Rb  Rb3  1  0.101199  0.488812  0.173631  1
  Al  Al4  1  0.276476  0.592729  0.706585  1
  Al  Al5  1  0.776476  0.407271  0.293415  1
  In  In6  1  0.585641  0.160000  0.477227  1
  In  In7  1  0.085641  0.840000  0.522773  1
  Si  Si8  1  0.419197  0.325408  0.541519  1
  Si  Si9  1  0.919197  0.674592  0.458481  1
  Si  Si10  1  0.726303  0.905794  0.271172  1
  Si  Si11  1  0.226303  0.094206  0.728828  1
  Te  Te12  1  0.598442  0.860515  0.371682  1
  Te  Te13  1  0.098442  0.139485  0.628318  1
  Te  Te14  1  0.412896  0.602411  0.626645  1
  Te  Te15  1  0.912896  0.397589  0.373355  1
  Te  Te16  1  0.801659  0.779514  0.542466  1
  Te  Te17  1  0.301659  0.220486  0.457534  1
  Te  Te18  1  0.208396  0.717722  0.418548  1
  Te  Te19  1  0.708396  0.282278  0.581452  1
  Te  Te20  1  0.760805  0.225924  0.083652  1
  Te  Te21  1  0.260805  0.774076  0.916348  1
  Te  Te22  1  0.240927  0.268034  0.928321  1
  Te  Te23  1  0.740927  0.731966  0.071679  1
  Te  Te24  1  0.989983  0.920909  0.238112  1
  Te  Te25  1  0.489983  0.079091  0.761888  1
  Te  Te26  1  0.983984  0.595190  0.741684  1
  Te  Te27  1  0.483984  0.404810  0.258316  1
