# generated using pymatgen
data_Ac6Mg7Cd16Sb
_symmetry_space_group_name_H-M   'P 1'
_cell_length_a   10.30909760
_cell_length_b   10.30884953
_cell_length_c   10.30872400
_cell_angle_alpha   60.52300154
_cell_angle_beta   60.52367870
_cell_angle_gamma   60.52397735
_symmetry_Int_Tables_number   1
_chemical_formula_structural   Ac6Mg7Cd16Sb
_chemical_formula_sum   'Ac6 Mg7 Cd16 Sb1'
_cell_volume   783.84193399
_cell_formula_units_Z   1
loop_
 _symmetry_equiv_pos_site_id
 _symmetry_equiv_pos_as_xyz
  1  'x, y, z'
loop_
 _atom_site_type_symbol
 _atom_site_label
 _atom_site_symmetry_multiplicity
 _atom_site_fract_x
 _atom_site_fract_y
 _atom_site_fract_z
 _atom_site_occupancy
  Ac  Ac0  1  0.778309  0.778416  0.222105  1
  Ac  Ac1  1  0.221672  0.777920  0.221570  1
  Ac  Ac2  1  0.777887  0.221615  0.221623  1
  Ac  Ac3  1  0.221691  0.221584  0.777895  1
  Ac  Ac4  1  0.778328  0.222080  0.778430  1
  Ac  Ac5  1  0.222113  0.778385  0.778377  1
  Mg  Mg6  1  0.000000  0.000000  0.500000  1
  Mg  Mg7  1  0.500000  0.000000  0.500000  1
  Mg  Mg8  1  0.000000  0.500000  0.500000  1
  Mg  Mg9  1  0.500000  0.500000  0.000000  1
  Mg  Mg10  1  0.000000  0.500000  0.000000  1
  Mg  Mg11  1  0.500000  0.000000  0.000000  1
  Mg  Mg12  1  0.500000  0.500000  0.500000  1
  Cd  Cd13  1  0.828674  0.828749  0.511436  1
  Cd  Cd14  1  0.828606  0.511441  0.828757  1
  Cd  Cd15  1  0.511353  0.828677  0.828759  1
  Cd  Cd16  1  0.827999  0.828142  0.827944  1
  Cd  Cd17  1  0.171326  0.171251  0.488564  1
  Cd  Cd18  1  0.171394  0.488559  0.171243  1
  Cd  Cd19  1  0.488647  0.171323  0.171241  1
  Cd  Cd20  1  0.172001  0.171858  0.172056  1
  Cd  Cd21  1  0.623367  0.623383  0.130572  1
  Cd  Cd22  1  0.623393  0.130596  0.623363  1
  Cd  Cd23  1  0.130584  0.623421  0.623380  1
  Cd  Cd24  1  0.624118  0.624133  0.624134  1
  Cd  Cd25  1  0.376633  0.376617  0.869428  1
  Cd  Cd26  1  0.376607  0.869404  0.376637  1
  Cd  Cd27  1  0.869416  0.376579  0.376620  1
  Cd  Cd28  1  0.375882  0.375867  0.375866  1
  Sb  Sb29  1  0.000000  0.000000  0.000000  1
