# generated using pymatgen
data_Ho3Cr2Ni7P6
_symmetry_space_group_name_H-M   'P 1'
_cell_length_a   3.76963500
_cell_length_b   10.54956400
_cell_length_c   12.35847400
_cell_angle_alpha   90.00000000
_cell_angle_beta   90.00000000
_cell_angle_gamma   90.00000000
_symmetry_Int_Tables_number   1
_chemical_formula_structural   Ho3Cr2Ni7P6
_chemical_formula_sum   'Ho6 Cr4 Ni14 P12'
_cell_volume   491.47186434
_cell_formula_units_Z   2
loop_
 _symmetry_equiv_pos_site_id
 _symmetry_equiv_pos_as_xyz
  1  'x, y, z'
loop_
 _atom_site_type_symbol
 _atom_site_label
 _atom_site_symmetry_multiplicity
 _atom_site_fract_x
 _atom_site_fract_y
 _atom_site_fract_z
 _atom_site_occupancy
  Ho  Ho0  1  0.000000  0.500000  0.520197  1
  Ho  Ho1  1  0.500000  0.000000  0.479803  1
  Ho  Ho2  1  0.500000  0.819351  0.208324  1
  Ho  Ho3  1  0.500000  0.180649  0.208324  1
  Ho  Ho4  1  0.000000  0.680649  0.791676  1
  Ho  Ho5  1  0.000000  0.319351  0.791676  1
  Cr  Cr6  1  0.000000  0.500000  0.987664  1
  Cr  Cr7  1  0.500000  0.000000  0.012336  1
  Cr  Cr8  1  0.500000  0.500000  0.153504  1
  Cr  Cr9  1  0.000000  0.000000  0.846496  1
  Ni  Ni10  1  0.500000  0.301942  0.427063  1
  Ni  Ni11  1  0.500000  0.698058  0.427063  1
  Ni  Ni12  1  0.000000  0.198058  0.572937  1
  Ni  Ni13  1  0.000000  0.801942  0.572937  1
  Ni  Ni14  1  0.500000  0.879940  0.709304  1
  Ni  Ni15  1  0.500000  0.120060  0.709304  1
  Ni  Ni16  1  0.000000  0.620060  0.290696  1
  Ni  Ni17  1  0.000000  0.379940  0.290696  1
  Ni  Ni18  1  0.500000  0.329349  0.990826  1
  Ni  Ni19  1  0.500000  0.670651  0.990826  1
  Ni  Ni20  1  0.000000  0.170651  0.009174  1
  Ni  Ni21  1  0.000000  0.829349  0.009174  1
  Ni  Ni22  1  0.500000  0.500000  0.698555  1
  Ni  Ni23  1  0.000000  0.000000  0.301445  1
  P  P24  1  0.500000  0.313464  0.612902  1
  P  P25  1  0.500000  0.686536  0.612902  1
  P  P26  1  0.000000  0.186536  0.387098  1
  P  P27  1  0.000000  0.813464  0.387098  1
  P  P28  1  0.500000  0.500000  0.878033  1
  P  P29  1  0.000000  0.000000  0.121967  1
  P  P30  1  0.500000  0.847885  0.889576  1
  P  P31  1  0.500000  0.152115  0.889576  1
  P  P32  1  0.000000  0.652115  0.110424  1
  P  P33  1  0.000000  0.347885  0.110424  1
  P  P34  1  0.500000  0.500000  0.345257  1
  P  P35  1  0.000000  0.000000  0.654743  1
