# generated using pymatgen
data_Tb15Y5(Bi2Ir)4
_symmetry_space_group_name_H-M   'P 1'
_cell_length_a   8.05076777
_cell_length_b   9.02090800
_cell_length_c   12.55720820
_cell_angle_alpha   90.00000000
_cell_angle_beta   90.05010247
_cell_angle_gamma   90.00000000
_symmetry_Int_Tables_number   1
_chemical_formula_structural   Tb15Y5(Bi2Ir)4
_chemical_formula_sum   'Tb15 Y5 Bi8 Ir4'
_cell_volume   911.96985256
_cell_formula_units_Z   1
loop_
 _symmetry_equiv_pos_site_id
 _symmetry_equiv_pos_as_xyz
  1  'x, y, z'
loop_
 _atom_site_type_symbol
 _atom_site_label
 _atom_site_symmetry_multiplicity
 _atom_site_fract_x
 _atom_site_fract_y
 _atom_site_fract_z
 _atom_site_occupancy
  Tb  Tb0  1  0.622505  0.250000  0.306305  1
  Tb  Tb1  1  0.877226  0.250000  0.806220  1
  Tb  Tb2  1  0.122593  0.750000  0.193793  1
  Tb  Tb3  1  0.946175  0.750000  0.500566  1
  Tb  Tb4  1  0.054427  0.250000  0.499308  1
  Tb  Tb5  1  0.446107  0.250000  0.999300  1
  Tb  Tb6  1  0.553939  0.750000  0.000503  1
  Tb  Tb7  1  0.676504  0.042165  0.566278  1
  Tb  Tb8  1  0.323540  0.957194  0.433680  1
  Tb  Tb9  1  0.176432  0.957394  0.933844  1
  Tb  Tb10  1  0.323540  0.542806  0.433680  1
  Tb  Tb11  1  0.823445  0.042757  0.066384  1
  Tb  Tb12  1  0.676504  0.457835  0.566278  1
  Tb  Tb13  1  0.823445  0.457243  0.066384  1
  Tb  Tb14  1  0.176432  0.542606  0.933844  1
  Y  Y15  1  0.839826  0.750000  0.791727  1
  Y  Y16  1  0.160446  0.250000  0.208376  1
  Y  Y17  1  0.339995  0.250000  0.708118  1
  Y  Y18  1  0.660421  0.750000  0.291554  1
  Y  Y19  1  0.376736  0.750000  0.694283  1
  Bi  Bi20  1  0.569558  0.491053  0.827266  1
  Bi  Bi21  1  0.430063  0.509171  0.172498  1
  Bi  Bi22  1  0.070088  0.509235  0.672713  1
  Bi  Bi23  1  0.430063  0.990829  0.172498  1
  Bi  Bi24  1  0.930137  0.490714  0.327370  1
  Bi  Bi25  1  0.569558  0.008947  0.827266  1
  Bi  Bi26  1  0.930137  0.009286  0.327370  1
  Bi  Bi27  1  0.070088  0.990765  0.672713  1
  Ir  Ir28  1  0.571555  0.750000  0.509114  1
  Ir  Ir29  1  0.428775  0.250000  0.490597  1
  Ir  Ir30  1  0.071216  0.250000  0.990604  1
  Ir  Ir31  1  0.928526  0.750000  0.009564  1
