# generated using pymatgen
data_Tb4Al4CoNi3
_symmetry_space_group_name_H-M   'P 1'
_cell_length_a   4.26147500
_cell_length_b   6.67567456
_cell_length_c   7.68761322
_cell_angle_alpha   89.86614087
_cell_angle_beta   90.00000000
_cell_angle_gamma   90.00000000
_symmetry_Int_Tables_number   1
_chemical_formula_structural   Tb4Al4CoNi3
_chemical_formula_sum   'Tb4 Al4 Co1 Ni3'
_cell_volume   218.69831711
_cell_formula_units_Z   1
loop_
 _symmetry_equiv_pos_site_id
 _symmetry_equiv_pos_as_xyz
  1  'x, y, z'
loop_
 _atom_site_type_symbol
 _atom_site_label
 _atom_site_symmetry_multiplicity
 _atom_site_fract_x
 _atom_site_fract_y
 _atom_site_fract_z
 _atom_site_occupancy
  Tb  Tb0  1  0.250000  0.039117  0.675525  1
  Tb  Tb1  1  0.250000  0.537555  0.823313  1
  Tb  Tb2  1  0.750000  0.967797  0.323112  1
  Tb  Tb3  1  0.750000  0.461485  0.179020  1
  Al  Al4  1  0.250000  0.139579  0.060579  1
  Al  Al5  1  0.250000  0.634679  0.439700  1
  Al  Al6  1  0.750000  0.862017  0.940432  1
  Al  Al7  1  0.750000  0.361114  0.559008  1
  Co  Co8  1  0.250000  0.267157  0.377956  1
  Ni  Ni9  1  0.250000  0.773218  0.122315  1
  Ni  Ni10  1  0.750000  0.728276  0.622855  1
  Ni  Ni11  1  0.750000  0.228005  0.876183  1
