# generated using pymatgen
data_Y2Ho2ScIr3
_symmetry_space_group_name_H-M   'P 1'
_cell_length_a   10.77622100
_cell_length_b   10.77622100
_cell_length_c   6.27044000
_cell_angle_alpha   90.00000000
_cell_angle_beta   90.00000000
_cell_angle_gamma   90.00000000
_symmetry_Int_Tables_number   1
_chemical_formula_structural   Y2Ho2ScIr3
_chemical_formula_sum   'Y8 Ho8 Sc4 Ir12'
_cell_volume   728.16700364
_cell_formula_units_Z   4
loop_
 _symmetry_equiv_pos_site_id
 _symmetry_equiv_pos_as_xyz
  1  'x, y, z'
loop_
 _atom_site_type_symbol
 _atom_site_label
 _atom_site_symmetry_multiplicity
 _atom_site_fract_x
 _atom_site_fract_y
 _atom_site_fract_z
 _atom_site_occupancy
  Y  Y0  1  0.287518  0.086649  0.377047  1
  Y  Y1  1  0.287518  0.913351  0.877047  1
  Y  Y2  1  0.712482  0.086649  0.877047  1
  Y  Y3  1  0.712482  0.913351  0.377047  1
  Y  Y4  1  0.586649  0.787518  0.877047  1
  Y  Y5  1  0.586649  0.212482  0.377047  1
  Y  Y6  1  0.413351  0.787518  0.377047  1
  Y  Y7  1  0.413351  0.212482  0.877047  1
  Ho  Ho8  1  0.211240  0.414044  0.622056  1
  Ho  Ho9  1  0.211240  0.585956  0.122056  1
  Ho  Ho10  1  0.788760  0.414044  0.122056  1
  Ho  Ho11  1  0.788760  0.585956  0.622056  1
  Ho  Ho12  1  0.914044  0.711240  0.122056  1
  Ho  Ho13  1  0.914044  0.288760  0.622056  1
  Ho  Ho14  1  0.085956  0.711240  0.622056  1
  Ho  Ho15  1  0.085956  0.288760  0.122056  1
  Sc  Sc16  1  0.000000  0.000000  0.500325  1
  Sc  Sc17  1  0.000000  0.000000  0.000325  1
  Sc  Sc18  1  0.500000  0.500000  0.000325  1
  Sc  Sc19  1  0.500000  0.500000  0.500325  1
  Ir  Ir20  1  0.853707  0.148563  0.250702  1
  Ir  Ir21  1  0.853707  0.851437  0.750702  1
  Ir  Ir22  1  0.146293  0.148563  0.750702  1
  Ir  Ir23  1  0.146293  0.851437  0.250702  1
  Ir  Ir24  1  0.648563  0.353707  0.750702  1
  Ir  Ir25  1  0.648563  0.646293  0.250702  1
  Ir  Ir26  1  0.351437  0.353707  0.250702  1
  Ir  Ir27  1  0.351437  0.646293  0.750702  1
  Ir  Ir28  1  0.500000  0.000000  0.122771  1
  Ir  Ir29  1  0.500000  0.000000  0.622771  1
  Ir  Ir30  1  0.000000  0.500000  0.877357  1
  Ir  Ir31  1  0.000000  0.500000  0.377357  1
