# generated using pymatgen
data_NdY2(AgSn)4
_symmetry_space_group_name_H-M   'P 1'
_cell_length_a   8.84813316
_cell_length_b   8.84813289
_cell_length_c   8.84813285
_cell_angle_alpha   149.94160384
_cell_angle_beta   129.84872484
_cell_angle_gamma   59.58376128
_symmetry_Int_Tables_number   1
_chemical_formula_structural   NdY2(AgSn)4
_chemical_formula_sum   'Nd1 Y2 Ag4 Sn4'
_cell_volume   264.27099950
_cell_formula_units_Z   1
loop_
 _symmetry_equiv_pos_site_id
 _symmetry_equiv_pos_as_xyz
  1  'x, y, z'
loop_
 _atom_site_type_symbol
 _atom_site_label
 _atom_site_symmetry_multiplicity
 _atom_site_fract_x
 _atom_site_fract_y
 _atom_site_fract_z
 _atom_site_occupancy
  Nd  Nd0  1  0.500000  0.000000  0.500000  1
  Y  Y1  1  0.872516  0.872516  0.000000  1
  Y  Y2  1  0.127484  0.127484  0.000000  1
  Ag  Ag3  1  0.473474  0.670943  0.802532  1
  Ag  Ag4  1  0.868411  0.670943  0.197468  1
  Ag  Ag5  1  0.131589  0.329057  0.802532  1
  Ag  Ag6  1  0.526526  0.329057  0.197468  1
  Sn  Sn7  1  0.283431  0.783431  0.500000  1
  Sn  Sn8  1  0.716569  0.216569  0.500000  1
  Sn  Sn9  1  0.808726  0.500000  0.308726  1
  Sn  Sn10  1  0.191274  0.500000  0.691274  1
