# generated using pymatgen
data_Er6Lu2Os3WC8
_symmetry_space_group_name_H-M   'P 1'
_cell_length_a   5.04162100
_cell_length_b   6.49822506
_cell_length_c   9.71356102
_cell_angle_alpha   89.67853375
_cell_angle_beta   90.00000000
_cell_angle_gamma   90.00000000
_symmetry_Int_Tables_number   1
_chemical_formula_structural   Er6Lu2Os3WC8
_chemical_formula_sum   'Er6 Lu2 Os3 W1 C8'
_cell_volume   318.22667445
_cell_formula_units_Z   1
loop_
 _symmetry_equiv_pos_site_id
 _symmetry_equiv_pos_as_xyz
  1  'x, y, z'
loop_
 _atom_site_type_symbol
 _atom_site_label
 _atom_site_symmetry_multiplicity
 _atom_site_fract_x
 _atom_site_fract_y
 _atom_site_fract_z
 _atom_site_occupancy
  Er  Er0  1  0.250000  0.677369  0.554876  1
  Er  Er1  1  0.250000  0.179097  0.943647  1
  Er  Er2  1  0.250000  0.533041  0.214078  1
  Er  Er3  1  0.750000  0.464957  0.779907  1
  Er  Er4  1  0.750000  0.968616  0.716495  1
  Er  Er5  1  0.250000  0.031052  0.285446  1
  Lu  Lu6  1  0.750000  0.326332  0.442706  1
  Lu  Lu7  1  0.750000  0.827733  0.057329  1
  Os  Os8  1  0.750000  0.281421  0.134291  1
  Os  Os9  1  0.750000  0.779981  0.364938  1
  Os  Os10  1  0.250000  0.220916  0.630060  1
  W  W11  1  0.250000  0.718147  0.870003  1
  C  C12  1  0.250000  0.450281  0.759412  1
  C  C13  1  0.750000  0.545729  0.241688  1
  C  C14  1  0.750000  0.047001  0.259648  1
  C  C15  1  0.250000  0.954586  0.740166  1
  C  C16  1  0.250000  0.827357  0.060071  1
  C  C17  1  0.750000  0.170663  0.948440  1
  C  C18  1  0.750000  0.669276  0.552355  1
  C  C19  1  0.250000  0.326442  0.444445  1
