# generated using pymatgen
data_Tb6Y4Be3Si15Au2
_symmetry_space_group_name_H-M   'P 1'
_cell_length_a   4.05521622
_cell_length_b   4.04821144
_cell_length_c   34.65821984
_cell_angle_alpha   86.64062352
_cell_angle_beta   86.60440667
_cell_angle_gamma   90.00186797
_symmetry_Int_Tables_number   1
_chemical_formula_structural   Tb6Y4Be3Si15Au2
_chemical_formula_sum   'Tb6 Y4 Be3 Si15 Au2'
_cell_volume   566.98389889
_cell_formula_units_Z   1
loop_
 _symmetry_equiv_pos_site_id
 _symmetry_equiv_pos_as_xyz
  1  'x, y, z'
loop_
 _atom_site_type_symbol
 _atom_site_label
 _atom_site_symmetry_multiplicity
 _atom_site_fract_x
 _atom_site_fract_y
 _atom_site_fract_z
 _atom_site_occupancy
  Tb  Tb0  1  0.545335  0.045639  0.909018  1
  Tb  Tb1  1  0.997516  0.997171  0.005615  1
  Tb  Tb2  1  0.399813  0.399646  0.200702  1
  Tb  Tb3  1  0.802225  0.802119  0.395789  1
  Tb  Tb4  1  0.205070  0.204656  0.590466  1
  Tb  Tb5  1  0.601310  0.601058  0.797296  1
  Y  Y6  1  0.947938  0.447932  0.103985  1
  Y  Y7  1  0.350646  0.850474  0.298651  1
  Y  Y8  1  0.753547  0.253570  0.493070  1
  Y  Y9  1  0.149302  0.650054  0.700651  1
  Be  Be10  1  0.464958  0.965224  0.069670  1
  Be  Be11  1  0.867503  0.367718  0.264663  1
  Be  Be12  1  0.270053  0.770312  0.459626  1
  Si  Si13  1  0.666880  0.167265  0.665201  1
  Si  Si14  1  0.062569  0.563681  0.872825  1
  Si  Si15  1  0.915615  0.915918  0.168330  1
  Si  Si16  1  0.318114  0.318639  0.363206  1
  Si  Si17  1  0.720441  0.721045  0.558653  1
  Si  Si18  1  0.116570  0.116512  0.766622  1
  Si  Si19  1  0.513168  0.513150  0.973661  1
  Si  Si20  1  0.433522  0.933132  0.133139  1
  Si  Si21  1  0.835934  0.335506  0.328045  1
  Si  Si22  1  0.238561  0.738367  0.522880  1
  Si  Si23  1  0.633971  0.134696  0.731908  1
  Si  Si24  1  0.030646  0.530379  0.939391  1
  Si  Si25  1  0.479811  0.479443  0.041054  1
  Si  Si26  1  0.882230  0.881993  0.235858  1
  Si  Si27  1  0.284926  0.284582  0.430753  1
  Au  Au28  1  0.686226  0.685558  0.628486  1
  Au  Au29  1  0.082802  0.081762  0.836387  1
