# generated using pymatgen
data_Rb2Hf6PBr17
_symmetry_space_group_name_H-M   'P 1'
_cell_length_a   10.47275321
_cell_length_b   10.47274897
_cell_length_c   10.47269200
_cell_angle_alpha   104.09540349
_cell_angle_beta   104.09870319
_cell_angle_gamma   120.85544067
_symmetry_Int_Tables_number   1
_chemical_formula_structural   Rb2Hf6PBr17
_chemical_formula_sum   'Rb2 Hf6 P1 Br17'
_cell_volume   857.60476908
_cell_formula_units_Z   1
loop_
 _symmetry_equiv_pos_site_id
 _symmetry_equiv_pos_as_xyz
  1  'x, y, z'
loop_
 _atom_site_type_symbol
 _atom_site_label
 _atom_site_symmetry_multiplicity
 _atom_site_fract_x
 _atom_site_fract_y
 _atom_site_fract_z
 _atom_site_occupancy
  Rb  Rb0  1  0.250001  0.750000  0.500002  1
  Rb  Rb1  1  0.749999  0.250000  0.499998  1
  Hf  Hf2  1  0.234999  0.234999  0.000000  1
  Hf  Hf3  1  0.765001  0.765001  0.000000  1
  Hf  Hf4  1  0.179599  0.065059  0.244656  1
  Hf  Hf5  1  0.934941  0.179592  0.114534  1
  Hf  Hf6  1  0.820401  0.934941  0.755344  1
  Hf  Hf7  1  0.065059  0.820408  0.885466  1
  P  P8  1  0.000000  0.000000  0.000000  1
  Br  Br9  1  0.875582  0.733180  0.608763  1
  Br  Br10  1  0.266831  0.875588  0.142417  1
  Br  Br11  1  0.134807  0.623036  0.757842  1
  Br  Br12  1  0.546350  0.668188  0.733311  1
  Br  Br13  1  0.865193  0.376964  0.242158  1
  Br  Br14  1  0.453650  0.331812  0.266689  1
  Br  Br15  1  0.813044  0.546363  0.878173  1
  Br  Br16  1  0.376975  0.134809  0.511783  1
  Br  Br17  1  0.623025  0.865191  0.488217  1
  Br  Br18  1  0.124418  0.266820  0.391237  1
  Br  Br19  1  0.331811  0.065129  0.878173  1
  Br  Br20  1  0.934878  0.813040  0.266688  1
  Br  Br21  1  0.733169  0.124412  0.857583  1
  Br  Br22  1  0.500000  0.500000  0.000000  1
  Br  Br23  1  0.186956  0.453637  0.121827  1
  Br  Br24  1  0.065122  0.186960  0.733312  1
  Br  Br25  1  0.668189  0.934871  0.121827  1
