# generated using pymatgen
data_La(Pr3Si2)3
_symmetry_space_group_name_H-M   'P 1'
_cell_length_a   8.91329059
_cell_length_b   8.91329007
_cell_length_c   8.91328940
_cell_angle_alpha   127.44293352
_cell_angle_beta   127.44293513
_cell_angle_gamma   77.52920529
_symmetry_Int_Tables_number   1
_chemical_formula_structural   La(Pr3Si2)3
_chemical_formula_sum   'La1 Pr9 Si6'
_cell_volume   432.91613185
_cell_formula_units_Z   1
loop_
 _symmetry_equiv_pos_site_id
 _symmetry_equiv_pos_as_xyz
  1  'x, y, z'
loop_
 _atom_site_type_symbol
 _atom_site_label
 _atom_site_symmetry_multiplicity
 _atom_site_fract_x
 _atom_site_fract_y
 _atom_site_fract_z
 _atom_site_occupancy
  La  La0  1  0.000000  0.000000  0.000000  1
  Pr  Pr1  1  0.033731  0.174901  0.500177  1
  Pr  Pr2  1  0.533555  0.033731  0.858831  1
  Pr  Pr3  1  0.174901  0.674724  0.141169  1
  Pr  Pr4  1  0.466445  0.966269  0.141169  1
  Pr  Pr5  1  0.674724  0.533555  0.499823  1
  Pr  Pr6  1  0.966269  0.825099  0.499823  1
  Pr  Pr7  1  0.325276  0.466445  0.500177  1
  Pr  Pr8  1  0.825099  0.325276  0.858831  1
  Pr  Pr9  1  0.500000  0.500000  0.000000  1
  Si  Si10  1  0.113433  0.612595  0.726027  1
  Si  Si11  1  0.612595  0.886567  0.499162  1
  Si  Si12  1  0.387405  0.113433  0.500838  1
  Si  Si13  1  0.886567  0.387405  0.273973  1
  Si  Si14  1  0.749201  0.749201  0.000000  1
  Si  Si15  1  0.250799  0.250799  0.000000  1
