# generated using pymatgen
data_Zn3FeTe2(MoO7)2
_symmetry_space_group_name_H-M   'P 1'
_cell_length_a   5.23274859
_cell_length_b   8.75569296
_cell_length_c   7.39933008
_cell_angle_alpha   90.13135651
_cell_angle_beta   100.35484556
_cell_angle_gamma   89.81305177
_symmetry_Int_Tables_number   1
_chemical_formula_structural   Zn3FeTe2(MoO7)2
_chemical_formula_sum   'Zn3 Fe1 Te2 Mo2 O14'
_cell_volume   333.48663298
_cell_formula_units_Z   1
loop_
 _symmetry_equiv_pos_site_id
 _symmetry_equiv_pos_as_xyz
  1  'x, y, z'
loop_
 _atom_site_type_symbol
 _atom_site_label
 _atom_site_symmetry_multiplicity
 _atom_site_fract_x
 _atom_site_fract_y
 _atom_site_fract_z
 _atom_site_occupancy
  Zn  Zn0  1  0.940596  0.534212  0.481743  1
  Zn  Zn1  1  0.062404  0.036249  0.518969  1
  Zn  Zn2  1  0.520397  0.362595  0.759105  1
  Fe  Fe3  1  0.476487  0.863993  0.239337  1
  Te  Te4  1  0.513387  0.244324  0.357609  1
  Te  Te5  1  0.489591  0.742262  0.645883  1
  Mo  Mo6  1  0.080531  0.529380  0.016092  1
  Mo  Mo7  1  0.917344  0.034499  0.981623  1
  O  O8  1  0.257441  0.703708  0.050796  1
  O  O9  1  0.710869  0.887941  0.044606  1
  O  O10  1  0.208417  0.054684  0.157300  1
  O  O11  1  0.002506  0.472171  0.233299  1
  O  O12  1  0.712260  0.059565  0.372320  1
  O  O13  1  0.259434  0.853555  0.457822  1
  O  O14  1  0.688465  0.703587  0.458003  1
  O  O15  1  0.314555  0.206717  0.546341  1
  O  O16  1  0.745621  0.352583  0.544535  1
  O  O17  1  0.288690  0.558804  0.629483  1
  O  O18  1  0.003629  0.975057  0.767799  1
  O  O19  1  0.783484  0.551612  0.844810  1
  O  O20  1  0.282079  0.381826  0.948068  1
  O  O21  1  0.741809  0.209954  0.944459  1
