# generated using pymatgen
data_HoTm9Ga3Bi2Ir
_symmetry_space_group_name_H-M   'P 1'
_cell_length_a   8.59327648
_cell_length_b   8.58911375
_cell_length_c   8.70460060
_cell_angle_alpha   125.21203627
_cell_angle_beta   125.22429833
_cell_angle_gamma   80.29280303
_symmetry_Int_Tables_number   1
_chemical_formula_structural   HoTm9Ga3Bi2Ir
_chemical_formula_sum   'Ho1 Tm9 Ga3 Bi2 Ir1'
_cell_volume   415.66472793
_cell_formula_units_Z   1
loop_
 _symmetry_equiv_pos_site_id
 _symmetry_equiv_pos_as_xyz
  1  'x, y, z'
loop_
 _atom_site_type_symbol
 _atom_site_label
 _atom_site_symmetry_multiplicity
 _atom_site_fract_x
 _atom_site_fract_y
 _atom_site_fract_z
 _atom_site_occupancy
  Ho  Ho0  1  0.795241  0.984876  0.500000  1
  Tm  Tm1  1  0.000847  0.001516  0.002711  1
  Tm  Tm2  1  0.498139  0.498800  0.997281  1
  Tm  Tm3  1  0.016001  0.500961  0.798269  1
  Tm  Tm4  1  0.717705  0.202692  0.201740  1
  Tm  Tm5  1  0.515494  0.706051  0.500001  1
  Tm  Tm6  1  0.195942  0.038581  0.500023  1
  Tm  Tm7  1  0.999655  0.484341  0.202239  1
  Tm  Tm8  1  0.297397  0.782111  0.797747  1
  Tm  Tm9  1  0.460931  0.305063  0.499998  1
  Ga  Ga10  1  0.357172  0.855695  0.213736  1
  Ga  Ga11  1  0.643438  0.141973  0.786265  1
  Ga  Ga12  1  0.863829  0.635615  0.499993  1
  Bi  Bi13  1  0.755429  0.744126  0.999454  1
  Bi  Bi14  1  0.255988  0.244678  0.000542  1
  Ir  Ir15  1  0.126796  0.372918  0.500001  1
