# generated using pymatgen
data_Y8Ta11Si16Tc
_symmetry_space_group_name_H-M   'P 1'
_cell_length_a   6.83333131
_cell_length_b   7.05416916
_cell_length_c   13.35666000
_cell_angle_alpha   90.00000000
_cell_angle_beta   90.00000000
_cell_angle_gamma   90.02953249
_symmetry_Int_Tables_number   1
_chemical_formula_structural   Y8Ta11Si16Tc
_chemical_formula_sum   'Y8 Ta11 Si16 Tc1'
_cell_volume   643.83734099
_cell_formula_units_Z   1
loop_
 _symmetry_equiv_pos_site_id
 _symmetry_equiv_pos_as_xyz
  1  'x, y, z'
loop_
 _atom_site_type_symbol
 _atom_site_label
 _atom_site_symmetry_multiplicity
 _atom_site_fract_x
 _atom_site_fract_y
 _atom_site_fract_z
 _atom_site_occupancy
  Y  Y0  1  0.501277  0.671675  0.595233  1
  Y  Y1  1  0.001306  0.828966  0.904778  1
  Y  Y2  1  0.497186  0.328680  0.095303  1
  Y  Y3  1  0.997644  0.171397  0.404503  1
  Y  Y4  1  0.497186  0.328680  0.404697  1
  Y  Y5  1  0.997644  0.171397  0.095497  1
  Y  Y6  1  0.501277  0.671675  0.904767  1
  Y  Y7  1  0.001306  0.828966  0.595222  1
  Ta  Ta8  1  0.664300  0.171816  0.626245  1
  Ta  Ta9  1  0.165455  0.327822  0.873331  1
  Ta  Ta10  1  0.336498  0.826077  0.125515  1
  Ta  Ta11  1  0.836319  0.673708  0.375260  1
  Ta  Ta12  1  0.336498  0.826077  0.374485  1
  Ta  Ta13  1  0.836319  0.673708  0.124740  1
  Ta  Ta14  1  0.664300  0.171816  0.873755  1
  Ta  Ta15  1  0.165455  0.327822  0.626669  1
  Ta  Ta16  1  0.337331  0.010686  0.750000  1
  Ta  Ta17  1  0.161888  0.510756  0.250000  1
  Ta  Ta18  1  0.662184  0.990258  0.250000  1
  Si  Si19  1  0.664228  0.962600  0.458601  1
  Si  Si20  1  0.164395  0.537748  0.040842  1
  Si  Si21  1  0.335907  0.037325  0.958447  1
  Si  Si22  1  0.836601  0.460777  0.542773  1
  Si  Si23  1  0.335907  0.037325  0.541553  1
  Si  Si24  1  0.836601  0.460777  0.957227  1
  Si  Si25  1  0.664228  0.962600  0.041399  1
  Si  Si26  1  0.164395  0.537748  0.459158  1
  Si  Si27  1  0.466825  0.379174  0.750000  1
  Si  Si28  1  0.958648  0.124711  0.750000  1
  Si  Si29  1  0.540086  0.622363  0.250000  1
  Si  Si30  1  0.039096  0.878463  0.250000  1
  Si  Si31  1  0.702225  0.870168  0.750000  1
  Si  Si32  1  0.198273  0.626225  0.750000  1
  Si  Si33  1  0.295716  0.127653  0.250000  1
  Si  Si34  1  0.795748  0.372908  0.250000  1
  Tc  Tc35  1  0.839751  0.489453  0.750000  1
