# generated using pymatgen
data_LiDy16Cd3IrPt3
_symmetry_space_group_name_H-M   'P 1'
_cell_length_a   9.69702254
_cell_length_b   9.66025106
_cell_length_c   9.66025095
_cell_angle_alpha   59.80358989
_cell_angle_beta   60.04291401
_cell_angle_gamma   60.04291161
_symmetry_Int_Tables_number   1
_chemical_formula_structural   LiDy16Cd3IrPt3
_chemical_formula_sum   'Li1 Dy16 Cd3 Ir1 Pt3'
_cell_volume   639.34016126
_cell_formula_units_Z   1
loop_
 _symmetry_equiv_pos_site_id
 _symmetry_equiv_pos_as_xyz
  1  'x, y, z'
loop_
 _atom_site_type_symbol
 _atom_site_label
 _atom_site_symmetry_multiplicity
 _atom_site_fract_x
 _atom_site_fract_y
 _atom_site_fract_z
 _atom_site_occupancy
  Li  Li0  1  0.820964  0.820948  0.820948  1
  Dy  Dy1  1  0.603470  0.600022  0.600022  1
  Dy  Dy2  1  0.603601  0.598944  0.199742  1
  Dy  Dy3  1  0.603601  0.199742  0.598944  1
  Dy  Dy4  1  0.192050  0.603701  0.603701  1
  Dy  Dy5  1  0.057004  0.441573  0.441573  1
  Dy  Dy6  1  0.437533  0.061617  0.061617  1
  Dy  Dy7  1  0.444002  0.058962  0.441303  1
  Dy  Dy8  1  0.060407  0.435345  0.065324  1
  Dy  Dy9  1  0.444002  0.441303  0.058962  1
  Dy  Dy10  1  0.060407  0.065324  0.435345  1
  Dy  Dy11  1  0.187440  0.814372  0.814372  1
  Dy  Dy12  1  0.813979  0.186376  0.186376  1
  Dy  Dy13  1  0.815827  0.186442  0.812037  1
  Dy  Dy14  1  0.185977  0.812956  0.186343  1
  Dy  Dy15  1  0.815827  0.812037  0.186442  1
  Dy  Dy16  1  0.185977  0.186343  0.812956  1
  Cd  Cd17  1  0.832535  0.832924  0.503499  1
  Cd  Cd18  1  0.832535  0.503499  0.832924  1
  Cd  Cd19  1  0.504119  0.832671  0.832671  1
  Ir  Ir20  1  0.823361  0.393718  0.393718  1
  Pt  Pt21  1  0.392132  0.394934  0.394934  1
  Pt  Pt22  1  0.391624  0.394817  0.821427  1
  Pt  Pt23  1  0.391624  0.821427  0.394817  1
