# generated using pymatgen
data_TiFeCoMoP2
_symmetry_space_group_name_H-M   'P 1'
_cell_length_a   3.58830400
_cell_length_b   5.99347363
_cell_length_c   6.81725610
_cell_angle_alpha   89.44040287
_cell_angle_beta   90.00000000
_cell_angle_gamma   90.00000000
_symmetry_Int_Tables_number   1
_chemical_formula_structural   TiFeCoMoP2
_chemical_formula_sum   'Ti2 Fe2 Co2 Mo2 P4'
_cell_volume   146.60768063
_cell_formula_units_Z   2
loop_
 _symmetry_equiv_pos_site_id
 _symmetry_equiv_pos_as_xyz
  1  'x, y, z'
loop_
 _atom_site_type_symbol
 _atom_site_label
 _atom_site_symmetry_multiplicity
 _atom_site_fract_x
 _atom_site_fract_y
 _atom_site_fract_z
 _atom_site_occupancy
  Ti  Ti0  1  0.750000  0.975305  0.173873  1
  Ti  Ti1  1  0.750000  0.477797  0.320484  1
  Fe  Fe2  1  0.250000  0.641764  0.062866  1
  Fe  Fe3  1  0.750000  0.357324  0.940164  1
  Co  Co4  1  0.250000  0.143205  0.434928  1
  Co  Co5  1  0.750000  0.858793  0.561036  1
  Mo  Mo6  1  0.250000  0.026820  0.830052  1
  Mo  Mo7  1  0.250000  0.523874  0.674187  1
  P  P8  1  0.250000  0.770379  0.378615  1
  P  P9  1  0.250000  0.271380  0.119275  1
  P  P10  1  0.750000  0.228602  0.625406  1
  P  P11  1  0.750000  0.724756  0.879114  1
