# generated using pymatgen
data_Tm2LuMg(Co4P3)2
_symmetry_space_group_name_H-M   'P 1'
_cell_length_a   3.69242100
_cell_length_b   10.55362500
_cell_length_c   12.17563500
_cell_angle_alpha   90.00000000
_cell_angle_beta   90.00000000
_cell_angle_gamma   90.00000000
_symmetry_Int_Tables_number   1
_chemical_formula_structural   Tm2LuMg(Co4P3)2
_chemical_formula_sum   'Tm4 Lu2 Mg2 Co16 P12'
_cell_volume   474.46533852
_cell_formula_units_Z   2
loop_
 _symmetry_equiv_pos_site_id
 _symmetry_equiv_pos_as_xyz
  1  'x, y, z'
loop_
 _atom_site_type_symbol
 _atom_site_label
 _atom_site_symmetry_multiplicity
 _atom_site_fract_x
 _atom_site_fract_y
 _atom_site_fract_z
 _atom_site_occupancy
  Tm  Tm0  1  0.000000  0.500000  0.525918  1
  Tm  Tm1  1  0.500000  0.000000  0.473955  1
  Tm  Tm2  1  0.000000  0.677504  0.793597  1
  Tm  Tm3  1  0.000000  0.322496  0.793597  1
  Lu  Lu4  1  0.500000  0.822517  0.206485  1
  Lu  Lu5  1  0.500000  0.177483  0.206485  1
  Mg  Mg6  1  0.500000  0.500000  0.156876  1
  Mg  Mg7  1  0.000000  0.000000  0.843080  1
  Co  Co8  1  0.500000  0.500000  0.704313  1
  Co  Co9  1  0.000000  0.000000  0.295259  1
  Co  Co10  1  0.000000  0.500000  0.987990  1
  Co  Co11  1  0.500000  0.000000  0.012336  1
  Co  Co12  1  0.500000  0.332507  0.996473  1
  Co  Co13  1  0.500000  0.667493  0.996473  1
  Co  Co14  1  0.000000  0.167359  0.003880  1
  Co  Co15  1  0.000000  0.832641  0.003880  1
  Co  Co16  1  0.500000  0.296438  0.431977  1
  Co  Co17  1  0.500000  0.703562  0.431977  1
  Co  Co18  1  0.000000  0.203518  0.567810  1
  Co  Co19  1  0.000000  0.796482  0.567810  1
  Co  Co20  1  0.500000  0.877044  0.705697  1
  Co  Co21  1  0.500000  0.122956  0.705697  1
  Co  Co22  1  0.000000  0.623229  0.294122  1
  Co  Co23  1  0.000000  0.376771  0.294122  1
  P  P24  1  0.500000  0.500000  0.883825  1
  P  P25  1  0.000000  0.000000  0.116663  1
  P  P26  1  0.500000  0.500000  0.356677  1
  P  P27  1  0.000000  0.000000  0.643379  1
  P  P28  1  0.500000  0.310936  0.615878  1
  P  P29  1  0.500000  0.689064  0.615878  1
  P  P30  1  0.000000  0.188932  0.383700  1
  P  P31  1  0.000000  0.811068  0.383700  1
  P  P32  1  0.500000  0.838256  0.892020  1
  P  P33  1  0.500000  0.161744  0.892020  1
  P  P34  1  0.000000  0.662065  0.108225  1
  P  P35  1  0.000000  0.337935  0.108225  1
