# generated using pymatgen
data_Er6Co16Si9P3Os2
_symmetry_space_group_name_H-M   'P 1'
_cell_length_a   3.75696600
_cell_length_b   10.69174700
_cell_length_c   12.29890600
_cell_angle_alpha   90.00000000
_cell_angle_beta   90.00000000
_cell_angle_gamma   90.00000000
_symmetry_Int_Tables_number   1
_chemical_formula_structural   Er6Co16Si9P3Os2
_chemical_formula_sum   'Er6 Co16 Si9 P3 Os2'
_cell_volume   494.02897413
_cell_formula_units_Z   1
loop_
 _symmetry_equiv_pos_site_id
 _symmetry_equiv_pos_as_xyz
  1  'x, y, z'
loop_
 _atom_site_type_symbol
 _atom_site_label
 _atom_site_symmetry_multiplicity
 _atom_site_fract_x
 _atom_site_fract_y
 _atom_site_fract_z
 _atom_site_occupancy
  Er  Er0  1  0.750000  0.250000  0.474644  1
  Er  Er1  1  0.250000  0.750000  0.526857  1
  Er  Er2  1  0.250000  0.929631  0.795794  1
  Er  Er3  1  0.250000  0.570369  0.795794  1
  Er  Er4  1  0.750000  0.068389  0.204363  1
  Er  Er5  1  0.750000  0.431611  0.204363  1
  Co  Co6  1  0.250000  0.250000  0.303933  1
  Co  Co7  1  0.750000  0.750000  0.701332  1
  Co  Co8  1  0.750000  0.250000  0.016203  1
  Co  Co9  1  0.250000  0.750000  0.980156  1
  Co  Co10  1  0.250000  0.419715  0.007082  1
  Co  Co11  1  0.250000  0.080285  0.007082  1
  Co  Co12  1  0.750000  0.584384  0.989853  1
  Co  Co13  1  0.750000  0.915616  0.989853  1
  Co  Co14  1  0.250000  0.446608  0.571015  1
  Co  Co15  1  0.250000  0.053392  0.571015  1
  Co  Co16  1  0.750000  0.554537  0.429542  1
  Co  Co17  1  0.750000  0.945463  0.429542  1
  Co  Co18  1  0.250000  0.866419  0.294530  1
  Co  Co19  1  0.250000  0.633581  0.294530  1
  Co  Co20  1  0.750000  0.133288  0.705623  1
  Co  Co21  1  0.750000  0.366712  0.705623  1
  Si  Si22  1  0.250000  0.250000  0.118529  1
  Si  Si23  1  0.250000  0.444761  0.385285  1
  Si  Si24  1  0.250000  0.055239  0.385285  1
  Si  Si25  1  0.750000  0.556489  0.615433  1
  Si  Si26  1  0.750000  0.943511  0.615433  1
  Si  Si27  1  0.250000  0.900173  0.106649  1
  Si  Si28  1  0.250000  0.599827  0.106649  1
  Si  Si29  1  0.750000  0.098812  0.892927  1
  Si  Si30  1  0.750000  0.401188  0.892927  1
  P  P31  1  0.750000  0.750000  0.881078  1
  P  P32  1  0.250000  0.250000  0.654627  1
  P  P33  1  0.750000  0.750000  0.345961  1
  Os  Os34  1  0.250000  0.250000  0.844473  1
  Os  Os35  1  0.750000  0.750000  0.156017  1
