# generated using pymatgen
data_Tm3LuBBr6
_symmetry_space_group_name_H-M   'P 1'
_cell_length_a   3.89686900
_cell_length_b   12.99640681
_cell_length_c   13.45664888
_cell_angle_alpha   89.93949688
_cell_angle_beta   90.00000000
_cell_angle_gamma   90.00000000
_symmetry_Int_Tables_number   1
_chemical_formula_structural   Tm3LuBBr6
_chemical_formula_sum   'Tm6 Lu2 B2 Br12'
_cell_volume   681.51556956
_cell_formula_units_Z   2
loop_
 _symmetry_equiv_pos_site_id
 _symmetry_equiv_pos_as_xyz
  1  'x, y, z'
loop_
 _atom_site_type_symbol
 _atom_site_label
 _atom_site_symmetry_multiplicity
 _atom_site_fract_x
 _atom_site_fract_y
 _atom_site_fract_z
 _atom_site_occupancy
  Tm  Tm0  1  0.000000  0.100611  0.079919  1
  Tm  Tm1  1  0.000000  0.899389  0.920081  1
  Tm  Tm2  1  0.500000  0.121865  0.856755  1
  Tm  Tm3  1  0.500000  0.878135  0.143245  1
  Tm  Tm4  1  0.500000  0.621671  0.643024  1
  Tm  Tm5  1  0.500000  0.378329  0.356976  1
  Lu  Lu6  1  0.000000  0.599443  0.420977  1
  Lu  Lu7  1  0.000000  0.400557  0.579023  1
  B  B8  1  0.500000  0.000000  0.000000  1
  B  B9  1  0.500000  0.500000  0.500000  1
  Br  Br10  1  0.500000  0.269166  0.681309  1
  Br  Br11  1  0.500000  0.730834  0.318691  1
  Br  Br12  1  0.500000  0.767972  0.817728  1
  Br  Br13  1  0.500000  0.232028  0.182272  1
  Br  Br14  1  0.000000  0.261097  0.930858  1
  Br  Br15  1  0.000000  0.738903  0.069142  1
  Br  Br16  1  0.000000  0.480952  0.239666  1
  Br  Br17  1  0.000000  0.519048  0.760334  1
  Br  Br18  1  0.000000  0.980249  0.260892  1
  Br  Br19  1  0.000000  0.019751  0.739108  1
  Br  Br20  1  0.000000  0.239336  0.431590  1
  Br  Br21  1  0.000000  0.760664  0.568410  1
