# generated using pymatgen
data_Tb2Ho10OsRu3
_symmetry_space_group_name_H-M   'P 1'
_cell_length_a   6.29090710
_cell_length_b   7.30354062
_cell_length_c   9.12311500
_cell_angle_alpha   90.00000000
_cell_angle_beta   90.00000000
_cell_angle_gamma   90.03840224
_symmetry_Int_Tables_number   1
_chemical_formula_structural   Tb2Ho10OsRu3
_chemical_formula_sum   'Tb2 Ho10 Os1 Ru3'
_cell_volume   419.16959446
_cell_formula_units_Z   1
loop_
 _symmetry_equiv_pos_site_id
 _symmetry_equiv_pos_as_xyz
  1  'x, y, z'
loop_
 _atom_site_type_symbol
 _atom_site_label
 _atom_site_symmetry_multiplicity
 _atom_site_fract_x
 _atom_site_fract_y
 _atom_site_fract_z
 _atom_site_occupancy
  Tb  Tb0  1  0.866909  0.539794  0.250000  1
  Tb  Tb1  1  0.633281  0.039520  0.250000  1
  Ho  Ho2  1  0.331551  0.675994  0.062886  1
  Ho  Ho3  1  0.169408  0.176321  0.435631  1
  Ho  Ho4  1  0.669977  0.323729  0.564697  1
  Ho  Ho5  1  0.829398  0.823105  0.934556  1
  Ho  Ho6  1  0.669977  0.323729  0.935303  1
  Ho  Ho7  1  0.829398  0.823105  0.565444  1
  Ho  Ho8  1  0.331551  0.675994  0.437114  1
  Ho  Ho9  1  0.169408  0.176321  0.064369  1
  Ho  Ho10  1  0.132547  0.460562  0.750000  1
  Ho  Ho11  1  0.365958  0.961536  0.750000  1
  Os  Os12  1  0.540664  0.615465  0.750000  1
  Ru  Ru13  1  0.040744  0.885023  0.250000  1
  Ru  Ru14  1  0.458994  0.384646  0.250000  1
  Ru  Ru15  1  0.960235  0.115159  0.750000  1
