# generated using pymatgen
data_Ta16BeB3Te16
_symmetry_space_group_name_H-M   'P 1'
_cell_length_a   4.75576900
_cell_length_b   10.85938241
_cell_length_c   18.89074210
_cell_angle_alpha   89.95437660
_cell_angle_beta   90.00000000
_cell_angle_gamma   90.00000000
_symmetry_Int_Tables_number   1
_chemical_formula_structural   Ta16BeB3Te16
_chemical_formula_sum   'Ta16 Be1 B3 Te16'
_cell_volume   975.60666782
_cell_formula_units_Z   1
loop_
 _symmetry_equiv_pos_site_id
 _symmetry_equiv_pos_as_xyz
  1  'x, y, z'
loop_
 _atom_site_type_symbol
 _atom_site_label
 _atom_site_symmetry_multiplicity
 _atom_site_fract_x
 _atom_site_fract_y
 _atom_site_fract_z
 _atom_site_occupancy
  Ta  Ta0  1  0.501726  0.560327  0.390272  1
  Ta  Ta1  1  0.501726  0.439673  0.609728  1
  Ta  Ta2  1  0.499838  0.059104  0.105340  1
  Ta  Ta3  1  0.499838  0.940896  0.894660  1
  Ta  Ta4  1  0.501514  0.692278  0.533750  1
  Ta  Ta5  1  0.501514  0.307722  0.466250  1
  Ta  Ta6  1  0.499869  0.187567  0.967368  1
  Ta  Ta7  1  0.499869  0.812433  0.032632  1
  Ta  Ta8  1  0.999018  0.683586  0.445074  1
  Ta  Ta9  1  0.999018  0.316414  0.554926  1
  Ta  Ta10  1  0.999758  0.180253  0.053312  1
  Ta  Ta11  1  0.999758  0.819747  0.946688  1
  Ta  Ta12  1  0.997676  0.403377  0.395531  1
  Ta  Ta13  1  0.997676  0.596623  0.604469  1
  Ta  Ta14  1  0.000101  0.905386  0.101950  1
  Ta  Ta15  1  0.000101  0.094614  0.898050  1
  Be  Be16  1  0.235141  0.500000  0.500000  1
  B  B17  1  0.779439  0.000000  0.000000  1
  B  B18  1  0.762586  0.500000  0.500000  1
  B  B19  1  0.220383  0.000000  0.000000  1
  Te  Te20  1  0.002312  0.848116  0.562122  1
  Te  Te21  1  0.002312  0.151884  0.437878  1
  Te  Te22  1  0.999901  0.347565  0.937122  1
  Te  Te23  1  0.999901  0.652435  0.062878  1
  Te  Te24  1  0.498633  0.332330  0.315677  1
  Te  Te25  1  0.498633  0.667670  0.684323  1
  Te  Te26  1  0.499998  0.833783  0.183717  1
  Te  Te27  1  0.499998  0.166217  0.816283  1
  Te  Te28  1  0.499374  0.822431  0.402075  1
  Te  Te29  1  0.499374  0.177569  0.597925  1
  Te  Te30  1  0.499767  0.322431  0.097680  1
  Te  Te31  1  0.499767  0.677569  0.902320  1
  Te  Te32  1  0.002018  0.607233  0.301318  1
  Te  Te33  1  0.002018  0.392767  0.698682  1
  Te  Te34  1  0.999722  0.106456  0.197672  1
  Te  Te35  1  0.999722  0.893544  0.802328  1
