# generated using pymatgen
data_Ho4Re2(TcOs)3
_symmetry_space_group_name_H-M   'P 1'
_cell_length_a   5.28584344
_cell_length_b   5.22191578
_cell_length_c   9.00132100
_cell_angle_alpha   90.00000000
_cell_angle_beta   90.00000000
_cell_angle_gamma   117.73021828
_symmetry_Int_Tables_number   1
_chemical_formula_structural   Ho4Re2(TcOs)3
_chemical_formula_sum   'Ho4 Re2 Tc3 Os3'
_cell_volume   219.92088199
_cell_formula_units_Z   1
loop_
 _symmetry_equiv_pos_site_id
 _symmetry_equiv_pos_as_xyz
  1  'x, y, z'
loop_
 _atom_site_type_symbol
 _atom_site_label
 _atom_site_symmetry_multiplicity
 _atom_site_fract_x
 _atom_site_fract_y
 _atom_site_fract_z
 _atom_site_occupancy
  Ho  Ho0  1  0.330878  0.666900  0.437065  1
  Ho  Ho1  1  0.670629  0.333634  0.564266  1
  Ho  Ho2  1  0.670629  0.333634  0.935734  1
  Ho  Ho3  1  0.330878  0.666900  0.062935  1
  Re  Re4  1  0.832002  0.168313  0.250000  1
  Re  Re5  1  0.166829  0.834062  0.750000  1
  Tc  Tc6  1  0.829287  0.653663  0.250000  1
  Tc  Tc7  1  0.344669  0.169135  0.250000  1
  Tc  Tc8  1  0.169907  0.344363  0.750000  1
  Os  Os9  1  0.001774  0.000543  0.500269  1
  Os  Os10  1  0.001774  0.000543  0.999731  1
  Os  Os11  1  0.650746  0.828311  0.750000  1
