# generated using pymatgen
data_Nd2Sn2BRh6
_symmetry_space_group_name_H-M   'P 1'
_cell_length_a   5.90593500
_cell_length_b   5.90593411
_cell_length_c   13.54528600
_cell_angle_alpha   90.00000000
_cell_angle_beta   90.00000000
_cell_angle_gamma   119.99999940
_symmetry_Int_Tables_number   1
_chemical_formula_structural   Nd2Sn2BRh6
_chemical_formula_sum   'Nd4 Sn4 B2 Rh12'
_cell_volume   409.16273566
_cell_formula_units_Z   2
loop_
 _symmetry_equiv_pos_site_id
 _symmetry_equiv_pos_as_xyz
  1  'x, y, z'
loop_
 _atom_site_type_symbol
 _atom_site_label
 _atom_site_symmetry_multiplicity
 _atom_site_fract_x
 _atom_site_fract_y
 _atom_site_fract_z
 _atom_site_occupancy
  Nd  Nd0  1  0.333333  0.666667  0.405743  1
  Nd  Nd1  1  0.666667  0.333333  0.905743  1
  Nd  Nd2  1  0.666667  0.333333  0.594257  1
  Nd  Nd3  1  0.333333  0.666667  0.094257  1
  Sn  Sn4  1  0.000000  0.000000  0.750000  1
  Sn  Sn5  1  0.000000  0.000000  0.250000  1
  Sn  Sn6  1  0.333333  0.666667  0.750000  1
  Sn  Sn7  1  0.666667  0.333333  0.250000  1
  B  B8  1  0.000000  0.000000  0.500000  1
  B  B9  1  0.000000  0.000000  0.000000  1
  Rh  Rh10  1  0.336898  0.168450  0.407814  1
  Rh  Rh11  1  0.831550  0.168450  0.407814  1
  Rh  Rh12  1  0.831550  0.663102  0.407814  1
  Rh  Rh13  1  0.168450  0.336898  0.907814  1
  Rh  Rh14  1  0.663102  0.831550  0.592186  1
  Rh  Rh15  1  0.663102  0.831550  0.907814  1
  Rh  Rh16  1  0.336898  0.168450  0.092186  1
  Rh  Rh17  1  0.168450  0.336898  0.592186  1
  Rh  Rh18  1  0.168450  0.831550  0.592186  1
  Rh  Rh19  1  0.831550  0.168450  0.092186  1
  Rh  Rh20  1  0.831550  0.663102  0.092186  1
  Rh  Rh21  1  0.168450  0.831550  0.907814  1
