# generated using pymatgen
data_Ti6In4CCl18
_symmetry_space_group_name_H-M   'P 1'
_cell_length_a   9.60316679
_cell_length_b   9.86136842
_cell_length_c   9.92532658
_cell_angle_alpha   118.31048860
_cell_angle_beta   100.04359690
_cell_angle_gamma   104.16321494
_symmetry_Int_Tables_number   1
_chemical_formula_structural   Ti6In4CCl18
_chemical_formula_sum   'Ti6 In4 C1 Cl18'
_cell_volume   754.48362972
_cell_formula_units_Z   1
loop_
 _symmetry_equiv_pos_site_id
 _symmetry_equiv_pos_as_xyz
  1  'x, y, z'
loop_
 _atom_site_type_symbol
 _atom_site_label
 _atom_site_symmetry_multiplicity
 _atom_site_fract_x
 _atom_site_fract_y
 _atom_site_fract_z
 _atom_site_occupancy
  Ti  Ti0  1  0.353552  0.445871  0.777668  1
  Ti  Ti1  1  0.364986  0.621284  0.128189  1
  Ti  Ti2  1  0.641893  0.730786  0.043069  1
  Ti  Ti3  1  0.646448  0.554129  0.222332  1
  Ti  Ti4  1  0.358107  0.269214  0.956931  1
  Ti  Ti5  1  0.635014  0.378716  0.871811  1
  In  In6  1  0.184726  0.724417  0.558212  1
  In  In7  1  0.845825  0.963827  0.772150  1
  In  In8  1  0.154175  0.036173  0.227850  1
  In  In9  1  0.815274  0.275583  0.441788  1
  C  C10  1  0.500000  0.500000  0.000000  1
  Cl  Cl11  1  0.811932  0.426166  0.106236  1
  Cl  Cl12  1  0.514173  0.695647  0.392619  1
  Cl  Cl13  1  0.183143  0.991053  0.902446  1
  Cl  Cl14  1  0.188068  0.573834  0.893764  1
  Cl  Cl15  1  0.820620  0.820919  0.299144  1
  Cl  Cl16  1  0.503848  0.303470  0.201858  1
  Cl  Cl17  1  0.792624  0.234473  0.720114  1
  Cl  Cl18  1  0.179380  0.179081  0.700856  1
  Cl  Cl19  1  0.507794  0.893124  0.188874  1
  Cl  Cl20  1  0.808875  0.623871  0.906797  1
  Cl  Cl21  1  0.207376  0.765527  0.279886  1
  Cl  Cl22  1  0.171512  0.379896  0.509960  1
  Cl  Cl23  1  0.496152  0.696530  0.798142  1
  Cl  Cl24  1  0.816857  0.008947  0.097554  1
  Cl  Cl25  1  0.485827  0.304353  0.607381  1
  Cl  Cl26  1  0.191125  0.376129  0.093203  1
  Cl  Cl27  1  0.828488  0.620104  0.490040  1
  Cl  Cl28  1  0.492206  0.106876  0.811126  1
