# generated using pymatgen
data_PrCoP3Rh4
_symmetry_space_group_name_H-M   'P 1'
_cell_length_a   3.89342600
_cell_length_b   10.85685400
_cell_length_c   12.49516100
_cell_angle_alpha   90.00000000
_cell_angle_beta   90.00000000
_cell_angle_gamma   90.00000000
_symmetry_Int_Tables_number   1
_chemical_formula_structural   PrCoP3Rh4
_chemical_formula_sum   'Pr4 Co4 P12 Rh16'
_cell_volume   528.17492426
_cell_formula_units_Z   4
loop_
 _symmetry_equiv_pos_site_id
 _symmetry_equiv_pos_as_xyz
  1  'x, y, z'
loop_
 _atom_site_type_symbol
 _atom_site_label
 _atom_site_symmetry_multiplicity
 _atom_site_fract_x
 _atom_site_fract_y
 _atom_site_fract_z
 _atom_site_occupancy
  Pr  Pr0  1  0.250000  0.585579  0.707168  1
  Pr  Pr1  1  0.250000  0.914421  0.207168  1
  Pr  Pr2  1  0.750000  0.414421  0.292832  1
  Pr  Pr3  1  0.750000  0.085579  0.792832  1
  Co  Co4  1  0.250000  0.464545  0.934861  1
  Co  Co5  1  0.250000  0.035455  0.434861  1
  Co  Co6  1  0.750000  0.535455  0.065139  1
  Co  Co7  1  0.750000  0.964545  0.565139  1
  P  P8  1  0.250000  0.424054  0.104644  1
  P  P9  1  0.250000  0.075946  0.604644  1
  P  P10  1  0.750000  0.575946  0.895356  1
  P  P11  1  0.750000  0.924054  0.395356  1
  P  P12  1  0.250000  0.275702  0.873845  1
  P  P13  1  0.250000  0.224298  0.373845  1
  P  P14  1  0.750000  0.724298  0.126155  1
  P  P15  1  0.750000  0.775702  0.626155  1
  P  P16  1  0.250000  0.602758  0.390036  1
  P  P17  1  0.250000  0.897242  0.890036  1
  P  P18  1  0.750000  0.397242  0.609964  1
  P  P19  1  0.750000  0.102758  0.109964  1
  Rh  Rh20  1  0.250000  0.714756  0.986854  1
  Rh  Rh21  1  0.250000  0.785244  0.486854  1
  Rh  Rh22  1  0.750000  0.285244  0.013146  1
  Rh  Rh23  1  0.750000  0.214756  0.513146  1
  Rh  Rh24  1  0.250000  0.408047  0.483302  1
  Rh  Rh25  1  0.250000  0.091953  0.983302  1
  Rh  Rh26  1  0.750000  0.591953  0.516698  1
  Rh  Rh27  1  0.750000  0.908047  0.016698  1
  Rh  Rh28  1  0.250000  0.225334  0.177428  1
  Rh  Rh29  1  0.250000  0.274666  0.677428  1
  Rh  Rh30  1  0.750000  0.774666  0.822572  1
  Rh  Rh31  1  0.750000  0.725334  0.322572  1
  Rh  Rh32  1  0.250000  0.885077  0.697329  1
  Rh  Rh33  1  0.250000  0.614923  0.197329  1
  Rh  Rh34  1  0.750000  0.114923  0.302671  1
  Rh  Rh35  1  0.750000  0.385077  0.802671  1
