# generated using pymatgen
data_YbSmDy2(B6Os)2
_symmetry_space_group_name_H-M   'P 1'
_cell_length_a   3.66868100
_cell_length_b   9.19674656
_cell_length_c   11.59246513
_cell_angle_alpha   89.83427459
_cell_angle_beta   90.00000000
_cell_angle_gamma   90.00000000
_symmetry_Int_Tables_number   1
_chemical_formula_structural   YbSmDy2(B6Os)2
_chemical_formula_sum   'Yb2 Sm2 Dy4 B24 Os4'
_cell_volume   391.12731852
_cell_formula_units_Z   2
loop_
 _symmetry_equiv_pos_site_id
 _symmetry_equiv_pos_as_xyz
  1  'x, y, z'
loop_
 _atom_site_type_symbol
 _atom_site_label
 _atom_site_symmetry_multiplicity
 _atom_site_fract_x
 _atom_site_fract_y
 _atom_site_fract_z
 _atom_site_occupancy
  Yb  Yb0  1  0.000000  0.324926  0.415106  1
  Yb  Yb1  1  0.000000  0.675074  0.584894  1
  Sm  Sm2  1  0.000000  0.822230  0.086422  1
  Sm  Sm3  1  0.000000  0.177770  0.913578  1
  Dy  Dy4  1  0.000000  0.941651  0.370751  1
  Dy  Dy5  1  0.000000  0.058349  0.629250  1
  Dy  Dy6  1  0.000000  0.442735  0.131538  1
  Dy  Dy7  1  0.000000  0.557265  0.868461  1
  B  B8  1  0.500000  0.553698  0.433079  1
  B  B9  1  0.500000  0.446302  0.566921  1
  B  B10  1  0.500000  0.054689  0.068676  1
  B  B11  1  0.500000  0.945311  0.931324  1
  B  B12  1  0.500000  0.747116  0.418333  1
  B  B13  1  0.500000  0.252884  0.581667  1
  B  B14  1  0.500000  0.248462  0.083664  1
  B  B15  1  0.500000  0.751538  0.916336  1
  B  B16  1  0.500000  0.789675  0.266601  1
  B  B17  1  0.500000  0.210325  0.733399  1
  B  B18  1  0.500000  0.290210  0.235740  1
  B  B19  1  0.500000  0.709789  0.764260  1
  B  B20  1  0.500000  0.630404  0.187047  1
  B  B21  1  0.500000  0.369596  0.812953  1
  B  B22  1  0.500000  0.131265  0.314928  1
  B  B23  1  0.500000  0.868735  0.685072  1
  B  B24  1  0.500000  0.984857  0.213069  1
  B  B25  1  0.500000  0.015143  0.786931  1
  B  B26  1  0.500000  0.483961  0.289438  1
  B  B27  1  0.500000  0.516039  0.710562  1
  B  B28  1  0.500000  0.601215  0.027873  1
  B  B29  1  0.500000  0.398785  0.972127  1
  B  B30  1  0.500000  0.100261  0.472294  1
  B  B31  1  0.500000  0.899739  0.527706  1
  Os  Os32  1  0.000000  0.638685  0.320339  1
  Os  Os33  1  0.000000  0.361315  0.679661  1
  Os  Os34  1  0.000000  0.137881  0.179606  1
  Os  Os35  1  0.000000  0.862119  0.820394  1
