# generated using pymatgen
data_Ag2P3HO9
_symmetry_space_group_name_H-M   'P 1'
_cell_length_a   7.96496264
_cell_length_b   8.35158662
_cell_length_c   7.22487872
_cell_angle_alpha   115.45808723
_cell_angle_beta   103.01493812
_cell_angle_gamma   81.66003527
_symmetry_Int_Tables_number   1
_chemical_formula_structural   Ag2P3HO9
_chemical_formula_sum   'Ag4 P6 H2 O18'
_cell_volume   422.14991282
_cell_formula_units_Z   2
loop_
 _symmetry_equiv_pos_site_id
 _symmetry_equiv_pos_as_xyz
  1  'x, y, z'
loop_
 _atom_site_type_symbol
 _atom_site_label
 _atom_site_symmetry_multiplicity
 _atom_site_fract_x
 _atom_site_fract_y
 _atom_site_fract_z
 _atom_site_occupancy
  Ag  Ag0  1  0.835323  0.363961  0.020023  1
  Ag  Ag1  1  0.147215  0.664658  0.484672  1
  Ag  Ag2  1  0.852787  0.335339  0.515327  1
  Ag  Ag3  1  0.164677  0.636040  0.979976  1
  P  P4  1  0.450213  0.363616  0.176334  1
  P  P5  1  0.794056  0.844747  0.185945  1
  P  P6  1  0.209707  0.158961  0.218486  1
  P  P7  1  0.790294  0.841039  0.781514  1
  P  P8  1  0.205944  0.155252  0.814055  1
  P  P9  1  0.549787  0.636383  0.823666  1
  H  H10  1  0.231818  0.008917  0.427857  1
  H  H11  1  0.768182  0.991083  0.572143  1
  O  O12  1  0.823811  0.932344  0.032971  1
  O  O13  1  0.607850  0.761456  0.072513  1
  O  O14  1  0.932008  0.700532  0.185296  1
  O  O15  1  0.343395  0.535598  0.235526  1
  O  O16  1  0.642974  0.361665  0.222471  1
  O  O17  1  0.238082  0.998126  0.274139  1
  O  O18  1  0.394670  0.240913  0.277708  1
  O  O19  1  0.071911  0.297905  0.301357  1
  O  O20  1  0.773091  0.999165  0.388813  1
  O  O21  1  0.226909  0.000834  0.611186  1
  O  O22  1  0.928089  0.702095  0.698642  1
  O  O23  1  0.605330  0.759086  0.722291  1
  O  O24  1  0.761918  0.001874  0.725861  1
  O  O25  1  0.357027  0.638335  0.777528  1
  O  O26  1  0.656606  0.464402  0.764474  1
  O  O27  1  0.067992  0.299468  0.814703  1
  O  O28  1  0.392150  0.238545  0.927486  1
  O  O29  1  0.176189  0.067656  0.967029  1
