# generated using pymatgen
data_Zr5Ti3Co16(AsP2)4
_symmetry_space_group_name_H-M   'P 1'
_cell_length_a   12.13689715
_cell_length_b   12.11286517
_cell_length_c   3.67924700
_cell_angle_alpha   90.00000000
_cell_angle_beta   90.00000000
_cell_angle_gamma   120.04737974
_symmetry_Int_Tables_number   1
_chemical_formula_structural   Zr5Ti3Co16(AsP2)4
_chemical_formula_sum   'Zr5 Ti3 Co16 As4 P8'
_cell_volume   468.20558272
_cell_formula_units_Z   1
loop_
 _symmetry_equiv_pos_site_id
 _symmetry_equiv_pos_as_xyz
  1  'x, y, z'
loop_
 _atom_site_type_symbol
 _atom_site_label
 _atom_site_symmetry_multiplicity
 _atom_site_fract_x
 _atom_site_fract_y
 _atom_site_fract_z
 _atom_site_occupancy
  Zr  Zr0  1  0.673146  0.334004  0.000000  1
  Zr  Zr1  1  0.333027  0.667132  0.000000  1
  Zr  Zr2  1  0.826122  0.825869  0.500000  1
  Zr  Zr3  1  0.172985  0.999224  0.500000  1
  Zr  Zr4  1  0.999140  0.173755  0.500000  1
  Ti  Ti5  1  0.436935  0.443113  0.000000  1
  Ti  Ti6  1  0.560096  0.999051  0.000000  1
  Ti  Ti7  1  0.000799  0.560509  0.000000  1
  Co  Co8  1  0.200919  0.376124  0.000000  1
  Co  Co9  1  0.173015  0.797408  0.000000  1
  Co  Co10  1  0.829115  0.625824  0.000000  1
  Co  Co11  1  0.797945  0.173003  0.000000  1
  Co  Co12  1  0.367640  0.195985  0.000000  1
  Co  Co13  1  0.131486  0.487696  0.500000  1
  Co  Co14  1  0.355565  0.866718  0.500000  1
  Co  Co15  1  0.511320  0.644668  0.500000  1
  Co  Co16  1  0.652792  0.523373  0.500000  1
  Co  Co17  1  0.868787  0.355303  0.500000  1
  Co  Co18  1  0.487912  0.125256  0.500000  1
  Co  Co19  1  0.998910  0.999457  0.000000  1
  Co  Co20  1  0.718996  0.999138  0.500000  1
  Co  Co21  1  0.000900  0.719245  0.500000  1
  Co  Co22  1  0.624086  0.826058  0.000000  1
  Co  Co23  1  0.275254  0.280772  0.500000  1
  As  As24  1  0.648363  0.648222  0.000000  1
  As  As25  1  0.352036  0.998652  0.000000  1
  As  As26  1  0.999544  0.352258  0.000000  1
  As  As27  1  0.485714  0.315989  0.500000  1
  P  P28  1  0.687327  0.167516  0.500000  1
  P  P29  1  0.833239  0.518950  0.500000  1
  P  P30  1  0.518016  0.831049  0.500000  1
  P  P31  1  0.168923  0.686721  0.500000  1
  P  P32  1  0.822627  0.999487  0.000000  1
  P  P33  1  0.000529  0.823608  0.000000  1
  P  P34  1  0.311948  0.482533  0.500000  1
  P  P35  1  0.174844  0.176327  0.000000  1
