# generated using pymatgen
data_Tb18Y2Sn9Bi7
_symmetry_space_group_name_H-M   'P 1'
_cell_length_a   8.20619276
_cell_length_b   8.23700855
_cell_length_c   15.68584200
_cell_angle_alpha   90.06807684
_cell_angle_beta   89.60553217
_cell_angle_gamma   89.91707538
_symmetry_Int_Tables_number   1
_chemical_formula_structural   Tb18Y2Sn9Bi7
_chemical_formula_sum   'Tb18 Y2 Sn9 Bi7'
_cell_volume   1060.24933269
_cell_formula_units_Z   1
loop_
 _symmetry_equiv_pos_site_id
 _symmetry_equiv_pos_as_xyz
  1  'x, y, z'
loop_
 _atom_site_type_symbol
 _atom_site_label
 _atom_site_symmetry_multiplicity
 _atom_site_fract_x
 _atom_site_fract_y
 _atom_site_fract_z
 _atom_site_occupancy
  Tb  Tb0  1  0.394534  0.837658  0.877747  1
  Tb  Tb1  1  0.897979  0.664224  0.621388  1
  Tb  Tb2  1  0.602207  0.162674  0.378097  1
  Tb  Tb3  1  0.101935  0.337891  0.121170  1
  Tb  Tb4  1  0.607276  0.167469  0.121241  1
  Tb  Tb5  1  0.102268  0.336240  0.378167  1
  Tb  Tb6  1  0.396743  0.837948  0.622542  1
  Tb  Tb7  1  0.892004  0.660898  0.880279  1
  Tb  Tb8  1  0.564896  0.333354  0.890186  1
  Tb  Tb9  1  0.065530  0.169573  0.613894  1
  Tb  Tb10  1  0.435053  0.668321  0.386586  1
  Tb  Tb11  1  0.937402  0.823498  0.111284  1
  Tb  Tb12  1  0.446237  0.665692  0.110027  1
  Tb  Tb13  1  0.934525  0.830422  0.385999  1
  Tb  Tb14  1  0.565808  0.331781  0.613505  1
  Tb  Tb15  1  0.056657  0.173963  0.889792  1
  Tb  Tb16  1  0.228439  0.500208  0.750766  1
  Tb  Tb17  1  0.728325  0.002141  0.750777  1
  Y  Y18  1  0.771754  0.499613  0.246261  1
  Y  Y19  1  0.271443  0.998076  0.248765  1
  Sn  Sn20  1  0.768679  0.480329  0.044474  1
  Sn  Sn21  1  0.594482  0.629289  0.749784  1
  Sn  Sn22  1  0.092798  0.872407  0.751090  1
  Sn  Sn23  1  0.404755  0.370780  0.250322  1
  Sn  Sn24  1  0.905978  0.126894  0.250018  1
  Sn  Sn25  1  0.366234  0.143266  0.751428  1
  Sn  Sn26  1  0.866620  0.360063  0.750245  1
  Sn  Sn27  1  0.633417  0.858654  0.249460  1
  Sn  Sn28  1  0.135466  0.640215  0.249642  1
  Bi  Bi29  1  0.265246  0.015810  0.044446  1
  Bi  Bi30  1  0.763576  0.486547  0.454123  1
  Bi  Bi31  1  0.736684  0.987437  0.545015  1
  Bi  Bi32  1  0.233349  0.518815  0.955726  1
  Bi  Bi33  1  0.731701  0.981876  0.955850  1
  Bi  Bi34  1  0.237321  0.513530  0.545097  1
  Bi  Bi35  1  0.262675  0.012441  0.454802  1
