# generated using pymatgen
data_Nb4Pt(RhSe6)2
_symmetry_space_group_name_H-M   'P 1'
_cell_length_a   7.53017704
_cell_length_b   7.53017631
_cell_length_c   19.59896978
_cell_angle_alpha   69.78863581
_cell_angle_beta   69.78863776
_cell_angle_gamma   26.79885269
_symmetry_Int_Tables_number   1
_chemical_formula_structural   Nb4Pt(RhSe6)2
_chemical_formula_sum   'Nb4 Pt1 Rh2 Se12'
_cell_volume   468.38999439
_cell_formula_units_Z   1
loop_
 _symmetry_equiv_pos_site_id
 _symmetry_equiv_pos_as_xyz
  1  'x, y, z'
loop_
 _atom_site_type_symbol
 _atom_site_label
 _atom_site_symmetry_multiplicity
 _atom_site_fract_x
 _atom_site_fract_y
 _atom_site_fract_z
 _atom_site_occupancy
  Nb  Nb0  1  0.745256  0.745256  0.592203  1
  Nb  Nb1  1  0.254744  0.254744  0.407797  1
  Nb  Nb2  1  0.620869  0.620869  0.849986  1
  Nb  Nb3  1  0.379131  0.379131  0.150014  1
  Pt  Pt4  1  0.000000  0.000000  0.000000  1
  Rh  Rh5  1  0.772679  0.772679  0.281913  1
  Rh  Rh6  1  0.227321  0.227321  0.718087  1
  Se  Se7  1  0.860322  0.860322  0.450777  1
  Se  Se8  1  0.022982  0.022982  0.118772  1
  Se  Se9  1  0.802444  0.802444  0.770608  1
  Se  Se10  1  0.396822  0.396822  0.281708  1
  Se  Se11  1  0.177036  0.177036  0.928334  1
  Se  Se12  1  0.603178  0.603178  0.718292  1
  Se  Se13  1  0.139678  0.139678  0.549223  1
  Se  Se14  1  0.822964  0.822964  0.071666  1
  Se  Se15  1  0.371222  0.371222  0.601506  1
  Se  Se16  1  0.977018  0.977018  0.881228  1
  Se  Se17  1  0.197556  0.197556  0.229392  1
  Se  Se18  1  0.628778  0.628778  0.398494  1
