# generated using pymatgen
data_Yb8Cu3Si12Pt
_symmetry_space_group_name_H-M   'P 1'
_cell_length_a   8.11234500
_cell_length_b   8.11234451
_cell_length_c   8.36156000
_cell_angle_alpha   90.00000000
_cell_angle_beta   90.00000000
_cell_angle_gamma   120.00000608
_symmetry_Int_Tables_number   1
_chemical_formula_structural   Yb8Cu3Si12Pt
_chemical_formula_sum   'Yb8 Cu3 Si12 Pt1'
_cell_volume   476.55245730
_cell_formula_units_Z   1
loop_
 _symmetry_equiv_pos_site_id
 _symmetry_equiv_pos_as_xyz
  1  'x, y, z'
loop_
 _atom_site_type_symbol
 _atom_site_label
 _atom_site_symmetry_multiplicity
 _atom_site_fract_x
 _atom_site_fract_y
 _atom_site_fract_z
 _atom_site_occupancy
  Yb  Yb0  1  0.499193  0.998385  0.252189  1
  Yb  Yb1  1  0.499424  0.998848  0.747878  1
  Yb  Yb2  1  0.001615  0.500807  0.252189  1
  Yb  Yb3  1  0.001152  0.500576  0.747878  1
  Yb  Yb4  1  0.499193  0.500807  0.252189  1
  Yb  Yb5  1  0.499424  0.500576  0.747878  1
  Yb  Yb6  1  0.000000  0.000000  0.249411  1
  Yb  Yb7  1  0.000000  0.000000  0.750527  1
  Cu  Cu8  1  0.333333  0.666667  0.000136  1
  Cu  Cu9  1  0.666667  0.333333  0.000247  1
  Cu  Cu10  1  0.666667  0.333333  0.499184  1
  Si  Si11  1  0.167311  0.334623  0.999811  1
  Si  Si12  1  0.832508  0.665014  0.000271  1
  Si  Si13  1  0.665377  0.832689  0.999811  1
  Si  Si14  1  0.833515  0.667029  0.500106  1
  Si  Si15  1  0.334986  0.167492  0.000271  1
  Si  Si16  1  0.165718  0.331436  0.499762  1
  Si  Si17  1  0.167311  0.832689  0.999811  1
  Si  Si18  1  0.332971  0.166485  0.500106  1
  Si  Si19  1  0.832508  0.167492  0.000271  1
  Si  Si20  1  0.668564  0.834282  0.499762  1
  Si  Si21  1  0.833515  0.166485  0.500106  1
  Si  Si22  1  0.165718  0.834282  0.499762  1
  Pt  Pt23  1  0.333333  0.666667  0.500445  1
