# generated using pymatgen
data_KSc(SeO4)2
_symmetry_space_group_name_H-M   'P 1'
_cell_length_a   5.21428650
_cell_length_b   5.21428674
_cell_length_c   8.23819603
_cell_angle_alpha   93.56387705
_cell_angle_beta   93.56388194
_cell_angle_gamma   65.40109836
_symmetry_Int_Tables_number   1
_chemical_formula_structural   KSc(SeO4)2
_chemical_formula_sum   'K1 Sc1 Se2 O8'
_cell_volume   203.10203041
_cell_formula_units_Z   1
loop_
 _symmetry_equiv_pos_site_id
 _symmetry_equiv_pos_as_xyz
  1  'x, y, z'
loop_
 _atom_site_type_symbol
 _atom_site_label
 _atom_site_symmetry_multiplicity
 _atom_site_fract_x
 _atom_site_fract_y
 _atom_site_fract_z
 _atom_site_occupancy
  K  K0  1  0.000054  0.000054  0.500001  1
  Sc  Sc1  1  0.999953  0.999953  0.999986  1
  Se  Se2  1  0.370582  0.370582  0.208206  1
  Se  Se3  1  0.629405  0.629405  0.791792  1
  O  O4  1  0.235270  0.235270  0.053994  1
  O  O5  1  0.722365  0.239568  0.186321  1
  O  O6  1  0.239568  0.722365  0.186321  1
  O  O7  1  0.307615  0.307615  0.390781  1
  O  O8  1  0.692461  0.692461  0.609251  1
  O  O9  1  0.760434  0.277620  0.813651  1
  O  O10  1  0.277620  0.760434  0.813651  1
  O  O11  1  0.764674  0.764674  0.946043  1
