# generated using pymatgen
data_Nd8Er12Si15Pd
_symmetry_space_group_name_H-M   'P 1'
_cell_length_a   7.43275540
_cell_length_b   14.70789700
_cell_length_c   7.82237938
_cell_angle_alpha   90.00000000
_cell_angle_beta   90.06920305
_cell_angle_gamma   90.00000000
_symmetry_Int_Tables_number   1
_chemical_formula_structural   Nd8Er12Si15Pd
_chemical_formula_sum   'Nd8 Er12 Si15 Pd1'
_cell_volume   855.14346121
_cell_formula_units_Z   1
loop_
 _symmetry_equiv_pos_site_id
 _symmetry_equiv_pos_as_xyz
  1  'x, y, z'
loop_
 _atom_site_type_symbol
 _atom_site_label
 _atom_site_symmetry_multiplicity
 _atom_site_fract_x
 _atom_site_fract_y
 _atom_site_fract_z
 _atom_site_occupancy
  Nd  Nd0  1  0.020328  0.096906  0.180527  1
  Nd  Nd1  1  0.020328  0.403094  0.180527  1
  Nd  Nd2  1  0.519710  0.097039  0.320789  1
  Nd  Nd3  1  0.519710  0.402961  0.320789  1
  Nd  Nd4  1  0.481081  0.595575  0.679113  1
  Nd  Nd5  1  0.481081  0.904425  0.679113  1
  Nd  Nd6  1  0.981940  0.594209  0.819234  1
  Nd  Nd7  1  0.981940  0.905791  0.819234  1
  Er  Er8  1  0.345825  0.250000  0.011864  1
  Er  Er9  1  0.315361  0.624863  0.173535  1
  Er  Er10  1  0.315361  0.875136  0.173535  1
  Er  Er11  1  0.821393  0.623914  0.323296  1
  Er  Er12  1  0.821393  0.876085  0.323296  1
  Er  Er13  1  0.845813  0.250000  0.488727  1
  Er  Er14  1  0.151151  0.750000  0.515040  1
  Er  Er15  1  0.179564  0.124303  0.678341  1
  Er  Er16  1  0.179564  0.375696  0.678341  1
  Er  Er17  1  0.680025  0.124761  0.824809  1
  Er  Er18  1  0.680025  0.375238  0.824809  1
  Er  Er19  1  0.659001  0.750000  0.991689  1
  Si  Si20  1  0.648980  0.539094  0.031990  1
  Si  Si21  1  0.648980  0.960906  0.031990  1
  Si  Si22  1  0.725240  0.250000  0.123613  1
  Si  Si23  1  0.225520  0.250000  0.376600  1
  Si  Si24  1  0.523707  0.750000  0.389966  1
  Si  Si25  1  0.149471  0.538727  0.469850  1
  Si  Si26  1  0.149471  0.961273  0.469850  1
  Si  Si27  1  0.851867  0.039303  0.532539  1
  Si  Si28  1  0.851867  0.460696  0.532539  1
  Si  Si29  1  0.474988  0.250000  0.612697  1
  Si  Si30  1  0.768394  0.750000  0.621544  1
  Si  Si31  1  0.277128  0.750000  0.871799  1
  Si  Si32  1  0.975739  0.250000  0.887421  1
  Si  Si33  1  0.353096  0.039301  0.968156  1
  Si  Si34  1  0.353096  0.460698  0.968156  1
  Pd  Pd35  1  0.021861  0.750000  0.104678  1
