# generated using pymatgen
data_ErZr2(Ni3P2)3
_symmetry_space_group_name_H-M   'P 1'
_cell_length_a   3.68540200
_cell_length_b   10.39688900
_cell_length_c   12.13758100
_cell_angle_alpha   90.00000000
_cell_angle_beta   90.00000000
_cell_angle_gamma   90.00000000
_symmetry_Int_Tables_number   1
_chemical_formula_structural   ErZr2(Ni3P2)3
_chemical_formula_sum   'Er2 Zr4 Ni18 P12'
_cell_volume   465.07223821
_cell_formula_units_Z   2
loop_
 _symmetry_equiv_pos_site_id
 _symmetry_equiv_pos_as_xyz
  1  'x, y, z'
loop_
 _atom_site_type_symbol
 _atom_site_label
 _atom_site_symmetry_multiplicity
 _atom_site_fract_x
 _atom_site_fract_y
 _atom_site_fract_z
 _atom_site_occupancy
  Er  Er0  1  0.751928  0.000000  0.474908  1
  Er  Er1  1  0.251928  0.500000  0.525092  1
  Zr  Zr2  1  0.251720  0.679314  0.795243  1
  Zr  Zr3  1  0.251720  0.320686  0.795243  1
  Zr  Zr4  1  0.751720  0.820686  0.204757  1
  Zr  Zr5  1  0.751720  0.179314  0.204757  1
  Ni  Ni6  1  0.751223  0.000000  0.013137  1
  Ni  Ni7  1  0.251223  0.500000  0.986863  1
  Ni  Ni8  1  0.251993  0.198409  0.571057  1
  Ni  Ni9  1  0.251993  0.801591  0.571057  1
  Ni  Ni10  1  0.751993  0.301591  0.428943  1
  Ni  Ni11  1  0.751993  0.698409  0.428943  1
  Ni  Ni12  1  0.252401  0.623594  0.289754  1
  Ni  Ni13  1  0.252401  0.376406  0.289754  1
  Ni  Ni14  1  0.752401  0.876406  0.710246  1
  Ni  Ni15  1  0.752401  0.123594  0.710246  1
  Ni  Ni16  1  0.251049  0.168879  0.003951  1
  Ni  Ni17  1  0.251049  0.831121  0.003951  1
  Ni  Ni18  1  0.751049  0.331121  0.996049  1
  Ni  Ni19  1  0.751049  0.668879  0.996049  1
  Ni  Ni20  1  0.252747  0.000000  0.838635  1
  Ni  Ni21  1  0.752747  0.500000  0.161365  1
  Ni  Ni22  1  0.251994  0.000000  0.297790  1
  Ni  Ni23  1  0.751994  0.500000  0.702210  1
  P  P24  1  0.251871  0.185249  0.382853  1
  P  P25  1  0.251871  0.814751  0.382853  1
  P  P26  1  0.751871  0.314751  0.617147  1
  P  P27  1  0.751871  0.685249  0.617147  1
  P  P28  1  0.251441  0.000000  0.121796  1
  P  P29  1  0.751441  0.500000  0.878204  1
  P  P30  1  0.251660  0.655613  0.111121  1
  P  P31  1  0.251660  0.344387  0.111121  1
  P  P32  1  0.751660  0.844387  0.888879  1
  P  P33  1  0.751660  0.155613  0.888879  1
  P  P34  1  0.252081  0.000000  0.653390  1
  P  P35  1  0.752081  0.500000  0.346610  1
