# generated using pymatgen
data_PrNd3Cu3Bi8
_symmetry_space_group_name_H-M   'P 1'
_cell_length_a   11.00137666
_cell_length_b   11.00137663
_cell_length_c   11.01052200
_cell_angle_alpha   145.72180337
_cell_angle_beta   145.72181242
_cell_angle_gamma   49.22479376
_symmetry_Int_Tables_number   1
_chemical_formula_structural   PrNd3Cu3Bi8
_chemical_formula_sum   'Pr1 Nd3 Cu3 Bi8'
_cell_volume   420.85563038
_cell_formula_units_Z   1
loop_
 _symmetry_equiv_pos_site_id
 _symmetry_equiv_pos_as_xyz
  1  'x, y, z'
loop_
 _atom_site_type_symbol
 _atom_site_label
 _atom_site_symmetry_multiplicity
 _atom_site_fract_x
 _atom_site_fract_y
 _atom_site_fract_z
 _atom_site_occupancy
  Pr  Pr0  1  0.130951  0.130951  0.492894  1
  Nd  Nd1  1  0.639772  0.639772  0.509450  1
  Nd  Nd2  1  0.360161  0.868907  0.999550  1
  Nd  Nd3  1  0.868907  0.360161  0.999550  1
  Cu  Cu4  1  0.999256  0.999256  0.997314  1
  Cu  Cu5  1  0.000521  0.501588  0.501071  1
  Cu  Cu6  1  0.501588  0.000521  0.501071  1
  Bi  Bi7  1  0.330263  0.330263  0.510821  1
  Bi  Bi8  1  0.818112  0.818112  0.486538  1
  Bi  Bi9  1  0.670740  0.182683  0.000990  1
  Bi  Bi10  1  0.182683  0.670740  0.000990  1
  Bi  Bi11  1  0.249462  0.249462  0.000520  1
  Bi  Bi12  1  0.748574  0.748574  0.999412  1
  Bi  Bi13  1  0.748975  0.250034  0.499912  1
  Bi  Bi14  1  0.250034  0.748975  0.499912  1
