# generated using pymatgen
data_Ca3Yb3(InAs2)4
_symmetry_space_group_name_H-M   'P 1'
_cell_length_a   4.37212000
_cell_length_b   6.61899340
_cell_length_c   16.25155798
_cell_angle_alpha   90.03981342
_cell_angle_beta   90.00000000
_cell_angle_gamma   90.00000000
_symmetry_Int_Tables_number   1
_chemical_formula_structural   Ca3Yb3(InAs2)4
_chemical_formula_sum   'Ca3 Yb3 In4 As8'
_cell_volume   470.30426602
_cell_formula_units_Z   1
loop_
 _symmetry_equiv_pos_site_id
 _symmetry_equiv_pos_as_xyz
  1  'x, y, z'
loop_
 _atom_site_type_symbol
 _atom_site_label
 _atom_site_symmetry_multiplicity
 _atom_site_fract_x
 _atom_site_fract_y
 _atom_site_fract_z
 _atom_site_occupancy
  Ca  Ca0  1  0.500000  0.776359  0.695731  1
  Ca  Ca1  1  0.000000  0.723857  0.195649  1
  Ca  Ca2  1  0.500000  0.223766  0.304324  1
  Yb  Yb3  1  0.000000  0.277369  0.804135  1
  Yb  Yb4  1  0.000000  0.000104  0.999849  1
  Yb  Yb5  1  0.500000  0.500036  0.499998  1
  In  In6  1  0.000000  0.858796  0.412038  1
  In  In7  1  0.500000  0.358582  0.087889  1
  In  In8  1  0.000000  0.141852  0.588319  1
  In  In9  1  0.500000  0.640449  0.911789  1
  As  As10  1  0.500000  0.238412  0.928273  1
  As  As11  1  0.500000  0.761283  0.071142  1
  As  As12  1  0.000000  0.225158  0.172959  1
  As  As13  1  0.000000  0.261397  0.428814  1
  As  As14  1  0.500000  0.725069  0.327029  1
  As  As15  1  0.000000  0.774611  0.826936  1
  As  As16  1  0.000000  0.738731  0.571316  1
  As  As17  1  0.500000  0.274170  0.673809  1
