# generated using pymatgen
data_Li8B4Pd11Pt
_symmetry_space_group_name_H-M   'P 1'
_cell_length_a   6.81947192
_cell_length_b   6.81947192
_cell_length_c   6.85163940
_cell_angle_alpha   90.28934769
_cell_angle_beta   90.28934769
_cell_angle_gamma   90.36097369
_symmetry_Int_Tables_number   1
_chemical_formula_structural   Li8B4Pd11Pt
_chemical_formula_sum   'Li8 B4 Pd11 Pt1'
_cell_volume   318.62234097
_cell_formula_units_Z   1
loop_
 _symmetry_equiv_pos_site_id
 _symmetry_equiv_pos_as_xyz
  1  'x, y, z'
loop_
 _atom_site_type_symbol
 _atom_site_label
 _atom_site_symmetry_multiplicity
 _atom_site_fract_x
 _atom_site_fract_y
 _atom_site_fract_z
 _atom_site_occupancy
  Li  Li0  1  0.304055  0.303789  0.308758  1
  Li  Li1  1  0.056951  0.440350  0.556216  1
  Li  Li2  1  0.553523  0.057775  0.444985  1
  Li  Li3  1  0.440591  0.555669  0.058572  1
  Li  Li4  1  0.192225  0.696477  0.805015  1
  Li  Li5  1  0.946211  0.945945  0.941242  1
  Li  Li6  1  0.809650  0.193049  0.693784  1
  Li  Li7  1  0.694331  0.809409  0.191428  1
  B  B8  1  0.880001  0.369999  0.125000  1
  B  B9  1  0.369877  0.120224  0.872046  1
  B  B10  1  0.630097  0.619903  0.625000  1
  B  B11  1  0.129776  0.880123  0.377954  1
  Pd  Pd12  1  0.450131  0.375979  0.697759  1
  Pd  Pd13  1  0.052727  0.627365  0.200018  1
  Pd  Pd14  1  0.940714  0.123664  0.304342  1
  Pd  Pd15  1  0.305983  0.944017  0.125000  1
  Pd  Pd16  1  0.696387  0.449689  0.369621  1
  Pd  Pd17  1  0.551608  0.870675  0.802013  1
  Pd  Pd18  1  0.622635  0.197273  0.049982  1
  Pd  Pd19  1  0.379325  0.698392  0.447987  1
  Pd  Pd20  1  0.874021  0.799869  0.552241  1
  Pd  Pd21  1  0.126336  0.309286  0.945658  1
  Pd  Pd22  1  0.800311  0.553613  0.880379  1
  Pt  Pt23  1  0.192534  0.057466  0.625000  1
