# generated using pymatgen
data_Dy16Cd4NiRu3
_symmetry_space_group_name_H-M   'P 1'
_cell_length_a   9.54623548
_cell_length_b   9.65084025
_cell_length_c   9.65084000
_cell_angle_alpha   60.00000084
_cell_angle_beta   59.63685628
_cell_angle_gamma   59.63685578
_symmetry_Int_Tables_number   1
_chemical_formula_structural   Dy16Cd4NiRu3
_chemical_formula_sum   'Dy16 Cd4 Ni1 Ru3'
_cell_volume   625.23264632
_cell_formula_units_Z   1
loop_
 _symmetry_equiv_pos_site_id
 _symmetry_equiv_pos_as_xyz
  1  'x, y, z'
loop_
 _atom_site_type_symbol
 _atom_site_label
 _atom_site_symmetry_multiplicity
 _atom_site_fract_x
 _atom_site_fract_y
 _atom_site_fract_z
 _atom_site_occupancy
  Dy  Dy0  1  0.600386  0.595979  0.595979  1
  Dy  Dy1  1  0.600386  0.595979  0.207657  1
  Dy  Dy2  1  0.600386  0.207657  0.595979  1
  Dy  Dy3  1  0.209537  0.596821  0.596821  1
  Dy  Dy4  1  0.060821  0.438397  0.438397  1
  Dy  Dy5  1  0.438136  0.061539  0.061539  1
  Dy  Dy6  1  0.438136  0.061539  0.438786  1
  Dy  Dy7  1  0.060821  0.438397  0.062385  1
  Dy  Dy8  1  0.438136  0.438786  0.061539  1
  Dy  Dy9  1  0.060821  0.062385  0.438397  1
  Dy  Dy10  1  0.187365  0.811757  0.811757  1
  Dy  Dy11  1  0.809885  0.186673  0.186673  1
  Dy  Dy12  1  0.809885  0.186673  0.816768  1
  Dy  Dy13  1  0.187365  0.811757  0.189121  1
  Dy  Dy14  1  0.809885  0.816768  0.186673  1
  Dy  Dy15  1  0.187365  0.189121  0.811757  1
  Cd  Cd16  1  0.829132  0.830509  0.830509  1
  Cd  Cd17  1  0.829132  0.830509  0.509849  1
  Cd  Cd18  1  0.829132  0.509849  0.830509  1
  Cd  Cd19  1  0.508263  0.830579  0.830579  1
  Ni  Ni20  1  0.825574  0.391475  0.391475  1
  Ru  Ru21  1  0.393150  0.389629  0.389629  1
  Ru  Ru22  1  0.393150  0.389629  0.827591  1
  Ru  Ru23  1  0.393150  0.827591  0.389629  1
