# generated using pymatgen
data_MnHgTeO6
_symmetry_space_group_name_H-M   'P 1'
_cell_length_a   5.16654700
_cell_length_b   5.16657737
_cell_length_c   5.03068100
_cell_angle_alpha   89.99992736
_cell_angle_beta   90.00042381
_cell_angle_gamma   119.99976165
_symmetry_Int_Tables_number   1
_chemical_formula_structural   MnHgTeO6
_chemical_formula_sum   'Mn1 Hg1 Te1 O6'
_cell_volume   116.29519625
_cell_formula_units_Z   1
loop_
 _symmetry_equiv_pos_site_id
 _symmetry_equiv_pos_as_xyz
  1  'x, y, z'
loop_
 _atom_site_type_symbol
 _atom_site_label
 _atom_site_symmetry_multiplicity
 _atom_site_fract_x
 _atom_site_fract_y
 _atom_site_fract_z
 _atom_site_occupancy
  Mn  Mn0  1  0.999960  0.999940  0.500055  1
  Hg  Hg1  1  0.666673  0.333340  0.999993  1
  Te  Te2  1  0.333342  0.666679  0.499993  1
  O  O3  1  0.291904  0.330179  0.287727  1
  O  O4  1  0.038279  0.708109  0.287729  1
  O  O5  1  0.669831  0.961731  0.287728  1
  O  O6  1  0.038280  0.330180  0.712261  1
  O  O7  1  0.669832  0.708109  0.712257  1
  O  O8  1  0.291902  0.961731  0.712258  1
