# generated using pymatgen
data_Y8Sc12Si15Sn
_symmetry_space_group_name_H-M   'P 1'
_cell_length_a   7.13582157
_cell_length_b   7.42371948
_cell_length_c   14.07764507
_cell_angle_alpha   90.00885945
_cell_angle_beta   89.57276562
_cell_angle_gamma   90.01635709
_symmetry_Int_Tables_number   1
_chemical_formula_structural   Y8Sc12Si15Sn
_chemical_formula_sum   'Y8 Sc12 Si15 Sn1'
_cell_volume   745.73315120
_cell_formula_units_Z   1
loop_
 _symmetry_equiv_pos_site_id
 _symmetry_equiv_pos_as_xyz
  1  'x, y, z'
loop_
 _atom_site_type_symbol
 _atom_site_label
 _atom_site_symmetry_multiplicity
 _atom_site_fract_x
 _atom_site_fract_y
 _atom_site_fract_z
 _atom_site_occupancy
  Y  Y0  1  0.011486  0.175880  0.096465  1
  Y  Y1  1  0.988356  0.824789  0.904443  1
  Y  Y2  1  0.489142  0.675955  0.904353  1
  Y  Y3  1  0.989363  0.830427  0.598374  1
  Y  Y4  1  0.510826  0.324036  0.096754  1
  Y  Y5  1  0.005723  0.169582  0.399128  1
  Y  Y6  1  0.512879  0.320482  0.399506  1
  Y  Y7  1  0.501169  0.684208  0.599994  1
  Sc  Sc8  1  0.162523  0.501999  0.755088  1
  Sc  Sc9  1  0.837069  0.497966  0.249122  1
  Sc  Sc10  1  0.337336  0.002308  0.249279  1
  Sc  Sc11  1  0.664124  0.997742  0.751823  1
  Sc  Sc12  1  0.343322  0.162668  0.630953  1
  Sc  Sc13  1  0.663875  0.824947  0.372514  1
  Sc  Sc14  1  0.163407  0.683440  0.369135  1
  Sc  Sc15  1  0.667674  0.822896  0.124227  1
  Sc  Sc16  1  0.823276  0.323599  0.626751  1
  Sc  Sc17  1  0.330757  0.175978  0.875465  1
  Sc  Sc18  1  0.831331  0.323295  0.875529  1
  Sc  Sc19  1  0.168588  0.676790  0.125094  1
  Si  Si20  1  0.035140  0.118854  0.751259  1
  Si  Si21  1  0.962977  0.884813  0.246808  1
  Si  Si22  1  0.465151  0.615696  0.248515  1
  Si  Si23  1  0.533252  0.385205  0.752238  1
  Si  Si24  1  0.286694  0.870378  0.752464  1
  Si  Si25  1  0.712224  0.126309  0.247433  1
  Si  Si26  1  0.211878  0.373037  0.249069  1
  Si  Si27  1  0.789662  0.627766  0.751652  1
  Si  Si28  1  0.830413  0.539217  0.458595  1
  Si  Si29  1  0.338356  0.963717  0.460263  1
  Si  Si30  1  0.842223  0.534840  0.039498  1
  Si  Si31  1  0.662194  0.037482  0.537922  1
  Si  Si32  1  0.156905  0.464606  0.961533  1
  Si  Si33  1  0.656931  0.035493  0.960762  1
  Si  Si34  1  0.341786  0.965101  0.039795  1
  Sn  Sn35  1  0.171989  0.458502  0.538197  1
