# generated using pymatgen
data_SrCr4(AuO8)2
_symmetry_space_group_name_H-M   'P 1'
_cell_length_a   6.88772271
_cell_length_b   6.88890167
_cell_length_c   9.34136388
_cell_angle_alpha   74.75633266
_cell_angle_beta   74.69664689
_cell_angle_gamma   89.58758399
_symmetry_Int_Tables_number   1
_chemical_formula_structural   SrCr4(AuO8)2
_chemical_formula_sum   'Sr1 Cr4 Au2 O16'
_cell_volume   411.55665466
_cell_formula_units_Z   1
loop_
 _symmetry_equiv_pos_site_id
 _symmetry_equiv_pos_as_xyz
  1  'x, y, z'
loop_
 _atom_site_type_symbol
 _atom_site_label
 _atom_site_symmetry_multiplicity
 _atom_site_fract_x
 _atom_site_fract_y
 _atom_site_fract_z
 _atom_site_occupancy
  Sr  Sr0  1  0.000000  0.000000  0.000000  1
  Cr  Cr1  1  0.087820  0.591908  0.731111  1
  Cr  Cr2  1  0.591392  0.087398  0.731199  1
  Cr  Cr3  1  0.912180  0.408092  0.268889  1
  Cr  Cr4  1  0.408608  0.912602  0.268801  1
  Au  Au5  1  0.000000  0.000000  0.500000  1
  Au  Au6  1  0.500000  0.500000  0.500000  1
  O  O7  1  0.346046  0.630226  0.660247  1
  O  O8  1  0.630006  0.345437  0.660334  1
  O  O9  1  0.653954  0.369774  0.339753  1
  O  O10  1  0.369994  0.654563  0.339666  1
  O  O11  1  0.020847  0.704902  0.867167  1
  O  O12  1  0.704449  0.020286  0.867097  1
  O  O13  1  0.979153  0.295098  0.132833  1
  O  O14  1  0.295551  0.979714  0.132903  1
  O  O15  1  0.982165  0.698065  0.582571  1
  O  O16  1  0.697749  0.982161  0.582374  1
  O  O17  1  0.017835  0.301935  0.417429  1
  O  O18  1  0.302251  0.017839  0.417626  1
  O  O19  1  0.022452  0.351888  0.792212  1
  O  O20  1  0.351105  0.022217  0.791959  1
  O  O21  1  0.977548  0.648112  0.207788  1
  O  O22  1  0.648895  0.977783  0.208041  1
