# generated using pymatgen
data_Dy16Cd4CoNi2Ru
_symmetry_space_group_name_H-M   'P 1'
_cell_length_a   9.52491218
_cell_length_b   9.52491139
_cell_length_c   9.59529895
_cell_angle_alpha   60.08129944
_cell_angle_beta   60.08130033
_cell_angle_gamma   59.88925825
_symmetry_Int_Tables_number   1
_chemical_formula_structural   Dy16Cd4CoNi2Ru
_chemical_formula_sum   'Dy16 Cd4 Co1 Ni2 Ru1'
_cell_volume   615.78959379
_cell_formula_units_Z   1
loop_
 _symmetry_equiv_pos_site_id
 _symmetry_equiv_pos_as_xyz
  1  'x, y, z'
loop_
 _atom_site_type_symbol
 _atom_site_label
 _atom_site_symmetry_multiplicity
 _atom_site_fract_x
 _atom_site_fract_y
 _atom_site_fract_z
 _atom_site_occupancy
  Dy  Dy0  1  0.151741  0.543143  0.154737  1
  Dy  Dy1  1  0.689044  0.313000  0.688506  1
  Dy  Dy2  1  0.685851  0.311862  0.310613  1
  Dy  Dy3  1  0.939049  0.563016  0.563429  1
  Dy  Dy4  1  0.543143  0.151741  0.154737  1
  Dy  Dy5  1  0.152025  0.152025  0.543594  1
  Dy  Dy6  1  0.936064  0.936064  0.563058  1
  Dy  Dy7  1  0.311862  0.685851  0.310613  1
  Dy  Dy8  1  0.562028  0.940717  0.934092  1
  Dy  Dy9  1  0.563016  0.939049  0.563429  1
  Dy  Dy10  1  0.689380  0.689380  0.311217  1
  Dy  Dy11  1  0.560994  0.560994  0.937511  1
  Dy  Dy12  1  0.940717  0.562028  0.934092  1
  Dy  Dy13  1  0.313000  0.689044  0.688506  1
  Dy  Dy14  1  0.151496  0.151496  0.154211  1
  Dy  Dy15  1  0.311543  0.311543  0.685041  1
  Cd  Cd16  1  0.919271  0.243671  0.918664  1
  Cd  Cd17  1  0.920481  0.920481  0.918789  1
  Cd  Cd18  1  0.919723  0.919723  0.242856  1
  Cd  Cd19  1  0.243671  0.919271  0.918664  1
  Co  Co20  1  0.356312  0.356312  0.361172  1
  Ni  Ni21  1  0.357665  0.924933  0.358658  1
  Ni  Ni22  1  0.924933  0.357665  0.358658  1
  Ru  Ru23  1  0.356992  0.356992  0.925155  1
