# generated using pymatgen
data_Sr6SiSn3As8
_symmetry_space_group_name_H-M   'P 1'
_cell_length_a   19.19400800
_cell_length_b   7.77117396
_cell_length_c   7.74379645
_cell_angle_alpha   67.89803774
_cell_angle_beta   90.00000000
_cell_angle_gamma   90.00000000
_symmetry_Int_Tables_number   1
_chemical_formula_structural   Sr6SiSn3As8
_chemical_formula_sum   'Sr12 Si2 Sn6 As16'
_cell_volume   1070.18543229
_cell_formula_units_Z   2
loop_
 _symmetry_equiv_pos_site_id
 _symmetry_equiv_pos_as_xyz
  1  'x, y, z'
loop_
 _atom_site_type_symbol
 _atom_site_label
 _atom_site_symmetry_multiplicity
 _atom_site_fract_x
 _atom_site_fract_y
 _atom_site_fract_z
 _atom_site_occupancy
  Sr  Sr0  1  0.817129  0.788945  0.011496  1
  Sr  Sr1  1  0.317129  0.211055  0.488504  1
  Sr  Sr2  1  0.183429  0.212326  0.989292  1
  Sr  Sr3  1  0.683429  0.787674  0.510708  1
  Sr  Sr4  1  0.558792  0.741943  0.011234  1
  Sr  Sr5  1  0.058792  0.258057  0.488766  1
  Sr  Sr6  1  0.439414  0.258218  0.988488  1
  Sr  Sr7  1  0.939414  0.741782  0.511512  1
  Sr  Sr8  1  0.060409  0.736856  0.004156  1
  Sr  Sr9  1  0.560409  0.263144  0.495844  1
  Sr  Sr10  1  0.937035  0.264355  0.995181  1
  Sr  Sr11  1  0.437035  0.735645  0.504819  1
  Si  Si12  1  0.378546  0.793816  0.033639  1
  Si  Si13  1  0.878546  0.206184  0.466361  1
  Sn  Sn14  1  0.623315  0.206978  0.970758  1
  Sn  Sn15  1  0.123315  0.793022  0.529242  1
  Sn  Sn16  1  0.245240  0.676127  0.409255  1
  Sn  Sn17  1  0.745240  0.323873  0.090745  1
  Sn  Sn18  1  0.764439  0.313959  0.583471  1
  Sn  Sn19  1  0.264439  0.686041  0.916529  1
  As  As20  1  0.553812  0.995826  0.262800  1
  As  As21  1  0.053812  0.004174  0.237200  1
  As  As22  1  0.438511  0.987298  0.761592  1
  As  As23  1  0.938511  0.012702  0.738408  1
  As  As24  1  0.321572  0.966897  0.202821  1
  As  As25  1  0.821572  0.033103  0.297179  1
  As  As26  1  0.683548  0.021489  0.776294  1
  As  As27  1  0.183548  0.978511  0.723706  1
  As  As28  1  0.430538  0.511056  0.235598  1
  As  As29  1  0.930538  0.488944  0.264402  1
  As  As30  1  0.562718  0.509787  0.744143  1
  As  As31  1  0.062718  0.490213  0.755857  1
  As  As32  1  0.194656  0.472747  0.225784  1
  As  As33  1  0.694656  0.527253  0.274216  1
  As  As34  1  0.806898  0.527431  0.769872  1
  As  As35  1  0.306898  0.472569  0.730128  1
