# generated using pymatgen
data_DyTmFe3Os
_symmetry_space_group_name_H-M   'P 1'
_cell_length_a   5.16769155
_cell_length_b   5.16769195
_cell_length_c   5.20025197
_cell_angle_alpha   60.20690497
_cell_angle_beta   60.20691699
_cell_angle_gamma   60.00000151
_symmetry_Int_Tables_number   1
_chemical_formula_structural   DyTmFe3Os
_chemical_formula_sum   'Dy1 Tm1 Fe3 Os1'
_cell_volume   98.50397981
_cell_formula_units_Z   1
loop_
 _symmetry_equiv_pos_site_id
 _symmetry_equiv_pos_as_xyz
  1  'x, y, z'
loop_
 _atom_site_type_symbol
 _atom_site_label
 _atom_site_symmetry_multiplicity
 _atom_site_fract_x
 _atom_site_fract_y
 _atom_site_fract_z
 _atom_site_occupancy
  Dy  Dy0  1  0.250355  0.250355  0.248933  1
  Tm  Tm1  1  0.999666  0.999666  0.001004  1
  Fe  Fe2  1  0.624985  0.125003  0.625027  1
  Fe  Fe3  1  0.125003  0.624985  0.625027  1
  Fe  Fe4  1  0.624985  0.624985  0.625027  1
  Os  Os5  1  0.625005  0.625005  0.124983  1
