# generated using pymatgen
data_Y20Co3Bi8Os
_symmetry_space_group_name_H-M   'P 1'
_cell_length_a   8.01718551
_cell_length_b   8.96207300
_cell_length_c   12.44462032
_cell_angle_alpha   90.00000000
_cell_angle_beta   90.27535943
_cell_angle_gamma   90.00000000
_symmetry_Int_Tables_number   1
_chemical_formula_structural   Y20Co3Bi8Os
_chemical_formula_sum   'Y20 Co3 Bi8 Os1'
_cell_volume   894.14313291
_cell_formula_units_Z   1
loop_
 _symmetry_equiv_pos_site_id
 _symmetry_equiv_pos_as_xyz
  1  'x, y, z'
loop_
 _atom_site_type_symbol
 _atom_site_label
 _atom_site_symmetry_multiplicity
 _atom_site_fract_x
 _atom_site_fract_y
 _atom_site_fract_z
 _atom_site_occupancy
  Y  Y0  1  0.846813  0.750000  0.799475  1
  Y  Y1  1  0.151994  0.250000  0.198859  1
  Y  Y2  1  0.348030  0.250000  0.699999  1
  Y  Y3  1  0.654084  0.750000  0.294110  1
  Y  Y4  1  0.378325  0.750000  0.695400  1
  Y  Y5  1  0.618931  0.250000  0.309107  1
  Y  Y6  1  0.880890  0.250000  0.810294  1
  Y  Y7  1  0.118687  0.750000  0.188180  1
  Y  Y8  1  0.946034  0.750000  0.503742  1
  Y  Y9  1  0.050530  0.250000  0.496572  1
  Y  Y10  1  0.453133  0.250000  0.997579  1
  Y  Y11  1  0.546095  0.750000  0.002025  1
  Y  Y12  1  0.677748  0.041176  0.565303  1
  Y  Y13  1  0.324145  0.964019  0.436387  1
  Y  Y14  1  0.175958  0.966366  0.936451  1
  Y  Y15  1  0.324145  0.535981  0.436387  1
  Y  Y16  1  0.822865  0.035279  0.063392  1
  Y  Y17  1  0.677748  0.458824  0.565303  1
  Y  Y18  1  0.822865  0.464721  0.063392  1
  Y  Y19  1  0.175958  0.533634  0.936451  1
  Co  Co20  1  0.433014  0.250000  0.490492  1
  Co  Co21  1  0.059600  0.250000  0.992040  1
  Co  Co22  1  0.938420  0.750000  0.007255  1
  Bi  Bi23  1  0.571777  0.491405  0.827746  1
  Bi  Bi24  1  0.427882  0.507559  0.172816  1
  Bi  Bi25  1  0.071539  0.507493  0.673876  1
  Bi  Bi26  1  0.427882  0.992441  0.172816  1
  Bi  Bi27  1  0.930324  0.492212  0.326155  1
  Bi  Bi28  1  0.571777  0.008595  0.827746  1
  Bi  Bi29  1  0.930324  0.007788  0.326155  1
  Bi  Bi30  1  0.071539  0.992507  0.673876  1
  Os  Os31  1  0.570945  0.750000  0.510612  1
