# generated using pymatgen
data_Tb6Al24Os7Pd
_symmetry_space_group_name_H-M   'P 1'
_cell_length_a   8.84418090
_cell_length_b   8.84418152
_cell_length_c   9.56120123
_cell_angle_alpha   89.69800494
_cell_angle_beta   90.30199363
_cell_angle_gamma   119.75001600
_symmetry_Int_Tables_number   1
_chemical_formula_structural   Tb6Al24Os7Pd
_chemical_formula_sum   'Tb6 Al24 Os7 Pd1'
_cell_volume   649.29009660
_cell_formula_units_Z   1
loop_
 _symmetry_equiv_pos_site_id
 _symmetry_equiv_pos_as_xyz
  1  'x, y, z'
loop_
 _atom_site_type_symbol
 _atom_site_label
 _atom_site_symmetry_multiplicity
 _atom_site_fract_x
 _atom_site_fract_y
 _atom_site_fract_z
 _atom_site_occupancy
  Tb  Tb0  1  0.188801  0.384548  0.251950  1
  Tb  Tb1  1  0.811199  0.615452  0.748050  1
  Tb  Tb2  1  0.615452  0.811199  0.251950  1
  Tb  Tb3  1  0.384548  0.188801  0.748050  1
  Tb  Tb4  1  0.193433  0.806567  0.252429  1
  Tb  Tb5  1  0.806567  0.193433  0.747571  1
  Al  Al6  1  0.330829  0.669171  0.017258  1
  Al  Al7  1  0.669171  0.330829  0.982742  1
  Al  Al8  1  0.666753  0.333247  0.515247  1
  Al  Al9  1  0.333247  0.666753  0.484753  1
  Al  Al10  1  0.163155  0.325588  0.576743  1
  Al  Al11  1  0.836845  0.674412  0.423257  1
  Al  Al12  1  0.674412  0.836845  0.576743  1
  Al  Al13  1  0.843424  0.676703  0.078353  1
  Al  Al14  1  0.325588  0.163155  0.423257  1
  Al  Al15  1  0.156576  0.323297  0.921647  1
  Al  Al16  1  0.163164  0.836836  0.575194  1
  Al  Al17  1  0.323297  0.156576  0.078353  1
  Al  Al18  1  0.836836  0.163164  0.424806  1
  Al  Al19  1  0.676703  0.843424  0.921647  1
  Al  Al20  1  0.836774  0.163226  0.074940  1
  Al  Al21  1  0.163226  0.836774  0.925060  1
  Al  Al22  1  0.560313  0.121560  0.249362  1
  Al  Al23  1  0.439687  0.878440  0.750638  1
  Al  Al24  1  0.878440  0.439687  0.249362  1
  Al  Al25  1  0.121560  0.560313  0.750638  1
  Al  Al26  1  0.561408  0.438592  0.252240  1
  Al  Al27  1  0.438592  0.561408  0.747760  1
  Al  Al28  1  0.999507  0.000493  0.250243  1
  Al  Al29  1  0.000493  0.999507  0.749757  1
  Os  Os30  1  0.500000  0.000000  0.000000  1
  Os  Os31  1  0.000000  0.500000  0.000000  1
  Os  Os32  1  0.500000  0.000000  0.500000  1
  Os  Os33  1  0.000000  0.500000  0.500000  1
  Os  Os34  1  0.500000  0.500000  0.500000  1
  Os  Os35  1  0.000000  0.000000  0.000000  1
  Os  Os36  1  0.000000  0.000000  0.500000  1
  Pd  Pd37  1  0.500000  0.500000  0.000000  1
