# generated using pymatgen
data_CeEr3Al4(IrPd)2
_symmetry_space_group_name_H-M   'P 1'
_cell_length_a   6.81890500
_cell_length_b   4.36519000
_cell_length_c   7.88855867
_cell_angle_alpha   90.00000000
_cell_angle_beta   89.78513859
_cell_angle_gamma   90.00000000
_symmetry_Int_Tables_number   1
_chemical_formula_structural   CeEr3Al4(IrPd)2
_chemical_formula_sum   'Ce1 Er3 Al4 Ir2 Pd2'
_cell_volume   234.80773412
_cell_formula_units_Z   1
loop_
 _symmetry_equiv_pos_site_id
 _symmetry_equiv_pos_as_xyz
  1  'x, y, z'
loop_
 _atom_site_type_symbol
 _atom_site_label
 _atom_site_symmetry_multiplicity
 _atom_site_fract_x
 _atom_site_fract_y
 _atom_site_fract_z
 _atom_site_occupancy
  Ce  Ce0  1  0.529567  0.750000  0.672504  1
  Er  Er1  1  0.960738  0.250000  0.184434  1
  Er  Er2  1  0.466861  0.250000  0.319108  1
  Er  Er3  1  0.039657  0.750000  0.817843  1
  Al  Al4  1  0.867957  0.250000  0.556102  1
  Al  Al5  1  0.355807  0.250000  0.940219  1
  Al  Al6  1  0.134900  0.750000  0.439182  1
  Al  Al7  1  0.641747  0.750000  0.065626  1
  Ir  Ir8  1  0.238808  0.250000  0.623753  1
  Ir  Ir9  1  0.762681  0.750000  0.381178  1
  Pd  Pd10  1  0.735708  0.250000  0.879794  1
  Pd  Pd11  1  0.265570  0.750000  0.120257  1
