# generated using pymatgen
data_V17Cu2Si12Tc
_symmetry_space_group_name_H-M   'P 1'
_cell_length_a   7.04206582
_cell_length_b   7.04206703
_cell_length_c   13.25940300
_cell_angle_alpha   90.00000000
_cell_angle_beta   90.00000000
_cell_angle_gamma   140.65336816
_symmetry_Int_Tables_number   1
_chemical_formula_structural   V17Cu2Si12Tc
_chemical_formula_sum   'V17 Cu2 Si12 Tc1'
_cell_volume   416.88919463
_cell_formula_units_Z   1
loop_
 _symmetry_equiv_pos_site_id
 _symmetry_equiv_pos_as_xyz
  1  'x, y, z'
loop_
 _atom_site_type_symbol
 _atom_site_label
 _atom_site_symmetry_multiplicity
 _atom_site_fract_x
 _atom_site_fract_y
 _atom_site_fract_z
 _atom_site_occupancy
  V  V0  1  0.071455  0.422225  0.398875  1
  V  V1  1  0.571146  0.931020  0.900659  1
  V  V2  1  0.422225  0.071455  0.601125  1
  V  V3  1  0.931020  0.571146  0.099341  1
  V  V4  1  0.851947  0.652021  0.677239  1
  V  V5  1  0.351552  0.149960  0.178679  1
  V  V6  1  0.652021  0.851947  0.322761  1
  V  V7  1  0.149960  0.351552  0.821321  1
  V  V8  1  0.652021  0.851947  0.677239  1
  V  V9  1  0.149960  0.351552  0.178679  1
  V  V10  1  0.851947  0.652021  0.322761  1
  V  V11  1  0.351552  0.149960  0.821321  1
  V  V12  1  0.422225  0.071455  0.398875  1
  V  V13  1  0.931020  0.571146  0.900659  1
  V  V14  1  0.071455  0.422225  0.601125  1
  V  V15  1  0.571146  0.931020  0.099341  1
  V  V16  1  0.997602  0.997602  0.500000  1
  Cu  Cu17  1  0.501012  0.501012  0.000000  1
  Cu  Cu18  1  0.000812  0.000812  0.000000  1
  Si  Si19  1  0.250532  0.749748  0.750253  1
  Si  Si20  1  0.749748  0.250532  0.249747  1
  Si  Si21  1  0.749748  0.250532  0.750253  1
  Si  Si22  1  0.250532  0.749748  0.249747  1
  Si  Si23  1  0.245115  0.245115  0.666516  1
  Si  Si24  1  0.751555  0.751555  0.162041  1
  Si  Si25  1  0.245115  0.245115  0.333484  1
  Si  Si26  1  0.751555  0.751555  0.837959  1
  Si  Si27  1  0.584380  0.919273  0.500000  1
  Si  Si28  1  0.090289  0.411589  0.000000  1
  Si  Si29  1  0.919273  0.584380  0.500000  1
  Si  Si30  1  0.411589  0.090289  0.000000  1
  Tc  Tc31  1  0.498492  0.498492  0.500000  1
