# generated using pymatgen
data_Ho2RuPtF14
_symmetry_space_group_name_H-M   'P 1'
_cell_length_a   5.54435900
_cell_length_b   8.86915707
_cell_length_c   11.92562255
_cell_angle_alpha   62.96762637
_cell_angle_beta   90.00000000
_cell_angle_gamma   90.00000000
_symmetry_Int_Tables_number   1
_chemical_formula_structural   Ho2RuPtF14
_chemical_formula_sum   'Ho4 Ru2 Pt2 F28'
_cell_volume   522.36072307
_cell_formula_units_Z   2
loop_
 _symmetry_equiv_pos_site_id
 _symmetry_equiv_pos_as_xyz
  1  'x, y, z'
loop_
 _atom_site_type_symbol
 _atom_site_label
 _atom_site_symmetry_multiplicity
 _atom_site_fract_x
 _atom_site_fract_y
 _atom_site_fract_z
 _atom_site_occupancy
  Ho  Ho0  1  0.759252  0.814551  0.764983  1
  Ho  Ho1  1  0.259252  0.185449  0.735017  1
  Ho  Ho2  1  0.240709  0.189885  0.230397  1
  Ho  Ho3  1  0.740709  0.810115  0.269603  1
  Ru  Ru4  1  0.756047  0.274292  0.954838  1
  Ru  Ru5  1  0.256047  0.725708  0.545162  1
  Pt  Pt6  1  0.242440  0.729291  0.043418  1
  Pt  Pt7  1  0.742440  0.270709  0.456582  1
  F  F8  1  0.438935  0.701897  0.916594  1
  F  F9  1  0.938935  0.298103  0.583406  1
  F  F10  1  0.547831  0.293755  0.080881  1
  F  F11  1  0.047831  0.706245  0.419119  1
  F  F12  1  0.442791  0.280697  0.542587  1
  F  F13  1  0.942791  0.719303  0.957413  1
  F  F14  1  0.547758  0.718083  0.452914  1
  F  F15  1  0.047758  0.281917  0.047086  1
  F  F16  1  0.767578  0.515870  0.861234  1
  F  F17  1  0.267578  0.484130  0.638766  1
  F  F18  1  0.229900  0.481437  0.145029  1
  F  F19  1  0.729900  0.518563  0.354971  1
  F  F20  1  0.756823  0.034494  0.047392  1
  F  F21  1  0.256823  0.965506  0.452608  1
  F  F22  1  0.244924  0.977473  0.948787  1
  F  F23  1  0.744924  0.022527  0.551213  1
  F  F24  1  0.973285  0.726662  0.644239  1
  F  F25  1  0.473285  0.273338  0.855761  1
  F  F26  1  0.036083  0.267583  0.365046  1
  F  F27  1  0.536083  0.732417  0.134954  1
  F  F28  1  0.051407  0.752178  0.174274  1
  F  F29  1  0.551407  0.247822  0.325726  1
  F  F30  1  0.960304  0.255816  0.825957  1
  F  F31  1  0.460304  0.744184  0.674043  1
  F  F32  1  0.423793  0.973044  0.232886  1
  F  F33  1  0.923793  0.026956  0.267114  1
  F  F34  1  0.580141  0.028781  0.766614  1
  F  F35  1  0.080141  0.971219  0.733386  1
