# generated using pymatgen
data_BaNaAs4Ru3Rh
_symmetry_space_group_name_H-M   'P 1'
_cell_length_a   6.82248164
_cell_length_b   6.83976781
_cell_length_c   5.85903200
_cell_angle_alpha   90.00000000
_cell_angle_beta   90.00000000
_cell_angle_gamma   129.38053021
_symmetry_Int_Tables_number   1
_chemical_formula_structural   BaNaAs4Ru3Rh
_chemical_formula_sum   'Ba1 Na1 As4 Ru3 Rh1'
_cell_volume   211.32971474
_cell_formula_units_Z   1
loop_
 _symmetry_equiv_pos_site_id
 _symmetry_equiv_pos_as_xyz
  1  'x, y, z'
loop_
 _atom_site_type_symbol
 _atom_site_label
 _atom_site_symmetry_multiplicity
 _atom_site_fract_x
 _atom_site_fract_y
 _atom_site_fract_z
 _atom_site_occupancy
  Ba  Ba0  1  0.500000  0.500000  0.501801  1
  Na  Na1  1  0.000000  0.000000  0.000048  1
  As  As2  1  0.359413  0.647912  0.002965  1
  As  As3  1  0.851597  0.143142  0.496356  1
  As  As4  1  0.148403  0.856858  0.496356  1
  As  As5  1  0.640587  0.352088  0.002965  1
  Ru  Ru6  1  0.500000  0.000000  0.752213  1
  Ru  Ru7  1  0.000000  0.500000  0.248006  1
  Ru  Ru8  1  0.500000  0.000000  0.247905  1
  Rh  Rh9  1  0.000000  0.500000  0.751386  1
