# generated using pymatgen
data_CePrFe2(CuSi)2
_symmetry_space_group_name_H-M   'P 1'
_cell_length_a   8.77319576
_cell_length_b   8.77319538
_cell_length_c   4.04524800
_cell_angle_alpha   90.00000000
_cell_angle_beta   90.00000000
_cell_angle_gamma   153.39973776
_symmetry_Int_Tables_number   1
_chemical_formula_structural   CePrFe2(CuSi)2
_chemical_formula_sum   'Ce1 Pr1 Fe2 Cu2 Si2'
_cell_volume   139.41488725
_cell_formula_units_Z   1
loop_
 _symmetry_equiv_pos_site_id
 _symmetry_equiv_pos_as_xyz
  1  'x, y, z'
loop_
 _atom_site_type_symbol
 _atom_site_label
 _atom_site_symmetry_multiplicity
 _atom_site_fract_x
 _atom_site_fract_y
 _atom_site_fract_z
 _atom_site_occupancy
  Ce  Ce0  1  0.379971  0.620029  0.750000  1
  Pr  Pr1  1  0.612114  0.387886  0.250000  1
  Fe  Fe2  1  0.253517  0.746483  0.250000  1
  Fe  Fe3  1  0.752634  0.247366  0.750000  1
  Cu  Cu4  1  0.958967  0.041033  0.250000  1
  Cu  Cu5  1  0.039935  0.960065  0.750000  1
  Si  Si6  1  0.815598  0.184402  0.250000  1
  Si  Si7  1  0.187265  0.812735  0.750000  1
