# generated using pymatgen
data_Tb3Tm13(In3Ir)2
_symmetry_space_group_name_H-M   'P 1'
_cell_length_a   10.31357800
_cell_length_b   10.31355443
_cell_length_c   7.02665600
_cell_angle_alpha   90.00001667
_cell_angle_beta   90.00005000
_cell_angle_gamma   119.99997936
_symmetry_Int_Tables_number   1
_chemical_formula_structural   Tb3Tm13(In3Ir)2
_chemical_formula_sum   'Tb3 Tm13 In6 Ir2'
_cell_volume   647.28737596
_cell_formula_units_Z   1
loop_
 _symmetry_equiv_pos_site_id
 _symmetry_equiv_pos_as_xyz
  1  'x, y, z'
loop_
 _atom_site_type_symbol
 _atom_site_label
 _atom_site_symmetry_multiplicity
 _atom_site_fract_x
 _atom_site_fract_y
 _atom_site_fract_z
 _atom_site_occupancy
  Tb  Tb0  1  0.532158  0.064317  0.514355  1
  Tb  Tb1  1  0.935682  0.467841  0.514355  1
  Tb  Tb2  1  0.532158  0.467841  0.514355  1
  Tm  Tm3  1  0.466064  0.932128  0.015056  1
  Tm  Tm4  1  0.067872  0.533936  0.015056  1
  Tm  Tm5  1  0.466064  0.533936  0.015057  1
  Tm  Tm6  1  0.176561  0.353122  0.722203  1
  Tm  Tm7  1  0.646878  0.823439  0.722203  1
  Tm  Tm8  1  0.176561  0.823439  0.722203  1
  Tm  Tm9  1  0.823327  0.646653  0.218582  1
  Tm  Tm10  1  0.353346  0.176673  0.218582  1
  Tm  Tm11  1  0.823326  0.176673  0.218583  1
  Tm  Tm12  1  0.666667  0.333333  0.896740  1
  Tm  Tm13  1  0.333334  0.666667  0.396581  1
  Tm  Tm14  1  0.000000  0.000000  0.499742  1
  Tm  Tm15  1  0.000000  0.000000  0.000379  1
  In  In16  1  0.837553  0.675106  0.763240  1
  In  In17  1  0.324895  0.162447  0.763239  1
  In  In18  1  0.837553  0.162447  0.763239  1
  In  In19  1  0.162902  0.325803  0.262671  1
  In  In20  1  0.674197  0.837099  0.262671  1
  In  In21  1  0.162901  0.837099  0.262670  1
  Ir  Ir22  1  0.666667  0.333333  0.286743  1
  Ir  Ir23  1  0.333333  0.666666  0.789499  1
