# generated using pymatgen
data_Tb4ZrScGa10
_symmetry_space_group_name_H-M   'P 1'
_cell_length_a   6.08805800
_cell_length_b   9.47689400
_cell_length_c   11.30976500
_cell_angle_alpha   90.00000000
_cell_angle_beta   90.00000000
_cell_angle_gamma   90.00000000
_symmetry_Int_Tables_number   1
_chemical_formula_structural   Tb4ZrScGa10
_chemical_formula_sum   'Tb8 Zr2 Sc2 Ga20'
_cell_volume   652.52684802
_cell_formula_units_Z   2
loop_
 _symmetry_equiv_pos_site_id
 _symmetry_equiv_pos_as_xyz
  1  'x, y, z'
loop_
 _atom_site_type_symbol
 _atom_site_label
 _atom_site_symmetry_multiplicity
 _atom_site_fract_x
 _atom_site_fract_y
 _atom_site_fract_z
 _atom_site_occupancy
  Tb  Tb0  1  0.887671  0.512345  0.352203  1
  Tb  Tb1  1  0.612329  0.987655  0.852203  1
  Tb  Tb2  1  0.111725  0.012363  0.647694  1
  Tb  Tb3  1  0.388275  0.487637  0.147694  1
  Tb  Tb4  1  0.111725  0.487637  0.647694  1
  Tb  Tb5  1  0.388275  0.012363  0.147694  1
  Tb  Tb6  1  0.887671  0.987655  0.352203  1
  Tb  Tb7  1  0.612329  0.512345  0.852203  1
  Zr  Zr8  1  0.859719  0.750000  0.076051  1
  Zr  Zr9  1  0.640281  0.750000  0.576051  1
  Sc  Sc10  1  0.150437  0.250000  0.922204  1
  Sc  Sc11  1  0.349563  0.250000  0.422204  1
  Ga  Ga12  1  0.874646  0.050298  0.089049  1
  Ga  Ga13  1  0.625354  0.449702  0.589049  1
  Ga  Ga14  1  0.123303  0.553399  0.911805  1
  Ga  Ga15  1  0.376697  0.946601  0.411805  1
  Ga  Ga16  1  0.123303  0.946601  0.911805  1
  Ga  Ga17  1  0.376697  0.553399  0.411805  1
  Ga  Ga18  1  0.874646  0.449702  0.089049  1
  Ga  Ga19  1  0.625354  0.050298  0.589049  1
  Ga  Ga20  1  0.168346  0.750000  0.250801  1
  Ga  Ga21  1  0.331654  0.750000  0.750801  1
  Ga  Ga22  1  0.833728  0.250000  0.751259  1
  Ga  Ga23  1  0.666272  0.250000  0.251259  1
  Ga  Ga24  1  0.385429  0.750000  0.003709  1
  Ga  Ga25  1  0.114571  0.750000  0.503709  1
  Ga  Ga26  1  0.618566  0.250000  0.997662  1
  Ga  Ga27  1  0.881434  0.250000  0.497662  1
  Ga  Ga28  1  0.599429  0.750000  0.290292  1
  Ga  Ga29  1  0.900571  0.750000  0.790292  1
  Ga  Ga30  1  0.404888  0.250000  0.706519  1
  Ga  Ga31  1  0.095112  0.250000  0.206519  1
