# generated using pymatgen
data_Ho3Lu2InPb2
_symmetry_space_group_name_H-M   'P 1'
_cell_length_a   6.56894003
_cell_length_b   8.94326286
_cell_length_c   8.95305601
_cell_angle_alpha   120.04500387
_cell_angle_beta   89.99750169
_cell_angle_gamma   90.00688791
_symmetry_Int_Tables_number   1
_chemical_formula_structural   Ho3Lu2InPb2
_chemical_formula_sum   'Ho6 Lu4 In2 Pb4'
_cell_volume   455.29837043
_cell_formula_units_Z   2
loop_
 _symmetry_equiv_pos_site_id
 _symmetry_equiv_pos_as_xyz
  1  'x, y, z'
loop_
 _atom_site_type_symbol
 _atom_site_label
 _atom_site_symmetry_multiplicity
 _atom_site_fract_x
 _atom_site_fract_y
 _atom_site_fract_z
 _atom_site_occupancy
  Ho  Ho0  1  0.750076  0.240079  0.005368  1
  Ho  Ho1  1  0.750150  0.760057  0.765255  1
  Ho  Ho2  1  0.750114  0.000002  0.235794  1
  Ho  Ho3  1  0.250193  0.763845  0.999295  1
  Ho  Ho4  1  0.250117  0.235993  0.235321  1
  Ho  Ho5  1  0.250073  0.999850  0.763476  1
  Lu  Lu6  1  0.504276  0.337124  0.666920  1
  Lu  Lu7  1  0.504275  0.662912  0.329796  1
  Lu  Lu8  1  0.995720  0.662915  0.329908  1
  Lu  Lu9  1  0.995714  0.337130  0.666849  1
  In  In10  1  0.750027  0.602341  0.001063  1
  In  In11  1  0.749948  0.397663  0.398793  1
  Pb  Pb12  1  0.749600  0.000136  0.606188  1
  Pb  Pb13  1  0.249780  0.397674  0.997858  1
  Pb  Pb14  1  0.250168  0.602078  0.599969  1
  Pb  Pb15  1  0.249768  0.000200  0.398148  1
