# generated using pymatgen
data_Cs14Ta2Tl5InAs10
_symmetry_space_group_name_H-M   'P 1'
_cell_length_a   9.04478246
_cell_length_b   9.89769719
_cell_length_c   15.14424662
_cell_angle_alpha   85.65473299
_cell_angle_beta   84.02747525
_cell_angle_gamma   86.02216213
_symmetry_Int_Tables_number   1
_chemical_formula_structural   Cs14Ta2Tl5InAs10
_chemical_formula_sum   'Cs14 Ta2 Tl5 In1 As10'
_cell_volume   1341.92939311
_cell_formula_units_Z   1
loop_
 _symmetry_equiv_pos_site_id
 _symmetry_equiv_pos_as_xyz
  1  'x, y, z'
loop_
 _atom_site_type_symbol
 _atom_site_label
 _atom_site_symmetry_multiplicity
 _atom_site_fract_x
 _atom_site_fract_y
 _atom_site_fract_z
 _atom_site_occupancy
  Cs  Cs0  1  0.836287  0.360933  0.649329  1
  Cs  Cs1  1  0.815814  0.811414  0.132356  1
  Cs  Cs2  1  0.243573  0.008276  0.468563  1
  Cs  Cs3  1  0.270539  0.252904  0.252939  1
  Cs  Cs4  1  0.739172  0.500668  0.973734  1
  Cs  Cs5  1  0.258837  0.498800  0.026356  1
  Cs  Cs6  1  0.680605  0.082034  0.884706  1
  Cs  Cs7  1  0.756638  0.989651  0.529868  1
  Cs  Cs8  1  0.730622  0.745462  0.747172  1
  Cs  Cs9  1  0.325441  0.339814  0.602914  1
  Cs  Cs10  1  0.163323  0.639726  0.350554  1
  Cs  Cs11  1  0.180952  0.188530  0.868296  1
  Cs  Cs12  1  0.321870  0.916808  0.117029  1
  Cs  Cs13  1  0.671420  0.663011  0.395714  1
  Ta  Ta14  1  0.351214  0.608182  0.773295  1
  Ta  Ta15  1  0.650298  0.391058  0.226770  1
  Tl  Tl16  1  0.052595  0.818817  0.871612  1
  Tl  Tl17  1  0.948705  0.181503  0.128045  1
  Tl  Tl18  1  0.365993  0.957223  0.702092  1
  Tl  Tl19  1  0.093567  0.720853  0.620102  1
  Tl  Tl20  1  0.907382  0.280960  0.380555  1
  In  In21  1  0.640237  0.050884  0.296419  1
  As  As22  1  0.917345  0.452307  0.209893  1
  As  As23  1  0.624388  0.200367  0.126540  1
  As  As24  1  0.083668  0.548400  0.790066  1
  As  As25  1  0.582597  0.297305  0.385773  1
  As  As26  1  0.418669  0.698405  0.613634  1
  As  As27  1  0.027661  0.005006  0.699013  1
  As  As28  1  0.507811  0.404398  0.809086  1
  As  As29  1  0.490887  0.592355  0.190888  1
  As  As30  1  0.377010  0.796266  0.875541  1
  As  As31  1  0.964881  0.997682  0.301147  1
