# generated using pymatgen
data_TbY3Al4Pd3Rh
_symmetry_space_group_name_H-M   'P 1'
_cell_length_a   4.44345900
_cell_length_b   6.88248417
_cell_length_c   7.80537140
_cell_angle_alpha   89.91134265
_cell_angle_beta   90.00000000
_cell_angle_gamma   90.00000000
_symmetry_Int_Tables_number   1
_chemical_formula_structural   TbY3Al4Pd3Rh
_chemical_formula_sum   'Tb1 Y3 Al4 Pd3 Rh1'
_cell_volume   238.70386540
_cell_formula_units_Z   1
loop_
 _symmetry_equiv_pos_site_id
 _symmetry_equiv_pos_as_xyz
  1  'x, y, z'
loop_
 _atom_site_type_symbol
 _atom_site_label
 _atom_site_symmetry_multiplicity
 _atom_site_fract_x
 _atom_site_fract_y
 _atom_site_fract_z
 _atom_site_occupancy
  Tb  Tb0  1  0.250000  0.036073  0.323043  1
  Y  Y1  1  0.250000  0.532498  0.180414  1
  Y  Y2  1  0.750000  0.974133  0.680402  1
  Y  Y3  1  0.750000  0.465193  0.817013  1
  Al  Al4  1  0.250000  0.146698  0.935692  1
  Al  Al5  1  0.250000  0.638924  0.563001  1
  Al  Al6  1  0.750000  0.854691  0.060938  1
  Al  Al7  1  0.750000  0.354859  0.440345  1
  Pd  Pd8  1  0.250000  0.774531  0.881315  1
  Pd  Pd9  1  0.750000  0.726935  0.380810  1
  Pd  Pd10  1  0.750000  0.226166  0.119896  1
  Rh  Rh11  1  0.250000  0.269299  0.617129  1
