# generated using pymatgen
data_CaEu2(AgSn)3
_symmetry_space_group_name_H-M   'P 1'
_cell_length_a   4.89440000
_cell_length_b   4.89440023
_cell_length_c   11.23014900
_cell_angle_alpha   90.00000000
_cell_angle_beta   90.00000000
_cell_angle_gamma   119.99999846
_symmetry_Int_Tables_number   1
_chemical_formula_structural   CaEu2(AgSn)3
_chemical_formula_sum   'Ca1 Eu2 Ag3 Sn3'
_cell_volume   232.97809855
_cell_formula_units_Z   1
loop_
 _symmetry_equiv_pos_site_id
 _symmetry_equiv_pos_as_xyz
  1  'x, y, z'
loop_
 _atom_site_type_symbol
 _atom_site_label
 _atom_site_symmetry_multiplicity
 _atom_site_fract_x
 _atom_site_fract_y
 _atom_site_fract_z
 _atom_site_occupancy
  Ca  Ca0  1  0.666667  0.333333  0.331583  1
  Eu  Eu1  1  0.666667  0.333333  0.001634  1
  Eu  Eu2  1  0.666667  0.333333  0.665402  1
  Ag  Ag3  1  0.000000  0.000000  0.815139  1
  Ag  Ag4  1  0.000000  0.000000  0.198783  1
  Ag  Ag5  1  0.333333  0.666667  0.489192  1
  Sn  Sn6  1  0.333333  0.666667  0.852319  1
  Sn  Sn7  1  0.000000  0.000000  0.495024  1
  Sn  Sn8  1  0.333333  0.666667  0.150926  1
