# generated using pymatgen
data_Eu3VNiC6
_symmetry_space_group_name_H-M   'P 1'
_cell_length_a   8.28884700
_cell_length_b   8.28884719
_cell_length_c   5.16618700
_cell_angle_alpha   90.00000000
_cell_angle_beta   90.00000000
_cell_angle_gamma   120.00000324
_symmetry_Int_Tables_number   1
_chemical_formula_structural   Eu3VNiC6
_chemical_formula_sum   'Eu6 V2 Ni2 C12'
_cell_volume   307.38947715
_cell_formula_units_Z   2
loop_
 _symmetry_equiv_pos_site_id
 _symmetry_equiv_pos_as_xyz
  1  'x, y, z'
loop_
 _atom_site_type_symbol
 _atom_site_label
 _atom_site_symmetry_multiplicity
 _atom_site_fract_x
 _atom_site_fract_y
 _atom_site_fract_z
 _atom_site_occupancy
  Eu  Eu0  1  0.609679  0.679276  0.750000  1
  Eu  Eu1  1  0.930404  0.609679  0.250000  1
  Eu  Eu2  1  0.679276  0.069596  0.250000  1
  Eu  Eu3  1  0.320724  0.930404  0.750000  1
  Eu  Eu4  1  0.069596  0.390321  0.750000  1
  Eu  Eu5  1  0.390321  0.320724  0.250000  1
  V  V6  1  0.000000  0.000000  0.500000  1
  V  V7  1  0.000000  0.000000  0.000000  1
  Ni  Ni8  1  0.666667  0.333333  0.750000  1
  Ni  Ni9  1  0.333333  0.666667  0.250000  1
  C  C10  1  0.949389  0.764937  0.750000  1
  C  C11  1  0.184452  0.949389  0.250000  1
  C  C12  1  0.764937  0.815548  0.250000  1
  C  C13  1  0.235063  0.184452  0.750000  1
  C  C14  1  0.815548  0.050611  0.750000  1
  C  C15  1  0.050611  0.235063  0.250000  1
  C  C16  1  0.869880  0.579506  0.750000  1
  C  C17  1  0.290374  0.869880  0.250000  1
  C  C18  1  0.579506  0.709626  0.250000  1
  C  C19  1  0.420494  0.290374  0.750000  1
  C  C20  1  0.130120  0.420494  0.250000  1
  C  C21  1  0.709626  0.130120  0.750000  1
