# generated using pymatgen
data_Pt(BrF)2
_symmetry_space_group_name_H-M   'P 1'
_cell_length_a   6.54778678
_cell_length_b   6.54778777
_cell_length_c   6.54778633
_cell_angle_alpha   111.56469178
_cell_angle_beta   109.12009812
_cell_angle_gamma   107.75209096
_symmetry_Int_Tables_number   1
_chemical_formula_structural   Pt(BrF)2
_chemical_formula_sum   'Pt2 Br4 F4'
_cell_volume   215.85660778
_cell_formula_units_Z   2
loop_
 _symmetry_equiv_pos_site_id
 _symmetry_equiv_pos_as_xyz
  1  'x, y, z'
loop_
 _atom_site_type_symbol
 _atom_site_label
 _atom_site_symmetry_multiplicity
 _atom_site_fract_x
 _atom_site_fract_y
 _atom_site_fract_z
 _atom_site_occupancy
  Pt  Pt0  1  0.000000  0.250099  0.250099  1
  Pt  Pt1  1  0.000000  0.749901  0.749901  1
  Br  Br2  1  0.782641  0.782641  0.000000  1
  Br  Br3  1  0.217359  0.217359  0.000000  1
  Br  Br4  1  0.782655  0.282655  0.500000  1
  Br  Br5  1  0.217345  0.717345  0.500000  1
  F  F6  1  0.738301  0.250045  0.988346  1
  F  F7  1  0.261699  0.250045  0.511744  1
  F  F8  1  0.738301  0.749955  0.488256  1
  F  F9  1  0.261699  0.749955  0.011654  1
