# generated using pymatgen
data_Cs9Rb7(GeSe4)4
_symmetry_space_group_name_H-M   'P 1'
_cell_length_a   8.85288889
_cell_length_b   10.68798890
_cell_length_c   16.19177000
_cell_angle_alpha   89.62915588
_cell_angle_beta   89.79101261
_cell_angle_gamma   89.86980751
_symmetry_Int_Tables_number   1
_chemical_formula_structural   Cs9Rb7(GeSe4)4
_chemical_formula_sum   'Cs9 Rb7 Ge4 Se16'
_cell_volume   1532.01229143
_cell_formula_units_Z   1
loop_
 _symmetry_equiv_pos_site_id
 _symmetry_equiv_pos_as_xyz
  1  'x, y, z'
loop_
 _atom_site_type_symbol
 _atom_site_label
 _atom_site_symmetry_multiplicity
 _atom_site_fract_x
 _atom_site_fract_y
 _atom_site_fract_z
 _atom_site_occupancy
  Cs  Cs0  1  0.998674  0.998900  0.999852  1
  Cs  Cs1  1  0.502200  0.000239  0.502341  1
  Cs  Cs2  1  0.000748  0.499880  0.999811  1
  Cs  Cs3  1  0.499474  0.500838  0.499679  1
  Cs  Cs4  1  0.988705  0.749843  0.426998  1
  Cs  Cs5  1  0.489973  0.249642  0.071467  1
  Cs  Cs6  1  0.012005  0.250462  0.573344  1
  Cs  Cs7  1  0.509470  0.747652  0.926335  1
  Cs  Cs8  1  0.831182  0.053436  0.276689  1
  Rb  Rb9  1  0.335956  0.950532  0.227825  1
  Rb  Rb10  1  0.161707  0.549271  0.727351  1
  Rb  Rb11  1  0.662097  0.450581  0.772064  1
  Rb  Rb12  1  0.162052  0.951426  0.728284  1
  Rb  Rb13  1  0.662264  0.048724  0.772044  1
  Rb  Rb14  1  0.839432  0.452606  0.271888  1
  Rb  Rb15  1  0.337932  0.548843  0.227181  1
  Ge  Ge16  1  0.764519  0.750319  0.671080  1
  Ge  Ge17  1  0.238150  0.252745  0.330211  1
  Ge  Ge18  1  0.733689  0.747206  0.169538  1
  Ge  Ge19  1  0.263988  0.249404  0.828539  1
  Se  Se20  1  0.990820  0.249408  0.821020  1
  Se  Se21  1  0.510278  0.256702  0.322530  1
  Se  Se22  1  0.491341  0.751448  0.679080  1
  Se  Se23  1  0.006962  0.748115  0.177422  1
  Se  Se24  1  0.649689  0.563945  0.099014  1
  Se  Se25  1  0.147162  0.434309  0.400826  1
  Se  Se26  1  0.350510  0.066103  0.899909  1
  Se  Se27  1  0.852858  0.933365  0.599886  1
  Se  Se28  1  0.349773  0.432043  0.899017  1
  Se  Se29  1  0.850234  0.567512  0.600087  1
  Se  Se30  1  0.644398  0.928937  0.097406  1
  Se  Se31  1  0.158051  0.068091  0.402272  1
  Se  Se32  1  0.629119  0.744869  0.308846  1
  Se  Se33  1  0.137355  0.252856  0.190686  1
  Se  Se34  1  0.369004  0.250561  0.689561  1
  Se  Se35  1  0.868233  0.749188  0.809920  1
