# generated using pymatgen
data_DyThRe8Si3Ge
_symmetry_space_group_name_H-M   'P 1'
_cell_length_a   4.15773000
_cell_length_b   7.34984835
_cell_length_c   15.54204643
_cell_angle_alpha   90.63075694
_cell_angle_beta   90.00000000
_cell_angle_gamma   90.00000000
_symmetry_Int_Tables_number   1
_chemical_formula_structural   DyThRe8Si3Ge
_chemical_formula_sum   'Dy2 Th2 Re16 Si6 Ge2'
_cell_volume   474.91572108
_cell_formula_units_Z   2
loop_
 _symmetry_equiv_pos_site_id
 _symmetry_equiv_pos_as_xyz
  1  'x, y, z'
loop_
 _atom_site_type_symbol
 _atom_site_label
 _atom_site_symmetry_multiplicity
 _atom_site_fract_x
 _atom_site_fract_y
 _atom_site_fract_z
 _atom_site_occupancy
  Dy  Dy0  1  0.000000  0.584382  0.119279  1
  Dy  Dy1  1  0.000000  0.415618  0.880721  1
  Th  Th2  1  0.500000  0.083111  0.379800  1
  Th  Th3  1  0.500000  0.916889  0.620200  1
  Re  Re4  1  0.000000  0.138056  0.052761  1
  Re  Re5  1  0.000000  0.861944  0.947239  1
  Re  Re6  1  0.500000  0.641048  0.449038  1
  Re  Re7  1  0.500000  0.358952  0.550962  1
  Re  Re8  1  0.000000  0.735241  0.320237  1
  Re  Re9  1  0.000000  0.264759  0.679763  1
  Re  Re10  1  0.500000  0.237177  0.178519  1
  Re  Re11  1  0.500000  0.762823  0.821481  1
  Re  Re12  1  0.000000  0.428833  0.418504  1
  Re  Re13  1  0.000000  0.571167  0.581496  1
  Re  Re14  1  0.500000  0.933899  0.082076  1
  Re  Re15  1  0.500000  0.066101  0.917924  1
  Re  Re16  1  0.000000  0.990019  0.205900  1
  Re  Re17  1  0.000000  0.009981  0.794100  1
  Re  Re18  1  0.500000  0.496271  0.292538  1
  Re  Re19  1  0.500000  0.503729  0.707462  1
  Si  Si20  1  0.000000  0.828151  0.475341  1
  Si  Si21  1  0.000000  0.171849  0.524659  1
  Si  Si22  1  0.000000  0.300446  0.269758  1
  Si  Si23  1  0.000000  0.699554  0.730242  1
  Si  Si24  1  0.500000  0.791706  0.223864  1
  Si  Si25  1  0.500000  0.208294  0.776136  1
  Ge  Ge26  1  0.500000  0.337985  0.022677  1
  Ge  Ge27  1  0.500000  0.662015  0.977323  1
