# generated using pymatgen
data_Ho5Sc(Si3Ru)8
_symmetry_space_group_name_H-M   'P 1'
_cell_length_a   10.07549920
_cell_length_b   10.07549933
_cell_length_c   8.11052106
_cell_angle_alpha   90.00545552
_cell_angle_beta   90.00545764
_cell_angle_gamma   132.53332034
_symmetry_Int_Tables_number   1
_chemical_formula_structural   Ho5Sc(Si3Ru)8
_chemical_formula_sum   'Ho5 Sc1 Si24 Ru8'
_cell_volume   606.71008312
_cell_formula_units_Z   1
loop_
 _symmetry_equiv_pos_site_id
 _symmetry_equiv_pos_as_xyz
  1  'x, y, z'
loop_
 _atom_site_type_symbol
 _atom_site_label
 _atom_site_symmetry_multiplicity
 _atom_site_fract_x
 _atom_site_fract_y
 _atom_site_fract_z
 _atom_site_occupancy
  Ho  Ho0  1  0.000000  0.000000  0.000000  1
  Ho  Ho1  1  0.502645  0.002602  0.749891  1
  Ho  Ho2  1  0.997398  0.497355  0.250109  1
  Ho  Ho3  1  0.497355  0.997398  0.250109  1
  Ho  Ho4  1  0.002602  0.502645  0.749891  1
  Sc  Sc5  1  0.500000  0.500000  0.500000  1
  Si  Si6  1  0.794736  0.205264  0.500000  1
  Si  Si7  1  0.295171  0.704829  0.000000  1
  Si  Si8  1  0.205264  0.794736  0.500000  1
  Si  Si9  1  0.704829  0.295171  0.000000  1
  Si  Si10  1  0.334123  0.334123  0.831255  1
  Si  Si11  1  0.665877  0.665877  0.168745  1
  Si  Si12  1  0.169167  0.169167  0.334577  1
  Si  Si13  1  0.830833  0.830833  0.665423  1
  Si  Si14  1  0.122593  0.888043  0.728239  1
  Si  Si15  1  0.111957  0.877407  0.271761  1
  Si  Si16  1  0.610834  0.378155  0.230392  1
  Si  Si17  1  0.621845  0.389166  0.769608  1
  Si  Si18  1  0.877407  0.111957  0.271761  1
  Si  Si19  1  0.888043  0.122593  0.728239  1
  Si  Si20  1  0.389166  0.621845  0.769608  1
  Si  Si21  1  0.378155  0.610834  0.230392  1
  Si  Si22  1  0.346597  0.114536  0.505600  1
  Si  Si23  1  0.885464  0.653403  0.494400  1
  Si  Si24  1  0.388410  0.154633  0.005715  1
  Si  Si25  1  0.845367  0.611590  0.994285  1
  Si  Si26  1  0.653403  0.885464  0.494400  1
  Si  Si27  1  0.114536  0.346597  0.505600  1
  Si  Si28  1  0.611590  0.845367  0.994285  1
  Si  Si29  1  0.154633  0.388410  0.005715  1
  Ru  Ru30  1  0.668598  0.331402  0.500000  1
  Ru  Ru31  1  0.169387  0.830613  0.000000  1
  Ru  Ru32  1  0.331402  0.668598  0.500000  1
  Ru  Ru33  1  0.830613  0.169387  0.000000  1
  Ru  Ru34  1  0.127317  0.127317  0.627228  1
  Ru  Ru35  1  0.872683  0.872683  0.372772  1
  Ru  Ru36  1  0.373309  0.373309  0.128051  1
  Ru  Ru37  1  0.626691  0.626691  0.871949  1
