# generated using pymatgen
data_Nb9Al2SiPt2
_symmetry_space_group_name_H-M   'P 1'
_cell_length_a   5.19778679
_cell_length_b   9.89024592
_cell_length_c   9.89024622
_cell_angle_alpha   86.04058603
_cell_angle_beta   74.76531785
_cell_angle_gamma   74.76531698
_symmetry_Int_Tables_number   1
_chemical_formula_structural   Nb9Al2SiPt2
_chemical_formula_sum   'Nb18 Al4 Si2 Pt4'
_cell_volume   473.32463204
_cell_formula_units_Z   2
loop_
 _symmetry_equiv_pos_site_id
 _symmetry_equiv_pos_as_xyz
  1  'x, y, z'
loop_
 _atom_site_type_symbol
 _atom_site_label
 _atom_site_symmetry_multiplicity
 _atom_site_fract_x
 _atom_site_fract_y
 _atom_site_fract_z
 _atom_site_occupancy
  Nb  Nb0  1  0.750000  0.500000  0.500000  1
  Nb  Nb1  1  0.250000  0.500000  0.500000  1
  Nb  Nb2  1  0.792292  0.775216  0.640199  1
  Nb  Nb3  1  0.207708  0.224784  0.359801  1
  Nb  Nb4  1  0.707708  0.359801  0.224784  1
  Nb  Nb5  1  0.292292  0.640199  0.775216  1
  Nb  Nb6  1  0.567509  0.640199  0.224784  1
  Nb  Nb7  1  0.432491  0.359801  0.775216  1
  Nb  Nb8  1  0.067509  0.224784  0.640199  1
  Nb  Nb9  1  0.932491  0.775216  0.359801  1
  Nb  Nb10  1  0.580489  0.075369  0.763655  1
  Nb  Nb11  1  0.419511  0.924631  0.236345  1
  Nb  Nb12  1  0.919511  0.236345  0.924631  1
  Nb  Nb13  1  0.080489  0.763655  0.075369  1
  Nb  Nb14  1  0.655858  0.763655  0.924631  1
  Nb  Nb15  1  0.344142  0.236345  0.075369  1
  Nb  Nb16  1  0.155858  0.924631  0.763655  1
  Nb  Nb17  1  0.844142  0.075369  0.236345  1
  Al  Al18  1  0.500000  0.000000  0.500000  1
  Al  Al19  1  0.000000  0.000000  0.500000  1
  Al  Al20  1  0.500000  0.500000  0.000000  1
  Al  Al21  1  0.000000  0.500000  0.000000  1
  Si  Si22  1  0.250000  0.000000  0.000000  1
  Si  Si23  1  0.750000  0.000000  0.000000  1
  Pt  Pt24  1  0.129733  0.500000  0.240534  1
  Pt  Pt25  1  0.870267  0.500000  0.759466  1
  Pt  Pt26  1  0.370267  0.759466  0.500000  1
  Pt  Pt27  1  0.629733  0.240534  0.500000  1
