# generated using pymatgen
data_Ag4Sn2HgSe7
_symmetry_space_group_name_H-M   'P 1'
_cell_length_a   10.25467105
_cell_length_b   10.25467082
_cell_length_c   11.26713600
_cell_angle_alpha   86.64895882
_cell_angle_beta   86.64895890
_cell_angle_gamma   43.18946229
_symmetry_Int_Tables_number   1
_chemical_formula_structural   Ag4Sn2HgSe7
_chemical_formula_sum   'Ag8 Sn4 Hg2 Se14'
_cell_volume   809.31085730
_cell_formula_units_Z   2
loop_
 _symmetry_equiv_pos_site_id
 _symmetry_equiv_pos_as_xyz
  1  'x, y, z'
loop_
 _atom_site_type_symbol
 _atom_site_label
 _atom_site_symmetry_multiplicity
 _atom_site_fract_x
 _atom_site_fract_y
 _atom_site_fract_z
 _atom_site_occupancy
  Ag  Ag0  1  0.527987  0.180237  0.412790  1
  Ag  Ag1  1  0.180237  0.527987  0.912790  1
  Ag  Ag2  1  0.910006  0.223328  0.332363  1
  Ag  Ag3  1  0.223328  0.910006  0.832363  1
  Ag  Ag4  1  0.677885  0.315628  0.697823  1
  Ag  Ag5  1  0.315628  0.677885  0.197823  1
  Ag  Ag6  1  0.039047  0.385688  0.613461  1
  Ag  Ag7  1  0.385688  0.039047  0.113461  1
  Sn  Sn8  1  0.468548  0.809518  0.471545  1
  Sn  Sn9  1  0.809518  0.468548  0.971545  1
  Sn  Sn10  1  0.085117  0.766365  0.538263  1
  Sn  Sn11  1  0.766365  0.085117  0.038263  1
  Hg  Hg12  1  0.926016  0.637931  0.259561  1
  Hg  Hg13  1  0.637931  0.926016  0.759561  1
  Se  Se14  1  0.365837  0.694332  0.633437  1
  Se  Se15  1  0.694332  0.365837  0.133437  1
  Se  Se16  1  0.224810  0.550115  0.356034  1
  Se  Se17  1  0.550115  0.224810  0.856034  1
  Se  Se18  1  0.012727  0.637488  0.703149  1
  Se  Se19  1  0.637488  0.012727  0.203149  1
  Se  Se20  1  0.278117  0.938628  0.281634  1
  Se  Se21  1  0.938628  0.278117  0.781634  1
  Se  Se22  1  0.410126  0.074018  0.566293  1
  Se  Se23  1  0.074018  0.410126  0.066293  1
  Se  Se24  1  0.826865  0.513698  0.423312  1
  Se  Se25  1  0.513698  0.826865  0.923312  1
  Se  Se26  1  0.800293  0.124145  0.498667  1
  Se  Se27  1  0.124145  0.800293  0.998667  1
