# generated using pymatgen
data_Dy20Ir3OsRh8
_symmetry_space_group_name_H-M   'P 1'
_cell_length_a   10.87725080
_cell_length_b   10.87628985
_cell_length_c   6.40028403
_cell_angle_alpha   89.98902281
_cell_angle_beta   89.99810083
_cell_angle_gamma   89.95613560
_symmetry_Int_Tables_number   1
_chemical_formula_structural   Dy20Ir3OsRh8
_chemical_formula_sum   'Dy20 Ir3 Os1 Rh8'
_cell_volume   757.17981323
_cell_formula_units_Z   1
loop_
 _symmetry_equiv_pos_site_id
 _symmetry_equiv_pos_as_xyz
  1  'x, y, z'
loop_
 _atom_site_type_symbol
 _atom_site_label
 _atom_site_symmetry_multiplicity
 _atom_site_fract_x
 _atom_site_fract_y
 _atom_site_fract_z
 _atom_site_occupancy
  Dy  Dy0  1  0.292781  0.088490  0.375629  1
  Dy  Dy1  1  0.293610  0.911555  0.881193  1
  Dy  Dy2  1  0.706583  0.087303  0.881344  1
  Dy  Dy3  1  0.707136  0.911465  0.375497  1
  Dy  Dy4  1  0.586675  0.792276  0.882091  1
  Dy  Dy5  1  0.586545  0.207661  0.375609  1
  Dy  Dy6  1  0.413139  0.791714  0.376298  1
  Dy  Dy7  1  0.412239  0.207185  0.882284  1
  Dy  Dy8  1  0.210172  0.412007  0.620564  1
  Dy  Dy9  1  0.209980  0.587560  0.120529  1
  Dy  Dy10  1  0.790600  0.412712  0.121028  1
  Dy  Dy11  1  0.790422  0.589162  0.620279  1
  Dy  Dy12  1  0.910562  0.708904  0.121015  1
  Dy  Dy13  1  0.911280  0.290956  0.621376  1
  Dy  Dy14  1  0.089901  0.708880  0.621514  1
  Dy  Dy15  1  0.089413  0.291121  0.121198  1
  Dy  Dy16  1  0.999935  0.999970  0.499329  1
  Dy  Dy17  1  0.000050  0.000093  0.999193  1
  Dy  Dy18  1  0.499726  0.500135  0.999205  1
  Dy  Dy19  1  0.499882  0.500200  0.499317  1
  Ir  Ir20  1  0.655043  0.652435  0.250532  1
  Ir  Ir21  1  0.345354  0.347165  0.250356  1
  Ir  Ir22  1  0.345378  0.653044  0.749972  1
  Os  Os23  1  0.500217  0.000415  0.126137  1
  Rh  Rh24  1  0.847727  0.154328  0.250571  1
  Rh  Rh25  1  0.848157  0.846608  0.750099  1
  Rh  Rh26  1  0.151734  0.153455  0.749941  1
  Rh  Rh27  1  0.151860  0.846160  0.250516  1
  Rh  Rh28  1  0.654519  0.347089  0.750053  1
  Rh  Rh29  1  0.500192  0.000399  0.624319  1
  Rh  Rh30  1  0.999539  0.499765  0.876135  1
  Rh  Rh31  1  0.999647  0.499789  0.376872  1
