# generated using pymatgen
data_Tb2HoGa6Co7Cu2
_symmetry_space_group_name_H-M   'P 1'
_cell_length_a   4.07486000
_cell_length_b   8.73451173
_cell_length_c   8.82935725
_cell_angle_alpha   59.69105038
_cell_angle_beta   90.00000000
_cell_angle_gamma   90.00000000
_symmetry_Int_Tables_number   1
_chemical_formula_structural   Tb2HoGa6Co7Cu2
_chemical_formula_sum   'Tb2 Ho1 Ga6 Co7 Cu2'
_cell_volume   271.30048642
_cell_formula_units_Z   1
loop_
 _symmetry_equiv_pos_site_id
 _symmetry_equiv_pos_as_xyz
  1  'x, y, z'
loop_
 _atom_site_type_symbol
 _atom_site_label
 _atom_site_symmetry_multiplicity
 _atom_site_fract_x
 _atom_site_fract_y
 _atom_site_fract_z
 _atom_site_occupancy
  Tb  Tb0  1  0.500000  0.325808  0.335841  1
  Tb  Tb1  1  0.500000  0.674544  0.661242  1
  Ho  Ho2  1  0.000000  0.999897  0.999155  1
  Ga  Ga3  1  0.000000  0.493739  0.508559  1
  Ga  Ga4  1  0.000000  0.506057  0.002616  1
  Ga  Ga5  1  0.000000  0.999876  0.490315  1
  Ga  Ga6  1  0.500000  0.728222  0.276311  1
  Ga  Ga7  1  0.500000  0.271870  0.004179  1
  Ga  Ga8  1  0.500000  0.000002  0.723434  1
  Co  Co9  1  0.000000  0.181310  0.177532  1
  Co  Co10  1  0.000000  0.178797  0.632511  1
  Co  Co11  1  0.000000  0.632272  0.190250  1
  Co  Co12  1  0.000000  0.821088  0.811544  1
  Co  Co13  1  0.000000  0.367741  0.822486  1
  Co  Co14  1  0.000000  0.818091  0.359269  1
  Co  Co15  1  0.500000  0.000415  0.297177  1
  Cu  Cu16  1  0.500000  0.296751  0.705465  1
  Cu  Cu17  1  0.500000  0.703418  0.002213  1
