# generated using pymatgen
data_Y8Ho2OsRu3
_symmetry_space_group_name_H-M   'P 1'
_cell_length_a   6.37652660
_cell_length_b   7.32867791
_cell_length_c   8.51894984
_cell_angle_alpha   96.67263269
_cell_angle_beta   112.10129838
_cell_angle_gamma   89.92710718
_symmetry_Int_Tables_number   1
_chemical_formula_structural   Y8Ho2OsRu3
_chemical_formula_sum   'Y8 Ho2 Os1 Ru3'
_cell_volume   365.96237898
_cell_formula_units_Z   1
loop_
 _symmetry_equiv_pos_site_id
 _symmetry_equiv_pos_as_xyz
  1  'x, y, z'
loop_
 _atom_site_type_symbol
 _atom_site_label
 _atom_site_symmetry_multiplicity
 _atom_site_fract_x
 _atom_site_fract_y
 _atom_site_fract_z
 _atom_site_occupancy
  Y  Y0  1  0.978624  0.916263  0.185654  1
  Y  Y1  1  0.792886  0.584997  0.816248  1
  Y  Y2  1  0.021728  0.085004  0.814550  1
  Y  Y3  1  0.208112  0.415378  0.185927  1
  Y  Y4  1  0.640495  0.814907  0.434263  1
  Y  Y5  1  0.204134  0.683643  0.564323  1
  Y  Y6  1  0.360476  0.184519  0.565571  1
  Y  Y7  1  0.793481  0.315504  0.434827  1
  Ho  Ho8  1  0.421930  0.749113  0.999578  1
  Ho  Ho9  1  0.578442  0.250651  0.000369  1
  Os  Os10  1  0.820540  0.575524  0.216867  1
  Ru  Ru11  1  0.602514  0.925960  0.781422  1
  Ru  Ru12  1  0.179281  0.424338  0.782550  1
  Ru  Ru13  1  0.397358  0.074199  0.217852  1
