# generated using pymatgen
data_La5PrSm6(Si7Br3)2
_symmetry_space_group_name_H-M   'P 1'
_cell_length_a   4.08209500
_cell_length_b   11.83021900
_cell_length_c   16.48790800
_cell_angle_alpha   90.00000000
_cell_angle_beta   90.00000000
_cell_angle_gamma   90.00000000
_symmetry_Int_Tables_number   1
_chemical_formula_structural   La5PrSm6(Si7Br3)2
_chemical_formula_sum   'La5 Pr1 Sm6 Si14 Br6'
_cell_volume   796.23533637
_cell_formula_units_Z   1
loop_
 _symmetry_equiv_pos_site_id
 _symmetry_equiv_pos_as_xyz
  1  'x, y, z'
loop_
 _atom_site_type_symbol
 _atom_site_label
 _atom_site_symmetry_multiplicity
 _atom_site_fract_x
 _atom_site_fract_y
 _atom_site_fract_z
 _atom_site_occupancy
  La  La0  1  0.000000  0.662454  0.000000  1
  La  La1  1  0.500000  0.067636  0.878107  1
  La  La2  1  0.000000  0.933060  0.621240  1
  La  La3  1  0.500000  0.067636  0.121893  1
  La  La4  1  0.000000  0.933060  0.378760  1
  Pr  Pr5  1  0.500000  0.339836  0.500000  1
  Sm  Sm6  1  0.500000  0.362576  0.757585  1
  Sm  Sm7  1  0.000000  0.636057  0.740865  1
  Sm  Sm8  1  0.500000  0.362576  0.242415  1
  Sm  Sm9  1  0.000000  0.636057  0.259135  1
  Sm  Sm10  1  0.500000  0.360373  0.000000  1
  Sm  Sm11  1  0.000000  0.640040  0.500000  1
  Si  Si12  1  0.000000  0.158341  0.000000  1
  Si  Si13  1  0.500000  0.841951  0.500000  1
  Si  Si14  1  0.500000  0.568300  0.874715  1
  Si  Si15  1  0.000000  0.430161  0.624590  1
  Si  Si16  1  0.500000  0.568300  0.125285  1
  Si  Si17  1  0.000000  0.430161  0.375410  1
  Si  Si18  1  0.000000  0.258287  0.872956  1
  Si  Si19  1  0.500000  0.741688  0.626673  1
  Si  Si20  1  0.000000  0.258287  0.127044  1
  Si  Si21  1  0.500000  0.741688  0.373327  1
  Si  Si22  1  0.000000  0.460233  0.876593  1
  Si  Si23  1  0.500000  0.539435  0.622566  1
  Si  Si24  1  0.500000  0.539435  0.377434  1
  Si  Si25  1  0.000000  0.460233  0.123407  1
  Br  Br26  1  0.500000  0.116015  0.691390  1
  Br  Br27  1  0.000000  0.883055  0.808323  1
  Br  Br28  1  0.000000  0.139088  0.500000  1
  Br  Br29  1  0.500000  0.864911  0.000000  1
  Br  Br30  1  0.500000  0.116015  0.308610  1
  Br  Br31  1  0.000000  0.883055  0.191677  1
