# generated using pymatgen
data_La4CdHgRuAu3
_symmetry_space_group_name_H-M   'P 1'
_cell_length_a   8.15338373
_cell_length_b   8.07287975
_cell_length_c   3.98601800
_cell_angle_alpha   90.00000000
_cell_angle_beta   90.00000000
_cell_angle_gamma   90.41759645
_symmetry_Int_Tables_number   1
_chemical_formula_structural   La4CdHgRuAu3
_chemical_formula_sum   'La4 Cd1 Hg1 Ru1 Au3'
_cell_volume   262.35786363
_cell_formula_units_Z   1
loop_
 _symmetry_equiv_pos_site_id
 _symmetry_equiv_pos_as_xyz
  1  'x, y, z'
loop_
 _atom_site_type_symbol
 _atom_site_label
 _atom_site_symmetry_multiplicity
 _atom_site_fract_x
 _atom_site_fract_y
 _atom_site_fract_z
 _atom_site_occupancy
  La  La0  1  0.675079  0.164233  0.500000  1
  La  La1  1  0.300441  0.810998  0.500000  1
  La  La2  1  0.174412  0.347678  0.500000  1
  La  La3  1  0.852540  0.682234  0.500000  1
  Cd  Cd4  1  0.497648  0.501537  0.000000  1
  Hg  Hg5  1  0.000608  0.999302  0.000000  1
  Ru  Ru6  1  0.140082  0.628021  0.000000  1
  Au  Au7  1  0.869031  0.379956  0.000000  1
  Au  Au8  1  0.617147  0.859339  0.000000  1
  Au  Au9  1  0.373012  0.126702  0.000000  1
