# generated using pymatgen
data_Mn5Pd8Au3
_symmetry_space_group_name_H-M   'P 1'
_cell_length_a   6.89896542
_cell_length_b   6.89896593
_cell_length_c   6.89896500
_cell_angle_alpha   106.97621975
_cell_angle_beta   106.97622104
_cell_angle_gamma   114.58548707
_symmetry_Int_Tables_number   1
_chemical_formula_structural   Mn5Pd8Au3
_chemical_formula_sum   'Mn5 Pd8 Au3'
_cell_volume   251.24839186
_cell_formula_units_Z   1
loop_
 _symmetry_equiv_pos_site_id
 _symmetry_equiv_pos_as_xyz
  1  'x, y, z'
loop_
 _atom_site_type_symbol
 _atom_site_label
 _atom_site_symmetry_multiplicity
 _atom_site_fract_x
 _atom_site_fract_y
 _atom_site_fract_z
 _atom_site_occupancy
  Mn  Mn0  1  0.258223  0.258223  0.516447  1
  Mn  Mn1  1  0.741777  0.741777  0.483553  1
  Mn  Mn2  1  0.258223  0.741777  0.000000  1
  Mn  Mn3  1  0.741777  0.258223  0.000000  1
  Mn  Mn4  1  0.000000  0.000000  0.000000  1
  Pd  Pd5  1  0.485183  0.238497  0.246684  1
  Pd  Pd6  1  0.514817  0.761503  0.753316  1
  Pd  Pd7  1  0.991813  0.238497  0.753316  1
  Pd  Pd8  1  0.238497  0.991813  0.753316  1
  Pd  Pd9  1  0.008187  0.761503  0.246684  1
  Pd  Pd10  1  0.761503  0.008187  0.246684  1
  Pd  Pd11  1  0.238497  0.485183  0.246684  1
  Pd  Pd12  1  0.761503  0.514817  0.753316  1
  Au  Au13  1  0.500000  0.000000  0.500000  1
  Au  Au14  1  0.000000  0.500000  0.500000  1
  Au  Au15  1  0.500000  0.500000  0.000000  1
