# generated using pymatgen
data_DyNpReB6
_symmetry_space_group_name_H-M   'P 1'
_cell_length_a   3.62664000
_cell_length_b   9.26393200
_cell_length_c   11.34942400
_cell_angle_alpha   90.00000000
_cell_angle_beta   90.00000000
_cell_angle_gamma   90.00000000
_symmetry_Int_Tables_number   1
_chemical_formula_structural   DyNpReB6
_chemical_formula_sum   'Dy4 Np4 Re4 B24'
_cell_volume   381.30598921
_cell_formula_units_Z   4
loop_
 _symmetry_equiv_pos_site_id
 _symmetry_equiv_pos_as_xyz
  1  'x, y, z'
loop_
 _atom_site_type_symbol
 _atom_site_label
 _atom_site_symmetry_multiplicity
 _atom_site_fract_x
 _atom_site_fract_y
 _atom_site_fract_z
 _atom_site_occupancy
  Dy  Dy0  1  0.000000  0.337028  0.406799  1
  Dy  Dy1  1  0.000000  0.662972  0.593201  1
  Dy  Dy2  1  0.000000  0.837028  0.093201  1
  Dy  Dy3  1  0.000000  0.162972  0.906799  1
  Np  Np4  1  0.000000  0.958892  0.400724  1
  Np  Np5  1  0.000000  0.041108  0.599276  1
  Np  Np6  1  0.000000  0.458892  0.099276  1
  Np  Np7  1  0.000000  0.541108  0.900724  1
  Re  Re8  1  0.000000  0.646301  0.318205  1
  Re  Re9  1  0.000000  0.353699  0.681795  1
  Re  Re10  1  0.000000  0.146301  0.181795  1
  Re  Re11  1  0.000000  0.853699  0.818205  1
  B  B12  1  0.500000  0.552249  0.431090  1
  B  B13  1  0.500000  0.447751  0.568910  1
  B  B14  1  0.500000  0.052249  0.068910  1
  B  B15  1  0.500000  0.947751  0.931090  1
  B  B16  1  0.500000  0.744614  0.422687  1
  B  B17  1  0.500000  0.255386  0.577313  1
  B  B18  1  0.500000  0.244614  0.077313  1
  B  B19  1  0.500000  0.755386  0.922687  1
  B  B20  1  0.500000  0.803966  0.274863  1
  B  B21  1  0.500000  0.196034  0.725137  1
  B  B22  1  0.500000  0.303966  0.225137  1
  B  B23  1  0.500000  0.696034  0.774863  1
  B  B24  1  0.500000  0.643699  0.188086  1
  B  B25  1  0.500000  0.356301  0.811914  1
  B  B26  1  0.500000  0.143699  0.311914  1
  B  B27  1  0.500000  0.856301  0.688086  1
  B  B28  1  0.500000  0.988448  0.220480  1
  B  B29  1  0.500000  0.011552  0.779520  1
  B  B30  1  0.500000  0.488448  0.279520  1
  B  B31  1  0.500000  0.511552  0.720480  1
  B  B32  1  0.500000  0.638884  0.038384  1
  B  B33  1  0.500000  0.361116  0.961616  1
  B  B34  1  0.500000  0.138884  0.461616  1
  B  B35  1  0.500000  0.861116  0.538384  1
