# generated using pymatgen
data_Sc4Ga6TcIr
_symmetry_space_group_name_H-M   'P 1'
_cell_length_a   5.27666100
_cell_length_b   5.27666034
_cell_length_c   8.55107200
_cell_angle_alpha   90.00000000
_cell_angle_beta   90.00000000
_cell_angle_gamma   119.99999787
_symmetry_Int_Tables_number   1
_chemical_formula_structural   Sc4Ga6TcIr
_chemical_formula_sum   'Sc4 Ga6 Tc1 Ir1'
_cell_volume   206.19092049
_cell_formula_units_Z   1
loop_
 _symmetry_equiv_pos_site_id
 _symmetry_equiv_pos_as_xyz
  1  'x, y, z'
loop_
 _atom_site_type_symbol
 _atom_site_label
 _atom_site_symmetry_multiplicity
 _atom_site_fract_x
 _atom_site_fract_y
 _atom_site_fract_z
 _atom_site_occupancy
  Sc  Sc0  1  0.666667  0.333333  0.053400  1
  Sc  Sc1  1  0.666667  0.333333  0.448022  1
  Sc  Sc2  1  0.333333  0.666667  0.551977  1
  Sc  Sc3  1  0.333333  0.666667  0.946600  1
  Ga  Ga4  1  0.167681  0.335362  0.250904  1
  Ga  Ga5  1  0.167681  0.832319  0.250904  1
  Ga  Ga6  1  0.664638  0.832319  0.250904  1
  Ga  Ga7  1  0.335362  0.167681  0.749096  1
  Ga  Ga8  1  0.832319  0.167681  0.749096  1
  Ga  Ga9  1  0.832319  0.664637  0.749096  1
  Tc  Tc10  1  0.000000  0.000000  0.000000  1
  Ir  Ir11  1  0.000000  0.000000  0.500000  1
