# generated using pymatgen
data_YbZrTiIr3
_symmetry_space_group_name_H-M   'P 1'
_cell_length_a   5.52637426
_cell_length_b   5.11711838
_cell_length_c   5.52637400
_cell_angle_alpha   57.31710512
_cell_angle_beta   59.99998960
_cell_angle_gamma   57.31710514
_symmetry_Int_Tables_number   1
_chemical_formula_structural   YbZrTiIr3
_chemical_formula_sum   'Yb1 Zr1 Ti1 Ir3'
_cell_volume   105.81174933
_cell_formula_units_Z   1
loop_
 _symmetry_equiv_pos_site_id
 _symmetry_equiv_pos_as_xyz
  1  'x, y, z'
loop_
 _atom_site_type_symbol
 _atom_site_label
 _atom_site_symmetry_multiplicity
 _atom_site_fract_x
 _atom_site_fract_y
 _atom_site_fract_z
 _atom_site_occupancy
  Yb  Yb0  1  0.748856  0.753431  0.748856  1
  Zr  Zr1  1  0.496301  0.511098  0.496301  1
  Ti  Ti2  1  0.127661  0.617018  0.127661  1
  Ir  Ir3  1  0.628126  0.122818  0.124528  1
  Ir  Ir4  1  0.124528  0.122818  0.124528  1
  Ir  Ir5  1  0.124528  0.122818  0.628126  1
