# generated using pymatgen
data_TbTi2(Nb2Sn3)2
_symmetry_space_group_name_H-M   'P 1'
_cell_length_a   5.76416200
_cell_length_b   5.76685789
_cell_length_c   9.68099200
_cell_angle_alpha   90.00000000
_cell_angle_beta   90.00000000
_cell_angle_gamma   119.98452564
_symmetry_Int_Tables_number   1
_chemical_formula_structural   TbTi2(Nb2Sn3)2
_chemical_formula_sum   'Tb1 Ti2 Nb4 Sn6'
_cell_volume   278.73635628
_cell_formula_units_Z   1
loop_
 _symmetry_equiv_pos_site_id
 _symmetry_equiv_pos_as_xyz
  1  'x, y, z'
loop_
 _atom_site_type_symbol
 _atom_site_label
 _atom_site_symmetry_multiplicity
 _atom_site_fract_x
 _atom_site_fract_y
 _atom_site_fract_z
 _atom_site_occupancy
  Tb  Tb0  1  0.000000  0.000000  0.000000  1
  Ti  Ti1  1  0.500000  0.000000  0.750995  1
  Ti  Ti2  1  0.500000  0.000000  0.249005  1
  Nb  Nb3  1  0.000000  0.500000  0.751877  1
  Nb  Nb4  1  0.500000  0.500000  0.751877  1
  Nb  Nb5  1  0.000000  0.500000  0.248123  1
  Nb  Nb6  1  0.500000  0.500000  0.248123  1
  Sn  Sn7  1  0.665440  0.330880  0.500000  1
  Sn  Sn8  1  0.334560  0.669120  0.500000  1
  Sn  Sn9  1  0.663954  0.327906  0.000000  1
  Sn  Sn10  1  0.336046  0.672094  0.000000  1
  Sn  Sn11  1  0.000000  0.000000  0.678175  1
  Sn  Sn12  1  0.000000  0.000000  0.321825  1
