# generated using pymatgen
data_Ho4InRu
_symmetry_space_group_name_H-M   'P 1'
_cell_length_a   9.60961910
_cell_length_b   9.60961919
_cell_length_c   9.60961800
_cell_angle_alpha   59.99999720
_cell_angle_beta   59.99999690
_cell_angle_gamma   59.99999823
_symmetry_Int_Tables_number   1
_chemical_formula_structural   Ho4InRu
_chemical_formula_sum   'Ho16 In4 Ru4'
_cell_volume   627.48514996
_cell_formula_units_Z   4
loop_
 _symmetry_equiv_pos_site_id
 _symmetry_equiv_pos_as_xyz
  1  'x, y, z'
loop_
 _atom_site_type_symbol
 _atom_site_label
 _atom_site_symmetry_multiplicity
 _atom_site_fract_x
 _atom_site_fract_y
 _atom_site_fract_z
 _atom_site_occupancy
  Ho  Ho0  1  0.808847  0.191153  0.808847  1
  Ho  Ho1  1  0.941066  0.558934  0.558934  1
  Ho  Ho2  1  0.558934  0.941066  0.558934  1
  Ho  Ho3  1  0.808847  0.191153  0.191153  1
  Ho  Ho4  1  0.191153  0.808847  0.191153  1
  Ho  Ho5  1  0.348639  0.954084  0.348639  1
  Ho  Ho6  1  0.941066  0.941066  0.558934  1
  Ho  Ho7  1  0.558934  0.941066  0.941066  1
  Ho  Ho8  1  0.191153  0.808847  0.808847  1
  Ho  Ho9  1  0.348639  0.348639  0.954084  1
  Ho  Ho10  1  0.558934  0.558934  0.941066  1
  Ho  Ho11  1  0.348639  0.348639  0.348639  1
  Ho  Ho12  1  0.191153  0.191153  0.808847  1
  Ho  Ho13  1  0.808847  0.808847  0.191153  1
  Ho  Ho14  1  0.941066  0.558934  0.941066  1
  Ho  Ho15  1  0.954084  0.348639  0.348639  1
  In  In16  1  0.582463  0.582463  0.582463  1
  In  In17  1  0.582463  0.252611  0.582463  1
  In  In18  1  0.582463  0.582463  0.252611  1
  In  In19  1  0.252611  0.582463  0.582463  1
  Ru  Ru20  1  0.139894  0.139894  0.580319  1
  Ru  Ru21  1  0.580319  0.139894  0.139894  1
  Ru  Ru22  1  0.139894  0.580319  0.139894  1
  Ru  Ru23  1  0.139894  0.139894  0.139894  1
