# generated using pymatgen
data_Ti6Al6Fe5Rh7
_symmetry_space_group_name_H-M   'P 1'
_cell_length_a   4.24985400
_cell_length_b   5.99768811
_cell_length_c   12.64796633
_cell_angle_alpha   90.06964647
_cell_angle_beta   90.00035197
_cell_angle_gamma   89.99951839
_symmetry_Int_Tables_number   1
_chemical_formula_structural   Ti6Al6Fe5Rh7
_chemical_formula_sum   'Ti6 Al6 Fe5 Rh7'
_cell_volume   322.38755491
_cell_formula_units_Z   1
loop_
 _symmetry_equiv_pos_site_id
 _symmetry_equiv_pos_as_xyz
  1  'x, y, z'
loop_
 _atom_site_type_symbol
 _atom_site_label
 _atom_site_symmetry_multiplicity
 _atom_site_fract_x
 _atom_site_fract_y
 _atom_site_fract_z
 _atom_site_occupancy
  Ti  Ti0  1  0.000004  0.499735  0.984775  1
  Ti  Ti1  1  0.500007  0.001309  0.165377  1
  Ti  Ti2  1  0.000001  0.506260  0.342127  1
  Ti  Ti3  1  0.499997  0.987736  0.513491  1
  Ti  Ti4  1  0.999993  0.504922  0.672105  1
  Ti  Ti5  1  0.499999  0.001826  0.821989  1
  Al  Al6  1  0.000007  0.000607  0.990673  1
  Al  Al7  1  0.500000  0.499802  0.165731  1
  Al  Al8  1  0.000009  0.998459  0.338461  1
  Al  Al9  1  0.499991  0.504630  0.509387  1
  Al  Al10  1  0.999995  0.996182  0.670488  1
  Al  Al11  1  0.499997  0.499754  0.825100  1
  Fe  Fe12  1  0.999982  0.747958  0.501815  1
  Fe  Fe13  1  0.499999  0.247300  0.667671  1
  Fe  Fe14  1  0.499998  0.750913  0.667188  1
  Fe  Fe15  1  0.999994  0.252495  0.831185  1
  Fe  Fe16  1  0.000001  0.748609  0.831712  1
  Rh  Rh17  1  0.500000  0.249688  0.996988  1
  Rh  Rh18  1  0.500013  0.750852  0.997072  1
  Rh  Rh19  1  0.999995  0.250948  0.166089  1
  Rh  Rh20  1  0.000013  0.750529  0.165806  1
  Rh  Rh21  1  0.500009  0.249870  0.335267  1
  Rh  Rh22  1  0.499998  0.750689  0.335816  1
  Rh  Rh23  1  0.999997  0.248923  0.503690  1
