# generated using pymatgen
data_Y4Zr3ScPt4
_symmetry_space_group_name_H-M   'P 1'
_cell_length_a   4.70280500
_cell_length_b   7.11846880
_cell_length_c   8.30490246
_cell_angle_alpha   88.93191418
_cell_angle_beta   90.00000000
_cell_angle_gamma   90.00000000
_symmetry_Int_Tables_number   1
_chemical_formula_structural   Y4Zr3ScPt4
_chemical_formula_sum   'Y4 Zr3 Sc1 Pt4'
_cell_volume   277.97300900
_cell_formula_units_Z   1
loop_
 _symmetry_equiv_pos_site_id
 _symmetry_equiv_pos_as_xyz
  1  'x, y, z'
loop_
 _atom_site_type_symbol
 _atom_site_label
 _atom_site_symmetry_multiplicity
 _atom_site_fract_x
 _atom_site_fract_y
 _atom_site_fract_z
 _atom_site_occupancy
  Y  Y0  1  0.250000  0.022526  0.675241  1
  Y  Y1  1  0.250000  0.516389  0.822103  1
  Y  Y2  1  0.750000  0.981875  0.323902  1
  Y  Y3  1  0.750000  0.481229  0.180517  1
  Zr  Zr4  1  0.250000  0.142619  0.077641  1
  Zr  Zr5  1  0.250000  0.645676  0.425414  1
  Zr  Zr6  1  0.750000  0.853351  0.920451  1
  Sc  Sc7  1  0.750000  0.355660  0.577182  1
  Pt  Pt8  1  0.250000  0.269346  0.398099  1
  Pt  Pt9  1  0.250000  0.768483  0.094928  1
  Pt  Pt10  1  0.750000  0.733466  0.597960  1
  Pt  Pt11  1  0.750000  0.229377  0.906563  1
