# generated using pymatgen
data_Dy2TmPa(Ga3Ir)6
_symmetry_space_group_name_H-M   'P 1'
_cell_length_a   7.62359901
_cell_length_b   7.61346747
_cell_length_c   9.44192000
_cell_angle_alpha   90.00000000
_cell_angle_beta   90.00000000
_cell_angle_gamma   119.92942874
_symmetry_Int_Tables_number   1
_chemical_formula_structural   Dy2TmPa(Ga3Ir)6
_chemical_formula_sum   'Dy2 Tm1 Pa1 Ga18 Ir6'
_cell_volume   474.94343288
_cell_formula_units_Z   1
loop_
 _symmetry_equiv_pos_site_id
 _symmetry_equiv_pos_as_xyz
  1  'x, y, z'
loop_
 _atom_site_type_symbol
 _atom_site_label
 _atom_site_symmetry_multiplicity
 _atom_site_fract_x
 _atom_site_fract_y
 _atom_site_fract_z
 _atom_site_occupancy
  Dy  Dy0  1  0.003793  0.331478  0.250000  1
  Dy  Dy1  1  0.331362  0.003071  0.250000  1
  Tm  Tm2  1  0.669200  0.996594  0.750000  1
  Pa  Pa3  1  0.997247  0.668672  0.750000  1
  Ga  Ga4  1  0.129395  0.129722  0.750000  1
  Ga  Ga5  1  0.873308  0.874249  0.250000  1
  Ga  Ga6  1  0.997883  0.330313  0.580266  1
  Ga  Ga7  1  0.001734  0.665756  0.416204  1
  Ga  Ga8  1  0.001734  0.665756  0.083796  1
  Ga  Ga9  1  0.338233  0.001945  0.919692  1
  Ga  Ga10  1  0.997883  0.330313  0.919734  1
  Ga  Ga11  1  0.665891  0.002002  0.081585  1
  Ga  Ga12  1  0.665891  0.002002  0.418415  1
  Ga  Ga13  1  0.338233  0.001945  0.580308  1
  Ga  Ga14  1  0.331377  0.331357  0.068452  1
  Ga  Ga15  1  0.664577  0.668463  0.933720  1
  Ga  Ga16  1  0.664577  0.668463  0.566280  1
  Ga  Ga17  1  0.331377  0.331357  0.431548  1
  Ga  Ga18  1  0.339637  0.545258  0.750000  1
  Ga  Ga19  1  0.660337  0.452299  0.250000  1
  Ga  Ga20  1  0.543977  0.338977  0.750000  1
  Ga  Ga21  1  0.452712  0.661152  0.250000  1
  Ir  Ir22  1  0.673758  0.331077  0.501977  1
  Ir  Ir23  1  0.326426  0.671354  0.502102  1
  Ir  Ir24  1  0.326426  0.671354  0.997898  1
  Ir  Ir25  1  0.673758  0.331077  0.998023  1
  Ir  Ir26  1  0.999638  0.996996  0.502280  1
  Ir  Ir27  1  0.999638  0.996996  0.997720  1
