# generated using pymatgen
data_Pr3Al12OsRu2Pt
_symmetry_space_group_name_H-M   'P 1'
_cell_length_a   8.94104936
_cell_length_b   8.91446885
_cell_length_c   9.71345820
_cell_angle_alpha   90.17029107
_cell_angle_beta   89.90663695
_cell_angle_gamma   119.51978361
_symmetry_Int_Tables_number   1
_chemical_formula_structural   Pr3Al12OsRu2Pt
_chemical_formula_sum   'Pr6 Al24 Os2 Ru4 Pt2'
_cell_volume   673.70196427
_cell_formula_units_Z   2
loop_
 _symmetry_equiv_pos_site_id
 _symmetry_equiv_pos_as_xyz
  1  'x, y, z'
loop_
 _atom_site_type_symbol
 _atom_site_label
 _atom_site_symmetry_multiplicity
 _atom_site_fract_x
 _atom_site_fract_y
 _atom_site_fract_z
 _atom_site_occupancy
  Pr  Pr0  1  0.189935  0.383791  0.249962  1
  Pr  Pr1  1  0.810065  0.616209  0.750038  1
  Pr  Pr2  1  0.618957  0.809435  0.249164  1
  Pr  Pr3  1  0.381043  0.190565  0.750836  1
  Pr  Pr4  1  0.188783  0.808388  0.248011  1
  Pr  Pr5  1  0.811217  0.191612  0.751989  1
  Al  Al6  1  0.330206  0.662177  0.016098  1
  Al  Al7  1  0.669794  0.337823  0.983902  1
  Al  Al8  1  0.669945  0.329965  0.517517  1
  Al  Al9  1  0.330055  0.670035  0.482483  1
  Al  Al10  1  0.158429  0.325867  0.575656  1
  Al  Al11  1  0.841571  0.674133  0.424344  1
  Al  Al12  1  0.675102  0.842516  0.575142  1
  Al  Al13  1  0.835766  0.672521  0.075256  1
  Al  Al14  1  0.324898  0.157484  0.424858  1
  Al  Al15  1  0.164234  0.327479  0.924744  1
  Al  Al16  1  0.163781  0.837001  0.575890  1
  Al  Al17  1  0.325549  0.168180  0.075628  1
  Al  Al18  1  0.836219  0.162999  0.424110  1
  Al  Al19  1  0.674451  0.831820  0.924372  1
  Al  Al20  1  0.841798  0.167503  0.076896  1
  Al  Al21  1  0.158202  0.832497  0.923104  1
  Al  Al22  1  0.562250  0.126128  0.254058  1
  Al  Al23  1  0.437750  0.873872  0.745942  1
  Al  Al24  1  0.874751  0.438691  0.250908  1
  Al  Al25  1  0.125249  0.561309  0.749092  1
  Al  Al26  1  0.563972  0.436443  0.246728  1
  Al  Al27  1  0.436028  0.563557  0.753272  1
  Al  Al28  1  0.997728  0.001189  0.249825  1
  Al  Al29  1  0.002272  0.998811  0.750175  1
  Os  Os30  1  0.000000  0.500000  0.000000  1
  Os  Os31  1  0.500000  0.500000  0.000000  1
  Ru  Ru32  1  0.500000  0.000000  0.500000  1
  Ru  Ru33  1  0.000000  0.500000  0.500000  1
  Ru  Ru34  1  0.000000  0.000000  0.000000  1
  Ru  Ru35  1  0.000000  0.000000  0.500000  1
  Pt  Pt36  1  0.500000  0.000000  0.000000  1
  Pt  Pt37  1  0.500000  0.500000  0.500000  1
