# generated using pymatgen
data_TmTaNb4C5
_symmetry_space_group_name_H-M   'P 1'
_cell_length_a   5.58410952
_cell_length_b   5.58410877
_cell_length_c   5.55834305
_cell_angle_alpha   80.91770035
_cell_angle_beta   80.91769515
_cell_angle_gamma   120.29598101
_symmetry_Int_Tables_number   1
_chemical_formula_structural   TmTaNb4C5
_chemical_formula_sum   'Tm1 Ta1 Nb4 C5'
_cell_volume   141.92689852
_cell_formula_units_Z   1
loop_
 _symmetry_equiv_pos_site_id
 _symmetry_equiv_pos_as_xyz
  1  'x, y, z'
loop_
 _atom_site_type_symbol
 _atom_site_label
 _atom_site_symmetry_multiplicity
 _atom_site_fract_x
 _atom_site_fract_y
 _atom_site_fract_z
 _atom_site_occupancy
  Tm  Tm0  1  0.749622  0.749622  0.747883  1
  Ta  Ta1  1  0.260308  0.260308  0.262161  1
  Nb  Nb2  1  0.087241  0.444534  0.743624  1
  Nb  Nb3  1  0.557502  0.909597  0.253821  1
  Nb  Nb4  1  0.909597  0.557502  0.253821  1
  Nb  Nb5  1  0.444534  0.087241  0.743624  1
  C  C6  1  0.491949  0.491949  0.495414  1
  C  C7  1  0.659709  0.320676  0.009543  1
  C  C8  1  0.320676  0.659709  0.009543  1
  C  C9  1  0.839560  0.179302  0.490285  1
  C  C10  1  0.179302  0.839560  0.490285  1
