# generated using pymatgen
data_Tb2Fe3Tc14C3
_symmetry_space_group_name_H-M   'P 1'
_cell_length_a   6.90414160
_cell_length_b   6.90414142
_cell_length_c   6.90414107
_cell_angle_alpha   82.45172628
_cell_angle_beta   82.45172886
_cell_angle_gamma   82.45172147
_symmetry_Int_Tables_number   1
_chemical_formula_structural   Tb2Fe3Tc14C3
_chemical_formula_sum   'Tb2 Fe3 Tc14 C3'
_cell_volume   321.23447494
_cell_formula_units_Z   1
loop_
 _symmetry_equiv_pos_site_id
 _symmetry_equiv_pos_as_xyz
  1  'x, y, z'
loop_
 _atom_site_type_symbol
 _atom_site_label
 _atom_site_symmetry_multiplicity
 _atom_site_fract_x
 _atom_site_fract_y
 _atom_site_fract_z
 _atom_site_occupancy
  Tb  Tb0  1  0.652117  0.652117  0.652117  1
  Tb  Tb1  1  0.347883  0.347883  0.347883  1
  Fe  Fe2  1  0.000000  0.000000  0.500000  1
  Fe  Fe3  1  0.500000  0.000000  0.000000  1
  Fe  Fe4  1  0.000000  0.500000  0.000000  1
  Tc  Tc5  1  0.724088  0.275912  0.000000  1
  Tc  Tc6  1  0.000000  0.724088  0.275912  1
  Tc  Tc7  1  0.275912  0.000000  0.724088  1
  Tc  Tc8  1  0.000000  0.275912  0.724088  1
  Tc  Tc9  1  0.724088  0.000000  0.275912  1
  Tc  Tc10  1  0.275912  0.724088  0.000000  1
  Tc  Tc11  1  0.348238  0.348238  0.860801  1
  Tc  Tc12  1  0.860801  0.348238  0.348238  1
  Tc  Tc13  1  0.348238  0.860801  0.348238  1
  Tc  Tc14  1  0.651762  0.651762  0.139199  1
  Tc  Tc15  1  0.139199  0.651762  0.651762  1
  Tc  Tc16  1  0.651762  0.139199  0.651762  1
  Tc  Tc17  1  0.899349  0.899349  0.899349  1
  Tc  Tc18  1  0.100651  0.100651  0.100651  1
  C  C19  1  0.500000  0.500000  0.000000  1
  C  C20  1  0.000000  0.500000  0.500000  1
  C  C21  1  0.500000  0.000000  0.500000  1
