# generated using pymatgen
data_CeTh7H24
_symmetry_space_group_name_H-M   'P 1'
_cell_length_a   6.91709000
_cell_length_b   6.94079000
_cell_length_c   6.94079000
_cell_angle_alpha   90.00000000
_cell_angle_beta   90.00000000
_cell_angle_gamma   90.00000000
_symmetry_Int_Tables_number   1
_chemical_formula_structural   CeTh7H24
_chemical_formula_sum   'Ce1 Th7 H24'
_cell_volume   333.22780752
_cell_formula_units_Z   1
loop_
 _symmetry_equiv_pos_site_id
 _symmetry_equiv_pos_as_xyz
  1  'x, y, z'
loop_
 _atom_site_type_symbol
 _atom_site_label
 _atom_site_symmetry_multiplicity
 _atom_site_fract_x
 _atom_site_fract_y
 _atom_site_fract_z
 _atom_site_occupancy
  Ce  Ce0  1  0.250000  0.000000  0.500000  1
  Th  Th1  1  0.000619  0.000000  0.000000  1
  Th  Th2  1  0.499381  0.500000  0.500000  1
  Th  Th3  1  0.750000  0.000000  0.500000  1
  Th  Th4  1  0.000181  0.500000  0.250188  1
  Th  Th5  1  0.000181  0.500000  0.749812  1
  Th  Th6  1  0.499819  0.750188  0.000000  1
  Th  Th7  1  0.499819  0.249812  0.000000  1
  H  H8  1  0.996682  0.154953  0.302820  1
  H  H9  1  0.503318  0.197180  0.654953  1
  H  H10  1  0.503318  0.802820  0.345047  1
  H  H11  1  0.805558  0.653829  0.500000  1
  H  H12  1  0.193698  0.653627  0.500000  1
  H  H13  1  0.346120  0.500000  0.804731  1
  H  H14  1  0.654277  0.500000  0.804747  1
  H  H15  1  0.306302  0.000000  0.153627  1
  H  H16  1  0.153880  0.304731  0.000000  1
  H  H17  1  0.845723  0.695253  0.000000  1
  H  H18  1  0.306302  0.000000  0.846373  1
  H  H19  1  0.845723  0.304747  0.000000  1
  H  H20  1  0.694442  0.000000  0.153829  1
  H  H21  1  0.694442  0.000000  0.846171  1
  H  H22  1  0.153880  0.695269  0.000000  1
  H  H23  1  0.996682  0.845047  0.697180  1
  H  H24  1  0.996682  0.154953  0.697180  1
  H  H25  1  0.996682  0.845047  0.302820  1
  H  H26  1  0.654277  0.500000  0.195253  1
  H  H27  1  0.346120  0.500000  0.195269  1
  H  H28  1  0.805558  0.346171  0.500000  1
  H  H29  1  0.193698  0.346373  0.500000  1
  H  H30  1  0.503318  0.802820  0.654953  1
  H  H31  1  0.503318  0.197180  0.345047  1
