# generated using pymatgen
data_NaYb4Co4Cl
_symmetry_space_group_name_H-M   'P 1'
_cell_length_a   3.85444600
_cell_length_b   3.85444537
_cell_length_c   17.83797300
_cell_angle_alpha   90.00000000
_cell_angle_beta   90.00000000
_cell_angle_gamma   119.99998827
_symmetry_Int_Tables_number   1
_chemical_formula_structural   NaYb4Co4Cl
_chemical_formula_sum   'Na1 Yb4 Co4 Cl1'
_cell_volume   229.50917154
_cell_formula_units_Z   1
loop_
 _symmetry_equiv_pos_site_id
 _symmetry_equiv_pos_as_xyz
  1  'x, y, z'
loop_
 _atom_site_type_symbol
 _atom_site_label
 _atom_site_symmetry_multiplicity
 _atom_site_fract_x
 _atom_site_fract_y
 _atom_site_fract_z
 _atom_site_occupancy
  Na  Na0  1  0.333333  0.666667  0.250000  1
  Yb  Yb1  1  0.000000  0.000000  0.076113  1
  Yb  Yb2  1  0.000000  0.000000  0.864955  1
  Yb  Yb3  1  0.000000  0.000000  0.635045  1
  Yb  Yb4  1  0.000000  0.000000  0.423887  1
  Co  Co5  1  0.333333  0.666667  0.529755  1
  Co  Co6  1  0.666667  0.333333  0.527348  1
  Co  Co7  1  0.666667  0.333333  0.972652  1
  Co  Co8  1  0.333333  0.666667  0.970245  1
  Cl  Cl9  1  0.666667  0.333333  0.750000  1
