# generated using pymatgen
data_Ta6Tl(CS2)3
_symmetry_space_group_name_H-M   'P 1'
_cell_length_a   5.73839027
_cell_length_b   5.73838879
_cell_length_c   10.20670200
_cell_angle_alpha   84.50344249
_cell_angle_beta   84.50345394
_cell_angle_gamma   119.80538693
_symmetry_Int_Tables_number   1
_chemical_formula_structural   Ta6Tl(CS2)3
_chemical_formula_sum   'Ta6 Tl1 C3 S6'
_cell_volume   286.26860828
_cell_formula_units_Z   1
loop_
 _symmetry_equiv_pos_site_id
 _symmetry_equiv_pos_as_xyz
  1  'x, y, z'
loop_
 _atom_site_type_symbol
 _atom_site_label
 _atom_site_symmetry_multiplicity
 _atom_site_fract_x
 _atom_site_fract_y
 _atom_site_fract_z
 _atom_site_occupancy
  Ta  Ta0  1  0.128532  0.128532  0.615443  1
  Ta  Ta1  1  0.462828  0.796837  0.614789  1
  Ta  Ta2  1  0.796837  0.462828  0.614789  1
  Ta  Ta3  1  0.203163  0.537172  0.385211  1
  Ta  Ta4  1  0.537172  0.203163  0.385211  1
  Ta  Ta5  1  0.871468  0.871468  0.384557  1
  Tl  Tl6  1  0.000000  0.000000  0.000000  1
  C  C7  1  0.166437  0.833563  0.500000  1
  C  C8  1  0.500000  0.500000  0.500000  1
  C  C9  1  0.833563  0.166437  0.500000  1
  S  S10  1  0.264210  0.264210  0.223969  1
  S  S11  1  0.588114  0.925919  0.224076  1
  S  S12  1  0.925919  0.588114  0.224076  1
  S  S13  1  0.074081  0.411886  0.775924  1
  S  S14  1  0.411886  0.074081  0.775924  1
  S  S15  1  0.735790  0.735790  0.776031  1
