# generated using pymatgen
data_La2DyIn3HgIr2
_symmetry_space_group_name_H-M   'P 1'
_cell_length_a   7.89449660
_cell_length_b   7.85583276
_cell_length_c   4.06439800
_cell_angle_alpha   90.00000000
_cell_angle_beta   90.00000000
_cell_angle_gamma   119.98457044
_symmetry_Int_Tables_number   1
_chemical_formula_structural   La2DyIn3HgIr2
_chemical_formula_sum   'La2 Dy1 In3 Hg1 Ir2'
_cell_volume   218.32880347
_cell_formula_units_Z   1
loop_
 _symmetry_equiv_pos_site_id
 _symmetry_equiv_pos_as_xyz
  1  'x, y, z'
loop_
 _atom_site_type_symbol
 _atom_site_label
 _atom_site_symmetry_multiplicity
 _atom_site_fract_x
 _atom_site_fract_y
 _atom_site_fract_z
 _atom_site_occupancy
  La  La0  1  0.578464  0.607634  0.000000  1
  La  La1  1  0.389804  0.973254  0.000000  1
  Dy  Dy2  1  0.031759  0.414080  0.000000  1
  In  In3  1  0.999842  0.749880  0.500000  1
  In  In4  1  0.244665  0.249926  0.500000  1
  In  In5  1  0.756024  0.004146  0.500000  1
  Hg  Hg6  1  0.675435  0.335497  0.500000  1
  Ir  Ir7  1  0.000696  0.005638  0.000000  1
  Ir  Ir8  1  0.323313  0.659946  0.500000  1
