# generated using pymatgen
data_Y4Ni2B16IrPt
_symmetry_space_group_name_H-M   'P 1'
_cell_length_a   6.91781493
_cell_length_b   6.91768925
_cell_length_c   6.91781740
_cell_angle_alpha   111.38837621
_cell_angle_beta   113.32430763
_cell_angle_gamma   103.85051705
_symmetry_Int_Tables_number   1
_chemical_formula_structural   Y4Ni2B16IrPt
_chemical_formula_sum   'Y4 Ni2 B16 Ir1 Pt1'
_cell_volume   252.94760437
_cell_formula_units_Z   1
loop_
 _symmetry_equiv_pos_site_id
 _symmetry_equiv_pos_as_xyz
  1  'x, y, z'
loop_
 _atom_site_type_symbol
 _atom_site_label
 _atom_site_symmetry_multiplicity
 _atom_site_fract_x
 _atom_site_fract_y
 _atom_site_fract_z
 _atom_site_occupancy
  Y  Y0  1  0.796814  0.793326  0.003493  1
  Y  Y1  1  0.210167  0.206674  0.003488  1
  Y  Y2  1  0.747372  0.249843  0.497523  1
  Y  Y3  1  0.247680  0.750157  0.497529  1
  Ni  Ni4  1  0.500348  0.744702  0.245057  1
  Ni  Ni5  1  0.500355  0.255298  0.755646  1
  B  B6  1  0.272895  0.107926  0.380820  1
  B  B7  1  0.727169  0.891515  0.618684  1
  B  B8  1  0.272894  0.892074  0.164968  1
  B  B9  1  0.727169  0.108485  0.835655  1
  B  B10  1  0.110352  0.733767  0.844118  1
  B  B11  1  0.889155  0.268989  0.158145  1
  B  B12  1  0.110351  0.266233  0.376585  1
  B  B13  1  0.889156  0.731011  0.620166  1
  B  B14  1  0.113564  0.106432  0.525427  1
  B  B15  1  0.580351  0.585478  0.471172  1
  B  B16  1  0.113565  0.588141  0.007134  1
  B  B17  1  0.580349  0.109180  0.994874  1
  B  B18  1  0.885694  0.890820  0.471169  1
  B  B19  1  0.418993  0.411859  0.525424  1
  B  B20  1  0.885694  0.414522  0.994873  1
  B  B21  1  0.418995  0.893568  0.007132  1
  Ir  Ir22  1  0.724819  0.500000  0.224819  1
  Pt  Pt23  1  0.276101  0.500000  0.776101  1
