# generated using pymatgen
data_DyY3(B2Ir5)2
_symmetry_space_group_name_H-M   'P 1'
_cell_length_a   11.02551602
_cell_length_b   11.02551538
_cell_length_c   11.02551623
_cell_angle_alpha   28.76666956
_cell_angle_beta   28.76667866
_cell_angle_gamma   28.76668026
_symmetry_Int_Tables_number   1
_chemical_formula_structural   DyY3(B2Ir5)2
_chemical_formula_sum   'Dy1 Y3 B4 Ir10'
_cell_volume   274.45770076
_cell_formula_units_Z   1
loop_
 _symmetry_equiv_pos_site_id
 _symmetry_equiv_pos_as_xyz
  1  'x, y, z'
loop_
 _atom_site_type_symbol
 _atom_site_label
 _atom_site_symmetry_multiplicity
 _atom_site_fract_x
 _atom_site_fract_y
 _atom_site_fract_z
 _atom_site_occupancy
  Dy  Dy0  1  0.049759  0.049759  0.049759  1
  Y  Y1  1  0.151912  0.151912  0.151912  1
  Y  Y2  1  0.950315  0.950315  0.950315  1
  Y  Y3  1  0.848031  0.848031  0.848031  1
  B  B4  1  0.617487  0.617487  0.617487  1
  B  B5  1  0.716090  0.716090  0.716090  1
  B  B6  1  0.382529  0.382529  0.382529  1
  B  B7  1  0.283925  0.283925  0.283925  1
  Ir  Ir8  1  0.405860  0.899539  0.405860  1
  Ir  Ir9  1  0.899539  0.405860  0.405860  1
  Ir  Ir10  1  0.500014  0.500014  0.000009  1
  Ir  Ir11  1  0.500014  0.000009  0.500014  1
  Ir  Ir12  1  0.000009  0.500014  0.500014  1
  Ir  Ir13  1  0.500004  0.500004  0.500004  1
  Ir  Ir14  1  0.594126  0.100399  0.594126  1
  Ir  Ir15  1  0.594126  0.594126  0.100399  1
  Ir  Ir16  1  0.100399  0.594126  0.594126  1
  Ir  Ir17  1  0.405860  0.405860  0.899539  1
