# generated using pymatgen
data_K3(GaAu)4
_symmetry_space_group_name_H-M   'P 1'
_cell_length_a   6.99332636
_cell_length_b   6.99332677
_cell_length_c   12.50138700
_cell_angle_alpha   90.00000000
_cell_angle_beta   90.00000000
_cell_angle_gamma   105.91950348
_symmetry_Int_Tables_number   1
_chemical_formula_structural   K3(GaAu)4
_chemical_formula_sum   'K6 Ga8 Au8'
_cell_volume   587.95210478
_cell_formula_units_Z   2
loop_
 _symmetry_equiv_pos_site_id
 _symmetry_equiv_pos_as_xyz
  1  'x, y, z'
loop_
 _atom_site_type_symbol
 _atom_site_label
 _atom_site_symmetry_multiplicity
 _atom_site_fract_x
 _atom_site_fract_y
 _atom_site_fract_z
 _atom_site_occupancy
  K  K0  1  0.212528  0.787472  0.500000  1
  K  K1  1  0.212528  0.787472  0.000000  1
  K  K2  1  0.787472  0.212528  0.500000  1
  K  K3  1  0.787472  0.212528  0.000000  1
  K  K4  1  0.975872  0.975872  0.250000  1
  K  K5  1  0.024128  0.024128  0.750000  1
  Ga  Ga6  1  0.483859  0.740791  0.250000  1
  Ga  Ga7  1  0.259209  0.516141  0.750000  1
  Ga  Ga8  1  0.516141  0.259209  0.750000  1
  Ga  Ga9  1  0.740791  0.483859  0.250000  1
  Ga  Ga10  1  0.349443  0.349443  0.367560  1
  Ga  Ga11  1  0.650557  0.650557  0.632440  1
  Ga  Ga12  1  0.349443  0.349443  0.132440  1
  Ga  Ga13  1  0.650557  0.650557  0.867560  1
  Au  Au14  1  0.497026  0.108163  0.250000  1
  Au  Au15  1  0.891837  0.502974  0.750000  1
  Au  Au16  1  0.502974  0.891837  0.750000  1
  Au  Au17  1  0.108163  0.497026  0.250000  1
  Au  Au18  1  0.341520  0.341520  0.928238  1
  Au  Au19  1  0.658480  0.658480  0.071762  1
  Au  Au20  1  0.341520  0.341520  0.571762  1
  Au  Au21  1  0.658480  0.658480  0.428238  1
