# generated using pymatgen
data_Sr2Ga(PRh2)3
_symmetry_space_group_name_H-M   'P 1'
_cell_length_a   6.69504308
_cell_length_b   6.71761302
_cell_length_c   6.69504347
_cell_angle_alpha   129.70724802
_cell_angle_beta   115.56256062
_cell_angle_gamma   85.85552717
_symmetry_Int_Tables_number   1
_chemical_formula_structural   Sr2Ga(PRh2)3
_chemical_formula_sum   'Sr2 Ga1 P3 Rh6'
_cell_volume   199.79687632
_cell_formula_units_Z   1
loop_
 _symmetry_equiv_pos_site_id
 _symmetry_equiv_pos_as_xyz
  1  'x, y, z'
loop_
 _atom_site_type_symbol
 _atom_site_label
 _atom_site_symmetry_multiplicity
 _atom_site_fract_x
 _atom_site_fract_y
 _atom_site_fract_z
 _atom_site_occupancy
  Sr  Sr0  1  0.250672  0.518391  0.267720  1
  Sr  Sr1  1  0.751966  0.493329  0.741362  1
  Ga  Ga2  1  0.089590  0.870662  0.781072  1
  P  P3  1  0.939953  0.147768  0.207815  1
  P  P4  1  0.574714  0.793133  0.218417  1
  P  P5  1  0.390300  0.164894  0.774593  1
  Rh  Rh6  1  0.708235  0.005430  0.717056  1
  Rh  Rh7  1  0.241932  0.497502  0.741735  1
  Rh  Rh8  1  0.288373  0.005430  0.297194  1
  Rh  Rh9  1  0.755766  0.497502  0.255570  1
  Rh  Rh10  1  0.968131  0.002981  0.462616  1
  Rh  Rh11  1  0.540365  0.002981  0.034850  1
