# generated using pymatgen
data_Sm5V3(Ni4P3)4
_symmetry_space_group_name_H-M   'P 1'
_cell_length_a   12.21441600
_cell_length_b   12.21441639
_cell_length_c   3.76714900
_cell_angle_alpha   90.00000000
_cell_angle_beta   90.00000000
_cell_angle_gamma   119.99999894
_symmetry_Int_Tables_number   1
_chemical_formula_structural   Sm5V3(Ni4P3)4
_chemical_formula_sum   'Sm5 V3 Ni16 P12'
_cell_volume   486.73083759
_cell_formula_units_Z   1
loop_
 _symmetry_equiv_pos_site_id
 _symmetry_equiv_pos_as_xyz
  1  'x, y, z'
loop_
 _atom_site_type_symbol
 _atom_site_label
 _atom_site_symmetry_multiplicity
 _atom_site_fract_x
 _atom_site_fract_y
 _atom_site_fract_z
 _atom_site_occupancy
  Sm  Sm0  1  0.811163  0.000000  0.500000  1
  Sm  Sm1  1  0.000000  0.811163  0.500000  1
  Sm  Sm2  1  0.188837  0.188837  0.500000  1
  Sm  Sm3  1  0.333333  0.666667  0.000000  1
  Sm  Sm4  1  0.666667  0.333333  0.000000  1
  V  V5  1  0.438654  0.000000  0.000000  1
  V  V6  1  0.000000  0.438654  0.000000  1
  V  V7  1  0.561346  0.561346  0.000000  1
  Ni  Ni8  1  0.280494  0.000000  0.500000  1
  Ni  Ni9  1  0.000000  0.280494  0.500000  1
  Ni  Ni10  1  0.719506  0.719506  0.500000  1
  Ni  Ni11  1  0.620185  0.803827  0.000000  1
  Ni  Ni12  1  0.196173  0.816358  0.000000  1
  Ni  Ni13  1  0.183642  0.379815  0.000000  1
  Ni  Ni14  1  0.379815  0.183642  0.000000  1
  Ni  Ni15  1  0.803827  0.620185  0.000000  1
  Ni  Ni16  1  0.816358  0.196173  0.000000  1
  Ni  Ni17  1  0.515673  0.876938  0.500000  1
  Ni  Ni18  1  0.123062  0.638734  0.500000  1
  Ni  Ni19  1  0.361266  0.484327  0.500000  1
  Ni  Ni20  1  0.484327  0.361266  0.500000  1
  Ni  Ni21  1  0.876938  0.515673  0.500000  1
  Ni  Ni22  1  0.638734  0.123062  0.500000  1
  Ni  Ni23  1  0.000000  0.000000  0.000000  1
  P  P24  1  0.180259  0.000000  0.000000  1
  P  P25  1  0.000000  0.180259  0.000000  1
  P  P26  1  0.819741  0.819741  0.000000  1
  P  P27  1  0.523686  0.686179  0.500000  1
  P  P28  1  0.313821  0.837507  0.500000  1
  P  P29  1  0.162493  0.476314  0.500000  1
  P  P30  1  0.476314  0.162493  0.500000  1
  P  P31  1  0.686179  0.523686  0.500000  1
  P  P32  1  0.837507  0.313821  0.500000  1
  P  P33  1  0.629684  0.000000  0.000000  1
  P  P34  1  0.000000  0.629684  0.000000  1
  P  P35  1  0.370316  0.370316  0.000000  1
