# generated using pymatgen
data_La6HoLu3(In3Br)2
_symmetry_space_group_name_H-M   'P 1'
_cell_length_a   9.57947100
_cell_length_b   9.57947104
_cell_length_c   6.76974500
_cell_angle_alpha   90.00000000
_cell_angle_beta   90.00000000
_cell_angle_gamma   120.00000331
_symmetry_Int_Tables_number   1
_chemical_formula_structural   La6HoLu3(In3Br)2
_chemical_formula_sum   'La6 Ho1 Lu3 In6 Br2'
_cell_volume   538.00459299
_cell_formula_units_Z   1
loop_
 _symmetry_equiv_pos_site_id
 _symmetry_equiv_pos_as_xyz
  1  'x, y, z'
loop_
 _atom_site_type_symbol
 _atom_site_label
 _atom_site_symmetry_multiplicity
 _atom_site_fract_x
 _atom_site_fract_y
 _atom_site_fract_z
 _atom_site_occupancy
  La  La0  1  0.730275  0.730695  0.250365  1
  La  La1  1  0.000419  0.730695  0.749635  1
  La  La2  1  0.730275  0.999581  0.749635  1
  La  La3  1  0.269305  0.269725  0.749635  1
  La  La4  1  0.000419  0.269725  0.250365  1
  La  La5  1  0.269305  0.999581  0.250365  1
  Ho  Ho6  1  0.666667  0.333333  0.000000  1
  Lu  Lu7  1  0.333333  0.666667  0.500000  1
  Lu  Lu8  1  0.666667  0.333333  0.500000  1
  Lu  Lu9  1  0.333333  0.666667  0.000000  1
  In  In10  1  0.393673  0.999594  0.749832  1
  In  In11  1  0.000406  0.606327  0.250168  1
  In  In12  1  0.605921  0.999594  0.250168  1
  In  In13  1  0.000406  0.394079  0.749832  1
  In  In14  1  0.393673  0.394079  0.250168  1
  In  In15  1  0.605921  0.606327  0.749832  1
  Br  Br16  1  0.000000  0.000000  0.500000  1
  Br  Br17  1  0.000000  0.000000  0.000000  1
