# generated using pymatgen
data_ReOsRu6
_symmetry_space_group_name_H-M   'P 1'
_cell_length_a   5.47791500
_cell_length_b   5.47791427
_cell_length_c   4.33293400
_cell_angle_alpha   90.00000000
_cell_angle_beta   90.00000000
_cell_angle_gamma   119.99999835
_symmetry_Int_Tables_number   1
_chemical_formula_structural   ReOsRu6
_chemical_formula_sum   'Re1 Os1 Ru6'
_cell_volume   112.60125562
_cell_formula_units_Z   1
loop_
 _symmetry_equiv_pos_site_id
 _symmetry_equiv_pos_as_xyz
  1  'x, y, z'
loop_
 _atom_site_type_symbol
 _atom_site_label
 _atom_site_symmetry_multiplicity
 _atom_site_fract_x
 _atom_site_fract_y
 _atom_site_fract_z
 _atom_site_occupancy
  Re  Re0  1  0.666667  0.333333  0.250000  1
  Os  Os1  1  0.333333  0.666667  0.750000  1
  Ru  Ru2  1  0.834470  0.165530  0.750000  1
  Ru  Ru3  1  0.331059  0.165530  0.750000  1
  Ru  Ru4  1  0.834470  0.668941  0.750000  1
  Ru  Ru5  1  0.169474  0.830526  0.250000  1
  Ru  Ru6  1  0.661051  0.830526  0.250000  1
  Ru  Ru7  1  0.169474  0.338949  0.250000  1
