# generated using pymatgen
data_Tb20Ir3Rh7Au2
_symmetry_space_group_name_H-M   'P 1'
_cell_length_a   11.12744987
_cell_length_b   11.07678323
_cell_length_c   6.36638111
_cell_angle_alpha   89.98168188
_cell_angle_beta   89.98170243
_cell_angle_gamma   90.00626916
_symmetry_Int_Tables_number   1
_chemical_formula_structural   Tb20Ir3Rh7Au2
_chemical_formula_sum   'Tb20 Ir3 Rh7 Au2'
_cell_volume   784.69681450
_cell_formula_units_Z   1
loop_
 _symmetry_equiv_pos_site_id
 _symmetry_equiv_pos_as_xyz
  1  'x, y, z'
loop_
 _atom_site_type_symbol
 _atom_site_label
 _atom_site_symmetry_multiplicity
 _atom_site_fract_x
 _atom_site_fract_y
 _atom_site_fract_z
 _atom_site_occupancy
  Tb  Tb0  1  0.291681  0.091095  0.376355  1
  Tb  Tb1  1  0.291640  0.907897  0.876117  1
  Tb  Tb2  1  0.699554  0.092296  0.867038  1
  Tb  Tb3  1  0.699628  0.908502  0.367235  1
  Tb  Tb4  1  0.579505  0.789498  0.880155  1
  Tb  Tb5  1  0.579010  0.210898  0.380471  1
  Tb  Tb6  1  0.407435  0.790130  0.381276  1
  Tb  Tb7  1  0.406637  0.209529  0.880599  1
  Tb  Tb8  1  0.210266  0.411717  0.615795  1
  Tb  Tb9  1  0.210696  0.588475  0.119143  1
  Tb  Tb10  1  0.790872  0.415991  0.122897  1
  Tb  Tb11  1  0.791289  0.583663  0.619718  1
  Tb  Tb12  1  0.915644  0.705663  0.137035  1
  Tb  Tb13  1  0.915783  0.295003  0.634050  1
  Tb  Tb14  1  0.097065  0.702397  0.619360  1
  Tb  Tb15  1  0.096773  0.297360  0.122712  1
  Tb  Tb16  1  0.008972  0.997520  0.499693  1
  Tb  Tb17  1  0.008758  0.002656  0.999637  1
  Tb  Tb18  1  0.499233  0.498310  0.000318  1
  Tb  Tb19  1  0.499359  0.501528  0.500541  1
  Ir  Ir20  1  0.347971  0.344165  0.251132  1
  Ir  Ir21  1  0.346826  0.654509  0.750772  1
  Ir  Ir22  1  0.998881  0.499084  0.377670  1
  Rh  Rh23  1  0.154036  0.153758  0.749983  1
  Rh  Rh24  1  0.155240  0.847314  0.250499  1
  Rh  Rh25  1  0.656481  0.346285  0.747661  1
  Rh  Rh26  1  0.655343  0.654650  0.247897  1
  Rh  Rh27  1  0.499991  0.999003  0.122127  1
  Rh  Rh28  1  0.500043  0.001009  0.622482  1
  Rh  Rh29  1  0.998381  0.500971  0.878943  1
  Au  Au30  1  0.843188  0.153747  0.250363  1
  Au  Au31  1  0.843819  0.845379  0.750327  1
