# generated using pymatgen
data_Er5TmZn23P
_symmetry_space_group_name_H-M   'P 1'
_cell_length_a   9.00918613
_cell_length_b   9.00978664
_cell_length_c   9.00972002
_cell_angle_alpha   59.99591595
_cell_angle_beta   60.00207252
_cell_angle_gamma   60.00220917
_symmetry_Int_Tables_number   1
_chemical_formula_structural   Er5TmZn23P
_chemical_formula_sum   'Er5 Tm1 Zn23 P1'
_cell_volume   517.12675616
_cell_formula_units_Z   1
loop_
 _symmetry_equiv_pos_site_id
 _symmetry_equiv_pos_as_xyz
  1  'x, y, z'
loop_
 _atom_site_type_symbol
 _atom_site_label
 _atom_site_symmetry_multiplicity
 _atom_site_fract_x
 _atom_site_fract_y
 _atom_site_fract_z
 _atom_site_occupancy
  Er  Er0  1  0.711554  0.288444  0.711469  1
  Er  Er1  1  0.711556  0.711473  0.288445  1
  Er  Er2  1  0.288514  0.711492  0.711481  1
  Er  Er3  1  0.288526  0.711481  0.288436  1
  Er  Er4  1  0.288530  0.288431  0.711475  1
  Tm  Tm5  1  0.711268  0.288733  0.288736  1
  Zn  Zn6  1  0.624069  0.125432  0.125434  1
  Zn  Zn7  1  0.125331  0.623982  0.125352  1
  Zn  Zn8  1  0.125328  0.125357  0.623979  1
  Zn  Zn9  1  0.125062  0.125433  0.125432  1
  Zn  Zn10  1  0.376022  0.874665  0.874664  1
  Zn  Zn11  1  0.874573  0.375926  0.874935  1
  Zn  Zn12  1  0.874572  0.874930  0.375929  1
  Zn  Zn13  1  0.874649  0.874660  0.874667  1
  Zn  Zn14  1  0.500039  0.999965  0.999961  1
  Zn  Zn15  1  0.500089  0.000066  0.499912  1
  Zn  Zn16  1  0.500086  0.499912  0.000067  1
  Zn  Zn17  1  0.000038  0.499965  0.499965  1
  Zn  Zn18  1  0.999931  0.499911  0.000071  1
  Zn  Zn19  1  0.999932  0.000070  0.499911  1
  Zn  Zn20  1  0.999992  0.000011  0.000012  1
  Zn  Zn21  1  0.009484  0.330113  0.330117  1
  Zn  Zn22  1  0.330122  0.009660  0.330101  1
  Zn  Zn23  1  0.330123  0.330100  0.009660  1
  Zn  Zn24  1  0.330285  0.330113  0.330114  1
  Zn  Zn25  1  0.990342  0.669879  0.669875  1
  Zn  Zn26  1  0.669885  0.990512  0.669722  1
  Zn  Zn27  1  0.669885  0.669719  0.990513  1
  Zn  Zn28  1  0.669897  0.669883  0.669885  1
  P  P29  1  0.500316  0.499683  0.499682  1
