# generated using pymatgen
data_Sr6NbCo4O15
_symmetry_space_group_name_H-M   'P 1'
_cell_length_a   6.96168739
_cell_length_b   6.96168686
_cell_length_c   6.96168631
_cell_angle_alpha   87.84327112
_cell_angle_beta   87.84326994
_cell_angle_gamma   87.84326057
_symmetry_Int_Tables_number   1
_chemical_formula_structural   Sr6NbCo4O15
_chemical_formula_sum   'Sr6 Nb1 Co4 O15'
_cell_volume   336.69922968
_cell_formula_units_Z   1
loop_
 _symmetry_equiv_pos_site_id
 _symmetry_equiv_pos_as_xyz
  1  'x, y, z'
loop_
 _atom_site_type_symbol
 _atom_site_label
 _atom_site_symmetry_multiplicity
 _atom_site_fract_x
 _atom_site_fract_y
 _atom_site_fract_z
 _atom_site_occupancy
  Sr  Sr0  1  0.500000  0.865616  0.134384  1
  Sr  Sr1  1  0.134384  0.500000  0.865616  1
  Sr  Sr2  1  0.865616  0.134384  0.500000  1
  Sr  Sr3  1  0.000000  0.676642  0.323358  1
  Sr  Sr4  1  0.323358  0.000000  0.676642  1
  Sr  Sr5  1  0.676642  0.323358  0.000000  1
  Nb  Nb6  1  0.500000  0.500000  0.500000  1
  Co  Co7  1  0.709250  0.709250  0.709250  1
  Co  Co8  1  0.290750  0.290750  0.290750  1
  Co  Co9  1  0.906601  0.906601  0.906601  1
  Co  Co10  1  0.093399  0.093399  0.093399  1
  O  O11  1  0.378458  0.551636  0.241942  1
  O  O12  1  0.241942  0.378458  0.551636  1
  O  O13  1  0.551636  0.241942  0.378458  1
  O  O14  1  0.621542  0.758058  0.448364  1
  O  O15  1  0.448364  0.621542  0.758058  1
  O  O16  1  0.758058  0.448364  0.621542  1
  O  O17  1  0.199999  0.031834  0.341253  1
  O  O18  1  0.341253  0.199999  0.031834  1
  O  O19  1  0.031834  0.341253  0.199999  1
  O  O20  1  0.800001  0.658747  0.968166  1
  O  O21  1  0.968166  0.800001  0.658747  1
  O  O22  1  0.155103  0.844897  0.000000  1
  O  O23  1  0.844897  0.000000  0.155103  1
  O  O24  1  0.000000  0.155103  0.844897  1
  O  O25  1  0.658747  0.968166  0.800001  1
