# generated using pymatgen
data_Y3Er7Sn5Sb
_symmetry_space_group_name_H-M   'P 1'
_cell_length_a   8.91738000
_cell_length_b   8.92284551
_cell_length_c   6.47392800
_cell_angle_alpha   90.00000000
_cell_angle_beta   90.00000000
_cell_angle_gamma   119.97973974
_symmetry_Int_Tables_number   1
_chemical_formula_structural   Y3Er7Sn5Sb
_chemical_formula_sum   'Y3 Er7 Sn5 Sb1'
_cell_volume   446.19815677
_cell_formula_units_Z   1
loop_
 _symmetry_equiv_pos_site_id
 _symmetry_equiv_pos_as_xyz
  1  'x, y, z'
loop_
 _atom_site_type_symbol
 _atom_site_label
 _atom_site_symmetry_multiplicity
 _atom_site_fract_x
 _atom_site_fract_y
 _atom_site_fract_z
 _atom_site_occupancy
  Y  Y0  1  0.997496  0.759860  0.750000  1
  Y  Y1  1  0.761581  0.000000  0.750000  1
  Y  Y2  1  0.237636  0.240140  0.750000  1
  Er  Er3  1  0.001010  0.238803  0.250000  1
  Er  Er4  1  0.762207  0.761197  0.250000  1
  Er  Er5  1  0.238890  0.000000  0.250000  1
  Er  Er6  1  0.333342  0.665830  0.499696  1
  Er  Er7  1  0.667513  0.334170  0.000304  1
  Er  Er8  1  0.667513  0.334170  0.499696  1
  Er  Er9  1  0.333342  0.665830  0.000304  1
  Sn  Sn10  1  0.395628  0.394490  0.250000  1
  Sn  Sn11  1  0.001137  0.605510  0.250000  1
  Sn  Sn12  1  0.999641  0.395832  0.750000  1
  Sn  Sn13  1  0.603809  0.604168  0.750000  1
  Sn  Sn14  1  0.605837  0.000000  0.250000  1
  Sb  Sb15  1  0.393417  0.000000  0.750000  1
