# generated using pymatgen
data_Tm3Sc(InRh2)4
_symmetry_space_group_name_H-M   'P 1'
_cell_length_a   6.31394002
_cell_length_b   6.31312500
_cell_length_c   7.09911302
_cell_angle_alpha   89.99994845
_cell_angle_beta   89.99200518
_cell_angle_gamma   89.99667852
_symmetry_Int_Tables_number   1
_chemical_formula_structural   Tm3Sc(InRh2)4
_chemical_formula_sum   'Tm3 Sc1 In4 Rh8'
_cell_volume   282.97555844
_cell_formula_units_Z   1
loop_
 _symmetry_equiv_pos_site_id
 _symmetry_equiv_pos_as_xyz
  1  'x, y, z'
loop_
 _atom_site_type_symbol
 _atom_site_label
 _atom_site_symmetry_multiplicity
 _atom_site_fract_x
 _atom_site_fract_y
 _atom_site_fract_z
 _atom_site_occupancy
  Tm  Tm0  1  0.749923  0.249999  0.000021  1
  Tm  Tm1  1  0.250040  0.749998  0.999947  1
  Tm  Tm2  1  0.750135  0.249998  0.499894  1
  Sc  Sc3  1  0.249887  0.750001  0.500054  1
  In  In4  1  0.249999  0.249998  0.000062  1
  In  In5  1  0.749966  0.749999  0.999985  1
  In  In6  1  0.749950  0.749999  0.499965  1
  In  In7  1  0.250058  0.249998  0.500027  1
  Rh  Rh8  1  0.496653  0.996704  0.254194  1
  Rh  Rh9  1  0.496659  0.503295  0.254193  1
  Rh  Rh10  1  0.003475  0.996645  0.254242  1
  Rh  Rh11  1  0.003485  0.503356  0.254250  1
  Rh  Rh12  1  0.003305  0.996728  0.745935  1
  Rh  Rh13  1  0.003323  0.503288  0.745921  1
  Rh  Rh14  1  0.496565  0.996699  0.745654  1
  Rh  Rh15  1  0.496572  0.503290  0.745658  1
