# generated using pymatgen
data_BaMn6(CoO8)2
_symmetry_space_group_name_H-M   'P 1'
_cell_length_a   5.80613859
_cell_length_b   7.09311584
_cell_length_c   7.13232340
_cell_angle_alpha   87.85839021
_cell_angle_beta   78.21425255
_cell_angle_gamma   78.18726162
_symmetry_Int_Tables_number   1
_chemical_formula_structural   BaMn6(CoO8)2
_chemical_formula_sum   'Ba1 Mn6 Co2 O16'
_cell_volume   281.44977149
_cell_formula_units_Z   1
loop_
 _symmetry_equiv_pos_site_id
 _symmetry_equiv_pos_as_xyz
  1  'x, y, z'
loop_
 _atom_site_type_symbol
 _atom_site_label
 _atom_site_symmetry_multiplicity
 _atom_site_fract_x
 _atom_site_fract_y
 _atom_site_fract_z
 _atom_site_occupancy
  Ba  Ba0  1  0.008763  0.990187  0.001122  1
  Mn  Mn1  1  0.173378  0.815352  0.510332  1
  Mn  Mn2  1  0.670493  0.815731  0.516592  1
  Mn  Mn3  1  0.338596  0.189117  0.474961  1
  Mn  Mn4  1  0.835995  0.189324  0.481677  1
  Mn  Mn5  1  0.426840  0.483739  0.825786  1
  Mn  Mn6  1  0.925426  0.489409  0.825091  1
  Co  Co7  1  0.580476  0.514841  0.182344  1
  Co  Co8  1  0.080288  0.511136  0.182127  1
  O  O9  1  0.832319  0.643683  0.051444  1
  O  O10  1  0.329157  0.641840  0.050908  1
  O  O11  1  0.982170  0.708568  0.373584  1
  O  O12  1  0.484995  0.704585  0.378967  1
  O  O13  1  0.857739  0.953671  0.643316  1
  O  O14  1  0.352225  0.955029  0.640861  1
  O  O15  1  0.338905  0.375994  0.288048  1
  O  O16  1  0.840240  0.368913  0.283331  1
  O  O17  1  0.167039  0.634030  0.719648  1
  O  O18  1  0.667527  0.626904  0.714921  1
  O  O19  1  0.152354  0.047265  0.350908  1
  O  O20  1  0.656915  0.046276  0.353510  1
  O  O21  1  0.026616  0.293291  0.623317  1
  O  O22  1  0.523563  0.295472  0.619794  1
  O  O23  1  0.175189  0.352239  0.953384  1
  O  O24  1  0.679893  0.353406  0.954021  1
