# generated using pymatgen
data_Cs2Cu(BrF)2
_symmetry_space_group_name_H-M   'P 1'
_cell_length_a   8.98736814
_cell_length_b   8.98736749
_cell_length_c   7.22364900
_cell_angle_alpha   89.99998785
_cell_angle_beta   89.99999353
_cell_angle_gamma   132.62242768
_symmetry_Int_Tables_number   1
_chemical_formula_structural   Cs2Cu(BrF)2
_chemical_formula_sum   'Cs4 Cu2 Br4 F4'
_cell_volume   429.33904181
_cell_formula_units_Z   2
loop_
 _symmetry_equiv_pos_site_id
 _symmetry_equiv_pos_as_xyz
  1  'x, y, z'
loop_
 _atom_site_type_symbol
 _atom_site_label
 _atom_site_symmetry_multiplicity
 _atom_site_fract_x
 _atom_site_fract_y
 _atom_site_fract_z
 _atom_site_occupancy
  Cs  Cs0  1  0.119321  0.880679  0.500000  1
  Cs  Cs1  1  0.619321  0.380679  0.000000  1
  Cs  Cs2  1  0.880679  0.119321  0.500000  1
  Cs  Cs3  1  0.380679  0.619321  0.000000  1
  Cu  Cu4  1  0.000000  0.000000  0.000000  1
  Cu  Cu5  1  0.500000  0.500000  0.500000  1
  Br  Br6  1  0.151753  0.848247  0.000000  1
  Br  Br7  1  0.848247  0.151753  0.000000  1
  Br  Br8  1  0.651753  0.348247  0.500000  1
  Br  Br9  1  0.348247  0.651753  0.500000  1
  F  F10  1  0.184827  0.184827  0.184937  1
  F  F11  1  0.815173  0.815173  0.815063  1
  F  F12  1  0.684827  0.684827  0.315064  1
  F  F13  1  0.315173  0.315173  0.684936  1
