# generated using pymatgen
data_Hf4Nb4SiGe2P
_symmetry_space_group_name_H-M   'P 1'
_cell_length_a   3.61881300
_cell_length_b   7.00149301
_cell_length_c   8.50536926
_cell_angle_alpha   89.27016816
_cell_angle_beta   90.00000000
_cell_angle_gamma   90.00000000
_symmetry_Int_Tables_number   1
_chemical_formula_structural   Hf4Nb4SiGe2P
_chemical_formula_sum   'Hf4 Nb4 Si1 Ge2 P1'
_cell_volume   215.48385698
_cell_formula_units_Z   1
loop_
 _symmetry_equiv_pos_site_id
 _symmetry_equiv_pos_as_xyz
  1  'x, y, z'
loop_
 _atom_site_type_symbol
 _atom_site_label
 _atom_site_symmetry_multiplicity
 _atom_site_fract_x
 _atom_site_fract_y
 _atom_site_fract_z
 _atom_site_occupancy
  Hf  Hf0  1  0.250000  0.047035  0.670780  1
  Hf  Hf1  1  0.250000  0.535433  0.837900  1
  Hf  Hf2  1  0.750000  0.462259  0.163924  1
  Hf  Hf3  1  0.750000  0.952366  0.332417  1
  Nb  Nb4  1  0.750000  0.868213  0.941935  1
  Nb  Nb5  1  0.250000  0.631598  0.438901  1
  Nb  Nb6  1  0.750000  0.364748  0.563123  1
  Nb  Nb7  1  0.250000  0.137817  0.053386  1
  Si  Si8  1  0.250000  0.758245  0.141388  1
  Ge  Ge9  1  0.250000  0.251130  0.357188  1
  Ge  Ge10  1  0.750000  0.747307  0.642441  1
  P  P11  1  0.750000  0.243849  0.856617  1
