# generated using pymatgen
data_SrLa2Pr(Pt2O7)2
_symmetry_space_group_name_H-M   'P 1'
_cell_length_a   7.51263500
_cell_length_b   7.51482894
_cell_length_c   7.47047247
_cell_angle_alpha   59.80339395
_cell_angle_beta   59.85860769
_cell_angle_gamma   59.99034006
_symmetry_Int_Tables_number   1
_chemical_formula_structural   SrLa2Pr(Pt2O7)2
_chemical_formula_sum   'Sr1 La2 Pr1 Pt4 O14'
_cell_volume   297.43947040
_cell_formula_units_Z   1
loop_
 _symmetry_equiv_pos_site_id
 _symmetry_equiv_pos_as_xyz
  1  'x, y, z'
loop_
 _atom_site_type_symbol
 _atom_site_label
 _atom_site_symmetry_multiplicity
 _atom_site_fract_x
 _atom_site_fract_y
 _atom_site_fract_z
 _atom_site_occupancy
  Sr  Sr0  1  0.125000  0.125000  0.625000  1
  La  La1  1  0.125000  0.125000  0.125000  1
  La  La2  1  0.125000  0.625000  0.125000  1
  Pr  Pr3  1  0.625000  0.125000  0.125000  1
  Pt  Pt4  1  0.625000  0.625000  0.125000  1
  Pt  Pt5  1  0.625000  0.625000  0.625000  1
  Pt  Pt6  1  0.625000  0.125000  0.625000  1
  Pt  Pt7  1  0.125000  0.625000  0.625000  1
  O  O8  1  0.704653  0.293766  0.292113  1
  O  O9  1  0.704653  0.709469  0.292113  1
  O  O10  1  0.295349  0.705862  0.292927  1
  O  O11  1  0.996981  0.995751  0.011518  1
  O  O12  1  0.698312  0.295677  0.710334  1
  O  O13  1  0.952552  0.550735  0.543378  1
  O  O14  1  0.297448  0.699265  0.706622  1
  O  O15  1  0.551688  0.954323  0.539666  1
  O  O16  1  0.253019  0.254249  0.238482  1
  O  O17  1  0.954651  0.544138  0.957073  1
  O  O18  1  0.545347  0.540531  0.957887  1
  O  O19  1  0.952552  0.953334  0.543378  1
  O  O20  1  0.545347  0.956234  0.957887  1
  O  O21  1  0.297448  0.296666  0.706622  1
