# generated using pymatgen
data_Er19TmIr11Ru
_symmetry_space_group_name_H-M   'P 1'
_cell_length_a   10.77321000
_cell_length_b   10.77349900
_cell_length_c   6.35349900
_cell_angle_alpha   90.00000000
_cell_angle_beta   90.00000000
_cell_angle_gamma   90.00062756
_symmetry_Int_Tables_number   1
_chemical_formula_structural   Er19TmIr11Ru
_chemical_formula_sum   'Er19 Tm1 Ir11 Ru1'
_cell_volume   737.41992348
_cell_formula_units_Z   1
loop_
 _symmetry_equiv_pos_site_id
 _symmetry_equiv_pos_as_xyz
  1  'x, y, z'
loop_
 _atom_site_type_symbol
 _atom_site_label
 _atom_site_symmetry_multiplicity
 _atom_site_fract_x
 _atom_site_fract_y
 _atom_site_fract_z
 _atom_site_occupancy
  Er  Er0  1  0.292041  0.086739  0.376121  1
  Er  Er1  1  0.292514  0.913059  0.879070  1
  Er  Er2  1  0.707486  0.086941  0.879070  1
  Er  Er3  1  0.707959  0.913261  0.376121  1
  Er  Er4  1  0.586949  0.792648  0.879119  1
  Er  Er5  1  0.586850  0.207721  0.376050  1
  Er  Er6  1  0.413150  0.792279  0.376050  1
  Er  Er7  1  0.413051  0.207352  0.879119  1
  Er  Er8  1  0.209156  0.411950  0.622620  1
  Er  Er9  1  0.209135  0.587856  0.122223  1
  Er  Er10  1  0.790865  0.412144  0.122223  1
  Er  Er11  1  0.790844  0.588050  0.622620  1
  Er  Er12  1  0.912212  0.709263  0.122261  1
  Er  Er13  1  0.912045  0.290603  0.622619  1
  Er  Er14  1  0.087955  0.709397  0.622619  1
  Er  Er15  1  0.087788  0.290737  0.122261  1
  Er  Er16  1  0.000000  0.000000  0.999211  1
  Er  Er17  1  0.500000  0.500000  0.999194  1
  Er  Er18  1  0.500000  0.500000  0.499170  1
  Tm  Tm19  1  0.000000  0.000000  0.499230  1
  Ir  Ir20  1  0.847295  0.153490  0.250320  1
  Ir  Ir21  1  0.847272  0.846931  0.749290  1
  Ir  Ir22  1  0.152728  0.153069  0.749290  1
  Ir  Ir23  1  0.152705  0.846510  0.250320  1
  Ir  Ir24  1  0.653310  0.347027  0.749703  1
  Ir  Ir25  1  0.653754  0.652922  0.249920  1
  Ir  Ir26  1  0.346246  0.347078  0.249920  1
  Ir  Ir27  1  0.346690  0.652973  0.749703  1
  Ir  Ir28  1  0.500000  0.000000  0.623544  1
  Ir  Ir29  1  0.000000  0.500000  0.878200  1
  Ir  Ir30  1  0.000000  0.500000  0.378298  1
  Ru  Ru31  1  0.500000  0.000000  0.124522  1
