# generated using pymatgen
data_YBi5(MoO7)2
_symmetry_space_group_name_H-M   'P 1'
_cell_length_a   6.54382055
_cell_length_b   6.99329060
_cell_length_c   7.64241000
_cell_angle_alpha   106.03232124
_cell_angle_beta   89.53066255
_cell_angle_gamma   102.22881987
_symmetry_Int_Tables_number   1
_chemical_formula_structural   YBi5(MoO7)2
_chemical_formula_sum   'Y1 Bi5 Mo2 O14'
_cell_volume   328.03706031
_cell_formula_units_Z   1
loop_
 _symmetry_equiv_pos_site_id
 _symmetry_equiv_pos_as_xyz
  1  'x, y, z'
loop_
 _atom_site_type_symbol
 _atom_site_label
 _atom_site_symmetry_multiplicity
 _atom_site_fract_x
 _atom_site_fract_y
 _atom_site_fract_z
 _atom_site_occupancy
  Y  Y0  1  0.547745  0.006996  0.745960  1
  Bi  Bi1  1  0.484578  0.992821  0.255545  1
  Bi  Bi2  1  0.270072  0.503096  0.873859  1
  Bi  Bi3  1  0.743544  0.490722  0.124909  1
  Bi  Bi4  1  0.749039  0.541584  0.634210  1
  Bi  Bi5  1  0.251728  0.456641  0.367238  1
  Mo  Mo6  1  0.006487  0.999174  0.502070  1
  Mo  Mo7  1  0.004671  0.001248  0.998640  1
  O  O8  1  0.470314  0.634011  0.181468  1
  O  O9  1  0.535436  0.346766  0.816536  1
  O  O10  1  0.266244  0.955219  0.929290  1
  O  O11  1  0.711665  0.051079  0.041197  1
  O  O12  1  0.272105  0.955830  0.535497  1
  O  O13  1  0.716057  0.046702  0.478884  1
  O  O14  1  0.534564  0.339259  0.359359  1
  O  O15  1  0.469705  0.661694  0.647320  1
  O  O16  1  0.890152  0.697470  0.960295  1
  O  O17  1  0.101136  0.309293  0.042733  1
  O  O18  1  0.095751  0.307377  0.616369  1
  O  O19  1  0.901759  0.693025  0.387942  1
  O  O20  1  0.888425  0.929346  0.731288  1
  O  O21  1  0.088821  0.080641  0.269393  1
