# generated using pymatgen
data_YHo4SnSb2
_symmetry_space_group_name_H-M   'P 1'
_cell_length_a   8.94913201
_cell_length_b   8.93644705
_cell_length_c   6.39378900
_cell_angle_alpha   90.00000000
_cell_angle_beta   90.00000000
_cell_angle_gamma   119.97293552
_symmetry_Int_Tables_number   1
_chemical_formula_structural   YHo4SnSb2
_chemical_formula_sum   'Y2 Ho8 Sn2 Sb4'
_cell_volume   442.94837108
_cell_formula_units_Z   2
loop_
 _symmetry_equiv_pos_site_id
 _symmetry_equiv_pos_as_xyz
  1  'x, y, z'
loop_
 _atom_site_type_symbol
 _atom_site_label
 _atom_site_symmetry_multiplicity
 _atom_site_fract_x
 _atom_site_fract_y
 _atom_site_fract_z
 _atom_site_occupancy
  Y  Y0  1  0.755269  0.756049  0.250000  1
  Y  Y1  1  0.000700  0.243885  0.250000  1
  Ho  Ho2  1  0.333790  0.666788  0.999861  1
  Ho  Ho3  1  0.665052  0.332611  0.500124  1
  Ho  Ho4  1  0.665052  0.332611  0.999876  1
  Ho  Ho5  1  0.333790  0.666788  0.500139  1
  Ho  Ho6  1  0.755071  0.999152  0.750000  1
  Ho  Ho7  1  0.001429  0.757785  0.750000  1
  Ho  Ho8  1  0.244076  0.241928  0.750000  1
  Ho  Ho9  1  0.244583  0.001791  0.250000  1
  Sn  Sn10  1  0.391720  0.999110  0.750000  1
  Sn  Sn11  1  0.391221  0.391740  0.250000  1
  Sb  Sb12  1  0.999940  0.609860  0.250000  1
  Sb  Sb13  1  0.999371  0.389999  0.750000  1
  Sb  Sb14  1  0.609947  0.609682  0.750000  1
  Sb  Sb15  1  0.608989  0.000224  0.250000  1
