# generated using pymatgen
data_SmTh3Pd11Rh
_symmetry_space_group_name_H-M   'P 1'
_cell_length_a   5.91541134
_cell_length_b   5.87952058
_cell_length_c   9.77092000
_cell_angle_alpha   90.00000000
_cell_angle_beta   90.67978818
_cell_angle_gamma   119.79949126
_symmetry_Int_Tables_number   1
_chemical_formula_structural   SmTh3Pd11Rh
_chemical_formula_sum   'Sm1 Th3 Pd11 Rh1'
_cell_volume   294.86708255
_cell_formula_units_Z   1
loop_
 _symmetry_equiv_pos_site_id
 _symmetry_equiv_pos_as_xyz
  1  'x, y, z'
loop_
 _atom_site_type_symbol
 _atom_site_label
 _atom_site_symmetry_multiplicity
 _atom_site_fract_x
 _atom_site_fract_y
 _atom_site_fract_z
 _atom_site_occupancy
  Sm  Sm0  1  0.000000  0.000000  0.500000  1
  Th  Th1  1  0.000000  0.000000  0.000000  1
  Th  Th2  1  0.324163  0.662082  0.247359  1
  Th  Th3  1  0.675837  0.337918  0.752641  1
  Pd  Pd4  1  0.500000  0.500000  0.500000  1
  Pd  Pd5  1  0.500000  0.000000  0.500000  1
  Pd  Pd6  1  0.000000  0.500000  0.500000  1
  Pd  Pd7  1  0.500000  0.500000  0.000000  1
  Pd  Pd8  1  0.500000  0.000000  0.000000  1
  Pd  Pd9  1  0.822411  0.651216  0.249654  1
  Pd  Pd10  1  0.347386  0.173693  0.250512  1
  Pd  Pd11  1  0.822411  0.171196  0.249654  1
  Pd  Pd12  1  0.177589  0.348784  0.750346  1
  Pd  Pd13  1  0.652614  0.826307  0.749488  1
  Pd  Pd14  1  0.177589  0.828804  0.750346  1
  Rh  Rh15  1  0.000000  0.500000  0.000000  1
