# generated using pymatgen
data_Dy16Y4Cd6TcRu
_symmetry_space_group_name_H-M   'P 1'
_cell_length_a   9.58390910
_cell_length_b   9.58632837
_cell_length_c   9.91838500
_cell_angle_alpha   90.00000000
_cell_angle_beta   90.00000000
_cell_angle_gamma   120.00835046
_symmetry_Int_Tables_number   1
_chemical_formula_structural   Dy16Y4Cd6TcRu
_chemical_formula_sum   'Dy16 Y4 Cd6 Tc1 Ru1'
_cell_volume   789.09634394
_cell_formula_units_Z   1
loop_
 _symmetry_equiv_pos_site_id
 _symmetry_equiv_pos_as_xyz
  1  'x, y, z'
loop_
 _atom_site_type_symbol
 _atom_site_label
 _atom_site_symmetry_multiplicity
 _atom_site_fract_x
 _atom_site_fract_y
 _atom_site_fract_z
 _atom_site_occupancy
  Dy  Dy0  1  0.999968  0.999984  0.500186  1
  Dy  Dy1  1  0.999968  0.999984  0.999814  1
  Dy  Dy2  1  0.209954  0.790090  0.441060  1
  Dy  Dy3  1  0.209954  0.419864  0.441060  1
  Dy  Dy4  1  0.580081  0.790041  0.441096  1
  Dy  Dy5  1  0.789836  0.210094  0.559385  1
  Dy  Dy6  1  0.789836  0.579740  0.559385  1
  Dy  Dy7  1  0.420301  0.210150  0.559393  1
  Dy  Dy8  1  0.789836  0.210094  0.940615  1
  Dy  Dy9  1  0.789836  0.579740  0.940615  1
  Dy  Dy10  1  0.420301  0.210150  0.940607  1
  Dy  Dy11  1  0.209954  0.790090  0.058940  1
  Dy  Dy12  1  0.209954  0.419864  0.058940  1
  Dy  Dy13  1  0.580081  0.790041  0.058904  1
  Dy  Dy14  1  0.458704  0.541352  0.750000  1
  Dy  Dy15  1  0.458704  0.917353  0.750000  1
  Y  Y16  1  0.540201  0.459800  0.250000  1
  Y  Y17  1  0.540201  0.080400  0.250000  1
  Y  Y18  1  0.919570  0.459785  0.250000  1
  Y  Y19  1  0.082770  0.541386  0.750000  1
  Cd  Cd20  1  0.885372  0.114674  0.250000  1
  Cd  Cd21  1  0.885372  0.770699  0.250000  1
  Cd  Cd22  1  0.229278  0.114640  0.250000  1
  Cd  Cd23  1  0.114482  0.885525  0.750000  1
  Cd  Cd24  1  0.114482  0.228957  0.750000  1
  Cd  Cd25  1  0.771031  0.885515  0.750000  1
  Tc  Tc26  1  0.333396  0.666698  0.250000  1
  Ru  Ru27  1  0.666580  0.333290  0.750000  1
