# generated using pymatgen
data_Pr20Ga2Si9As
_symmetry_space_group_name_H-M   'P 1'
_cell_length_a   7.82397700
_cell_length_b   7.82397700
_cell_length_c   14.52946000
_cell_angle_alpha   90.00000000
_cell_angle_beta   90.00000000
_cell_angle_gamma   90.00000000
_symmetry_Int_Tables_number   1
_chemical_formula_structural   Pr20Ga2Si9As
_chemical_formula_sum   'Pr20 Ga2 Si9 As1'
_cell_volume   889.41531599
_cell_formula_units_Z   1
loop_
 _symmetry_equiv_pos_site_id
 _symmetry_equiv_pos_as_xyz
  1  'x, y, z'
loop_
 _atom_site_type_symbol
 _atom_site_label
 _atom_site_symmetry_multiplicity
 _atom_site_fract_x
 _atom_site_fract_y
 _atom_site_fract_z
 _atom_site_occupancy
  Pr  Pr0  1  0.814804  0.827916  0.605365  1
  Pr  Pr1  1  0.185501  0.830027  0.110775  1
  Pr  Pr2  1  0.173834  0.816555  0.394328  1
  Pr  Pr3  1  0.000000  0.500000  0.738914  1
  Pr  Pr4  1  0.826166  0.183445  0.394328  1
  Pr  Pr5  1  0.683445  0.673834  0.394328  1
  Pr  Pr6  1  0.672084  0.314804  0.605365  1
  Pr  Pr7  1  0.327916  0.685196  0.605365  1
  Pr  Pr8  1  0.000000  0.500000  0.224972  1
  Pr  Pr9  1  0.669973  0.685501  0.110775  1
  Pr  Pr10  1  0.685219  0.329497  0.889178  1
  Pr  Pr11  1  0.829497  0.814781  0.889178  1
  Pr  Pr12  1  0.316555  0.326166  0.394328  1
  Pr  Pr13  1  0.185196  0.172084  0.605365  1
  Pr  Pr14  1  0.814499  0.169973  0.110775  1
  Pr  Pr15  1  0.314781  0.670503  0.889178  1
  Pr  Pr16  1  0.330027  0.314499  0.110775  1
  Pr  Pr17  1  0.500000  0.000000  0.265384  1
  Pr  Pr18  1  0.170503  0.185219  0.889178  1
  Pr  Pr19  1  0.500000  0.000000  0.773785  1
  Ga  Ga20  1  0.500000  0.000000  0.996308  1
  Ga  Ga21  1  0.000000  0.500000  0.002839  1
  Si  Si22  1  0.614652  0.386590  0.254003  1
  Si  Si23  1  0.114197  0.886011  0.745420  1
  Si  Si24  1  0.386011  0.385803  0.745420  1
  Si  Si25  1  0.385348  0.613410  0.254003  1
  Si  Si26  1  0.886590  0.885348  0.254003  1
  Si  Si27  1  0.613989  0.614197  0.745420  1
  Si  Si28  1  0.885803  0.113989  0.745420  1
  Si  Si29  1  0.500000  0.000000  0.491203  1
  Si  Si30  1  0.113410  0.114652  0.254003  1
  As  As31  1  0.000000  0.500000  0.510321  1
