# generated using pymatgen
data_Y3Tm9ZnCo4Sn
_symmetry_space_group_name_H-M   'P 1'
_cell_length_a   8.24122018
_cell_length_b   8.22900976
_cell_length_c   8.22901058
_cell_angle_alpha   112.16328286
_cell_angle_beta   109.35043356
_cell_angle_gamma   106.88698868
_symmetry_Int_Tables_number   1
_chemical_formula_structural   Y3Tm9ZnCo4Sn
_chemical_formula_sum   'Y3 Tm9 Zn1 Co4 Sn1'
_cell_volume   428.98394825
_cell_formula_units_Z   1
loop_
 _symmetry_equiv_pos_site_id
 _symmetry_equiv_pos_as_xyz
  1  'x, y, z'
loop_
 _atom_site_type_symbol
 _atom_site_label
 _atom_site_symmetry_multiplicity
 _atom_site_fract_x
 _atom_site_fract_y
 _atom_site_fract_z
 _atom_site_occupancy
  Y  Y0  1  0.431194  0.230696  0.200498  1
  Y  Y1  1  0.569706  0.769337  0.800369  1
  Y  Y2  1  0.031595  0.230707  0.800888  1
  Tm  Tm3  1  0.970953  0.769616  0.201336  1
  Tm  Tm4  1  0.179153  0.281215  0.461880  1
  Tm  Tm5  1  0.819988  0.717054  0.535272  1
  Tm  Tm6  1  0.179153  0.717272  0.897937  1
  Tm  Tm7  1  0.819988  0.284716  0.102935  1
  Tm  Tm8  1  0.323913  0.637383  0.311449  1
  Tm  Tm9  1  0.676976  0.364442  0.689648  1
  Tm  Tm10  1  0.323913  0.012463  0.686532  1
  Tm  Tm11  1  0.676976  0.987327  0.312531  1
  Zn  Zn12  1  0.999675  0.998020  0.001655  1
  Co  Co13  1  0.344865  0.998376  0.346488  1
  Co  Co14  1  0.650820  0.000239  0.650582  1
  Co  Co15  1  0.113137  0.614928  0.498208  1
  Co  Co16  1  0.885750  0.385592  0.500158  1
  Sn  Sn17  1  0.502247  0.500615  0.001632  1
