# generated using pymatgen
data_Pr3Gd2HoTa2O14
_symmetry_space_group_name_H-M   'P 1'
_cell_length_a   6.59801084
_cell_length_b   6.62207413
_cell_length_c   7.68724356
_cell_angle_alpha   89.98992463
_cell_angle_beta   90.01880749
_cell_angle_gamma   109.16170665
_symmetry_Int_Tables_number   1
_chemical_formula_structural   Pr3Gd2HoTa2O14
_chemical_formula_sum   'Pr3 Gd2 Ho1 Ta2 O14'
_cell_volume   317.26616692
_cell_formula_units_Z   1
loop_
 _symmetry_equiv_pos_site_id
 _symmetry_equiv_pos_as_xyz
  1  'x, y, z'
loop_
 _atom_site_type_symbol
 _atom_site_label
 _atom_site_symmetry_multiplicity
 _atom_site_fract_x
 _atom_site_fract_y
 _atom_site_fract_z
 _atom_site_occupancy
  Pr  Pr0  1  0.997671  0.535542  0.245545  1
  Pr  Pr1  1  0.476694  0.473274  0.999263  1
  Pr  Pr2  1  0.512057  0.516336  0.499600  1
  Gd  Gd3  1  0.532245  0.999336  0.754280  1
  Gd  Gd4  1  0.999361  0.467217  0.745143  1
  Ho  Ho5  1  0.468801  0.998692  0.254750  1
  Ta  Ta6  1  0.002014  0.001921  0.500310  1
  Ta  Ta7  1  0.997182  0.998192  0.998867  1
  O  O8  1  0.936769  0.056190  0.749647  1
  O  O9  1  0.640039  0.355273  0.749555  1
  O  O10  1  0.311143  0.051325  0.533223  1
  O  O11  1  0.936149  0.690927  0.959993  1
  O  O12  1  0.621434  0.354715  0.252471  1
  O  O13  1  0.921519  0.681346  0.530781  1
  O  O14  1  0.321813  0.069595  0.976515  1
  O  O15  1  0.080769  0.322627  0.019081  1
  O  O16  1  0.682780  0.933685  0.467192  1
  O  O17  1  0.366098  0.635535  0.750709  1
  O  O18  1  0.694577  0.953364  0.042958  1
  O  O19  1  0.071867  0.315290  0.472211  1
  O  O20  1  0.367637  0.647104  0.248032  1
  O  O21  1  0.061381  0.942514  0.249873  1
