# generated using pymatgen
data_Cs2Mg2Cd3Sb4
_symmetry_space_group_name_H-M   'P 1'
_cell_length_a   7.85988072
_cell_length_b   7.85987954
_cell_length_c   13.43811800
_cell_angle_alpha   90.00000000
_cell_angle_beta   90.00000000
_cell_angle_gamma   117.86842474
_symmetry_Int_Tables_number   1
_chemical_formula_structural   Cs2Mg2Cd3Sb4
_chemical_formula_sum   'Cs4 Mg4 Cd6 Sb8'
_cell_volume   733.89519011
_cell_formula_units_Z   2
loop_
 _symmetry_equiv_pos_site_id
 _symmetry_equiv_pos_as_xyz
  1  'x, y, z'
loop_
 _atom_site_type_symbol
 _atom_site_label
 _atom_site_symmetry_multiplicity
 _atom_site_fract_x
 _atom_site_fract_y
 _atom_site_fract_z
 _atom_site_occupancy
  Cs  Cs0  1  0.213358  0.786642  0.500000  1
  Cs  Cs1  1  0.213358  0.786642  0.000000  1
  Cs  Cs2  1  0.786642  0.213358  0.500000  1
  Cs  Cs3  1  0.786642  0.213358  0.000000  1
  Mg  Mg4  1  0.642714  0.642714  0.386240  1
  Mg  Mg5  1  0.357286  0.357286  0.613760  1
  Mg  Mg6  1  0.642714  0.642714  0.113760  1
  Mg  Mg7  1  0.357286  0.357286  0.886240  1
  Cd  Cd8  1  0.525759  0.238425  0.250000  1
  Cd  Cd9  1  0.761575  0.474241  0.750000  1
  Cd  Cd10  1  0.474241  0.761575  0.750000  1
  Cd  Cd11  1  0.238425  0.525759  0.250000  1
  Cd  Cd12  1  0.012546  0.012546  0.250000  1
  Cd  Cd13  1  0.987454  0.987454  0.750000  1
  Sb  Sb14  1  0.598322  0.913261  0.250000  1
  Sb  Sb15  1  0.086739  0.401678  0.750000  1
  Sb  Sb16  1  0.401678  0.086739  0.750000  1
  Sb  Sb17  1  0.913261  0.598322  0.250000  1
  Sb  Sb18  1  0.278300  0.278300  0.405812  1
  Sb  Sb19  1  0.721700  0.721700  0.594188  1
  Sb  Sb20  1  0.278300  0.278300  0.094188  1
  Sb  Sb21  1  0.721700  0.721700  0.905812  1
