# generated using pymatgen
data_La11Nd9(CoSb2)4
_symmetry_space_group_name_H-M   'P 1'
_cell_length_a   8.30308268
_cell_length_b   9.01092700
_cell_length_c   12.73425027
_cell_angle_alpha   90.00000000
_cell_angle_beta   90.29900867
_cell_angle_gamma   90.00000000
_symmetry_Int_Tables_number   1
_chemical_formula_structural   La11Nd9(CoSb2)4
_chemical_formula_sum   'La11 Nd9 Co4 Sb8'
_cell_volume   952.74417136
_cell_formula_units_Z   1
loop_
 _symmetry_equiv_pos_site_id
 _symmetry_equiv_pos_as_xyz
  1  'x, y, z'
loop_
 _atom_site_type_symbol
 _atom_site_label
 _atom_site_symmetry_multiplicity
 _atom_site_fract_x
 _atom_site_fract_y
 _atom_site_fract_z
 _atom_site_occupancy
  La  La0  1  0.153921  0.750000  0.202401  1
  La  La1  1  0.652247  0.250000  0.298974  1
  La  La2  1  0.845417  0.250000  0.797204  1
  La  La3  1  0.820015  0.975360  0.063289  1
  La  La4  1  0.320964  0.022295  0.437251  1
  La  La5  1  0.180666  0.476577  0.936593  1
  La  La6  1  0.680180  0.525298  0.563915  1
  La  La7  1  0.180666  0.023423  0.936593  1
  La  La8  1  0.680180  0.974702  0.563915  1
  La  La9  1  0.820015  0.524640  0.063289  1
  La  La10  1  0.320964  0.477705  0.437251  1
  Nd  Nd11  1  0.344369  0.750000  0.703879  1
  Nd  Nd12  1  0.468998  0.750000  0.998854  1
  Nd  Nd13  1  0.969936  0.250000  0.501915  1
  Nd  Nd14  1  0.531361  0.250000  0.000304  1
  Nd  Nd15  1  0.033123  0.750000  0.498709  1
  Nd  Nd16  1  0.628511  0.750000  0.298974  1
  Nd  Nd17  1  0.127136  0.250000  0.199081  1
  Nd  Nd18  1  0.371406  0.250000  0.699919  1
  Nd  Nd19  1  0.872241  0.750000  0.799860  1
  Co  Co20  1  0.401297  0.750000  0.481208  1
  Co  Co21  1  0.899426  0.250000  0.016496  1
  Co  Co22  1  0.599279  0.250000  0.519083  1
  Co  Co23  1  0.098683  0.750000  0.982381  1
  Sb  Sb24  1  0.928019  0.994030  0.326326  1
  Sb  Sb25  1  0.427328  0.007307  0.173389  1
  Sb  Sb26  1  0.073890  0.494949  0.674446  1
  Sb  Sb27  1  0.570263  0.508152  0.825168  1
  Sb  Sb28  1  0.073890  0.005051  0.674446  1
  Sb  Sb29  1  0.570263  0.991848  0.825168  1
  Sb  Sb30  1  0.928019  0.505970  0.326326  1
  Sb  Sb31  1  0.427328  0.492693  0.173389  1
