# generated using pymatgen
data_Yb6Y2SnPd24
_symmetry_space_group_name_H-M   'P 1'
_cell_length_a   8.38497724
_cell_length_b   8.38497724
_cell_length_c   8.38497724
_cell_angle_alpha   89.98059222
_cell_angle_beta   89.98059222
_cell_angle_gamma   89.98059222
_symmetry_Int_Tables_number   1
_chemical_formula_structural   Yb6Y2SnPd24
_chemical_formula_sum   'Yb6 Y2 Sn1 Pd24'
_cell_volume   589.52956465
_cell_formula_units_Z   1
loop_
 _symmetry_equiv_pos_site_id
 _symmetry_equiv_pos_as_xyz
  1  'x, y, z'
loop_
 _atom_site_type_symbol
 _atom_site_label
 _atom_site_symmetry_multiplicity
 _atom_site_fract_x
 _atom_site_fract_y
 _atom_site_fract_z
 _atom_site_occupancy
  Yb  Yb0  1  0.749057  0.749057  0.250940  1
  Yb  Yb1  1  0.749057  0.250940  0.749057  1
  Yb  Yb2  1  0.250943  0.250943  0.749060  1
  Yb  Yb3  1  0.250943  0.749060  0.250943  1
  Yb  Yb4  1  0.250940  0.749057  0.749057  1
  Yb  Yb5  1  0.749060  0.250943  0.250943  1
  Y  Y6  1  0.251770  0.251770  0.251770  1
  Y  Y7  1  0.748230  0.748230  0.748230  1
  Sn  Sn8  1  0.000000  0.000000  0.000000  1
  Pd  Pd9  1  0.267588  0.500278  0.999623  1
  Pd  Pd10  1  0.732412  0.499722  0.000377  1
  Pd  Pd11  1  0.999623  0.267588  0.500278  1
  Pd  Pd12  1  0.500278  0.267588  0.999623  1
  Pd  Pd13  1  0.000377  0.732412  0.499722  1
  Pd  Pd14  1  0.499722  0.732412  0.000377  1
  Pd  Pd15  1  0.500278  0.999623  0.267588  1
  Pd  Pd16  1  0.267588  0.999623  0.500278  1
  Pd  Pd17  1  0.499722  0.000377  0.732412  1
  Pd  Pd18  1  0.732412  0.000377  0.499722  1
  Pd  Pd19  1  0.999623  0.500278  0.267588  1
  Pd  Pd20  1  0.000377  0.499722  0.732412  1
  Pd  Pd21  1  0.255979  0.500112  0.500112  1
  Pd  Pd22  1  0.744021  0.499888  0.499888  1
  Pd  Pd23  1  0.500112  0.255979  0.500112  1
  Pd  Pd24  1  0.499888  0.744021  0.499888  1
  Pd  Pd25  1  0.500112  0.500112  0.255979  1
  Pd  Pd26  1  0.499888  0.499888  0.744021  1
  Pd  Pd27  1  0.314799  0.999610  0.999610  1
  Pd  Pd28  1  0.685201  0.000390  0.000390  1
  Pd  Pd29  1  0.999610  0.314799  0.999610  1
  Pd  Pd30  1  0.000390  0.685201  0.000390  1
  Pd  Pd31  1  0.999610  0.999610  0.314799  1
  Pd  Pd32  1  0.000390  0.000390  0.685201  1
