# generated using pymatgen
data_Rb3Ag(SbAu)2
_symmetry_space_group_name_H-M   'P 1'
_cell_length_a   8.47937261
_cell_length_b   8.22624120
_cell_length_c   8.47937317
_cell_angle_alpha   46.28764940
_cell_angle_beta   47.15395753
_cell_angle_gamma   46.28764849
_symmetry_Int_Tables_number   1
_chemical_formula_structural   Rb3Ag(SbAu)2
_chemical_formula_sum   'Rb3 Ag1 Sb2 Au2'
_cell_volume   284.86623857
_cell_formula_units_Z   1
loop_
 _symmetry_equiv_pos_site_id
 _symmetry_equiv_pos_as_xyz
  1  'x, y, z'
loop_
 _atom_site_type_symbol
 _atom_site_label
 _atom_site_symmetry_multiplicity
 _atom_site_fract_x
 _atom_site_fract_y
 _atom_site_fract_z
 _atom_site_occupancy
  Rb  Rb0  1  0.500000  0.500000  0.500000  1
  Rb  Rb1  1  0.914819  0.920498  0.914819  1
  Rb  Rb2  1  0.085181  0.079502  0.085181  1
  Ag  Ag3  1  0.500000  0.000000  0.500000  1
  Sb  Sb4  1  0.247950  0.248646  0.247950  1
  Sb  Sb5  1  0.752050  0.751354  0.752050  1
  Au  Au6  1  0.000000  0.500000  0.500000  1
  Au  Au7  1  0.500000  0.500000  0.000000  1
