# generated using pymatgen
data_Ho6IO12
_symmetry_space_group_name_H-M   'P 1'
_cell_length_a   6.49872399
_cell_length_b   6.49872413
_cell_length_c   6.49872438
_cell_angle_alpha   98.72896685
_cell_angle_beta   98.72897583
_cell_angle_gamma   98.72897867
_symmetry_Int_Tables_number   1
_chemical_formula_structural   Ho6IO12
_chemical_formula_sum   'Ho6 I1 O12'
_cell_volume   263.81559447
_cell_formula_units_Z   1
loop_
 _symmetry_equiv_pos_site_id
 _symmetry_equiv_pos_as_xyz
  1  'x, y, z'
loop_
 _atom_site_type_symbol
 _atom_site_label
 _atom_site_symmetry_multiplicity
 _atom_site_fract_x
 _atom_site_fract_y
 _atom_site_fract_z
 _atom_site_occupancy
  Ho  Ho0  1  0.145830  0.318887  0.610550  1
  Ho  Ho1  1  0.389450  0.854170  0.681113  1
  Ho  Ho2  1  0.681113  0.389450  0.854170  1
  Ho  Ho3  1  0.318887  0.610550  0.145830  1
  Ho  Ho4  1  0.610550  0.145830  0.318887  1
  Ho  Ho5  1  0.854170  0.681113  0.389450  1
  I  I6  1  0.000000  0.000000  0.000000  1
  O  O7  1  0.072828  0.305632  0.961247  1
  O  O8  1  0.038753  0.927172  0.694368  1
  O  O9  1  0.408632  0.568376  0.822629  1
  O  O10  1  0.177371  0.591368  0.431624  1
  O  O11  1  0.694368  0.038753  0.927172  1
  O  O12  1  0.431624  0.177371  0.591368  1
  O  O13  1  0.568376  0.822629  0.408632  1
  O  O14  1  0.305632  0.961247  0.072828  1
  O  O15  1  0.822629  0.408632  0.568376  1
  O  O16  1  0.591368  0.431624  0.177371  1
  O  O17  1  0.961247  0.072828  0.305632  1
  O  O18  1  0.927172  0.694368  0.038753  1
