# generated using pymatgen
data_TbAlFe4Re7
_symmetry_space_group_name_H-M   'P 1'
_cell_length_a   4.81869286
_cell_length_b   6.74032225
_cell_length_c   6.74032235
_cell_angle_alpha   81.74743210
_cell_angle_beta   69.05613702
_cell_angle_gamma   69.05613490
_symmetry_Int_Tables_number   1
_chemical_formula_structural   TbAlFe4Re7
_chemical_formula_sum   'Tb1 Al1 Fe4 Re7'
_cell_volume   190.91906417
_cell_formula_units_Z   1
loop_
 _symmetry_equiv_pos_site_id
 _symmetry_equiv_pos_as_xyz
  1  'x, y, z'
loop_
 _atom_site_type_symbol
 _atom_site_label
 _atom_site_symmetry_multiplicity
 _atom_site_fract_x
 _atom_site_fract_y
 _atom_site_fract_z
 _atom_site_occupancy
  Tb  Tb0  1  0.993368  0.006632  0.006632  1
  Al  Al1  1  0.276945  0.223055  0.223055  1
  Fe  Fe2  1  0.003797  0.999621  0.489863  1
  Fe  Fe3  1  0.506718  0.999621  0.489863  1
  Fe  Fe4  1  0.506718  0.489863  0.999621  1
  Fe  Fe5  1  0.003797  0.489863  0.999621  1
  Re  Re6  1  0.999715  0.356747  0.643823  1
  Re  Re7  1  0.999715  0.643823  0.356747  1
  Re  Re8  1  0.633569  0.366431  0.366431  1
  Re  Re9  1  0.353425  0.646575  0.646575  1
  Re  Re10  1  0.504994  0.779379  0.210633  1
  Re  Re11  1  0.504994  0.210633  0.779379  1
  Re  Re12  1  0.712243  0.787757  0.787757  1
