# generated using pymatgen
data_MgVRuF12
_symmetry_space_group_name_H-M   'P 1'
_cell_length_a   5.44211061
_cell_length_b   11.02467870
_cell_length_c   5.47072282
_cell_angle_alpha   58.38754723
_cell_angle_beta   58.15083070
_cell_angle_gamma   58.60015541
_symmetry_Int_Tables_number   1
_chemical_formula_structural   MgVRuF12
_chemical_formula_sum   'Mg1 V1 Ru1 F12'
_cell_volume   223.47677774
_cell_formula_units_Z   1
loop_
 _symmetry_equiv_pos_site_id
 _symmetry_equiv_pos_as_xyz
  1  'x, y, z'
loop_
 _atom_site_type_symbol
 _atom_site_label
 _atom_site_symmetry_multiplicity
 _atom_site_fract_x
 _atom_site_fract_y
 _atom_site_fract_z
 _atom_site_occupancy
  Mg  Mg0  1  0.507728  0.743709  0.500700  1
  V  V1  1  0.995125  0.494609  0.011868  1
  Ru  Ru2  1  0.007057  0.001226  0.991480  1
  F  F3  1  0.340356  0.067960  0.763318  1
  F  F4  1  0.304841  0.583486  0.764206  1
  F  F5  1  0.133493  0.393847  0.315493  1
  F  F6  1  0.161791  0.874457  0.331527  1
  F  F7  1  0.223452  0.350783  0.853465  1
  F  F8  1  0.247876  0.830184  0.843506  1
  F  F9  1  0.862013  0.113564  0.669066  1
  F  F10  1  0.839563  0.621542  0.685995  1
  F  F11  1  0.670192  0.438403  0.223343  1
  F  F12  1  0.673127  0.917406  0.243356  1
  F  F13  1  0.770501  0.158065  0.145982  1
  F  F14  1  0.762886  0.660758  0.156695  1
