# generated using pymatgen
data_La16Al4Ru3Rh
_symmetry_space_group_name_H-M   'P 1'
_cell_length_a   9.98708224
_cell_length_b   9.98708250
_cell_length_c   9.94036202
_cell_angle_alpha   59.84440388
_cell_angle_beta   59.84440619
_cell_angle_gamma   60.00000329
_symmetry_Int_Tables_number   1
_chemical_formula_structural   La16Al4Ru3Rh
_chemical_formula_sum   'La16 Al4 Ru3 Rh1'
_cell_volume   699.42166905
_cell_formula_units_Z   1
loop_
 _symmetry_equiv_pos_site_id
 _symmetry_equiv_pos_as_xyz
  1  'x, y, z'
loop_
 _atom_site_type_symbol
 _atom_site_label
 _atom_site_symmetry_multiplicity
 _atom_site_fract_x
 _atom_site_fract_y
 _atom_site_fract_z
 _atom_site_occupancy
  La  La0  1  0.900819  0.900819  0.903014  1
  La  La1  1  0.442760  0.442760  0.057050  1
  La  La2  1  0.056137  0.056137  0.440818  1
  La  La3  1  0.442760  0.057429  0.057050  1
  La  La4  1  0.310449  0.689443  0.310665  1
  La  La5  1  0.689443  0.689443  0.310665  1
  La  La6  1  0.689443  0.310449  0.310665  1
  La  La7  1  0.295347  0.900819  0.903014  1
  La  La8  1  0.900819  0.295347  0.903014  1
  La  La9  1  0.311079  0.687332  0.690509  1
  La  La10  1  0.902096  0.902096  0.293711  1
  La  La11  1  0.057429  0.442760  0.057050  1
  La  La12  1  0.311079  0.311079  0.690509  1
  La  La13  1  0.056137  0.446908  0.440818  1
  La  La14  1  0.446908  0.056137  0.440818  1
  La  La15  1  0.687332  0.311079  0.690509  1
  Al  Al16  1  0.676903  0.676903  0.969289  1
  Al  Al17  1  0.969405  0.676932  0.676730  1
  Al  Al18  1  0.676932  0.969405  0.676730  1
  Al  Al19  1  0.676932  0.676932  0.676730  1
  Ru  Ru20  1  0.112341  0.112341  0.111527  1
  Ru  Ru21  1  0.112341  0.663791  0.111527  1
  Ru  Ru22  1  0.663791  0.112341  0.111527  1
  Rh  Rh23  1  0.111314  0.111314  0.666059  1
