# generated using pymatgen
data_Tb10Y2Ni6Bi
_symmetry_space_group_name_H-M   'P 1'
_cell_length_a   8.49289574
_cell_length_b   8.49253027
_cell_length_c   8.50054371
_cell_angle_alpha   109.50882845
_cell_angle_beta   109.52120217
_cell_angle_gamma   109.46525756
_symmetry_Int_Tables_number   1
_chemical_formula_structural   Tb10Y2Ni6Bi
_chemical_formula_sum   'Tb10 Y2 Ni6 Bi1'
_cell_volume   471.49745538
_cell_formula_units_Z   1
loop_
 _symmetry_equiv_pos_site_id
 _symmetry_equiv_pos_as_xyz
  1  'x, y, z'
loop_
 _atom_site_type_symbol
 _atom_site_label
 _atom_site_symmetry_multiplicity
 _atom_site_fract_x
 _atom_site_fract_y
 _atom_site_fract_z
 _atom_site_occupancy
  Tb  Tb0  1  0.812571  0.504795  0.692330  1
  Tb  Tb1  1  0.692078  0.187820  0.879775  1
  Tb  Tb2  1  0.187997  0.879778  0.692005  1
  Tb  Tb3  1  0.308032  0.187630  0.495749  1
  Tb  Tb4  1  0.691934  0.812193  0.504100  1
  Tb  Tb5  1  0.495304  0.307566  0.187459  1
  Tb  Tb6  1  0.812376  0.120222  0.307976  1
  Tb  Tb7  1  0.879734  0.692001  0.187681  1
  Tb  Tb8  1  0.120073  0.307895  0.811954  1
  Tb  Tb9  1  0.308097  0.812200  0.120458  1
  Y  Y10  1  0.505958  0.693454  0.812471  1
  Y  Y11  1  0.187655  0.494098  0.306658  1
  Ni  Ni12  1  0.624087  0.124308  0.499960  1
  Ni  Ni13  1  0.499227  0.623229  0.124124  1
  Ni  Ni14  1  0.499869  0.375754  0.876079  1
  Ni  Ni15  1  0.376785  0.876833  0.500933  1
  Ni  Ni16  1  0.122879  0.499767  0.623789  1
  Ni  Ni17  1  0.875735  0.500252  0.376335  1
  Bi  Bi18  1  0.999608  0.000206  0.000164  1
