# generated using pymatgen
data_Tb7Yb3Y2(SiPd)12
_symmetry_space_group_name_H-M   'P 1'
_cell_length_a   4.34179700
_cell_length_b   7.44965525
_cell_length_c   21.21980601
_cell_angle_alpha   89.98699297
_cell_angle_beta   90.00000000
_cell_angle_gamma   90.00000000
_symmetry_Int_Tables_number   1
_chemical_formula_structural   Tb7Yb3Y2(SiPd)12
_chemical_formula_sum   'Tb7 Yb3 Y2 Si12 Pd12'
_cell_volume   686.35229073
_cell_formula_units_Z   1
loop_
 _symmetry_equiv_pos_site_id
 _symmetry_equiv_pos_as_xyz
  1  'x, y, z'
loop_
 _atom_site_type_symbol
 _atom_site_label
 _atom_site_symmetry_multiplicity
 _atom_site_fract_x
 _atom_site_fract_y
 _atom_site_fract_z
 _atom_site_occupancy
  Tb  Tb0  1  0.250000  0.797325  0.832382  1
  Tb  Tb1  1  0.250000  0.798081  0.166235  1
  Tb  Tb2  1  0.250000  0.703589  0.665774  1
  Tb  Tb3  1  0.250000  0.708593  0.001180  1
  Tb  Tb4  1  0.750000  0.291491  0.999923  1
  Tb  Tb5  1  0.750000  0.207034  0.499174  1
  Tb  Tb6  1  0.250000  0.793936  0.500263  1
  Yb  Yb7  1  0.250000  0.703586  0.332242  1
  Yb  Yb8  1  0.750000  0.294891  0.667546  1
  Yb  Yb9  1  0.750000  0.203242  0.167625  1
  Y  Y10  1  0.750000  0.204349  0.833431  1
  Y  Y11  1  0.750000  0.296639  0.333659  1
  Si  Si12  1  0.250000  0.088398  0.065912  1
  Si  Si13  1  0.750000  0.910578  0.928540  1
  Si  Si14  1  0.750000  0.586836  0.434070  1
  Si  Si15  1  0.250000  0.412757  0.566068  1
  Si  Si16  1  0.250000  0.086834  0.274513  1
  Si  Si17  1  0.750000  0.911462  0.727796  1
  Si  Si18  1  0.750000  0.587101  0.225753  1
  Si  Si19  1  0.250000  0.414249  0.774123  1
  Si  Si20  1  0.250000  0.089588  0.395083  1
  Si  Si21  1  0.750000  0.910844  0.605724  1
  Si  Si22  1  0.750000  0.588840  0.104980  1
  Si  Si23  1  0.250000  0.410783  0.895450  1
  Pd  Pd24  1  0.250000  0.415476  0.236830  1
  Pd  Pd25  1  0.750000  0.582779  0.763803  1
  Pd  Pd26  1  0.750000  0.915524  0.263227  1
  Pd  Pd27  1  0.250000  0.085415  0.736708  1
  Pd  Pd28  1  0.250000  0.417698  0.436728  1
  Pd  Pd29  1  0.750000  0.582759  0.563219  1
  Pd  Pd30  1  0.750000  0.916802  0.063750  1
  Pd  Pd31  1  0.250000  0.083268  0.938059  1
  Pd  Pd32  1  0.250000  0.418350  0.094121  1
  Pd  Pd33  1  0.750000  0.580711  0.905958  1
  Pd  Pd34  1  0.750000  0.916981  0.406514  1
  Pd  Pd35  1  0.250000  0.083212  0.593639  1
