# generated using pymatgen
data_ErSc2Al7Cu2
_symmetry_space_group_name_H-M   'P 1'
_cell_length_a   8.88994008
_cell_length_b   8.88994034
_cell_length_c   8.88994101
_cell_angle_alpha   35.01209233
_cell_angle_beta   35.01209072
_cell_angle_gamma   35.01209772
_symmetry_Int_Tables_number   1
_chemical_formula_structural   ErSc2Al7Cu2
_chemical_formula_sum   'Er1 Sc2 Al7 Cu2'
_cell_volume   206.51106932
_cell_formula_units_Z   1
loop_
 _symmetry_equiv_pos_site_id
 _symmetry_equiv_pos_as_xyz
  1  'x, y, z'
loop_
 _atom_site_type_symbol
 _atom_site_label
 _atom_site_symmetry_multiplicity
 _atom_site_fract_x
 _atom_site_fract_y
 _atom_site_fract_z
 _atom_site_occupancy
  Er  Er0  1  0.000000  0.000000  0.000000  1
  Sc  Sc1  1  0.856725  0.856725  0.856725  1
  Sc  Sc2  1  0.143275  0.143275  0.143275  1
  Al  Al3  1  0.416041  0.416041  0.925362  1
  Al  Al4  1  0.925362  0.416041  0.416041  1
  Al  Al5  1  0.416041  0.925362  0.416041  1
  Al  Al6  1  0.500000  0.500000  0.500000  1
  Al  Al7  1  0.583959  0.074638  0.583959  1
  Al  Al8  1  0.074638  0.583959  0.583959  1
  Al  Al9  1  0.583959  0.583959  0.074638  1
  Cu  Cu10  1  0.664951  0.664951  0.664951  1
  Cu  Cu11  1  0.335049  0.335049  0.335049  1
