# generated using pymatgen
data_Nd3Dy2P12Ru15Pt4
_symmetry_space_group_name_H-M   'P 1'
_cell_length_a   12.79020544
_cell_length_b   12.71411700
_cell_length_c   3.98348800
_cell_angle_alpha   90.00000000
_cell_angle_beta   90.00000000
_cell_angle_gamma   120.33704560
_symmetry_Int_Tables_number   1
_chemical_formula_structural   Nd3Dy2P12Ru15Pt4
_chemical_formula_sum   'Nd3 Dy2 P12 Ru15 Pt4'
_cell_volume   559.07855588
_cell_formula_units_Z   1
loop_
 _symmetry_equiv_pos_site_id
 _symmetry_equiv_pos_as_xyz
  1  'x, y, z'
loop_
 _atom_site_type_symbol
 _atom_site_label
 _atom_site_symmetry_multiplicity
 _atom_site_fract_x
 _atom_site_fract_y
 _atom_site_fract_z
 _atom_site_occupancy
  Nd  Nd0  1  0.814903  0.000543  0.500000  1
  Nd  Nd1  1  0.182967  0.184009  0.500000  1
  Nd  Nd2  1  0.000695  0.816955  0.500000  1
  Dy  Dy3  1  0.664992  0.332184  0.000000  1
  Dy  Dy4  1  0.337742  0.668150  0.000000  1
  P  P5  1  0.625946  0.987368  0.000000  1
  P  P6  1  0.360730  0.373063  0.000000  1
  P  P7  1  0.002348  0.638679  0.000000  1
  P  P8  1  0.693844  0.527073  0.500000  1
  P  P9  1  0.830771  0.304790  0.500000  1
  P  P10  1  0.317200  0.837268  0.500000  1
  P  P11  1  0.522093  0.692127  0.500000  1
  P  P12  1  0.183712  0.998799  0.000000  1
  P  P13  1  0.814997  0.815299  0.000000  1
  P  P14  1  0.997148  0.184742  0.000000  1
  P  P15  1  0.471388  0.167316  0.500000  1
  P  P16  1  0.176680  0.475722  0.500000  1
  Ru  Ru17  1  0.619469  0.798260  0.000000  1
  Ru  Ru18  1  0.179314  0.381437  0.000000  1
  Ru  Ru19  1  0.380251  0.185497  0.000000  1
  Ru  Ru20  1  0.200064  0.816012  0.000000  1
  Ru  Ru21  1  0.802841  0.617229  0.000000  1
  Ru  Ru22  1  0.366094  0.491081  0.500000  1
  Ru  Ru23  1  0.510421  0.872560  0.500000  1
  Ru  Ru24  1  0.000034  0.000551  0.000000  1
  Ru  Ru25  1  0.714144  0.713141  0.500000  1
  Ru  Ru26  1  0.998285  0.288250  0.500000  1
  Ru  Ru27  1  0.450968  0.001566  0.000000  1
  Ru  Ru28  1  0.551429  0.546128  0.000000  1
  Ru  Ru29  1  0.997448  0.453566  0.000000  1
  Ru  Ru30  1  0.812514  0.196520  0.000000  1
  Ru  Ru31  1  0.285310  0.998880  0.500000  1
  Pt  Pt32  1  0.868265  0.503043  0.500000  1
  Pt  Pt33  1  0.497875  0.365564  0.500000  1
  Pt  Pt34  1  0.631899  0.131629  0.500000  1
  Pt  Pt35  1  0.135222  0.634999  0.500000  1
