# generated using pymatgen
data_TmSnF7
_symmetry_space_group_name_H-M   'P 1'
_cell_length_a   5.59190100
_cell_length_b   8.87394323
_cell_length_c   11.97228496
_cell_angle_alpha   62.58399514
_cell_angle_beta   90.00000000
_cell_angle_gamma   90.00000000
_symmetry_Int_Tables_number   1
_chemical_formula_structural   TmSnF7
_chemical_formula_sum   'Tm4 Sn4 F28'
_cell_volume   527.36697139
_cell_formula_units_Z   4
loop_
 _symmetry_equiv_pos_site_id
 _symmetry_equiv_pos_as_xyz
  1  'x, y, z'
loop_
 _atom_site_type_symbol
 _atom_site_label
 _atom_site_symmetry_multiplicity
 _atom_site_fract_x
 _atom_site_fract_y
 _atom_site_fract_z
 _atom_site_occupancy
  Tm  Tm0  1  0.256824  0.815416  0.264579  1
  Tm  Tm1  1  0.743176  0.184584  0.735421  1
  Tm  Tm2  1  0.756824  0.184584  0.235421  1
  Tm  Tm3  1  0.243176  0.815416  0.764579  1
  Sn  Sn4  1  0.757894  0.726950  0.042856  1
  Sn  Sn5  1  0.242106  0.273050  0.957144  1
  Sn  Sn6  1  0.257894  0.273050  0.457144  1
  Sn  Sn7  1  0.742106  0.726950  0.542856  1
  F  F8  1  0.953184  0.706304  0.416425  1
  F  F9  1  0.046816  0.293696  0.583575  1
  F  F10  1  0.453184  0.293696  0.083575  1
  F  F11  1  0.546816  0.706304  0.916425  1
  F  F12  1  0.476003  0.729597  0.144591  1
  F  F13  1  0.523997  0.270403  0.855409  1
  F  F14  1  0.976003  0.270403  0.355409  1
  F  F15  1  0.023997  0.729597  0.644591  1
  F  F16  1  0.960595  0.745280  0.174548  1
  F  F17  1  0.039405  0.254720  0.825452  1
  F  F18  1  0.460595  0.254720  0.325452  1
  F  F19  1  0.539405  0.745280  0.674548  1
  F  F20  1  0.775984  0.475184  0.142044  1
  F  F21  1  0.224016  0.524816  0.857956  1
  F  F22  1  0.275984  0.524816  0.357956  1
  F  F23  1  0.724016  0.475184  0.642044  1
  F  F24  1  0.942101  0.277342  0.047943  1
  F  F25  1  0.057899  0.722658  0.952057  1
  F  F26  1  0.442101  0.722658  0.452057  1
  F  F27  1  0.557899  0.277342  0.547943  1
  F  F28  1  0.740069  0.979332  0.444041  1
  F  F29  1  0.259931  0.020668  0.555959  1
  F  F30  1  0.240069  0.020668  0.055959  1
  F  F31  1  0.759931  0.979332  0.944041  1
  F  F32  1  0.574748  0.972292  0.233566  1
  F  F33  1  0.425252  0.027708  0.766434  1
  F  F34  1  0.074748  0.027708  0.266434  1
  F  F35  1  0.925252  0.972292  0.733566  1
