# generated using pymatgen
data_Pr4Zn3GaPt4
_symmetry_space_group_name_H-M   'P 1'
_cell_length_a   4.45354000
_cell_length_b   7.16141158
_cell_length_c   8.03316371
_cell_angle_alpha   90.04712813
_cell_angle_beta   90.00000000
_cell_angle_gamma   90.00000000
_symmetry_Int_Tables_number   1
_chemical_formula_structural   Pr4Zn3GaPt4
_chemical_formula_sum   'Pr4 Zn3 Ga1 Pt4'
_cell_volume   256.20668791
_cell_formula_units_Z   1
loop_
 _symmetry_equiv_pos_site_id
 _symmetry_equiv_pos_as_xyz
  1  'x, y, z'
loop_
 _atom_site_type_symbol
 _atom_site_label
 _atom_site_symmetry_multiplicity
 _atom_site_fract_x
 _atom_site_fract_y
 _atom_site_fract_z
 _atom_site_occupancy
  Pr  Pr0  1  0.250000  0.021764  0.692147  1
  Pr  Pr1  1  0.250000  0.523643  0.807815  1
  Pr  Pr2  1  0.750000  0.979853  0.306684  1
  Pr  Pr3  1  0.750000  0.476119  0.192405  1
  Zn  Zn4  1  0.250000  0.157004  0.072687  1
  Zn  Zn5  1  0.250000  0.658646  0.428091  1
  Zn  Zn6  1  0.750000  0.845242  0.929064  1
  Ga  Ga7  1  0.750000  0.343048  0.568773  1
  Pt  Pt8  1  0.250000  0.274584  0.397441  1
  Pt  Pt9  1  0.250000  0.772790  0.108196  1
  Pt  Pt10  1  0.750000  0.719506  0.606716  1
  Pt  Pt11  1  0.750000  0.227800  0.889981  1
