# generated using pymatgen
data_Sc4Ti2Be4Ir7Rh3
_symmetry_space_group_name_H-M   'P 1'
_cell_length_a   9.47749061
_cell_length_b   9.49576261
_cell_length_c   3.14735900
_cell_angle_alpha   90.00000000
_cell_angle_beta   90.00000000
_cell_angle_gamma   90.04096690
_symmetry_Int_Tables_number   1
_chemical_formula_structural   Sc4Ti2Be4Ir7Rh3
_chemical_formula_sum   'Sc4 Ti2 Be4 Ir7 Rh3'
_cell_volume   283.24965099
_cell_formula_units_Z   1
loop_
 _symmetry_equiv_pos_site_id
 _symmetry_equiv_pos_as_xyz
  1  'x, y, z'
loop_
 _atom_site_type_symbol
 _atom_site_label
 _atom_site_symmetry_multiplicity
 _atom_site_fract_x
 _atom_site_fract_y
 _atom_site_fract_z
 _atom_site_occupancy
  Sc  Sc0  1  0.675695  0.175678  0.000000  1
  Sc  Sc1  1  0.325012  0.823342  0.000000  1
  Sc  Sc2  1  0.175755  0.325237  0.000000  1
  Sc  Sc3  1  0.824421  0.675540  0.000000  1
  Ti  Ti4  1  0.000399  0.000213  0.000000  1
  Ti  Ti5  1  0.499987  0.499809  0.000000  1
  Be  Be6  1  0.122256  0.622452  0.000000  1
  Be  Be7  1  0.877543  0.377488  0.000000  1
  Be  Be8  1  0.622308  0.877613  0.000000  1
  Be  Be9  1  0.377250  0.122469  0.000000  1
  Ir  Ir10  1  0.789156  0.931010  0.500000  1
  Ir  Ir11  1  0.069037  0.789047  0.500000  1
  Ir  Ir12  1  0.711023  0.431054  0.500000  1
  Ir  Ir13  1  0.930952  0.210894  0.500000  1
  Ir  Ir14  1  0.288830  0.569184  0.500000  1
  Ir  Ir15  1  0.569048  0.711180  0.500000  1
  Ir  Ir16  1  0.430555  0.288673  0.500000  1
  Rh  Rh17  1  0.210966  0.069211  0.500000  1
  Rh  Rh18  1  0.499751  0.000104  0.500000  1
  Rh  Rh19  1  0.000053  0.499803  0.500000  1
