# generated using pymatgen
data_Ba15(SnAs6)2
_symmetry_space_group_name_H-M   'P 1'
_cell_length_a   10.12786278
_cell_length_b   10.12786272
_cell_length_c   10.12786171
_cell_angle_alpha   88.11142993
_cell_angle_beta   88.11143318
_cell_angle_gamma   88.11142845
_symmetry_Int_Tables_number   1
_chemical_formula_structural   Ba15(SnAs6)2
_chemical_formula_sum   'Ba15 Sn2 As12'
_cell_volume   1037.19471845
_cell_formula_units_Z   1
loop_
 _symmetry_equiv_pos_site_id
 _symmetry_equiv_pos_as_xyz
  1  'x, y, z'
loop_
 _atom_site_type_symbol
 _atom_site_label
 _atom_site_symmetry_multiplicity
 _atom_site_fract_x
 _atom_site_fract_y
 _atom_site_fract_z
 _atom_site_occupancy
  Ba  Ba0  1  0.408715  0.285797  0.776899  1
  Ba  Ba1  1  0.776899  0.408715  0.285797  1
  Ba  Ba2  1  0.285797  0.776899  0.408715  1
  Ba  Ba3  1  0.023341  0.527103  0.659943  1
  Ba  Ba4  1  0.659943  0.023341  0.527103  1
  Ba  Ba5  1  0.527103  0.659943  0.023341  1
  Ba  Ba6  1  0.165760  0.536041  0.030372  1
  Ba  Ba7  1  0.030372  0.165760  0.536041  1
  Ba  Ba8  1  0.536041  0.030372  0.165760  1
  Ba  Ba9  1  0.775597  0.296829  0.918268  1
  Ba  Ba10  1  0.918268  0.775597  0.296829  1
  Ba  Ba11  1  0.296829  0.918268  0.775597  1
  Ba  Ba12  1  0.165459  0.165459  0.165459  1
  Ba  Ba13  1  0.394682  0.394682  0.394682  1
  Ba  Ba14  1  0.950427  0.950427  0.950427  1
  Sn  Sn15  1  0.761112  0.761112  0.761112  1
  Sn  Sn16  1  0.599335  0.599335  0.599335  1
  As  As17  1  0.705193  0.351897  0.600145  1
  As  As18  1  0.600145  0.705193  0.351897  1
  As  As19  1  0.351897  0.600145  0.705193  1
  As  As20  1  0.619238  0.971768  0.853318  1
  As  As21  1  0.853318  0.619238  0.971768  1
  As  As22  1  0.971768  0.853318  0.619238  1
  As  As23  1  0.471402  0.343318  0.086057  1
  As  As24  1  0.086057  0.471402  0.343318  1
  As  As25  1  0.343318  0.086057  0.471402  1
  As  As26  1  0.094211  0.236326  0.846178  1
  As  As27  1  0.846178  0.094211  0.236326  1
  As  As28  1  0.236326  0.846178  0.094211  1
