# generated using pymatgen
data_K4Li2ErInSb4
_symmetry_space_group_name_H-M   'P 1'
_cell_length_a   9.61245026
_cell_length_b   9.61245007
_cell_length_c   9.61244995
_cell_angle_alpha   137.39525053
_cell_angle_beta   61.78118542
_cell_angle_gamma   137.45946824
_symmetry_Int_Tables_number   1
_chemical_formula_structural   K4Li2ErInSb4
_chemical_formula_sum   'K4 Li2 Er1 In1 Sb4'
_cell_volume   401.79722389
_cell_formula_units_Z   1
loop_
 _symmetry_equiv_pos_site_id
 _symmetry_equiv_pos_as_xyz
  1  'x, y, z'
loop_
 _atom_site_type_symbol
 _atom_site_label
 _atom_site_symmetry_multiplicity
 _atom_site_fract_x
 _atom_site_fract_y
 _atom_site_fract_z
 _atom_site_occupancy
  K  K0  1  0.821548  0.255190  0.086896  1
  K  K1  1  0.678453  0.765349  0.433643  1
  K  K2  1  0.331706  0.244810  0.566358  1
  K  K3  1  0.168294  0.734652  0.913104  1
  Li  Li4  1  0.750000  0.250000  0.500000  1
  Li  Li5  1  0.250000  0.750001  0.500000  1
  Er  Er6  1  0.250000  0.250000  0.000000  1
  In  In7  1  0.749999  0.749999  0.000000  1
  Sb  Sb8  1  0.401468  0.749638  0.146252  1
  Sb  Sb9  1  0.098532  0.244784  0.348169  1
  Sb  Sb10  1  0.896616  0.750364  0.651831  1
  Sb  Sb11  1  0.603384  0.255216  0.853748  1
