# generated using pymatgen
data_Tb11Dy9(Bi2Os)4
_symmetry_space_group_name_H-M   'P 1'
_cell_length_a   7.99854757
_cell_length_b   9.05972400
_cell_length_c   12.54274909
_cell_angle_alpha   90.00000000
_cell_angle_beta   89.97137127
_cell_angle_gamma   90.00000000
_symmetry_Int_Tables_number   1
_chemical_formula_structural   Tb11Dy9(Bi2Os)4
_chemical_formula_sum   'Tb11 Dy9 Bi8 Os4'
_cell_volume   908.90560123
_cell_formula_units_Z   1
loop_
 _symmetry_equiv_pos_site_id
 _symmetry_equiv_pos_as_xyz
  1  'x, y, z'
loop_
 _atom_site_type_symbol
 _atom_site_label
 _atom_site_symmetry_multiplicity
 _atom_site_fract_x
 _atom_site_fract_y
 _atom_site_fract_z
 _atom_site_occupancy
  Tb  Tb0  1  0.157779  0.250000  0.208234  1
  Tb  Tb1  1  0.341956  0.250000  0.708370  1
  Tb  Tb2  1  0.657889  0.750000  0.291654  1
  Tb  Tb3  1  0.375246  0.750000  0.692659  1
  Tb  Tb4  1  0.624894  0.250000  0.307435  1
  Tb  Tb5  1  0.875156  0.250000  0.807368  1
  Tb  Tb6  1  0.124916  0.750000  0.192661  1
  Tb  Tb7  1  0.942541  0.750000  0.504685  1
  Tb  Tb8  1  0.057112  0.250000  0.495567  1
  Tb  Tb9  1  0.442811  0.250000  0.995226  1
  Tb  Tb10  1  0.557622  0.750000  0.004475  1
  Dy  Dy11  1  0.842388  0.750000  0.792076  1
  Dy  Dy12  1  0.674247  0.042227  0.563897  1
  Dy  Dy13  1  0.325722  0.957756  0.436200  1
  Dy  Dy14  1  0.174174  0.957491  0.935993  1
  Dy  Dy15  1  0.325722  0.542244  0.436200  1
  Dy  Dy16  1  0.825722  0.042243  0.063752  1
  Dy  Dy17  1  0.674247  0.457773  0.563897  1
  Dy  Dy18  1  0.825722  0.457757  0.063752  1
  Dy  Dy19  1  0.174174  0.542509  0.935993  1
  Bi  Bi20  1  0.569506  0.494083  0.827741  1
  Bi  Bi21  1  0.430913  0.506140  0.172062  1
  Bi  Bi22  1  0.068682  0.506530  0.672277  1
  Bi  Bi23  1  0.430913  0.993860  0.172062  1
  Bi  Bi24  1  0.930933  0.493791  0.327979  1
  Bi  Bi25  1  0.569506  0.005917  0.827741  1
  Bi  Bi26  1  0.930933  0.006209  0.327979  1
  Bi  Bi27  1  0.068682  0.993470  0.672277  1
  Os  Os28  1  0.574932  0.750000  0.510630  1
  Os  Os29  1  0.424934  0.250000  0.489436  1
  Os  Os30  1  0.075174  0.250000  0.989210  1
  Os  Os31  1  0.924855  0.750000  0.010512  1
