# generated using pymatgen
data_LiLa(PRh)2
_symmetry_space_group_name_H-M   'P 1'
_cell_length_a   4.10006900
_cell_length_b   4.10006933
_cell_length_c   6.81535200
_cell_angle_alpha   90.00000000
_cell_angle_beta   90.00000000
_cell_angle_gamma   120.00000543
_symmetry_Int_Tables_number   1
_chemical_formula_structural   LiLa(PRh)2
_chemical_formula_sum   'Li1 La1 P2 Rh2'
_cell_volume   99.22046655
_cell_formula_units_Z   1
loop_
 _symmetry_equiv_pos_site_id
 _symmetry_equiv_pos_as_xyz
  1  'x, y, z'
loop_
 _atom_site_type_symbol
 _atom_site_label
 _atom_site_symmetry_multiplicity
 _atom_site_fract_x
 _atom_site_fract_y
 _atom_site_fract_z
 _atom_site_occupancy
  Li  Li0  1  0.000000  0.000000  0.500000  1
  La  La1  1  0.000000  0.000000  0.000000  1
  P  P2  1  0.333333  0.666667  0.283014  1
  P  P3  1  0.666667  0.333333  0.716986  1
  Rh  Rh4  1  0.666667  0.333333  0.365386  1
  Rh  Rh5  1  0.333333  0.666667  0.634614  1
