# generated using pymatgen
data_Yb2Zn14Ir3
_symmetry_space_group_name_H-M   'P 1'
_cell_length_a   6.82741866
_cell_length_b   6.82741872
_cell_length_c   6.82741722
_cell_angle_alpha   82.71178747
_cell_angle_beta   82.71178997
_cell_angle_gamma   82.71179486
_symmetry_Int_Tables_number   1
_chemical_formula_structural   Yb2Zn14Ir3
_chemical_formula_sum   'Yb2 Zn14 Ir3'
_cell_volume   311.13839320
_cell_formula_units_Z   1
loop_
 _symmetry_equiv_pos_site_id
 _symmetry_equiv_pos_as_xyz
  1  'x, y, z'
loop_
 _atom_site_type_symbol
 _atom_site_label
 _atom_site_symmetry_multiplicity
 _atom_site_fract_x
 _atom_site_fract_y
 _atom_site_fract_z
 _atom_site_occupancy
  Yb  Yb0  1  0.674187  0.674187  0.674187  1
  Yb  Yb1  1  0.325813  0.325813  0.325813  1
  Zn  Zn2  1  0.353106  0.353106  0.842913  1
  Zn  Zn3  1  0.842913  0.353106  0.353106  1
  Zn  Zn4  1  0.102998  0.102998  0.102998  1
  Zn  Zn5  1  0.897002  0.897002  0.897002  1
  Zn  Zn6  1  0.294734  0.705266  0.000000  1
  Zn  Zn7  1  0.705266  0.000000  0.294734  1
  Zn  Zn8  1  0.000000  0.294734  0.705266  1
  Zn  Zn9  1  0.705266  0.294734  0.000000  1
  Zn  Zn10  1  0.294734  0.000000  0.705266  1
  Zn  Zn11  1  0.000000  0.705266  0.294734  1
  Zn  Zn12  1  0.157087  0.646894  0.646894  1
  Zn  Zn13  1  0.646894  0.646894  0.157087  1
  Zn  Zn14  1  0.646894  0.157087  0.646894  1
  Zn  Zn15  1  0.353106  0.842913  0.353106  1
  Ir  Ir16  1  0.000000  0.000000  0.500000  1
  Ir  Ir17  1  0.000000  0.500000  0.000000  1
  Ir  Ir18  1  0.500000  0.000000  0.000000  1
