# generated using pymatgen
data_La3Zn2Cu7Ni6
_symmetry_space_group_name_H-M   'P 1'
_cell_length_a   8.87293328
_cell_length_b   8.87293281
_cell_length_c   4.05762400
_cell_angle_alpha   90.00000000
_cell_angle_beta   90.00000000
_cell_angle_gamma   119.41264015
_symmetry_Int_Tables_number   1
_chemical_formula_structural   La3Zn2Cu7Ni6
_chemical_formula_sum   'La3 Zn2 Cu7 Ni6'
_cell_volume   278.27677438
_cell_formula_units_Z   1
loop_
 _symmetry_equiv_pos_site_id
 _symmetry_equiv_pos_as_xyz
  1  'x, y, z'
loop_
 _atom_site_type_symbol
 _atom_site_label
 _atom_site_symmetry_multiplicity
 _atom_site_fract_x
 _atom_site_fract_y
 _atom_site_fract_z
 _atom_site_occupancy
  La  La0  1  0.662227  0.337773  0.500000  1
  La  La1  1  0.337773  0.662227  0.500000  1
  La  La2  1  0.000000  0.000000  0.000000  1
  Zn  Zn3  1  0.000000  0.500000  0.000000  1
  Zn  Zn4  1  0.500000  0.000000  0.000000  1
  Cu  Cu5  1  0.500000  0.500000  0.000000  1
  Cu  Cu6  1  0.704048  0.001541  0.500000  1
  Cu  Cu7  1  0.702687  0.702687  0.500000  1
  Cu  Cu8  1  0.998459  0.295952  0.500000  1
  Cu  Cu9  1  0.001541  0.704048  0.500000  1
  Cu  Cu10  1  0.295952  0.998459  0.500000  1
  Cu  Cu11  1  0.297313  0.297313  0.500000  1
  Ni  Ni12  1  0.817517  0.182483  0.000000  1
  Ni  Ni13  1  0.182483  0.817517  0.000000  1
  Ni  Ni14  1  0.640334  0.819568  0.000000  1
  Ni  Ni15  1  0.359666  0.180432  0.000000  1
  Ni  Ni16  1  0.180432  0.359666  0.000000  1
  Ni  Ni17  1  0.819568  0.640334  0.000000  1
