# generated using pymatgen
data_Hf2VSn(SeO3)8
_symmetry_space_group_name_H-M   'P 1'
_cell_length_a   8.49629941
_cell_length_b   8.40926494
_cell_length_c   8.43482408
_cell_angle_alpha   90.05522437
_cell_angle_beta   90.66571371
_cell_angle_gamma   90.17561713
_symmetry_Int_Tables_number   1
_chemical_formula_structural   Hf2VSn(SeO3)8
_chemical_formula_sum   'Hf2 V1 Sn1 Se8 O24'
_cell_volume   602.60440351
_cell_formula_units_Z   1
loop_
 _symmetry_equiv_pos_site_id
 _symmetry_equiv_pos_as_xyz
  1  'x, y, z'
loop_
 _atom_site_type_symbol
 _atom_site_label
 _atom_site_symmetry_multiplicity
 _atom_site_fract_x
 _atom_site_fract_y
 _atom_site_fract_z
 _atom_site_occupancy
  Hf  Hf0  1  0.500000  0.500000  0.000000  1
  Hf  Hf1  1  0.500000  0.000000  0.500000  1
  V  V2  1  0.000000  0.000000  0.000000  1
  Sn  Sn3  1  0.000000  0.500000  0.500000  1
  Se  Se4  1  0.838205  0.183662  0.692271  1
  Se  Se5  1  0.161795  0.816338  0.307729  1
  Se  Se6  1  0.690004  0.669455  0.669978  1
  Se  Se7  1  0.161958  0.692150  0.819398  1
  Se  Se8  1  0.301584  0.171177  0.826209  1
  Se  Se9  1  0.838042  0.307850  0.180602  1
  Se  Se10  1  0.698416  0.828823  0.173791  1
  Se  Se11  1  0.309996  0.330545  0.330022  1
  O  O12  1  0.239498  0.461083  0.473700  1
  O  O13  1  0.960427  0.229246  0.037776  1
  O  O14  1  0.031219  0.741532  0.446859  1
  O  O15  1  0.439763  0.267075  0.942171  1
  O  O16  1  0.274821  0.935746  0.429173  1
  O  O17  1  0.571679  0.538828  0.769732  1
  O  O18  1  0.960281  0.037659  0.772906  1
  O  O19  1  0.560237  0.732925  0.057829  1
  O  O20  1  0.581205  0.962566  0.270396  1
  O  O21  1  0.418795  0.037434  0.729604  1
  O  O22  1  0.778422  0.953837  0.029469  1
  O  O23  1  0.274226  0.571219  0.939171  1
  O  O24  1  0.032539  0.550191  0.740898  1
  O  O25  1  0.039719  0.962341  0.227094  1
  O  O26  1  0.221578  0.046163  0.970531  1
  O  O27  1  0.428321  0.461172  0.230268  1
  O  O28  1  0.760502  0.538917  0.526300  1
  O  O29  1  0.967461  0.449809  0.259102  1
  O  O30  1  0.039573  0.770754  0.962224  1
  O  O31  1  0.449274  0.233676  0.443434  1
  O  O32  1  0.550726  0.766324  0.556566  1
  O  O33  1  0.968781  0.258468  0.553141  1
  O  O34  1  0.725179  0.064254  0.570827  1
  O  O35  1  0.725774  0.428781  0.060829  1
