# generated using pymatgen
data_Zr6Al6Ga3Pt2Rh
_symmetry_space_group_name_H-M   'P 1'
_cell_length_a   6.75044400
_cell_length_b   6.75044401
_cell_length_c   8.16336100
_cell_angle_alpha   90.00000000
_cell_angle_beta   90.00000000
_cell_angle_gamma   119.99999996
_symmetry_Int_Tables_number   1
_chemical_formula_structural   Zr6Al6Ga3Pt2Rh
_chemical_formula_sum   'Zr6 Al6 Ga3 Pt2 Rh1'
_cell_volume   322.15458171
_cell_formula_units_Z   1
loop_
 _symmetry_equiv_pos_site_id
 _symmetry_equiv_pos_as_xyz
  1  'x, y, z'
loop_
 _atom_site_type_symbol
 _atom_site_label
 _atom_site_symmetry_multiplicity
 _atom_site_fract_x
 _atom_site_fract_y
 _atom_site_fract_z
 _atom_site_occupancy
  Zr  Zr0  1  0.001509  0.586670  0.749069  1
  Zr  Zr1  1  0.001638  0.590816  0.250875  1
  Zr  Zr2  1  0.589177  0.998362  0.250875  1
  Zr  Zr3  1  0.585161  0.998491  0.749069  1
  Zr  Zr4  1  0.409184  0.410823  0.250875  1
  Zr  Zr5  1  0.413330  0.414839  0.749069  1
  Al  Al6  1  0.001243  0.241422  0.497341  1
  Al  Al7  1  0.749450  0.758782  0.002794  1
  Al  Al8  1  0.009332  0.250550  0.002794  1
  Al  Al9  1  0.240179  0.998757  0.497341  1
  Al  Al10  1  0.241218  0.990668  0.002794  1
  Al  Al11  1  0.758578  0.759821  0.497341  1
  Ga  Ga12  1  0.333333  0.666667  0.500622  1
  Ga  Ga13  1  0.666667  0.333333  0.500523  1
  Ga  Ga14  1  0.666667  0.333333  0.999322  1
  Pt  Pt15  1  0.000000  0.000000  0.751901  1
  Pt  Pt16  1  0.333333  0.666667  0.998916  1
  Rh  Rh17  1  0.000000  0.000000  0.248476  1
