# generated using pymatgen
data_Tb11Dy(LuRh3)2
_symmetry_space_group_name_H-M   'P 1'
_cell_length_a   9.81614704
_cell_length_b   9.81614675
_cell_length_c   6.16763603
_cell_angle_alpha   89.98989803
_cell_angle_beta   90.01010260
_cell_angle_gamma   120.00271347
_symmetry_Int_Tables_number   1
_chemical_formula_structural   Tb11Dy(LuRh3)2
_chemical_formula_sum   'Tb11 Dy1 Lu2 Rh6'
_cell_volume   514.65901207
_cell_formula_units_Z   1
loop_
 _symmetry_equiv_pos_site_id
 _symmetry_equiv_pos_as_xyz
  1  'x, y, z'
loop_
 _atom_site_type_symbol
 _atom_site_label
 _atom_site_symmetry_multiplicity
 _atom_site_fract_x
 _atom_site_fract_y
 _atom_site_fract_z
 _atom_site_occupancy
  Tb  Tb0  1  0.876044  0.752097  0.741283  1
  Tb  Tb1  1  0.247903  0.123956  0.741283  1
  Tb  Tb2  1  0.876058  0.123942  0.741282  1
  Tb  Tb3  1  0.123966  0.247894  0.241270  1
  Tb  Tb4  1  0.752106  0.876034  0.241270  1
  Tb  Tb5  1  0.123945  0.876055  0.241271  1
  Tb  Tb6  1  0.459028  0.918044  0.546990  1
  Tb  Tb7  1  0.081956  0.540972  0.546990  1
  Tb  Tb8  1  0.459034  0.540966  0.546979  1
  Tb  Tb9  1  0.540982  0.082013  0.047001  1
  Tb  Tb10  1  0.917987  0.459018  0.047001  1
  Dy  Dy11  1  0.541005  0.458995  0.047094  1
  Lu  Lu12  1  0.666651  0.333349  0.533396  1
  Lu  Lu13  1  0.333348  0.666652  0.033438  1
  Rh  Rh14  1  0.190896  0.381726  0.814181  1
  Rh  Rh15  1  0.618274  0.809104  0.814181  1
  Rh  Rh16  1  0.190854  0.809146  0.814172  1
  Rh  Rh17  1  0.809059  0.618241  0.314093  1
  Rh  Rh18  1  0.381759  0.190941  0.314093  1
  Rh  Rh19  1  0.809143  0.190857  0.314169  1
