# generated using pymatgen
data_Li(As2Rh3)2
_symmetry_space_group_name_H-M   'P 1'
_cell_length_a   7.33283000
_cell_length_b   7.33282995
_cell_length_c   3.66009000
_cell_angle_alpha   90.00000000
_cell_angle_beta   90.00000000
_cell_angle_gamma   120.00000024
_symmetry_Int_Tables_number   1
_chemical_formula_structural   Li(As2Rh3)2
_chemical_formula_sum   'Li1 As4 Rh6'
_cell_volume   170.43768453
_cell_formula_units_Z   1
loop_
 _symmetry_equiv_pos_site_id
 _symmetry_equiv_pos_as_xyz
  1  'x, y, z'
loop_
 _atom_site_type_symbol
 _atom_site_label
 _atom_site_symmetry_multiplicity
 _atom_site_fract_x
 _atom_site_fract_y
 _atom_site_fract_z
 _atom_site_occupancy
  Li  Li0  1  0.000000  0.000000  0.500000  1
  As  As1  1  0.666667  0.333333  0.500000  1
  As  As2  1  0.185272  0.370350  0.000000  1
  As  As3  1  0.185078  0.814728  0.000000  1
  As  As4  1  0.629650  0.814922  0.000000  1
  Rh  Rh5  1  0.464084  0.927620  0.500000  1
  Rh  Rh6  1  0.463537  0.535916  0.500000  1
  Rh  Rh7  1  0.072380  0.536463  0.500000  1
  Rh  Rh8  1  0.804026  0.608079  0.000000  1
  Rh  Rh9  1  0.804053  0.195974  0.000000  1
  Rh  Rh10  1  0.391921  0.195947  0.000000  1
