# generated using pymatgen
data_Tb7Nd6Ho3(CdIr)4
_symmetry_space_group_name_H-M   'P 1'
_cell_length_a   9.76602996
_cell_length_b   9.76033467
_cell_length_c   9.76193056
_cell_angle_alpha   60.03319047
_cell_angle_beta   60.03013888
_cell_angle_gamma   59.99150987
_symmetry_Int_Tables_number   1
_chemical_formula_structural   Tb7Nd6Ho3(CdIr)4
_chemical_formula_sum   'Tb7 Nd6 Ho3 Cd4 Ir4'
_cell_volume   658.23848309
_cell_formula_units_Z   1
loop_
 _symmetry_equiv_pos_site_id
 _symmetry_equiv_pos_as_xyz
  1  'x, y, z'
loop_
 _atom_site_type_symbol
 _atom_site_label
 _atom_site_symmetry_multiplicity
 _atom_site_fract_x
 _atom_site_fract_y
 _atom_site_fract_z
 _atom_site_occupancy
  Tb  Tb0  1  0.347686  0.347676  0.348348  1
  Tb  Tb1  1  0.348783  0.347767  0.955090  1
  Tb  Tb2  1  0.348348  0.956288  0.347686  1
  Tb  Tb3  1  0.955090  0.348358  0.348783  1
  Tb  Tb4  1  0.811864  0.188295  0.187261  1
  Tb  Tb5  1  0.187261  0.812580  0.811864  1
  Tb  Tb6  1  0.188089  0.811911  0.188089  1
  Nd  Nd7  1  0.940871  0.559200  0.558778  1
  Nd  Nd8  1  0.558778  0.941151  0.940871  1
  Nd  Nd9  1  0.559390  0.940610  0.559390  1
  Nd  Nd10  1  0.941257  0.558743  0.941257  1
  Nd  Nd11  1  0.558746  0.559152  0.941008  1
  Nd  Nd12  1  0.941008  0.941094  0.558746  1
  Ho  Ho13  1  0.812067  0.187933  0.812067  1
  Ho  Ho14  1  0.187680  0.188656  0.811453  1
  Ho  Ho15  1  0.811453  0.812212  0.187680  1
  Cd  Cd16  1  0.579811  0.579466  0.579545  1
  Cd  Cd17  1  0.579945  0.579762  0.260781  1
  Cd  Cd18  1  0.579545  0.261178  0.579811  1
  Cd  Cd19  1  0.260781  0.579512  0.579945  1
  Ir  Ir20  1  0.141848  0.140682  0.141118  1
  Ir  Ir21  1  0.141378  0.141209  0.577201  1
  Ir  Ir22  1  0.141118  0.576351  0.141848  1
  Ir  Ir23  1  0.577201  0.140211  0.141378  1
