# generated using pymatgen
data_ErCr2(MoC2)2
_symmetry_space_group_name_H-M   'P 1'
_cell_length_a   5.73451899
_cell_length_b   5.73451908
_cell_length_c   6.12178763
_cell_angle_alpha   93.34043119
_cell_angle_beta   95.15270873
_cell_angle_gamma   147.34351731
_symmetry_Int_Tables_number   1
_chemical_formula_structural   ErCr2(MoC2)2
_chemical_formula_sum   'Er1 Cr2 Mo2 C4'
_cell_volume   104.77889968
_cell_formula_units_Z   1
loop_
 _symmetry_equiv_pos_site_id
 _symmetry_equiv_pos_as_xyz
  1  'x, y, z'
loop_
 _atom_site_type_symbol
 _atom_site_label
 _atom_site_symmetry_multiplicity
 _atom_site_fract_x
 _atom_site_fract_y
 _atom_site_fract_z
 _atom_site_occupancy
  Er  Er0  1  0.000000  0.000000  0.000000  1
  Cr  Cr1  1  0.640067  0.188448  0.828515  1
  Cr  Cr2  1  0.359933  0.811552  0.171485  1
  Mo  Mo3  1  0.832351  0.625565  0.457915  1
  Mo  Mo4  1  0.167649  0.374435  0.542085  1
  C  C5  1  0.257775  0.606794  0.864570  1
  C  C6  1  0.742225  0.393206  0.135430  1
  C  C7  1  0.587624  0.731429  0.319053  1
  C  C8  1  0.412376  0.268571  0.680947  1
