# generated using pymatgen
data_CeY3(Nb3Si4)2
_symmetry_space_group_name_H-M   'P 1'
_cell_length_a   7.07854823
_cell_length_b   7.08198723
_cell_length_c   13.10523500
_cell_angle_alpha   90.00000000
_cell_angle_beta   90.00000000
_cell_angle_gamma   90.09103859
_symmetry_Int_Tables_number   1
_chemical_formula_structural   CeY3(Nb3Si4)2
_chemical_formula_sum   'Ce2 Y6 Nb12 Si16'
_cell_volume   656.96706809
_cell_formula_units_Z   2
loop_
 _symmetry_equiv_pos_site_id
 _symmetry_equiv_pos_as_xyz
  1  'x, y, z'
loop_
 _atom_site_type_symbol
 _atom_site_label
 _atom_site_symmetry_multiplicity
 _atom_site_fract_x
 _atom_site_fract_y
 _atom_site_fract_z
 _atom_site_occupancy
  Ce  Ce0  1  0.339405  0.996165  0.782771  1
  Ce  Ce1  1  0.660595  0.003835  0.282771  1
  Y  Y2  1  0.997533  0.340204  0.217401  1
  Y  Y3  1  0.002467  0.659796  0.717401  1
  Y  Y4  1  0.159317  0.499057  0.467772  1
  Y  Y5  1  0.500173  0.840495  0.032166  1
  Y  Y6  1  0.840683  0.500943  0.967772  1
  Y  Y7  1  0.499827  0.159505  0.532166  1
  Nb  Nb8  1  0.170979  0.169860  0.999333  1
  Nb  Nb9  1  0.829021  0.830140  0.499333  1
  Nb  Nb10  1  0.330741  0.672143  0.250827  1
  Nb  Nb11  1  0.669259  0.327857  0.750827  1
  Nb  Nb12  1  0.154306  0.991869  0.375179  1
  Nb  Nb13  1  0.845694  0.008131  0.875179  1
  Nb  Nb14  1  0.507431  0.655127  0.625655  1
  Nb  Nb15  1  0.346361  0.493142  0.874304  1
  Nb  Nb16  1  0.492569  0.344873  0.125655  1
  Nb  Nb17  1  0.653639  0.506858  0.374304  1
  Nb  Nb18  1  0.994462  0.154731  0.624496  1
  Nb  Nb19  1  0.005538  0.845269  0.124496  1
  Si  Si20  1  0.291054  0.044529  0.185276  1
  Si  Si21  1  0.708946  0.955471  0.685276  1
  Si  Si22  1  0.454609  0.792953  0.437415  1
  Si  Si23  1  0.206124  0.544150  0.064078  1
  Si  Si24  1  0.545391  0.207047  0.937415  1
  Si  Si25  1  0.793876  0.455850  0.564078  1
  Si  Si26  1  0.044142  0.295537  0.813544  1
  Si  Si27  1  0.955858  0.704463  0.313544  1
  Si  Si28  1  0.366278  0.296814  0.316984  1
  Si  Si29  1  0.633722  0.703186  0.816984  1
  Si  Si30  1  0.204049  0.867988  0.566310  1
  Si  Si31  1  0.130184  0.794077  0.934361  1
  Si  Si32  1  0.795951  0.132012  0.066310  1
  Si  Si33  1  0.869816  0.205923  0.434361  1
  Si  Si34  1  0.296494  0.369163  0.682127  1
  Si  Si35  1  0.703506  0.630837  0.182127  1
