# generated using pymatgen
data_CaB3W
_symmetry_space_group_name_H-M   'P 1'
_cell_length_a   6.94266228
_cell_length_b   3.09656400
_cell_length_c   5.51000885
_cell_angle_alpha   90.00000000
_cell_angle_beta   102.78668189
_cell_angle_gamma   90.00000000
_symmetry_Int_Tables_number   1
_chemical_formula_structural   CaB3W
_chemical_formula_sum   'Ca2 B6 W2'
_cell_volume   115.51874364
_cell_formula_units_Z   2
loop_
 _symmetry_equiv_pos_site_id
 _symmetry_equiv_pos_as_xyz
  1  'x, y, z'
loop_
 _atom_site_type_symbol
 _atom_site_label
 _atom_site_symmetry_multiplicity
 _atom_site_fract_x
 _atom_site_fract_y
 _atom_site_fract_z
 _atom_site_occupancy
  Ca  Ca0  1  0.706324  0.750001  0.169211  1
  Ca  Ca1  1  0.293671  0.250001  0.830790  1
  B  B2  1  0.990423  0.250001  0.083563  1
  B  B3  1  0.990637  0.250001  0.410942  1
  B  B4  1  0.467280  0.250001  0.431979  1
  B  B5  1  0.532686  0.750001  0.568004  1
  B  B6  1  0.009377  0.750001  0.589009  1
  B  B7  1  0.009587  0.750001  0.916490  1
  W  W8  1  0.216551  0.750001  0.314441  1
  W  W9  1  0.783466  0.250001  0.685569  1
