# generated using pymatgen
data_Lu2Nb3Ni9As7
_symmetry_space_group_name_H-M   'P 1'
_cell_length_a   9.61703500
_cell_length_b   9.61703531
_cell_length_c   3.80561900
_cell_angle_alpha   90.00000000
_cell_angle_beta   90.00000000
_cell_angle_gamma   120.00000464
_symmetry_Int_Tables_number   1
_chemical_formula_structural   Lu2Nb3Ni9As7
_chemical_formula_sum   'Lu2 Nb3 Ni9 As7'
_cell_volume   304.81639705
_cell_formula_units_Z   1
loop_
 _symmetry_equiv_pos_site_id
 _symmetry_equiv_pos_as_xyz
  1  'x, y, z'
loop_
 _atom_site_type_symbol
 _atom_site_label
 _atom_site_symmetry_multiplicity
 _atom_site_fract_x
 _atom_site_fract_y
 _atom_site_fract_z
 _atom_site_occupancy
  Lu  Lu0  1  0.333333  0.666667  0.000000  1
  Lu  Lu1  1  0.666667  0.333333  0.500000  1
  Nb  Nb2  1  0.224304  0.117610  0.500000  1
  Nb  Nb3  1  0.882390  0.106692  0.500000  1
  Nb  Nb4  1  0.893308  0.775696  0.500000  1
  Ni  Ni5  1  0.130248  0.285866  0.000000  1
  Ni  Ni6  1  0.714134  0.844383  0.000000  1
  Ni  Ni7  1  0.155617  0.869752  0.000000  1
  Ni  Ni8  1  0.430965  0.364581  0.000000  1
  Ni  Ni9  1  0.635419  0.066384  0.000000  1
  Ni  Ni10  1  0.933616  0.569035  0.000000  1
  Ni  Ni11  1  0.061573  0.441247  0.500000  1
  Ni  Ni12  1  0.558753  0.620326  0.500000  1
  Ni  Ni13  1  0.379674  0.938427  0.500000  1
  As  As14  1  0.294212  0.414467  0.500000  1
  As  As15  1  0.585533  0.879745  0.500000  1
  As  As16  1  0.120255  0.705788  0.500000  1
  As  As17  1  0.419551  0.113182  0.000000  1
  As  As18  1  0.886818  0.306367  0.000000  1
  As  As19  1  0.693633  0.580449  0.000000  1
  As  As20  1  0.000000  0.000000  0.000000  1
