# generated using pymatgen
data_Ba4Al3CrH20
_symmetry_space_group_name_H-M   'P 1'
_cell_length_a   5.10733710
_cell_length_b   7.08565856
_cell_length_c   9.26030869
_cell_angle_alpha   90.18757600
_cell_angle_beta   90.07996127
_cell_angle_gamma   90.06492879
_symmetry_Int_Tables_number   1
_chemical_formula_structural   Ba4Al3CrH20
_chemical_formula_sum   'Ba4 Al3 Cr1 H20'
_cell_volume   335.11755428
_cell_formula_units_Z   1
loop_
 _symmetry_equiv_pos_site_id
 _symmetry_equiv_pos_as_xyz
  1  'x, y, z'
loop_
 _atom_site_type_symbol
 _atom_site_label
 _atom_site_symmetry_multiplicity
 _atom_site_fract_x
 _atom_site_fract_y
 _atom_site_fract_z
 _atom_site_occupancy
  Ba  Ba0  1  0.254473  0.345918  0.187739  1
  Ba  Ba1  1  0.749604  0.655710  0.814322  1
  Ba  Ba2  1  0.749014  0.847164  0.310789  1
  Ba  Ba3  1  0.253256  0.153290  0.687300  1
  Al  Al4  1  0.734904  0.346423  0.459637  1
  Al  Al5  1  0.728424  0.154232  0.959412  1
  Al  Al6  1  0.227409  0.844639  0.042244  1
  Cr  Cr7  1  0.227406  0.647461  0.538726  1
  H  H8  1  0.918849  0.556928  0.508533  1
  H  H9  1  0.408898  0.452829  0.492694  1
  H  H10  1  0.410611  0.050600  0.993342  1
  H  H11  1  0.906090  0.948109  0.008121  1
  H  H12  1  0.020951  0.656878  0.085634  1
  H  H13  1  0.523474  0.342486  0.915920  1
  H  H14  1  0.518775  0.165678  0.417037  1
  H  H15  1  0.031128  0.837569  0.577751  1
  H  H16  1  0.500424  0.710839  0.079758  1
  H  H17  1  0.002217  0.287209  0.921718  1
  H  H18  1  0.000378  0.207335  0.422251  1
  H  H19  1  0.489473  0.792284  0.574960  1
  H  H20  1  0.232050  0.801017  0.862495  1
  H  H21  1  0.734902  0.199223  0.140651  1
  H  H22  1  0.734374  0.307089  0.639838  1
  H  H23  1  0.238382  0.691368  0.357152  1
  H  H24  1  0.214522  0.955926  0.206196  1
  H  H25  1  0.715028  0.044755  0.793201  1
  H  H26  1  0.720554  0.455721  0.297023  1
  H  H27  1  0.222430  0.541320  0.705553  1
