# generated using pymatgen
data_Pr4NdSi2Hg
_symmetry_space_group_name_H-M   'P 1'
_cell_length_a   7.81230345
_cell_length_b   7.81230372
_cell_length_c   9.35733643
_cell_angle_alpha   114.67324623
_cell_angle_beta   114.67324290
_cell_angle_gamma   90.00000634
_symmetry_Int_Tables_number   1
_chemical_formula_structural   Pr4NdSi2Hg
_chemical_formula_sum   'Pr8 Nd2 Si4 Hg2'
_cell_volume   460.95869843
_cell_formula_units_Z   2
loop_
 _symmetry_equiv_pos_site_id
 _symmetry_equiv_pos_as_xyz
  1  'x, y, z'
loop_
 _atom_site_type_symbol
 _atom_site_label
 _atom_site_symmetry_multiplicity
 _atom_site_fract_x
 _atom_site_fract_y
 _atom_site_fract_z
 _atom_site_occupancy
  Pr  Pr0  1  0.963272  0.814475  0.277748  1
  Pr  Pr1  1  0.314475  0.463272  0.277748  1
  Pr  Pr2  1  0.814475  0.314475  0.277748  1
  Pr  Pr3  1  0.463272  0.963272  0.277748  1
  Pr  Pr4  1  0.036728  0.185525  0.722252  1
  Pr  Pr5  1  0.685525  0.536728  0.722252  1
  Pr  Pr6  1  0.185525  0.685525  0.722252  1
  Pr  Pr7  1  0.536728  0.036728  0.722252  1
  Nd  Nd8  1  0.500000  0.500000  0.000000  1
  Nd  Nd9  1  0.000000  0.000000  0.000000  1
  Si  Si10  1  0.614938  0.885062  0.000000  1
  Si  Si11  1  0.385062  0.114938  0.000000  1
  Si  Si12  1  0.885062  0.385062  0.000000  1
  Si  Si13  1  0.114938  0.614938  0.000000  1
  Hg  Hg14  1  0.750000  0.750000  0.500000  1
  Hg  Hg15  1  0.250000  0.250000  0.500000  1
