# generated using pymatgen
data_YTm(Fe4B)2
_symmetry_space_group_name_H-M   'P 1'
_cell_length_a   5.04560800
_cell_length_b   5.04608717
_cell_length_c   7.03091100
_cell_angle_alpha   90.00000000
_cell_angle_beta   90.00000000
_cell_angle_gamma   119.99685881
_symmetry_Int_Tables_number   1
_chemical_formula_structural   YTm(Fe4B)2
_chemical_formula_sum   'Y1 Tm1 Fe8 B2'
_cell_volume   155.03302944
_cell_formula_units_Z   1
loop_
 _symmetry_equiv_pos_site_id
 _symmetry_equiv_pos_as_xyz
  1  'x, y, z'
loop_
 _atom_site_type_symbol
 _atom_site_label
 _atom_site_symmetry_multiplicity
 _atom_site_fract_x
 _atom_site_fract_y
 _atom_site_fract_z
 _atom_site_occupancy
  Y  Y0  1  0.999977  0.000000  0.000000  1
  Tm  Tm1  1  0.999985  0.000000  0.500000  1
  Fe  Fe2  1  0.333288  0.666614  0.000000  1
  Fe  Fe3  1  0.666674  0.333386  0.000000  1
  Fe  Fe4  1  0.499983  0.000000  0.286816  1
  Fe  Fe5  1  0.499985  0.500000  0.286851  1
  Fe  Fe6  1  0.999985  0.500000  0.286851  1
  Fe  Fe7  1  0.499983  0.000000  0.713184  1
  Fe  Fe8  1  0.499985  0.500000  0.713149  1
  Fe  Fe9  1  0.999985  0.500000  0.713149  1
  B  B10  1  0.333330  0.666689  0.500000  1
  B  B11  1  0.666640  0.333311  0.500000  1
