# generated using pymatgen
data_Dy3ThMgOs
_symmetry_space_group_name_H-M   'P 1'
_cell_length_a   9.79065306
_cell_length_b   9.79065266
_cell_length_c   9.79065200
_cell_angle_alpha   59.99999547
_cell_angle_beta   59.99999683
_cell_angle_gamma   59.99999652
_symmetry_Int_Tables_number   1
_chemical_formula_structural   Dy3ThMgOs
_chemical_formula_sum   'Dy12 Th4 Mg4 Os4'
_cell_volume   663.62063907
_cell_formula_units_Z   4
loop_
 _symmetry_equiv_pos_site_id
 _symmetry_equiv_pos_as_xyz
  1  'x, y, z'
loop_
 _atom_site_type_symbol
 _atom_site_label
 _atom_site_symmetry_multiplicity
 _atom_site_fract_x
 _atom_site_fract_y
 _atom_site_fract_z
 _atom_site_occupancy
  Dy  Dy0  1  0.812905  0.187095  0.187095  1
  Dy  Dy1  1  0.187095  0.812905  0.812905  1
  Dy  Dy2  1  0.187095  0.812905  0.187095  1
  Dy  Dy3  1  0.812905  0.187095  0.812905  1
  Dy  Dy4  1  0.187095  0.187095  0.812905  1
  Dy  Dy5  1  0.812905  0.812905  0.187095  1
  Dy  Dy6  1  0.936738  0.563262  0.563262  1
  Dy  Dy7  1  0.563262  0.936738  0.936738  1
  Dy  Dy8  1  0.563262  0.936738  0.563262  1
  Dy  Dy9  1  0.936738  0.563262  0.936738  1
  Dy  Dy10  1  0.563262  0.563262  0.936738  1
  Dy  Dy11  1  0.936738  0.936738  0.563262  1
  Th  Th12  1  0.346191  0.346191  0.346191  1
  Th  Th13  1  0.346191  0.346191  0.961426  1
  Th  Th14  1  0.346191  0.961426  0.346191  1
  Th  Th15  1  0.961426  0.346191  0.346191  1
  Mg  Mg16  1  0.580069  0.580069  0.580069  1
  Mg  Mg17  1  0.580069  0.580069  0.259794  1
  Mg  Mg18  1  0.580069  0.259794  0.580069  1
  Mg  Mg19  1  0.259794  0.580069  0.580069  1
  Os  Os20  1  0.142171  0.142171  0.142171  1
  Os  Os21  1  0.142171  0.142171  0.573486  1
  Os  Os22  1  0.142171  0.573486  0.142171  1
  Os  Os23  1  0.573486  0.142171  0.142171  1
