# generated using pymatgen
data_Pu2Ga3Au
_symmetry_space_group_name_H-M   'P 1'
_cell_length_a   5.50898857
_cell_length_b   5.59460397
_cell_length_c   5.59460400
_cell_angle_alpha   59.99999980
_cell_angle_beta   59.48456091
_cell_angle_gamma   59.48457254
_symmetry_Int_Tables_number   1
_chemical_formula_structural   Pu2Ga3Au
_chemical_formula_sum   'Pu2 Ga3 Au1'
_cell_volume   120.96724255
_cell_formula_units_Z   1
loop_
 _symmetry_equiv_pos_site_id
 _symmetry_equiv_pos_as_xyz
  1  'x, y, z'
loop_
 _atom_site_type_symbol
 _atom_site_label
 _atom_site_symmetry_multiplicity
 _atom_site_fract_x
 _atom_site_fract_y
 _atom_site_fract_z
 _atom_site_occupancy
  Pu  Pu0  1  0.267522  0.244159  0.244159  1
  Pu  Pu1  1  0.982478  0.005841  0.005841  1
  Ga  Ga2  1  0.625000  0.125000  0.625000  1
  Ga  Ga3  1  0.625000  0.625000  0.125000  1
  Ga  Ga4  1  0.625000  0.625000  0.625000  1
  Au  Au5  1  0.125000  0.625000  0.625000  1
