# generated using pymatgen
data_LaY6Er(CdNi)2
_symmetry_space_group_name_H-M   'P 1'
_cell_length_a   9.63132497
_cell_length_b   9.63132509
_cell_length_c   9.62690800
_cell_angle_alpha   60.01516976
_cell_angle_beta   60.01516936
_cell_angle_gamma   60.14220342
_symmetry_Int_Tables_number   1
_chemical_formula_structural   LaY6Er(CdNi)2
_chemical_formula_sum   'La2 Y12 Er2 Cd4 Ni4'
_cell_volume   632.27821939
_cell_formula_units_Z   2
loop_
 _symmetry_equiv_pos_site_id
 _symmetry_equiv_pos_as_xyz
  1  'x, y, z'
loop_
 _atom_site_type_symbol
 _atom_site_label
 _atom_site_symmetry_multiplicity
 _atom_site_fract_x
 _atom_site_fract_y
 _atom_site_fract_z
 _atom_site_occupancy
  La  La0  1  0.595956  0.595956  0.601183  1
  La  La1  1  0.595956  0.595956  0.206903  1
  Y  Y2  1  0.063975  0.439049  0.436395  1
  Y  Y3  1  0.439049  0.063975  0.060579  1
  Y  Y4  1  0.439049  0.063975  0.436395  1
  Y  Y5  1  0.063975  0.439049  0.060579  1
  Y  Y6  1  0.437400  0.437400  0.062600  1
  Y  Y7  1  0.061856  0.061856  0.438144  1
  Y  Y8  1  0.186290  0.814788  0.814568  1
  Y  Y9  1  0.814788  0.186290  0.184355  1
  Y  Y10  1  0.814788  0.186290  0.814568  1
  Y  Y11  1  0.186290  0.814788  0.184355  1
  Y  Y12  1  0.815151  0.815151  0.184849  1
  Y  Y13  1  0.187082  0.187082  0.812918  1
  Er  Er14  1  0.599621  0.198594  0.600893  1
  Er  Er15  1  0.198594  0.599621  0.600893  1
  Cd  Cd16  1  0.833334  0.833334  0.827312  1
  Cd  Cd17  1  0.833334  0.833334  0.506017  1
  Cd  Cd18  1  0.835215  0.504469  0.830158  1
  Cd  Cd19  1  0.504469  0.835215  0.830158  1
  Ni  Ni20  1  0.390602  0.390602  0.398409  1
  Ni  Ni21  1  0.390602  0.390602  0.820388  1
  Ni  Ni22  1  0.388206  0.824419  0.393688  1
  Ni  Ni23  1  0.824419  0.388206  0.393688  1
