# generated using pymatgen
data_Ho12Co6Bi
_symmetry_space_group_name_H-M   'P 1'
_cell_length_a   8.36679386
_cell_length_b   8.36679437
_cell_length_c   8.36679400
_cell_angle_alpha   109.47121733
_cell_angle_beta   109.47121856
_cell_angle_gamma   109.47122491
_symmetry_Int_Tables_number   1
_chemical_formula_structural   Ho12Co6Bi
_chemical_formula_sum   'Ho12 Co6 Bi1'
_cell_volume   450.87416993
_cell_formula_units_Z   1
loop_
 _symmetry_equiv_pos_site_id
 _symmetry_equiv_pos_as_xyz
  1  'x, y, z'
loop_
 _atom_site_type_symbol
 _atom_site_label
 _atom_site_symmetry_multiplicity
 _atom_site_fract_x
 _atom_site_fract_y
 _atom_site_fract_z
 _atom_site_occupancy
  Ho  Ho0  1  0.694041  0.196002  0.890044  1
  Ho  Ho1  1  0.803998  0.498039  0.694041  1
  Ho  Ho2  1  0.501961  0.305959  0.196002  1
  Ho  Ho3  1  0.803998  0.109956  0.305959  1
  Ho  Ho4  1  0.498039  0.694041  0.803998  1
  Ho  Ho5  1  0.196002  0.501961  0.305959  1
  Ho  Ho6  1  0.109956  0.305959  0.803998  1
  Ho  Ho7  1  0.890044  0.694041  0.196002  1
  Ho  Ho8  1  0.196002  0.890044  0.694041  1
  Ho  Ho9  1  0.694041  0.803998  0.498039  1
  Ho  Ho10  1  0.305959  0.196002  0.501961  1
  Ho  Ho11  1  0.305959  0.803998  0.109956  1
  Co  Co12  1  0.612990  0.112990  0.500000  1
  Co  Co13  1  0.887010  0.500000  0.387010  1
  Co  Co14  1  0.500000  0.387010  0.887010  1
  Co  Co15  1  0.112990  0.500000  0.612990  1
  Co  Co16  1  0.500000  0.612990  0.112990  1
  Co  Co17  1  0.387010  0.887010  0.500000  1
  Bi  Bi18  1  0.000000  0.000000  0.000000  1
