# generated using pymatgen
data_Ag2PdBr6
_symmetry_space_group_name_H-M   'P 1'
_cell_length_a   7.07022200
_cell_length_b   7.07022039
_cell_length_c   25.20625900
_cell_angle_alpha   90.00000000
_cell_angle_beta   90.00000000
_cell_angle_gamma   120.00000755
_symmetry_Int_Tables_number   1
_chemical_formula_structural   Ag2PdBr6
_chemical_formula_sum   'Ag8 Pd4 Br24'
_cell_volume   1091.20160255
_cell_formula_units_Z   4
loop_
 _symmetry_equiv_pos_site_id
 _symmetry_equiv_pos_as_xyz
  1  'x, y, z'
loop_
 _atom_site_type_symbol
 _atom_site_label
 _atom_site_symmetry_multiplicity
 _atom_site_fract_x
 _atom_site_fract_y
 _atom_site_fract_z
 _atom_site_occupancy
  Ag  Ag0  1  0.000000  0.000000  0.250000  1
  Ag  Ag1  1  0.000000  0.000000  0.750000  1
  Ag  Ag2  1  0.333333  0.666667  0.000842  1
  Ag  Ag3  1  0.333333  0.666667  0.499158  1
  Ag  Ag4  1  0.333333  0.666667  0.250000  1
  Ag  Ag5  1  0.666667  0.333333  0.750000  1
  Ag  Ag6  1  0.666667  0.333333  0.999158  1
  Ag  Ag7  1  0.666667  0.333333  0.500842  1
  Pd  Pd8  1  0.000000  0.000000  0.000000  1
  Pd  Pd9  1  0.000000  0.000000  0.500000  1
  Pd  Pd10  1  0.333333  0.666667  0.750000  1
  Pd  Pd11  1  0.666667  0.333333  0.250000  1
  Br  Br12  1  0.375697  0.042198  0.307653  1
  Br  Br13  1  0.333500  0.957802  0.807653  1
  Br  Br14  1  0.999486  0.290848  0.057681  1
  Br  Br15  1  0.000514  0.291363  0.557681  1
  Br  Br16  1  0.957802  0.333500  0.307653  1
  Br  Br17  1  0.042198  0.375697  0.807653  1
  Br  Br18  1  0.375697  0.333500  0.192347  1
  Br  Br19  1  0.333500  0.375697  0.692347  1
  Br  Br20  1  0.291363  0.290848  0.442319  1
  Br  Br21  1  0.290848  0.291363  0.942319  1
  Br  Br22  1  0.709152  0.000514  0.442319  1
  Br  Br23  1  0.291363  0.000514  0.057681  1
  Br  Br24  1  0.290848  0.999486  0.557681  1
  Br  Br25  1  0.709152  0.708637  0.057681  1
  Br  Br26  1  0.708637  0.709152  0.557681  1
  Br  Br27  1  0.666500  0.624303  0.307653  1
  Br  Br28  1  0.624303  0.666500  0.807653  1
  Br  Br29  1  0.957802  0.624303  0.192347  1
  Br  Br30  1  0.042198  0.666500  0.692347  1
  Br  Br31  1  0.999486  0.708637  0.442319  1
  Br  Br32  1  0.000514  0.709152  0.942319  1
  Br  Br33  1  0.708637  0.999486  0.942319  1
  Br  Br34  1  0.666500  0.042198  0.192347  1
  Br  Br35  1  0.624303  0.957802  0.692347  1
