# generated using pymatgen
data_La(ThS2)6
_symmetry_space_group_name_H-M   'P 1'
_cell_length_a   11.20375900
_cell_length_b   11.20375919
_cell_length_c   3.99868500
_cell_angle_alpha   90.00000000
_cell_angle_beta   90.00000000
_cell_angle_gamma   119.99999057
_symmetry_Int_Tables_number   1
_chemical_formula_structural   La(ThS2)6
_chemical_formula_sum   'La1 Th6 S12'
_cell_volume   434.68573728
_cell_formula_units_Z   1
loop_
 _symmetry_equiv_pos_site_id
 _symmetry_equiv_pos_as_xyz
  1  'x, y, z'
loop_
 _atom_site_type_symbol
 _atom_site_label
 _atom_site_symmetry_multiplicity
 _atom_site_fract_x
 _atom_site_fract_y
 _atom_site_fract_z
 _atom_site_occupancy
  La  La0  1  0.000000  0.000000  0.000000  1
  Th  Th1  1  0.569574  0.851337  0.000000  1
  Th  Th2  1  0.281762  0.430426  0.000000  1
  Th  Th3  1  0.148663  0.718238  0.000000  1
  Th  Th4  1  0.439359  0.152295  0.500000  1
  Th  Th5  1  0.712936  0.560641  0.500000  1
  Th  Th6  1  0.847705  0.287064  0.500000  1
  S  S7  1  0.859132  0.485535  0.000000  1
  S  S8  1  0.626401  0.140868  0.000000  1
  S  S9  1  0.514465  0.373599  0.000000  1
  S  S10  1  0.142353  0.525444  0.500000  1
  S  S11  1  0.383092  0.857647  0.500000  1
  S  S12  1  0.474556  0.616908  0.500000  1
  S  S13  1  0.748308  0.743938  0.000000  1
  S  S14  1  0.995629  0.251692  0.000000  1
  S  S15  1  0.256062  0.004371  0.000000  1
  S  S16  1  0.215866  0.220957  0.500000  1
  S  S17  1  0.005091  0.784134  0.500000  1
  S  S18  1  0.779043  0.994909  0.500000  1
