# generated using pymatgen
data_ZrNb8CrSe16
_symmetry_space_group_name_H-M   'P 1'
_cell_length_a   7.00300200
_cell_length_b   7.00300145
_cell_length_c   13.18973700
_cell_angle_alpha   90.00000000
_cell_angle_beta   90.00000000
_cell_angle_gamma   120.00000260
_symmetry_Int_Tables_number   1
_chemical_formula_structural   ZrNb8CrSe16
_chemical_formula_sum   'Zr1 Nb8 Cr1 Se16'
_cell_volume   560.18983358
_cell_formula_units_Z   1
loop_
 _symmetry_equiv_pos_site_id
 _symmetry_equiv_pos_as_xyz
  1  'x, y, z'
loop_
 _atom_site_type_symbol
 _atom_site_label
 _atom_site_symmetry_multiplicity
 _atom_site_fract_x
 _atom_site_fract_y
 _atom_site_fract_z
 _atom_site_occupancy
  Zr  Zr0  1  0.000000  0.000000  0.500000  1
  Nb  Nb1  1  0.000000  0.000000  0.245897  1
  Nb  Nb2  1  0.000000  0.000000  0.754103  1
  Nb  Nb3  1  0.507774  0.015547  0.242867  1
  Nb  Nb4  1  0.984453  0.492226  0.242867  1
  Nb  Nb5  1  0.507774  0.492226  0.242867  1
  Nb  Nb6  1  0.492226  0.984453  0.757133  1
  Nb  Nb7  1  0.015547  0.507774  0.757133  1
  Nb  Nb8  1  0.492226  0.507774  0.757133  1
  Cr  Cr9  1  0.000000  0.000000  0.000000  1
  Se  Se10  1  0.333333  0.666667  0.887903  1
  Se  Se11  1  0.666667  0.333333  0.112097  1
  Se  Se12  1  0.666667  0.333333  0.374504  1
  Se  Se13  1  0.333333  0.666667  0.625496  1
  Se  Se14  1  0.170527  0.829473  0.370555  1
  Se  Se15  1  0.170527  0.341054  0.370555  1
  Se  Se16  1  0.658946  0.829473  0.370555  1
  Se  Se17  1  0.829473  0.170527  0.629445  1
  Se  Se18  1  0.829473  0.658946  0.629445  1
  Se  Se19  1  0.341054  0.170527  0.629445  1
  Se  Se20  1  0.833088  0.166912  0.882553  1
  Se  Se21  1  0.833088  0.666177  0.882553  1
  Se  Se22  1  0.333823  0.166912  0.882553  1
  Se  Se23  1  0.166912  0.833088  0.117447  1
  Se  Se24  1  0.166912  0.333823  0.117447  1
  Se  Se25  1  0.666177  0.833088  0.117447  1
