# generated using pymatgen
data_SrP12PdRu3
_symmetry_space_group_name_H-M   'P 1'
_cell_length_a   7.05220422
_cell_length_b   7.05220503
_cell_length_c   7.05220501
_cell_angle_alpha   109.46802180
_cell_angle_beta   109.46801604
_cell_angle_gamma   109.46801586
_symmetry_Int_Tables_number   1
_chemical_formula_structural   SrP12PdRu3
_chemical_formula_sum   'Sr1 P12 Pd1 Ru3'
_cell_volume   270.02522423
_cell_formula_units_Z   1
loop_
 _symmetry_equiv_pos_site_id
 _symmetry_equiv_pos_as_xyz
  1  'x, y, z'
loop_
 _atom_site_type_symbol
 _atom_site_label
 _atom_site_symmetry_multiplicity
 _atom_site_fract_x
 _atom_site_fract_y
 _atom_site_fract_z
 _atom_site_occupancy
  Sr  Sr0  1  0.000000  0.000000  0.000000  1
  P  P1  1  0.356213  0.212696  0.855854  1
  P  P2  1  0.643787  0.787304  0.144146  1
  P  P3  1  0.646360  0.499360  0.865650  1
  P  P4  1  0.353640  0.500640  0.134350  1
  P  P5  1  0.212696  0.855854  0.356213  1
  P  P6  1  0.787304  0.144146  0.643787  1
  P  P7  1  0.499360  0.865650  0.646360  1
  P  P8  1  0.500640  0.134350  0.353640  1
  P  P9  1  0.855854  0.356213  0.212696  1
  P  P10  1  0.144146  0.643787  0.787304  1
  P  P11  1  0.865650  0.646360  0.499360  1
  P  P12  1  0.134350  0.353640  0.500640  1
  Pd  Pd13  1  0.500000  0.500000  0.500000  1
  Ru  Ru14  1  0.000000  0.000000  0.500000  1
  Ru  Ru15  1  0.500000  0.000000  0.000000  1
  Ru  Ru16  1  0.000000  0.500000  0.000000  1
