# generated using pymatgen
data_Mn2ReMoIr4
_symmetry_space_group_name_H-M   'P 1'
_cell_length_a   5.42237200
_cell_length_b   5.45735697
_cell_length_c   4.32132900
_cell_angle_alpha   90.00000000
_cell_angle_beta   90.00000000
_cell_angle_gamma   119.78816441
_symmetry_Int_Tables_number   1
_chemical_formula_structural   Mn2ReMoIr4
_chemical_formula_sum   'Mn2 Re1 Mo1 Ir4'
_cell_volume   110.97949044
_cell_formula_units_Z   1
loop_
 _symmetry_equiv_pos_site_id
 _symmetry_equiv_pos_as_xyz
  1  'x, y, z'
loop_
 _atom_site_type_symbol
 _atom_site_label
 _atom_site_symmetry_multiplicity
 _atom_site_fract_x
 _atom_site_fract_y
 _atom_site_fract_z
 _atom_site_occupancy
  Mn  Mn0  1  0.331662  0.663325  0.750000  1
  Mn  Mn1  1  0.664791  0.329581  0.250000  1
  Re  Re2  1  0.170632  0.341266  0.250000  1
  Mo  Mo3  1  0.830175  0.660350  0.750000  1
  Ir  Ir4  1  0.658734  0.827419  0.250000  1
  Ir  Ir5  1  0.168686  0.827419  0.250000  1
  Ir  Ir6  1  0.340125  0.175320  0.750000  1
  Ir  Ir7  1  0.835196  0.175320  0.750000  1
