# generated using pymatgen
data_Li2(NbS2)3
_symmetry_space_group_name_H-M   'P 1'
_cell_length_a   5.85216500
_cell_length_b   5.85216477
_cell_length_c   12.92970300
_cell_angle_alpha   90.00000000
_cell_angle_beta   90.00000000
_cell_angle_gamma   120.00000697
_symmetry_Int_Tables_number   1
_chemical_formula_structural   Li2(NbS2)3
_chemical_formula_sum   'Li4 Nb6 S12'
_cell_volume   383.48842316
_cell_formula_units_Z   2
loop_
 _symmetry_equiv_pos_site_id
 _symmetry_equiv_pos_as_xyz
  1  'x, y, z'
loop_
 _atom_site_type_symbol
 _atom_site_label
 _atom_site_symmetry_multiplicity
 _atom_site_fract_x
 _atom_site_fract_y
 _atom_site_fract_z
 _atom_site_occupancy
  Li  Li0  1  0.000000  0.000000  0.250000  1
  Li  Li1  1  0.000000  0.000000  0.750000  1
  Li  Li2  1  0.333333  0.666667  0.250000  1
  Li  Li3  1  0.666667  0.333333  0.750000  1
  Nb  Nb4  1  0.000000  0.000000  0.000000  1
  Nb  Nb5  1  0.000000  0.000000  0.500000  1
  Nb  Nb6  1  0.333333  0.666667  0.500505  1
  Nb  Nb7  1  0.333333  0.666667  0.999495  1
  Nb  Nb8  1  0.666667  0.333333  0.000505  1
  Nb  Nb9  1  0.666667  0.333333  0.499495  1
  S  S10  1  0.000880  0.334449  0.878928  1
  S  S11  1  0.999120  0.333569  0.121072  1
  S  S12  1  0.000880  0.666431  0.621072  1
  S  S13  1  0.999120  0.665551  0.378928  1
  S  S14  1  0.333569  0.999120  0.878928  1
  S  S15  1  0.333569  0.334449  0.621072  1
  S  S16  1  0.334449  0.333569  0.378928  1
  S  S17  1  0.334449  0.000880  0.121072  1
  S  S18  1  0.665551  0.666431  0.878928  1
  S  S19  1  0.666431  0.665551  0.121072  1
  S  S20  1  0.665551  0.999120  0.621072  1
  S  S21  1  0.666431  0.000880  0.378928  1
