# generated using pymatgen
data_Dy2Y7Tm11Pt16
_symmetry_space_group_name_H-M   'P 1'
_cell_length_a   7.44563817
_cell_length_b   7.51902643
_cell_length_c   14.63411604
_cell_angle_alpha   89.96498697
_cell_angle_beta   90.00202530
_cell_angle_gamma   89.99580720
_symmetry_Int_Tables_number   1
_chemical_formula_structural   Dy2Y7Tm11Pt16
_chemical_formula_sum   'Dy2 Y7 Tm11 Pt16'
_cell_volume   819.27546831
_cell_formula_units_Z   1
loop_
 _symmetry_equiv_pos_site_id
 _symmetry_equiv_pos_as_xyz
  1  'x, y, z'
loop_
 _atom_site_type_symbol
 _atom_site_label
 _atom_site_symmetry_multiplicity
 _atom_site_fract_x
 _atom_site_fract_y
 _atom_site_fract_z
 _atom_site_occupancy
  Dy  Dy0  1  0.656231  0.832213  0.878007  1
  Dy  Dy1  1  0.998617  0.820450  0.406849  1
  Y  Y2  1  0.498461  0.679009  0.093721  1
  Y  Y3  1  0.501179  0.320705  0.592725  1
  Y  Y4  1  0.001611  0.180209  0.907082  1
  Y  Y5  1  0.001090  0.179138  0.592885  1
  Y  Y6  1  0.500925  0.320833  0.907022  1
  Y  Y7  1  0.498685  0.679218  0.406896  1
  Y  Y8  1  0.998855  0.820526  0.093093  1
  Tm  Tm9  1  0.681082  0.989912  0.250078  1
  Tm  Tm10  1  0.181069  0.510133  0.250125  1
  Tm  Tm11  1  0.819243  0.489445  0.749542  1
  Tm  Tm12  1  0.318581  0.010662  0.749612  1
  Tm  Tm13  1  0.656022  0.832447  0.622380  1
  Tm  Tm14  1  0.156222  0.667479  0.877371  1
  Tm  Tm15  1  0.843938  0.332573  0.377480  1
  Tm  Tm16  1  0.343738  0.167767  0.122654  1
  Tm  Tm17  1  0.343857  0.167549  0.377520  1
  Tm  Tm18  1  0.844165  0.332647  0.122922  1
  Tm  Tm19  1  0.156156  0.667455  0.622233  1
  Pt  Pt20  1  0.816692  0.641515  0.250274  1
  Pt  Pt21  1  0.316158  0.858753  0.250173  1
  Pt  Pt22  1  0.683837  0.142269  0.749085  1
  Pt  Pt23  1  0.183073  0.358347  0.749817  1
  Pt  Pt24  1  0.546310  0.383853  0.250160  1
  Pt  Pt25  1  0.046427  0.116016  0.250249  1
  Pt  Pt26  1  0.954966  0.884601  0.748993  1
  Pt  Pt27  1  0.452897  0.614528  0.749043  1
  Pt  Pt28  1  0.818173  0.534277  0.541982  1
  Pt  Pt29  1  0.315892  0.966646  0.958432  1
  Pt  Pt30  1  0.682279  0.033849  0.457773  1
  Pt  Pt31  1  0.182357  0.466040  0.042230  1
  Pt  Pt32  1  0.181774  0.466172  0.457771  1
  Pt  Pt33  1  0.681668  0.035359  0.043512  1
  Pt  Pt34  1  0.318015  0.965903  0.542005  1
  Pt  Pt35  1  0.819751  0.531499  0.958307  1
