# generated using pymatgen
data_TmCd2Ni6SnB2
_symmetry_space_group_name_H-M   'P 1'
_cell_length_a   5.18553600
_cell_length_b   5.18553435
_cell_length_c   13.94640500
_cell_angle_alpha   90.00000000
_cell_angle_beta   90.00000000
_cell_angle_gamma   120.00001054
_symmetry_Int_Tables_number   1
_chemical_formula_structural   TmCd2Ni6SnB2
_chemical_formula_sum   'Tm2 Cd4 Ni12 Sn2 B4'
_cell_volume   324.77308249
_cell_formula_units_Z   2
loop_
 _symmetry_equiv_pos_site_id
 _symmetry_equiv_pos_as_xyz
  1  'x, y, z'
loop_
 _atom_site_type_symbol
 _atom_site_label
 _atom_site_symmetry_multiplicity
 _atom_site_fract_x
 _atom_site_fract_y
 _atom_site_fract_z
 _atom_site_occupancy
  Tm  Tm0  1  0.333333  0.666667  0.750000  1
  Tm  Tm1  1  0.666667  0.333333  0.250000  1
  Cd  Cd2  1  0.333333  0.666667  0.531674  1
  Cd  Cd3  1  0.666667  0.333333  0.031674  1
  Cd  Cd4  1  0.666667  0.333333  0.468326  1
  Cd  Cd5  1  0.333333  0.666667  0.968326  1
  Ni  Ni6  1  0.166980  0.333960  0.153427  1
  Ni  Ni7  1  0.833020  0.666040  0.653427  1
  Ni  Ni8  1  0.666040  0.833020  0.153427  1
  Ni  Ni9  1  0.166980  0.833020  0.153427  1
  Ni  Ni10  1  0.833020  0.166980  0.653427  1
  Ni  Ni11  1  0.333960  0.166980  0.653427  1
  Ni  Ni12  1  0.833020  0.666040  0.846573  1
  Ni  Ni13  1  0.833020  0.166980  0.846573  1
  Ni  Ni14  1  0.333960  0.166980  0.846573  1
  Ni  Ni15  1  0.666040  0.833020  0.346573  1
  Ni  Ni16  1  0.166980  0.833020  0.346573  1
  Ni  Ni17  1  0.166980  0.333960  0.346573  1
  Sn  Sn18  1  0.000000  0.000000  0.000000  1
  Sn  Sn19  1  0.000000  0.000000  0.500000  1
  B  B20  1  0.333333  0.666667  0.250000  1
  B  B21  1  0.666667  0.333333  0.750000  1
  B  B22  1  0.000000  0.000000  0.250000  1
  B  B23  1  0.000000  0.000000  0.750000  1
