# generated using pymatgen
data_Zr8Mn8Si13P
_symmetry_space_group_name_H-M   'P 1'
_cell_length_a   9.63075852
_cell_length_b   9.63075933
_cell_length_c   9.65116957
_cell_angle_alpha   94.04117065
_cell_angle_beta   94.04116536
_cell_angle_gamma   149.17706789
_symmetry_Int_Tables_number   1
_chemical_formula_structural   Zr8Mn8Si13P
_chemical_formula_sum   'Zr8 Mn8 Si13 P1'
_cell_volume   442.24660536
_cell_formula_units_Z   1
loop_
 _symmetry_equiv_pos_site_id
 _symmetry_equiv_pos_as_xyz
  1  'x, y, z'
loop_
 _atom_site_type_symbol
 _atom_site_label
 _atom_site_symmetry_multiplicity
 _atom_site_fract_x
 _atom_site_fract_y
 _atom_site_fract_z
 _atom_site_occupancy
  Zr  Zr0  1  0.139690  0.139690  0.279380  1
  Zr  Zr1  1  0.859732  0.859732  0.719464  1
  Zr  Zr2  1  0.138855  0.861018  0.999873  1
  Zr  Zr3  1  0.861018  0.138855  0.999873  1
  Zr  Zr4  1  0.303123  0.498776  0.801898  1
  Zr  Zr5  1  0.696674  0.499683  0.196358  1
  Zr  Zr6  1  0.499683  0.696674  0.196358  1
  Zr  Zr7  1  0.498776  0.303123  0.801898  1
  Mn  Mn8  1  0.102514  0.602514  0.205028  1
  Mn  Mn9  1  0.397670  0.897670  0.795341  1
  Mn  Mn10  1  0.901831  0.102653  0.501472  1
  Mn  Mn11  1  0.599642  0.398820  0.501472  1
  Mn  Mn12  1  0.602514  0.102514  0.205028  1
  Mn  Mn13  1  0.897670  0.397670  0.795341  1
  Mn  Mn14  1  0.102653  0.901831  0.501472  1
  Mn  Mn15  1  0.398820  0.599642  0.501472  1
  Si  Si16  1  0.707211  0.707211  0.414422  1
  Si  Si17  1  0.290368  0.709599  0.999969  1
  Si  Si18  1  0.709599  0.290368  0.999969  1
  Si  Si19  1  0.090907  0.499593  0.590501  1
  Si  Si20  1  0.908591  0.501194  0.409785  1
  Si  Si21  1  0.501194  0.908591  0.409785  1
  Si  Si22  1  0.499593  0.090907  0.590501  1
  Si  Si23  1  0.249380  0.249380  0.999453  1
  Si  Si24  1  0.750072  0.750072  0.999453  1
  Si  Si25  1  0.298699  0.000251  0.298951  1
  Si  Si26  1  0.701501  0.999997  0.701498  1
  Si  Si27  1  0.999997  0.701501  0.701498  1
  Si  Si28  1  0.000251  0.298699  0.298951  1
  P  P29  1  0.291770  0.291770  0.583540  1
