# generated using pymatgen
data_DyTm3Th6(Ge5Rh2)4
_symmetry_space_group_name_H-M   'P 1'
_cell_length_a   13.11651907
_cell_length_b   13.11651907
_cell_length_c   4.37752500
_cell_angle_alpha   90.00000000
_cell_angle_beta   90.00000000
_cell_angle_gamma   90.01186407
_symmetry_Int_Tables_number   1
_chemical_formula_structural   DyTm3Th6(Ge5Rh2)4
_chemical_formula_sum   'Dy1 Tm3 Th6 Ge20 Rh8'
_cell_volume   753.12283489
_cell_formula_units_Z   1
loop_
 _symmetry_equiv_pos_site_id
 _symmetry_equiv_pos_as_xyz
  1  'x, y, z'
loop_
 _atom_site_type_symbol
 _atom_site_label
 _atom_site_symmetry_multiplicity
 _atom_site_fract_x
 _atom_site_fract_y
 _atom_site_fract_z
 _atom_site_occupancy
  Dy  Dy0  1  0.325249  0.825249  0.500000  1
  Tm  Tm1  1  0.825524  0.674435  0.500000  1
  Tm  Tm2  1  0.174435  0.325524  0.500000  1
  Tm  Tm3  1  0.674483  0.174483  0.500000  1
  Th  Th4  1  0.112478  0.612478  0.500000  1
  Th  Th5  1  0.612792  0.887456  0.500000  1
  Th  Th6  1  0.387456  0.112792  0.500000  1
  Th  Th7  1  0.887351  0.387351  0.500000  1
  Th  Th8  1  0.500027  0.499964  0.000000  1
  Th  Th9  1  0.999964  0.000027  0.000000  1
  Ge  Ge10  1  0.337593  0.495742  0.500000  1
  Ge  Ge11  1  0.662395  0.504323  0.500000  1
  Ge  Ge12  1  0.504336  0.337595  0.500000  1
  Ge  Ge13  1  0.496038  0.662181  0.500000  1
  Ge  Ge14  1  0.995742  0.837593  0.500000  1
  Ge  Ge15  1  0.837595  0.004336  0.500000  1
  Ge  Ge16  1  0.162181  0.996038  0.500000  1
  Ge  Ge17  1  0.004323  0.162395  0.500000  1
  Ge  Ge18  1  0.337081  0.300807  0.000000  1
  Ge  Ge19  1  0.663009  0.699168  0.000000  1
  Ge  Ge20  1  0.699217  0.337068  0.000000  1
  Ge  Ge21  1  0.300624  0.662475  0.000000  1
  Ge  Ge22  1  0.800807  0.837081  0.000000  1
  Ge  Ge23  1  0.837068  0.199217  0.000000  1
  Ge  Ge24  1  0.162475  0.800624  0.000000  1
  Ge  Ge25  1  0.199168  0.163009  0.000000  1
  Ge  Ge26  1  0.433411  0.933411  0.000000  1
  Ge  Ge27  1  0.932989  0.566996  0.000000  1
  Ge  Ge28  1  0.567108  0.067108  0.000000  1
  Ge  Ge29  1  0.066996  0.432989  0.000000  1
  Rh  Rh30  1  0.244287  0.977848  0.000000  1
  Rh  Rh31  1  0.755454  0.022634  0.000000  1
  Rh  Rh32  1  0.022653  0.244575  0.000000  1
  Rh  Rh33  1  0.977235  0.755399  0.000000  1
  Rh  Rh34  1  0.477848  0.744287  0.000000  1
  Rh  Rh35  1  0.744575  0.522653  0.000000  1
  Rh  Rh36  1  0.255399  0.477235  0.000000  1
  Rh  Rh37  1  0.522634  0.255454  0.000000  1
