# generated using pymatgen
data_Dy6InGa2
_symmetry_space_group_name_H-M   'P 1'
_cell_length_a   8.66209815
_cell_length_b   8.66209748
_cell_length_c   8.66209808
_cell_angle_alpha   112.77508314
_cell_angle_beta   111.99235528
_cell_angle_gamma   103.79227018
_symmetry_Int_Tables_number   1
_chemical_formula_structural   Dy6InGa2
_chemical_formula_sum   'Dy12 In2 Ga4'
_cell_volume   496.65664977
_cell_formula_units_Z   2
loop_
 _symmetry_equiv_pos_site_id
 _symmetry_equiv_pos_as_xyz
  1  'x, y, z'
loop_
 _atom_site_type_symbol
 _atom_site_label
 _atom_site_symmetry_multiplicity
 _atom_site_fract_x
 _atom_site_fract_y
 _atom_site_fract_z
 _atom_site_occupancy
  Dy  Dy0  1  0.439286  0.236417  0.202870  1
  Dy  Dy1  1  0.560714  0.763583  0.797130  1
  Dy  Dy2  1  0.033547  0.236417  0.797130  1
  Dy  Dy3  1  0.966453  0.763583  0.202870  1
  Dy  Dy4  1  0.187349  0.281671  0.469019  1
  Dy  Dy5  1  0.812651  0.718329  0.530981  1
  Dy  Dy6  1  0.187349  0.718329  0.905678  1
  Dy  Dy7  1  0.812651  0.281671  0.094322  1
  Dy  Dy8  1  0.320372  0.616057  0.295684  1
  Dy  Dy9  1  0.679628  0.383943  0.704316  1
  Dy  Dy10  1  0.320372  0.024688  0.704316  1
  Dy  Dy11  1  0.679628  0.975312  0.295684  1
  In  In12  1  0.500000  0.500000  0.000000  1
  In  In13  1  0.000000  0.000000  0.000000  1
  Ga  Ga14  1  0.354688  0.000000  0.354688  1
  Ga  Ga15  1  0.645312  0.000000  0.645312  1
  Ga  Ga16  1  0.120669  0.620669  0.500000  1
  Ga  Ga17  1  0.879331  0.379331  0.500000  1
