# generated using pymatgen
data_Na5Si12Ir16Rh3
_symmetry_space_group_name_H-M   'P 1'
_cell_length_a   12.76839700
_cell_length_b   12.76839660
_cell_length_c   3.99584100
_cell_angle_alpha   90.00000000
_cell_angle_beta   90.00000000
_cell_angle_gamma   119.99999843
_symmetry_Int_Tables_number   1
_chemical_formula_structural   Na5Si12Ir16Rh3
_chemical_formula_sum   'Na5 Si12 Ir16 Rh3'
_cell_volume   564.17206569
_cell_formula_units_Z   1
loop_
 _symmetry_equiv_pos_site_id
 _symmetry_equiv_pos_as_xyz
  1  'x, y, z'
loop_
 _atom_site_type_symbol
 _atom_site_label
 _atom_site_symmetry_multiplicity
 _atom_site_fract_x
 _atom_site_fract_y
 _atom_site_fract_z
 _atom_site_occupancy
  Na  Na0  1  0.333333  0.666667  0.500000  1
  Na  Na1  1  0.666667  0.333333  0.500000  1
  Na  Na2  1  0.000000  0.817577  0.000000  1
  Na  Na3  1  0.182423  0.182423  0.000000  1
  Na  Na4  1  0.817577  0.000000  0.000000  1
  Si  Si5  1  0.000000  0.628639  0.500000  1
  Si  Si6  1  0.371361  0.371361  0.500000  1
  Si  Si7  1  0.628639  0.000000  0.500000  1
  Si  Si8  1  0.520193  0.687866  0.000000  1
  Si  Si9  1  0.312134  0.832327  0.000000  1
  Si  Si10  1  0.167673  0.479807  0.000000  1
  Si  Si11  1  0.479807  0.167673  0.000000  1
  Si  Si12  1  0.687866  0.520193  0.000000  1
  Si  Si13  1  0.832327  0.312134  0.000000  1
  Si  Si14  1  0.000000  0.183053  0.500000  1
  Si  Si15  1  0.816947  0.816947  0.500000  1
  Si  Si16  1  0.183053  0.000000  0.500000  1
  Ir  Ir17  1  0.514159  0.874660  0.000000  1
  Ir  Ir18  1  0.125340  0.639500  0.000000  1
  Ir  Ir19  1  0.360500  0.485841  0.000000  1
  Ir  Ir20  1  0.485841  0.360500  0.000000  1
  Ir  Ir21  1  0.874660  0.514159  0.000000  1
  Ir  Ir22  1  0.639500  0.125340  0.000000  1
  Ir  Ir23  1  0.000000  0.282050  0.000000  1
  Ir  Ir24  1  0.717950  0.717950  0.000000  1
  Ir  Ir25  1  0.282050  0.000000  0.000000  1
  Ir  Ir26  1  0.622133  0.806949  0.500000  1
  Ir  Ir27  1  0.193051  0.815184  0.500000  1
  Ir  Ir28  1  0.184816  0.377867  0.500000  1
  Ir  Ir29  1  0.377867  0.184816  0.500000  1
  Ir  Ir30  1  0.806949  0.622133  0.500000  1
  Ir  Ir31  1  0.815184  0.193051  0.500000  1
  Ir  Ir32  1  0.000000  0.000000  0.500000  1
  Rh  Rh33  1  0.000000  0.445779  0.500000  1
  Rh  Rh34  1  0.554221  0.554221  0.500000  1
  Rh  Rh35  1  0.445779  0.000000  0.500000  1
