# generated using pymatgen
data_Ta5SiNi4P3
_symmetry_space_group_name_H-M   'P 1'
_cell_length_a   7.28687455
_cell_length_b   7.28687383
_cell_length_c   7.29784711
_cell_angle_alpha   93.35674974
_cell_angle_beta   93.42807983
_cell_angle_gamma   151.82070977
_symmetry_Int_Tables_number   1
_chemical_formula_structural   Ta5SiNi4P3
_chemical_formula_sum   'Ta5 Si1 Ni4 P3'
_cell_volume   177.50387451
_cell_formula_units_Z   1
loop_
 _symmetry_equiv_pos_site_id
 _symmetry_equiv_pos_as_xyz
  1  'x, y, z'
loop_
 _atom_site_type_symbol
 _atom_site_label
 _atom_site_symmetry_multiplicity
 _atom_site_fract_x
 _atom_site_fract_y
 _atom_site_fract_z
 _atom_site_occupancy
  Ta  Ta0  1  0.868750  0.193850  0.062601  1
  Ta  Ta1  1  0.128676  0.804168  0.932843  1
  Ta  Ta2  1  0.194591  0.131772  0.326364  1
  Ta  Ta3  1  0.803559  0.869439  0.672997  1
  Ta  Ta4  1  0.498942  0.500217  0.999159  1
  Si  Si5  1  0.760303  0.444292  0.204595  1
  Ni  Ni6  1  0.610803  0.086046  0.696848  1
  Ni  Ni7  1  0.393600  0.912582  0.306182  1
  Ni  Ni8  1  0.085908  0.389596  0.475503  1
  Ni  Ni9  1  0.914921  0.613425  0.528347  1
  P  P10  1  0.240422  0.555082  0.795504  1
  P  P11  1  0.444079  0.241847  0.685927  1
  P  P12  1  0.555447  0.757683  0.313130  1
