# generated using pymatgen
data_EuAl2GePd
_symmetry_space_group_name_H-M   'P 1'
_cell_length_a   6.35722960
_cell_length_b   6.35722926
_cell_length_c   6.35722963
_cell_angle_alpha   140.99442261
_cell_angle_beta   140.99441142
_cell_angle_gamma   56.34648993
_symmetry_Int_Tables_number   1
_chemical_formula_structural   EuAl2GePd
_chemical_formula_sum   'Eu1 Al2 Ge1 Pd1'
_cell_volume   100.97359481
_cell_formula_units_Z   1
loop_
 _symmetry_equiv_pos_site_id
 _symmetry_equiv_pos_as_xyz
  1  'x, y, z'
loop_
 _atom_site_type_symbol
 _atom_site_label
 _atom_site_symmetry_multiplicity
 _atom_site_fract_x
 _atom_site_fract_y
 _atom_site_fract_z
 _atom_site_occupancy
  Eu  Eu0  1  0.996904  0.996904  0.000000  1
  Al  Al1  1  0.260126  0.760126  0.500000  1
  Al  Al2  1  0.760126  0.260126  0.500000  1
  Ge  Ge3  1  0.414027  0.414027  0.000000  1
  Pd  Pd4  1  0.641818  0.641818  0.000000  1
