# generated using pymatgen
data_Sr6HoB6MoO18
_symmetry_space_group_name_H-M   'P 1'
_cell_length_a   7.81354985
_cell_length_b   7.81355041
_cell_length_c   7.81354982
_cell_angle_alpha   105.36924574
_cell_angle_beta   105.36925556
_cell_angle_gamma   105.36924782
_symmetry_Int_Tables_number   1
_chemical_formula_structural   Sr6HoB6MoO18
_chemical_formula_sum   'Sr6 Ho1 B6 Mo1 O18'
_cell_volume   413.67778109
_cell_formula_units_Z   1
loop_
 _symmetry_equiv_pos_site_id
 _symmetry_equiv_pos_as_xyz
  1  'x, y, z'
loop_
 _atom_site_type_symbol
 _atom_site_label
 _atom_site_symmetry_multiplicity
 _atom_site_fract_x
 _atom_site_fract_y
 _atom_site_fract_z
 _atom_site_occupancy
  Sr  Sr0  1  0.650006  0.267088  0.160167  1
  Sr  Sr1  1  0.160167  0.650006  0.267088  1
  Sr  Sr2  1  0.732911  0.839834  0.349994  1
  Sr  Sr3  1  0.267089  0.160166  0.650006  1
  Sr  Sr4  1  0.839834  0.349994  0.732912  1
  Sr  Sr5  1  0.349994  0.732912  0.839833  1
  Ho  Ho6  1  0.000000  0.000000  0.000000  1
  B  B7  1  0.293906  0.379987  0.041699  1
  B  B8  1  0.379986  0.041699  0.293906  1
  B  B9  1  0.041699  0.293906  0.379986  1
  B  B10  1  0.958301  0.706095  0.620014  1
  B  B11  1  0.620014  0.958302  0.706094  1
  B  B12  1  0.706095  0.620014  0.958302  1
  Mo  Mo13  1  0.500000  0.500000  0.500000  1
  O  O14  1  0.729322  0.812396  0.015616  1
  O  O15  1  0.810355  0.549402  0.072700  1
  O  O16  1  0.984384  0.270678  0.187602  1
  O  O17  1  0.450597  0.927300  0.189644  1
  O  O18  1  0.434457  0.505539  0.216854  1
  O  O19  1  0.187603  0.984384  0.270677  1
  O  O20  1  0.505538  0.216854  0.434457  1
  O  O21  1  0.927300  0.189644  0.450598  1
  O  O22  1  0.216854  0.434457  0.505539  1
  O  O23  1  0.783146  0.565543  0.494462  1
  O  O24  1  0.072700  0.810355  0.549402  1
  O  O25  1  0.494462  0.783146  0.565543  1
  O  O26  1  0.812396  0.015615  0.729322  1
  O  O27  1  0.565543  0.494462  0.783147  1
  O  O28  1  0.549402  0.072700  0.810356  1
  O  O29  1  0.015615  0.729321  0.812397  1
  O  O30  1  0.189644  0.450597  0.927300  1
  O  O31  1  0.270678  0.187603  0.984384  1
