# generated using pymatgen
data_K4CeHfI12
_symmetry_space_group_name_H-M   'P 1'
_cell_length_a   8.64517935
_cell_length_b   8.21883979
_cell_length_c   14.23781686
_cell_angle_alpha   54.85732704
_cell_angle_beta   90.03162796
_cell_angle_gamma   90.25308152
_symmetry_Int_Tables_number   1
_chemical_formula_structural   K4CeHfI12
_chemical_formula_sum   'K4 Ce1 Hf1 I12'
_cell_volume   827.23267009
_cell_formula_units_Z   1
loop_
 _symmetry_equiv_pos_site_id
 _symmetry_equiv_pos_as_xyz
  1  'x, y, z'
loop_
 _atom_site_type_symbol
 _atom_site_label
 _atom_site_symmetry_multiplicity
 _atom_site_fract_x
 _atom_site_fract_y
 _atom_site_fract_z
 _atom_site_occupancy
  K  K0  1  0.583208  0.728638  0.248191  1
  K  K1  1  0.079251  0.277242  0.244733  1
  K  K2  1  0.416792  0.271362  0.751809  1
  K  K3  1  0.920749  0.722758  0.755267  1
  Ce  Ce4  1  0.500000  0.000000  0.500000  1
  Hf  Hf5  1  0.000000  0.000000  0.000000  1
  I  I6  1  0.988819  0.849277  0.237106  1
  I  I7  1  0.488486  0.164419  0.247029  1
  I  I8  1  0.011181  0.150723  0.762894  1
  I  I9  1  0.511514  0.835581  0.752971  1
  I  I10  1  0.692928  0.648538  0.550563  1
  I  I11  1  0.182174  0.331731  0.953299  1
  I  I12  1  0.307072  0.351462  0.449437  1
  I  I13  1  0.817826  0.668269  0.046701  1
  I  I14  1  0.720905  0.219041  0.960102  1
  I  I15  1  0.201866  0.768391  0.542073  1
  I  I16  1  0.279095  0.780959  0.039898  1
  I  I17  1  0.798134  0.231609  0.457927  1
