# generated using pymatgen
data_NdY2PaPt4
_symmetry_space_group_name_H-M   'P 1'
_cell_length_a   4.59189900
_cell_length_b   5.65145006
_cell_length_c   7.08435118
_cell_angle_alpha   88.05320295
_cell_angle_beta   90.00000000
_cell_angle_gamma   90.00000000
_symmetry_Int_Tables_number   1
_chemical_formula_structural   NdY2PaPt4
_chemical_formula_sum   'Nd1 Y2 Pa1 Pt4'
_cell_volume   183.73908800
_cell_formula_units_Z   1
loop_
 _symmetry_equiv_pos_site_id
 _symmetry_equiv_pos_as_xyz
  1  'x, y, z'
loop_
 _atom_site_type_symbol
 _atom_site_label
 _atom_site_symmetry_multiplicity
 _atom_site_fract_x
 _atom_site_fract_y
 _atom_site_fract_z
 _atom_site_occupancy
  Nd  Nd0  1  0.250000  0.858145  0.685189  1
  Y  Y1  1  0.750000  0.355855  0.817503  1
  Y  Y2  1  0.750000  0.146090  0.317406  1
  Pa  Pa3  1  0.250000  0.642672  0.182173  1
  Pt  Pt4  1  0.250000  0.162904  0.055504  1
  Pt  Pt5  1  0.750000  0.829027  0.974519  1
  Pt  Pt6  1  0.750000  0.653383  0.435355  1
  Pt  Pt7  1  0.250000  0.351924  0.532351  1
