# generated using pymatgen
data_Er4CdPd4Pb
_symmetry_space_group_name_H-M   'P 1'
_cell_length_a   7.84351300
_cell_length_b   7.84351300
_cell_length_c   3.59090000
_cell_angle_alpha   90.00000000
_cell_angle_beta   90.00000000
_cell_angle_gamma   90.00000000
_symmetry_Int_Tables_number   1
_chemical_formula_structural   Er4CdPd4Pb
_chemical_formula_sum   'Er4 Cd1 Pd4 Pb1'
_cell_volume   220.91466792
_cell_formula_units_Z   1
loop_
 _symmetry_equiv_pos_site_id
 _symmetry_equiv_pos_as_xyz
  1  'x, y, z'
loop_
 _atom_site_type_symbol
 _atom_site_label
 _atom_site_symmetry_multiplicity
 _atom_site_fract_x
 _atom_site_fract_y
 _atom_site_fract_z
 _atom_site_occupancy
  Er  Er0  1  0.673279  0.168136  0.500000  1
  Er  Er1  1  0.326721  0.831864  0.500000  1
  Er  Er2  1  0.168136  0.326721  0.500000  1
  Er  Er3  1  0.831864  0.673279  0.500000  1
  Cd  Cd4  1  0.500000  0.500000  0.000000  1
  Pd  Pd5  1  0.137266  0.615671  0.000000  1
  Pd  Pd6  1  0.862734  0.384329  0.000000  1
  Pd  Pd7  1  0.615671  0.862734  0.000000  1
  Pd  Pd8  1  0.384329  0.137266  0.000000  1
  Pb  Pb9  1  0.000000  0.000000  0.000000  1
