# generated using pymatgen
data_PuCoH6
_symmetry_space_group_name_H-M   'P 1'
_cell_length_a   4.42473755
_cell_length_b   4.42473896
_cell_length_c   4.42500798
_cell_angle_alpha   58.81464395
_cell_angle_beta   58.81464570
_cell_angle_gamma   58.80269102
_symmetry_Int_Tables_number   1
_chemical_formula_structural   PuCoH6
_chemical_formula_sum   'Pu1 Co1 H6'
_cell_volume   59.59584766
_cell_formula_units_Z   1
loop_
 _symmetry_equiv_pos_site_id
 _symmetry_equiv_pos_as_xyz
  1  'x, y, z'
loop_
 _atom_site_type_symbol
 _atom_site_label
 _atom_site_symmetry_multiplicity
 _atom_site_fract_x
 _atom_site_fract_y
 _atom_site_fract_z
 _atom_site_occupancy
  Pu  Pu0  1  0.500000  0.500000  0.500000  1
  Co  Co1  1  0.000000  0.000000  0.000000  1
  H  H2  1  0.580619  0.095700  0.095645  1
  H  H3  1  0.095700  0.580619  0.095645  1
  H  H4  1  0.904441  0.904441  0.419235  1
  H  H5  1  0.095559  0.095559  0.580764  1
  H  H6  1  0.904300  0.419380  0.904355  1
  H  H7  1  0.419380  0.904300  0.904355  1
