# generated using pymatgen
data_Pr8Er11Si16Hg
_symmetry_space_group_name_H-M   'P 1'
_cell_length_a   7.43948012
_cell_length_b   7.77822245
_cell_length_c   14.79181800
_cell_angle_alpha   90.00000000
_cell_angle_beta   90.00000000
_cell_angle_gamma   90.03780399
_symmetry_Int_Tables_number   1
_chemical_formula_structural   Pr8Er11Si16Hg
_chemical_formula_sum   'Pr8 Er11 Si16 Hg1'
_cell_volume   855.94213743
_cell_formula_units_Z   1
loop_
 _symmetry_equiv_pos_site_id
 _symmetry_equiv_pos_as_xyz
  1  'x, y, z'
loop_
 _atom_site_type_symbol
 _atom_site_label
 _atom_site_symmetry_multiplicity
 _atom_site_fract_x
 _atom_site_fract_y
 _atom_site_fract_z
 _atom_site_occupancy
  Pr  Pr0  1  0.019031  0.176517  0.402282  1
  Pr  Pr1  1  0.516398  0.325603  0.402625  1
  Pr  Pr2  1  0.484155  0.687090  0.898686  1
  Pr  Pr3  1  0.484155  0.687090  0.601314  1
  Pr  Pr4  1  0.971861  0.825830  0.601870  1
  Pr  Pr5  1  0.971861  0.825830  0.898130  1
  Pr  Pr6  1  0.516398  0.325603  0.097375  1
  Pr  Pr7  1  0.019031  0.176517  0.097718  1
  Er  Er8  1  0.336664  0.175187  0.625328  1
  Er  Er9  1  0.675585  0.817208  0.374944  1
  Er  Er10  1  0.177554  0.676366  0.377875  1
  Er  Er11  1  0.819523  0.312295  0.874790  1
  Er  Er12  1  0.819523  0.312295  0.625210  1
  Er  Er13  1  0.845240  0.490257  0.250000  1
  Er  Er14  1  0.341479  0.009581  0.250000  1
  Er  Er15  1  0.336664  0.175187  0.874672  1
  Er  Er16  1  0.177554  0.676366  0.122125  1
  Er  Er17  1  0.675585  0.817208  0.125056  1
  Er  Er18  1  0.151676  0.505041  0.750000  1
  Si  Si19  1  0.260899  0.877568  0.750000  1
  Si  Si20  1  0.470312  0.612729  0.250000  1
  Si  Si21  1  0.044616  0.117868  0.750000  1
  Si  Si22  1  0.525051  0.408523  0.750000  1
  Si  Si23  1  0.148493  0.470323  0.542494  1
  Si  Si24  1  0.970257  0.880136  0.250000  1
  Si  Si25  1  0.722228  0.120357  0.250000  1
  Si  Si26  1  0.852698  0.530606  0.036525  1
  Si  Si27  1  0.352587  0.967980  0.039646  1
  Si  Si28  1  0.148493  0.470323  0.957506  1
  Si  Si29  1  0.651756  0.038331  0.528370  1
  Si  Si30  1  0.352587  0.967980  0.460354  1
  Si  Si31  1  0.852698  0.530606  0.463475  1
  Si  Si32  1  0.779475  0.604979  0.750000  1
  Si  Si33  1  0.223157  0.378517  0.250000  1
  Si  Si34  1  0.651756  0.038331  0.971630  1
  Hg  Hg35  1  0.652999  0.987774  0.750000  1
