# generated using pymatgen
data_BaLa3(Si5Pt3)2
_symmetry_space_group_name_H-M   'P 1'
_cell_length_a   8.41323857
_cell_length_b   8.40221830
_cell_length_c   8.40221738
_cell_angle_alpha   136.89329614
_cell_angle_beta   105.86638274
_cell_angle_gamma   89.78051020
_symmetry_Int_Tables_number   1
_chemical_formula_structural   BaLa3(Si5Pt3)2
_chemical_formula_sum   'Ba1 La3 Si10 Pt6'
_cell_volume   372.70151201
_cell_formula_units_Z   1
loop_
 _symmetry_equiv_pos_site_id
 _symmetry_equiv_pos_as_xyz
  1  'x, y, z'
loop_
 _atom_site_type_symbol
 _atom_site_label
 _atom_site_symmetry_multiplicity
 _atom_site_fract_x
 _atom_site_fract_y
 _atom_site_fract_z
 _atom_site_occupancy
  Ba  Ba0  1  0.864432  0.628418  0.236014  1
  La  La1  1  0.137803  0.371416  0.766386  1
  La  La2  1  0.395129  0.128411  0.266718  1
  La  La3  1  0.605216  0.871758  0.733458  1
  Si  Si4  1  0.497920  0.747569  0.247499  1
  Si  Si5  1  0.497920  0.250421  0.750353  1
  Si  Si6  1  0.232587  0.982898  0.751681  1
  Si  Si7  1  0.768625  0.519806  0.748273  1
  Si  Si8  1  0.768625  0.020353  0.248821  1
  Si  Si9  1  0.232587  0.480907  0.249690  1
  Si  Si10  1  0.036847  0.889730  0.147117  1
  Si  Si11  1  0.966621  0.112706  0.853915  1
  Si  Si12  1  0.738076  0.383889  0.354187  1
  Si  Si13  1  0.258516  0.612605  0.645911  1
  Pt  Pt14  1  0.001586  0.749774  0.752830  1
  Pt  Pt15  1  0.001586  0.248758  0.251812  1
  Pt  Pt16  1  0.257214  0.866381  0.390834  1
  Pt  Pt17  1  0.742069  0.135318  0.606750  1
  Pt  Pt18  1  0.472983  0.362809  0.110174  1
  Pt  Pt19  1  0.523652  0.636076  0.887578  1
