# generated using pymatgen
data_La3Yb5(DyIr2)2
_symmetry_space_group_name_H-M   'P 1'
_cell_length_a   6.66114173
_cell_length_b   7.34045288
_cell_length_c   8.69987998
_cell_angle_alpha   96.42603160
_cell_angle_beta   111.96241869
_cell_angle_gamma   89.65031255
_symmetry_Int_Tables_number   1
_chemical_formula_structural   La3Yb5(DyIr2)2
_chemical_formula_sum   'La3 Yb5 Dy2 Ir4'
_cell_volume   391.74308652
_cell_formula_units_Z   1
loop_
 _symmetry_equiv_pos_site_id
 _symmetry_equiv_pos_as_xyz
  1  'x, y, z'
loop_
 _atom_site_type_symbol
 _atom_site_label
 _atom_site_symmetry_multiplicity
 _atom_site_fract_x
 _atom_site_fract_y
 _atom_site_fract_z
 _atom_site_occupancy
  La  La0  1  0.646909  0.316879  0.433539  1
  La  La1  1  0.791572  0.820408  0.434823  1
  La  La2  1  0.348634  0.684756  0.568751  1
  Yb  Yb3  1  0.805000  0.083342  0.825025  1
  Yb  Yb4  1  0.978794  0.417350  0.176322  1
  Yb  Yb5  1  0.195162  0.917634  0.175406  1
  Yb  Yb6  1  0.020472  0.581287  0.822487  1
  Yb  Yb7  1  0.213432  0.183764  0.566117  1
  Dy  Dy8  1  0.433963  0.247355  0.993558  1
  Dy  Dy9  1  0.561523  0.749810  0.000103  1
  Ir  Ir10  1  0.597454  0.433031  0.783154  1
  Ir  Ir11  1  0.808099  0.070265  0.210805  1
  Ir  Ir12  1  0.410044  0.568587  0.221532  1
  Ir  Ir13  1  0.188943  0.925532  0.788377  1
