# generated using pymatgen
data_Mg3Be2V(B2Rh5)2
_symmetry_space_group_name_H-M   'P 1'
_cell_length_a   9.19897202
_cell_length_b   2.87647200
_cell_length_c   9.19897202
_cell_angle_alpha   90.00000000
_cell_angle_beta   90.59980710
_cell_angle_gamma   90.00000000
_symmetry_Int_Tables_number   1
_chemical_formula_structural   Mg3Be2V(B2Rh5)2
_chemical_formula_sum   'Mg3 Be2 V1 B4 Rh10'
_cell_volume   243.39684718
_cell_formula_units_Z   1
loop_
 _symmetry_equiv_pos_site_id
 _symmetry_equiv_pos_as_xyz
  1  'x, y, z'
loop_
 _atom_site_type_symbol
 _atom_site_label
 _atom_site_symmetry_multiplicity
 _atom_site_fract_x
 _atom_site_fract_y
 _atom_site_fract_z
 _atom_site_occupancy
  Mg  Mg0  1  0.822833  0.000000  0.325947  1
  Mg  Mg1  1  0.174053  0.000000  0.677167  1
  Mg  Mg2  1  0.676226  0.000000  0.823774  1
  Be  Be3  1  0.001420  0.000000  0.000300  1
  Be  Be4  1  0.499700  0.000000  0.498580  1
  V  V5  1  0.324228  0.000000  0.175772  1
  B  B6  1  0.631929  0.000000  0.129156  1
  B  B7  1  0.127408  0.000000  0.372593  1
  B  B8  1  0.870011  0.000000  0.629989  1
  B  B9  1  0.370845  0.000000  0.868071  1
  Rh  Rh10  1  0.496169  0.500001  0.003831  1
  Rh  Rh11  1  0.794092  0.500001  0.070846  1
  Rh  Rh12  1  0.078197  0.500001  0.205713  1
  Rh  Rh13  1  0.560254  0.500001  0.289321  1
  Rh  Rh14  1  0.294287  0.500001  0.421803  1
  Rh  Rh15  1  0.000449  0.500001  0.499551  1
  Rh  Rh16  1  0.705949  0.500001  0.567882  1
  Rh  Rh17  1  0.429154  0.500001  0.705907  1
  Rh  Rh18  1  0.932117  0.500001  0.794050  1
  Rh  Rh19  1  0.210679  0.500001  0.939745  1
