# generated using pymatgen
data_Ho2PaRu3
_symmetry_space_group_name_H-M   'P 1'
_cell_length_a   5.84537493
_cell_length_b   5.84537309
_cell_length_c   8.09749300
_cell_angle_alpha   90.00000000
_cell_angle_beta   90.00000000
_cell_angle_gamma   120.02159359
_symmetry_Int_Tables_number   1
_chemical_formula_structural   Ho2PaRu3
_chemical_formula_sum   'Ho4 Pa2 Ru6'
_cell_volume   239.55833274
_cell_formula_units_Z   2
loop_
 _symmetry_equiv_pos_site_id
 _symmetry_equiv_pos_as_xyz
  1  'x, y, z'
loop_
 _atom_site_type_symbol
 _atom_site_label
 _atom_site_symmetry_multiplicity
 _atom_site_fract_x
 _atom_site_fract_y
 _atom_site_fract_z
 _atom_site_occupancy
  Ho  Ho0  1  0.666687  0.333313  0.558829  1
  Ho  Ho1  1  0.333313  0.666687  0.441171  1
  Ho  Ho2  1  0.333313  0.666687  0.058829  1
  Ho  Ho3  1  0.666687  0.333313  0.941171  1
  Pa  Pa4  1  0.000000  0.000000  0.500000  1
  Pa  Pa5  1  0.000000  0.000000  0.000000  1
  Ru  Ru6  1  0.167546  0.334890  0.750000  1
  Ru  Ru7  1  0.167453  0.832547  0.750000  1
  Ru  Ru8  1  0.665110  0.832454  0.750000  1
  Ru  Ru9  1  0.832454  0.665110  0.250000  1
  Ru  Ru10  1  0.832547  0.167453  0.250000  1
  Ru  Ru11  1  0.334890  0.167546  0.250000  1
