# generated using pymatgen
data_Li3Nd3HgGeP
_symmetry_space_group_name_H-M   'P 1'
_cell_length_a   7.36968700
_cell_length_b   7.36968848
_cell_length_c   4.30541500
_cell_angle_alpha   90.00000000
_cell_angle_beta   90.00000000
_cell_angle_gamma   120.00000683
_symmetry_Int_Tables_number   1
_chemical_formula_structural   Li3Nd3HgGeP
_chemical_formula_sum   'Li3 Nd3 Hg1 Ge1 P1'
_cell_volume   202.50875088
_cell_formula_units_Z   1
loop_
 _symmetry_equiv_pos_site_id
 _symmetry_equiv_pos_as_xyz
  1  'x, y, z'
loop_
 _atom_site_type_symbol
 _atom_site_label
 _atom_site_symmetry_multiplicity
 _atom_site_fract_x
 _atom_site_fract_y
 _atom_site_fract_z
 _atom_site_occupancy
  Li  Li0  1  0.250107  0.996623  0.500000  1
  Li  Li1  1  0.746516  0.749893  0.500000  1
  Li  Li2  1  0.003377  0.253484  0.500000  1
  Nd  Nd3  1  0.000780  0.573805  0.000000  1
  Nd  Nd4  1  0.573025  0.999220  0.000000  1
  Nd  Nd5  1  0.426195  0.426975  0.000000  1
  Hg  Hg6  1  0.000000  0.000000  0.000000  1
  Ge  Ge7  1  0.666667  0.333333  0.500000  1
  P  P8  1  0.333333  0.666667  0.500000  1
