# generated using pymatgen
data_Cs6ScBiSe3
_symmetry_space_group_name_H-M   'P 1'
_cell_length_a   11.39117500
_cell_length_b   11.39117618
_cell_length_c   9.32096100
_cell_angle_alpha   90.00000000
_cell_angle_beta   90.00000000
_cell_angle_gamma   119.99999948
_symmetry_Int_Tables_number   1
_chemical_formula_structural   Cs6ScBiSe3
_chemical_formula_sum   'Cs12 Sc2 Bi2 Se6'
_cell_volume   1047.43822145
_cell_formula_units_Z   2
loop_
 _symmetry_equiv_pos_site_id
 _symmetry_equiv_pos_as_xyz
  1  'x, y, z'
loop_
 _atom_site_type_symbol
 _atom_site_label
 _atom_site_symmetry_multiplicity
 _atom_site_fract_x
 _atom_site_fract_y
 _atom_site_fract_z
 _atom_site_occupancy
  Cs  Cs0  1  0.141680  0.858320  0.536406  1
  Cs  Cs1  1  0.283360  0.141680  0.036406  1
  Cs  Cs2  1  0.858320  0.716640  0.036406  1
  Cs  Cs3  1  0.141680  0.283360  0.536406  1
  Cs  Cs4  1  0.716640  0.858320  0.536406  1
  Cs  Cs5  1  0.858320  0.141680  0.036406  1
  Cs  Cs6  1  0.528831  0.471169  0.371414  1
  Cs  Cs7  1  0.057662  0.528831  0.871414  1
  Cs  Cs8  1  0.471169  0.942338  0.871414  1
  Cs  Cs9  1  0.528831  0.057662  0.371414  1
  Cs  Cs10  1  0.942338  0.471169  0.371414  1
  Cs  Cs11  1  0.471169  0.528831  0.871414  1
  Sc  Sc12  1  0.333333  0.666667  0.243317  1
  Sc  Sc13  1  0.666667  0.333333  0.743317  1
  Bi  Bi14  1  0.333333  0.666667  0.556868  1
  Bi  Bi15  1  0.666667  0.333333  0.056868  1
  Se  Se16  1  0.204124  0.795876  0.162019  1
  Se  Se17  1  0.408247  0.204124  0.662019  1
  Se  Se18  1  0.795876  0.591753  0.662019  1
  Se  Se19  1  0.204124  0.408247  0.162019  1
  Se  Se20  1  0.591753  0.795876  0.162019  1
  Se  Se21  1  0.795876  0.204124  0.662019  1
