# generated using pymatgen
data_Tm6Al6IrAu5
_symmetry_space_group_name_H-M   'P 1'
_cell_length_a   7.23053600
_cell_length_b   7.23053562
_cell_length_c   7.97719400
_cell_angle_alpha   90.00000000
_cell_angle_beta   90.00000000
_cell_angle_gamma   119.99999258
_symmetry_Int_Tables_number   1
_chemical_formula_structural   Tm6Al6IrAu5
_chemical_formula_sum   'Tm6 Al6 Ir1 Au5'
_cell_volume   361.17840928
_cell_formula_units_Z   1
loop_
 _symmetry_equiv_pos_site_id
 _symmetry_equiv_pos_as_xyz
  1  'x, y, z'
loop_
 _atom_site_type_symbol
 _atom_site_label
 _atom_site_symmetry_multiplicity
 _atom_site_fract_x
 _atom_site_fract_y
 _atom_site_fract_z
 _atom_site_occupancy
  Tm  Tm0  1  0.593328  0.996834  0.750000  1
  Tm  Tm1  1  0.003166  0.596491  0.750000  1
  Tm  Tm2  1  0.403509  0.406672  0.750000  1
  Tm  Tm3  1  0.997362  0.581593  0.250000  1
  Tm  Tm4  1  0.584231  0.002638  0.250000  1
  Tm  Tm5  1  0.418407  0.415769  0.250000  1
  Al  Al6  1  0.761309  0.760480  0.991579  1
  Al  Al7  1  0.239520  0.000830  0.991579  1
  Al  Al8  1  0.999170  0.238691  0.991579  1
  Al  Al9  1  0.761309  0.760480  0.508421  1
  Al  Al10  1  0.239520  0.000830  0.508421  1
  Al  Al11  1  0.999170  0.238691  0.508421  1
  Ir  Ir12  1  0.000000  0.000000  0.750000  1
  Au  Au13  1  0.000000  0.000000  0.250000  1
  Au  Au14  1  0.666667  0.333333  0.994914  1
  Au  Au15  1  0.666667  0.333333  0.505086  1
  Au  Au16  1  0.333333  0.666667  0.498106  1
  Au  Au17  1  0.333333  0.666667  0.001894  1
