# generated using pymatgen
data_PrSmFe4(CoB2)4
_symmetry_space_group_name_H-M   'P 1'
_cell_length_a   7.05038815
_cell_length_b   7.03829815
_cell_length_c   3.80219000
_cell_angle_alpha   90.00000000
_cell_angle_beta   90.00000000
_cell_angle_gamma   90.02388023
_symmetry_Int_Tables_number   1
_chemical_formula_structural   PrSmFe4(CoB2)4
_chemical_formula_sum   'Pr1 Sm1 Fe4 Co4 B8'
_cell_volume   188.67504628
_cell_formula_units_Z   1
loop_
 _symmetry_equiv_pos_site_id
 _symmetry_equiv_pos_as_xyz
  1  'x, y, z'
loop_
 _atom_site_type_symbol
 _atom_site_label
 _atom_site_symmetry_multiplicity
 _atom_site_fract_x
 _atom_site_fract_y
 _atom_site_fract_z
 _atom_site_occupancy
  Pr  Pr0  1  0.000000  0.000000  0.000953  1
  Sm  Sm1  1  0.500000  0.500000  0.500439  1
  Fe  Fe2  1  0.387198  0.134150  0.894435  1
  Fe  Fe3  1  0.612802  0.865850  0.894435  1
  Fe  Fe4  1  0.368280  0.886036  0.394010  1
  Fe  Fe5  1  0.631720  0.113964  0.394010  1
  Co  Co6  1  0.115382  0.362767  0.608012  1
  Co  Co7  1  0.884618  0.637233  0.608012  1
  Co  Co8  1  0.140705  0.613893  0.107567  1
  Co  Co9  1  0.859295  0.386107  0.107567  1
  B  B10  1  0.793508  0.662273  0.104495  1
  B  B11  1  0.206492  0.337727  0.104495  1
  B  B12  1  0.834823  0.299114  0.603032  1
  B  B13  1  0.165177  0.700886  0.603032  1
  B  B14  1  0.697137  0.834086  0.394720  1
  B  B15  1  0.302863  0.165914  0.394720  1
  B  B16  1  0.663092  0.202240  0.893034  1
  B  B17  1  0.336908  0.797760  0.893034  1
