# generated using pymatgen
data_Ho3Zn3CuIr2
_symmetry_space_group_name_H-M   'P 1'
_cell_length_a   7.18267400
_cell_length_b   7.18267350
_cell_length_c   3.79651700
_cell_angle_alpha   90.00000000
_cell_angle_beta   90.00000000
_cell_angle_gamma   120.00001150
_symmetry_Int_Tables_number   1
_chemical_formula_structural   Ho3Zn3CuIr2
_chemical_formula_sum   'Ho3 Zn3 Cu1 Ir2'
_cell_volume   169.62435581
_cell_formula_units_Z   1
loop_
 _symmetry_equiv_pos_site_id
 _symmetry_equiv_pos_as_xyz
  1  'x, y, z'
loop_
 _atom_site_type_symbol
 _atom_site_label
 _atom_site_symmetry_multiplicity
 _atom_site_fract_x
 _atom_site_fract_y
 _atom_site_fract_z
 _atom_site_occupancy
  Ho  Ho0  1  0.000000  0.587920  0.500000  1
  Ho  Ho1  1  0.412080  0.412080  0.500000  1
  Ho  Ho2  1  0.587920  0.000000  0.500000  1
  Zn  Zn3  1  0.749907  0.749907  0.000000  1
  Zn  Zn4  1  0.000000  0.250093  0.000000  1
  Zn  Zn5  1  0.250093  0.000000  0.000000  1
  Cu  Cu6  1  0.000000  0.000000  0.500000  1
  Ir  Ir7  1  0.333333  0.666667  0.000000  1
  Ir  Ir8  1  0.666667  0.333333  0.000000  1
