# generated using pymatgen
data_YHo7(AlRh)2
_symmetry_space_group_name_H-M   'P 1'
_cell_length_a   9.50063177
_cell_length_b   9.50040782
_cell_length_c   9.49972801
_cell_angle_alpha   60.00286967
_cell_angle_beta   60.00318531
_cell_angle_gamma   59.96556409
_symmetry_Int_Tables_number   1
_chemical_formula_structural   YHo7(AlRh)2
_chemical_formula_sum   'Y2 Ho14 Al4 Rh4'
_cell_volume   606.17443579
_cell_formula_units_Z   2
loop_
 _symmetry_equiv_pos_site_id
 _symmetry_equiv_pos_as_xyz
  1  'x, y, z'
loop_
 _atom_site_type_symbol
 _atom_site_label
 _atom_site_symmetry_multiplicity
 _atom_site_fract_x
 _atom_site_fract_y
 _atom_site_fract_z
 _atom_site_occupancy
  Y  Y0  1  0.935996  0.935997  0.564004  1
  Y  Y1  1  0.563736  0.563737  0.936268  1
  Ho  Ho2  1  0.692647  0.692651  0.307347  1
  Ho  Ho3  1  0.146165  0.558592  0.147619  1
  Ho  Ho4  1  0.693267  0.307623  0.692219  1
  Ho  Ho5  1  0.147375  0.147385  0.149148  1
  Ho  Ho6  1  0.558595  0.146160  0.147622  1
  Ho  Ho7  1  0.693265  0.307624  0.306895  1
  Ho  Ho8  1  0.147384  0.147376  0.556093  1
  Ho  Ho9  1  0.307615  0.693276  0.306890  1
  Ho  Ho10  1  0.307623  0.693266  0.692220  1
  Ho  Ho11  1  0.937103  0.562428  0.562585  1
  Ho  Ho12  1  0.937108  0.562434  0.937874  1
  Ho  Ho13  1  0.562435  0.937101  0.562582  1
  Ho  Ho14  1  0.562431  0.937110  0.937875  1
  Ho  Ho15  1  0.307097  0.307102  0.692895  1
  Al  Al16  1  0.922246  0.922244  0.233506  1
  Al  Al17  1  0.232910  0.922665  0.922211  1
  Al  Al18  1  0.922248  0.922241  0.922002  1
  Al  Al19  1  0.922666  0.232904  0.922215  1
  Rh  Rh20  1  0.357224  0.357199  0.927649  1
  Rh  Rh21  1  0.358047  0.927624  0.357164  1
  Rh  Rh22  1  0.927607  0.358047  0.357188  1
  Rh  Rh23  1  0.357210  0.357209  0.357925  1
