# generated using pymatgen
data_Tb4Ga4Ir2PdRh
_symmetry_space_group_name_H-M   'P 1'
_cell_length_a   4.36639400
_cell_length_b   6.88255298
_cell_length_c   7.79550525
_cell_angle_alpha   89.84585465
_cell_angle_beta   90.00000000
_cell_angle_gamma   90.00000000
_symmetry_Int_Tables_number   1
_chemical_formula_structural   Tb4Ga4Ir2PdRh
_chemical_formula_sum   'Tb4 Ga4 Ir2 Pd1 Rh1'
_cell_volume   234.26919287
_cell_formula_units_Z   1
loop_
 _symmetry_equiv_pos_site_id
 _symmetry_equiv_pos_as_xyz
  1  'x, y, z'
loop_
 _atom_site_type_symbol
 _atom_site_label
 _atom_site_symmetry_multiplicity
 _atom_site_fract_x
 _atom_site_fract_y
 _atom_site_fract_z
 _atom_site_occupancy
  Tb  Tb0  1  0.250000  0.477814  0.189187  1
  Tb  Tb1  1  0.750000  0.521932  0.814588  1
  Tb  Tb2  1  0.250000  0.977237  0.304218  1
  Tb  Tb3  1  0.750000  0.031638  0.691093  1
  Ga  Ga4  1  0.250000  0.845901  0.930427  1
  Ga  Ga5  1  0.750000  0.157158  0.071241  1
  Ga  Ga6  1  0.250000  0.338353  0.570251  1
  Ga  Ga7  1  0.750000  0.654020  0.428174  1
  Ir  Ir8  1  0.750000  0.769639  0.109281  1
  Ir  Ir9  1  0.250000  0.231311  0.890881  1
  Pd  Pd10  1  0.250000  0.726479  0.606834  1
  Rh  Rh11  1  0.750000  0.268519  0.393827  1
