# generated using pymatgen
data_Tb9Pr6Y(CdPt)4
_symmetry_space_group_name_H-M   'P 1'
_cell_length_a   9.84605340
_cell_length_b   9.84605382
_cell_length_c   9.82382100
_cell_angle_alpha   60.07466406
_cell_angle_beta   60.07466266
_cell_angle_gamma   60.27350312
_symmetry_Int_Tables_number   1
_chemical_formula_structural   Tb9Pr6Y(CdPt)4
_chemical_formula_sum   'Tb9 Pr6 Y1 Cd4 Pt4'
_cell_volume   675.57055903
_cell_formula_units_Z   1
loop_
 _symmetry_equiv_pos_site_id
 _symmetry_equiv_pos_as_xyz
  1  'x, y, z'
loop_
 _atom_site_type_symbol
 _atom_site_label
 _atom_site_symmetry_multiplicity
 _atom_site_fract_x
 _atom_site_fract_y
 _atom_site_fract_z
 _atom_site_occupancy
  Tb  Tb0  1  0.349899  0.349899  0.349931  1
  Tb  Tb1  1  0.349899  0.349899  0.950272  1
  Tb  Tb2  1  0.351395  0.948364  0.350120  1
  Tb  Tb3  1  0.948364  0.351395  0.350120  1
  Tb  Tb4  1  0.811527  0.188211  0.189329  1
  Tb  Tb5  1  0.188211  0.811527  0.810933  1
  Tb  Tb6  1  0.188211  0.811527  0.189329  1
  Tb  Tb7  1  0.811527  0.188211  0.810933  1
  Tb  Tb8  1  0.188624  0.188624  0.811376  1
  Pr  Pr9  1  0.939158  0.560860  0.562558  1
  Pr  Pr10  1  0.560860  0.939158  0.937423  1
  Pr  Pr11  1  0.560860  0.939158  0.562558  1
  Pr  Pr12  1  0.939158  0.560860  0.937423  1
  Pr  Pr13  1  0.561215  0.561215  0.938785  1
  Pr  Pr14  1  0.938341  0.938341  0.561659  1
  Y  Y15  1  0.810713  0.810713  0.189287  1
  Cd  Cd16  1  0.579993  0.579993  0.578828  1
  Cd  Cd17  1  0.579993  0.579993  0.261184  1
  Cd  Cd18  1  0.579636  0.261243  0.579559  1
  Cd  Cd19  1  0.261243  0.579636  0.579559  1
  Pt  Pt20  1  0.143058  0.143058  0.143259  1
  Pt  Pt21  1  0.143058  0.143058  0.570625  1
  Pt  Pt22  1  0.143425  0.571630  0.142472  1
  Pt  Pt23  1  0.571630  0.143425  0.142472  1
