# generated using pymatgen
data_Dy2Er4C3Cl5
_symmetry_space_group_name_H-M   'P 1'
_cell_length_a   3.63020360
_cell_length_b   8.26252805
_cell_length_c   10.22016688
_cell_angle_alpha   85.39393918
_cell_angle_beta   79.68994522
_cell_angle_gamma   77.36996096
_symmetry_Int_Tables_number   1
_chemical_formula_structural   Dy2Er4C3Cl5
_chemical_formula_sum   'Dy2 Er4 C3 Cl5'
_cell_volume   294.03195170
_cell_formula_units_Z   1
loop_
 _symmetry_equiv_pos_site_id
 _symmetry_equiv_pos_as_xyz
  1  'x, y, z'
loop_
 _atom_site_type_symbol
 _atom_site_label
 _atom_site_symmetry_multiplicity
 _atom_site_fract_x
 _atom_site_fract_y
 _atom_site_fract_z
 _atom_site_occupancy
  Dy  Dy0  1  0.320981  0.818037  0.543756  1
  Dy  Dy1  1  0.431820  0.924242  0.217941  1
  Er  Er2  1  0.574021  0.074677  0.778084  1
  Er  Er3  1  0.959565  0.428020  0.655530  1
  Er  Er4  1  0.683442  0.179607  0.456560  1
  Er  Er5  1  0.045514  0.569623  0.343131  1
  C  C6  1  0.126997  0.123688  0.625366  1
  C  C7  1  0.877555  0.875628  0.373148  1
  C  C8  1  0.503303  0.497396  0.499230  1
  Cl  Cl9  1  0.752778  0.744568  0.756240  1
  Cl  Cl10  1  0.379982  0.378527  0.865363  1
  Cl  Cl11  1  0.250215  0.254487  0.245955  1
  Cl  Cl12  1  0.626735  0.615986  0.133036  1
  Cl  Cl13  1  0.004313  0.999106  0.995977  1
