# generated using pymatgen
data_Ba6Li(TcO6)2
_symmetry_space_group_name_H-M   'P 1'
_cell_length_a   9.24048469
_cell_length_b   9.24048424
_cell_length_c   7.28302900
_cell_angle_alpha   67.70466878
_cell_angle_beta   67.70466992
_cell_angle_gamma   36.81827801
_symmetry_Int_Tables_number   1
_chemical_formula_structural   Ba6Li(TcO6)2
_chemical_formula_sum   'Ba6 Li1 Tc2 O12'
_cell_volume   341.58816006
_cell_formula_units_Z   1
loop_
 _symmetry_equiv_pos_site_id
 _symmetry_equiv_pos_as_xyz
  1  'x, y, z'
loop_
 _atom_site_type_symbol
 _atom_site_label
 _atom_site_symmetry_multiplicity
 _atom_site_fract_x
 _atom_site_fract_y
 _atom_site_fract_z
 _atom_site_occupancy
  Ba  Ba0  1  0.204556  0.204556  0.710062  1
  Ba  Ba1  1  0.889491  0.889491  0.710237  1
  Ba  Ba2  1  0.547624  0.547624  0.717827  1
  Ba  Ba3  1  0.795444  0.795444  0.289938  1
  Ba  Ba4  1  0.452376  0.452376  0.282173  1
  Ba  Ba5  1  0.110509  0.110509  0.289763  1
  Li  Li6  1  0.000000  0.000000  0.000000  1
  Tc  Tc7  1  0.668914  0.668914  0.001469  1
  Tc  Tc8  1  0.331086  0.331086  0.998531  1
  O  O9  1  0.279979  0.279979  0.299591  1
  O  O10  1  0.943598  0.943598  0.329875  1
  O  O11  1  0.620845  0.620845  0.299867  1
  O  O12  1  0.720021  0.720021  0.700409  1
  O  O13  1  0.379155  0.379155  0.700133  1
  O  O14  1  0.056402  0.056402  0.670125  1
  O  O15  1  0.000000  0.500000  0.000000  1
  O  O16  1  0.636613  0.179279  0.000622  1
  O  O17  1  0.363387  0.820721  0.999378  1
  O  O18  1  0.500000  0.000000  0.000000  1
  O  O19  1  0.179279  0.636613  0.000622  1
  O  O20  1  0.820721  0.363387  0.999378  1
