# generated using pymatgen
data_Np4Ga11GeRh
_symmetry_space_group_name_H-M   'P 1'
_cell_length_a   7.46834325
_cell_length_b   7.46834353
_cell_length_c   7.46834373
_cell_angle_alpha   109.70466136
_cell_angle_beta   109.70466212
_cell_angle_gamma   109.00533549
_symmetry_Int_Tables_number   1
_chemical_formula_structural   Np4Ga11GeRh
_chemical_formula_sum   'Np4 Ga11 Ge1 Rh1'
_cell_volume   320.64869424
_cell_formula_units_Z   1
loop_
 _symmetry_equiv_pos_site_id
 _symmetry_equiv_pos_as_xyz
  1  'x, y, z'
loop_
 _atom_site_type_symbol
 _atom_site_label
 _atom_site_symmetry_multiplicity
 _atom_site_fract_x
 _atom_site_fract_y
 _atom_site_fract_z
 _atom_site_occupancy
  Np  Np0  1  0.503599  0.496401  0.500000  1
  Np  Np1  1  0.996401  0.496401  0.992802  1
  Np  Np2  1  0.996401  0.003599  0.500000  1
  Np  Np3  1  0.503599  0.003599  0.007198  1
  Ga  Ga4  1  0.006084  0.715109  0.709025  1
  Ga  Ga5  1  0.284891  0.993916  0.290975  1
  Ga  Ga6  1  0.495919  0.247747  0.751828  1
  Ga  Ga7  1  0.752253  0.504081  0.248172  1
  Ga  Ga8  1  0.250000  0.750000  0.500000  1
  Ga  Ga9  1  0.255909  0.504081  0.751828  1
  Ga  Ga10  1  0.702940  0.993916  0.709025  1
  Ga  Ga11  1  0.495919  0.744091  0.248172  1
  Ga  Ga12  1  0.711067  0.711067  0.000000  1
  Ga  Ga13  1  0.288933  0.288933  0.000000  1
  Ga  Ga14  1  0.006084  0.297060  0.290975  1
  Ge  Ge15  1  0.750000  0.250000  0.500000  1
  Rh  Rh16  1  0.000000  0.000000  0.000000  1
