# generated using pymatgen
data_Ca2Tb2As6Ir7
_symmetry_space_group_name_H-M   'P 1'
_cell_length_a   7.30964767
_cell_length_b   7.30964805
_cell_length_c   7.30550325
_cell_angle_alpha   109.49329419
_cell_angle_beta   109.49329244
_cell_angle_gamma   109.45007631
_symmetry_Int_Tables_number   1
_chemical_formula_structural   Ca2Tb2As6Ir7
_chemical_formula_sum   'Ca2 Tb2 As6 Ir7'
_cell_volume   300.39849664
_cell_formula_units_Z   1
loop_
 _symmetry_equiv_pos_site_id
 _symmetry_equiv_pos_as_xyz
  1  'x, y, z'
loop_
 _atom_site_type_symbol
 _atom_site_label
 _atom_site_symmetry_multiplicity
 _atom_site_fract_x
 _atom_site_fract_y
 _atom_site_fract_z
 _atom_site_occupancy
  Ca  Ca0  1  0.000000  0.000000  0.500000  1
  Ca  Ca1  1  0.500000  0.500000  0.500000  1
  Tb  Tb2  1  0.500000  0.000000  0.000000  1
  Tb  Tb3  1  0.000000  0.500000  0.000000  1
  As  As4  1  0.679903  0.679903  0.000000  1
  As  As5  1  0.320097  0.320097  0.000000  1
  As  As6  1  0.997793  0.680072  0.677865  1
  As  As7  1  0.002207  0.319928  0.322135  1
  As  As8  1  0.680072  0.997793  0.677865  1
  As  As9  1  0.319928  0.002207  0.322135  1
  Ir  Ir10  1  0.000000  0.000000  0.000000  1
  Ir  Ir11  1  0.249818  0.502476  0.752294  1
  Ir  Ir12  1  0.750000  0.250000  0.500000  1
  Ir  Ir13  1  0.502476  0.249818  0.752294  1
  Ir  Ir14  1  0.497524  0.750182  0.247706  1
  Ir  Ir15  1  0.750182  0.497524  0.247706  1
  Ir  Ir16  1  0.250000  0.750000  0.500000  1
