# generated using pymatgen
data_Y2Rh6S
_symmetry_space_group_name_H-M   'P 1'
_cell_length_a   5.96331810
_cell_length_b   5.96331749
_cell_length_c   5.96331800
_cell_angle_alpha   59.99999717
_cell_angle_beta   60.00000058
_cell_angle_gamma   59.99999377
_symmetry_Int_Tables_number   1
_chemical_formula_structural   Y2Rh6S
_chemical_formula_sum   'Y2 Rh6 S1'
_cell_volume   149.95082249
_cell_formula_units_Z   1
loop_
 _symmetry_equiv_pos_site_id
 _symmetry_equiv_pos_as_xyz
  1  'x, y, z'
loop_
 _atom_site_type_symbol
 _atom_site_label
 _atom_site_symmetry_multiplicity
 _atom_site_fract_x
 _atom_site_fract_y
 _atom_site_fract_z
 _atom_site_occupancy
  Y  Y0  1  0.250000  0.250000  0.250000  1
  Y  Y1  1  0.750000  0.750000  0.750000  1
  Rh  Rh2  1  0.735540  0.264461  0.264461  1
  Rh  Rh3  1  0.264461  0.735540  0.264461  1
  Rh  Rh4  1  0.735539  0.735539  0.264462  1
  Rh  Rh5  1  0.264462  0.735539  0.735539  1
  Rh  Rh6  1  0.264461  0.264461  0.735540  1
  Rh  Rh7  1  0.735539  0.264462  0.735539  1
  S  S8  1  0.000000  0.000000  0.000000  1
