# generated using pymatgen
data_La2PrIrO8
_symmetry_space_group_name_H-M   'P 1'
_cell_length_a   6.34288800
_cell_length_b   7.56657712
_cell_length_c   7.56399500
_cell_angle_alpha   70.11970562
_cell_angle_beta   90.00000000
_cell_angle_gamma   90.00000000
_symmetry_Int_Tables_number   1
_chemical_formula_structural   La2PrIrO8
_chemical_formula_sum   'La4 Pr2 Ir2 O16'
_cell_volume   341.39152220
_cell_formula_units_Z   2
loop_
 _symmetry_equiv_pos_site_id
 _symmetry_equiv_pos_as_xyz
  1  'x, y, z'
loop_
 _atom_site_type_symbol
 _atom_site_label
 _atom_site_symmetry_multiplicity
 _atom_site_fract_x
 _atom_site_fract_y
 _atom_site_fract_z
 _atom_site_occupancy
  La  La0  1  0.250000  0.397961  0.396510  1
  La  La1  1  0.750000  0.602039  0.603490  1
  La  La2  1  0.250000  0.331547  0.895483  1
  La  La3  1  0.750000  0.668453  0.104517  1
  Pr  Pr4  1  0.750000  0.106170  0.662031  1
  Pr  Pr5  1  0.250000  0.893830  0.337969  1
  Ir  Ir6  1  0.250000  0.816149  0.817930  1
  Ir  Ir7  1  0.750000  0.183851  0.182070  1
  O  O8  1  0.000113  0.334384  0.663925  1
  O  O9  1  0.500113  0.665616  0.336075  1
  O  O10  1  0.999887  0.665616  0.336075  1
  O  O11  1  0.499887  0.334384  0.663925  1
  O  O12  1  0.947169  0.808244  0.804792  1
  O  O13  1  0.447169  0.191756  0.195208  1
  O  O14  1  0.052831  0.191756  0.195208  1
  O  O15  1  0.552831  0.808244  0.804792  1
  O  O16  1  0.750000  0.967386  0.411417  1
  O  O17  1  0.250000  0.032614  0.588583  1
  O  O18  1  0.750000  0.340132  0.339246  1
  O  O19  1  0.250000  0.659868  0.660754  1
  O  O20  1  0.750000  0.413368  0.966859  1
  O  O21  1  0.250000  0.586632  0.033141  1
  O  O22  1  0.750000  0.035312  0.025811  1
  O  O23  1  0.250000  0.964688  0.974189  1
