# generated using pymatgen
data_Hf18TiRe7Se2
_symmetry_space_group_name_H-M   'P 1'
_cell_length_a   8.69781400
_cell_length_b   8.69781497
_cell_length_c   8.57941700
_cell_angle_alpha   90.00000000
_cell_angle_beta   90.00000000
_cell_angle_gamma   119.99999632
_symmetry_Int_Tables_number   1
_chemical_formula_structural   Hf18TiRe7Se2
_chemical_formula_sum   'Hf18 Ti1 Re7 Se2'
_cell_volume   562.09368438
_cell_formula_units_Z   1
loop_
 _symmetry_equiv_pos_site_id
 _symmetry_equiv_pos_as_xyz
  1  'x, y, z'
loop_
 _atom_site_type_symbol
 _atom_site_label
 _atom_site_symmetry_multiplicity
 _atom_site_fract_x
 _atom_site_fract_y
 _atom_site_fract_z
 _atom_site_occupancy
  Hf  Hf0  1  0.192277  0.807723  0.451440  1
  Hf  Hf1  1  0.192277  0.384553  0.451440  1
  Hf  Hf2  1  0.615447  0.807723  0.451440  1
  Hf  Hf3  1  0.807723  0.192277  0.548560  1
  Hf  Hf4  1  0.807723  0.615447  0.548560  1
  Hf  Hf5  1  0.384553  0.192277  0.548560  1
  Hf  Hf6  1  0.809212  0.190788  0.950245  1
  Hf  Hf7  1  0.809212  0.618425  0.950245  1
  Hf  Hf8  1  0.381575  0.190788  0.950245  1
  Hf  Hf9  1  0.190788  0.809212  0.049755  1
  Hf  Hf10  1  0.190788  0.381575  0.049755  1
  Hf  Hf11  1  0.618425  0.809212  0.049755  1
  Hf  Hf12  1  0.544459  0.455541  0.247298  1
  Hf  Hf13  1  0.544459  0.088919  0.247298  1
  Hf  Hf14  1  0.911081  0.455541  0.247298  1
  Hf  Hf15  1  0.455541  0.544459  0.752702  1
  Hf  Hf16  1  0.455541  0.911081  0.752702  1
  Hf  Hf17  1  0.088919  0.544459  0.752702  1
  Ti  Ti18  1  0.000000  0.000000  0.500000  1
  Re  Re19  1  0.889238  0.110762  0.252582  1
  Re  Re20  1  0.889238  0.778475  0.252582  1
  Re  Re21  1  0.221525  0.110762  0.252582  1
  Re  Re22  1  0.110762  0.889238  0.747418  1
  Re  Re23  1  0.110762  0.221525  0.747418  1
  Re  Re24  1  0.778475  0.889238  0.747418  1
  Re  Re25  1  0.000000  0.000000  0.000000  1
  Se  Se26  1  0.333333  0.666667  0.248746  1
  Se  Se27  1  0.666667  0.333333  0.751254  1
