# generated using pymatgen
data_GdEr5(WO7)2
_symmetry_space_group_name_H-M   'P 1'
_cell_length_a   6.42323955
_cell_length_b   6.42324005
_cell_length_c   7.50958800
_cell_angle_alpha   90.06816723
_cell_angle_beta   89.93183277
_cell_angle_gamma   109.17720193
_symmetry_Int_Tables_number   1
_chemical_formula_structural   GdEr5(WO7)2
_chemical_formula_sum   'Gd1 Er5 W2 O14'
_cell_volume   292.63695613
_cell_formula_units_Z   1
loop_
 _symmetry_equiv_pos_site_id
 _symmetry_equiv_pos_as_xyz
  1  'x, y, z'
loop_
 _atom_site_type_symbol
 _atom_site_label
 _atom_site_symmetry_multiplicity
 _atom_site_fract_x
 _atom_site_fract_y
 _atom_site_fract_z
 _atom_site_occupancy
  Gd  Gd0  1  0.500000  0.500000  0.000000  1
  Er  Er1  1  0.500000  0.500000  0.500000  1
  Er  Er2  1  0.532764  0.001868  0.748207  1
  Er  Er3  1  0.001868  0.532764  0.251793  1
  Er  Er4  1  0.467236  0.998132  0.251793  1
  Er  Er5  1  0.998132  0.467236  0.748207  1
  W  W6  1  0.000000  0.000000  0.500000  1
  W  W7  1  0.000000  0.000000  0.000000  1
  O  O8  1  0.675706  0.924718  0.470114  1
  O  O9  1  0.924718  0.675706  0.529886  1
  O  O10  1  0.675213  0.925648  0.030449  1
  O  O11  1  0.925648  0.675213  0.969551  1
  O  O12  1  0.324294  0.075282  0.529886  1
  O  O13  1  0.075282  0.324294  0.470114  1
  O  O14  1  0.324787  0.074352  0.969551  1
  O  O15  1  0.074352  0.324787  0.030449  1
  O  O16  1  0.924480  0.075520  0.750184  1
  O  O17  1  0.075520  0.924480  0.249816  1
  O  O18  1  0.366959  0.633041  0.744185  1
  O  O19  1  0.633041  0.366959  0.255815  1
  O  O20  1  0.637646  0.362354  0.744204  1
  O  O21  1  0.362354  0.637646  0.255796  1
