# generated using pymatgen
data_DyTm3Mn16(FeP3)4
_symmetry_space_group_name_H-M   'P 1'
_cell_length_a   3.57853600
_cell_length_b   10.56286705
_cell_length_c   12.17940321
_cell_angle_alpha   90.05098746
_cell_angle_beta   90.00000000
_cell_angle_gamma   90.00000000
_symmetry_Int_Tables_number   1
_chemical_formula_structural   DyTm3Mn16(FeP3)4
_chemical_formula_sum   'Dy1 Tm3 Mn16 Fe4 P12'
_cell_volume   460.37638695
_cell_formula_units_Z   1
loop_
 _symmetry_equiv_pos_site_id
 _symmetry_equiv_pos_as_xyz
  1  'x, y, z'
loop_
 _atom_site_type_symbol
 _atom_site_label
 _atom_site_symmetry_multiplicity
 _atom_site_fract_x
 _atom_site_fract_y
 _atom_site_fract_z
 _atom_site_occupancy
  Dy  Dy0  1  0.750000  0.083752  0.791928  1
  Tm  Tm1  1  0.250000  0.583438  0.708107  1
  Tm  Tm2  1  0.250000  0.916113  0.208017  1
  Tm  Tm3  1  0.750000  0.416756  0.291846  1
  Mn  Mn4  1  0.250000  0.710857  0.986274  1
  Mn  Mn5  1  0.250000  0.788301  0.485558  1
  Mn  Mn6  1  0.750000  0.288927  0.014779  1
  Mn  Mn7  1  0.750000  0.211785  0.514286  1
  Mn  Mn8  1  0.250000  0.409100  0.492650  1
  Mn  Mn9  1  0.250000  0.090873  0.993533  1
  Mn  Mn10  1  0.750000  0.591101  0.507127  1
  Mn  Mn11  1  0.750000  0.908599  0.007778  1
  Mn  Mn12  1  0.250000  0.218066  0.175641  1
  Mn  Mn13  1  0.250000  0.282830  0.675529  1
  Mn  Mn14  1  0.750000  0.781529  0.824276  1
  Mn  Mn15  1  0.750000  0.717629  0.323976  1
  Mn  Mn16  1  0.250000  0.876863  0.696852  1
  Mn  Mn17  1  0.250000  0.622377  0.197201  1
  Mn  Mn18  1  0.750000  0.122514  0.302924  1
  Mn  Mn19  1  0.750000  0.378488  0.802972  1
  Fe  Fe20  1  0.250000  0.463997  0.931923  1
  Fe  Fe21  1  0.250000  0.036569  0.430639  1
  Fe  Fe22  1  0.750000  0.536747  0.068676  1
  Fe  Fe23  1  0.750000  0.962796  0.567468  1
  P  P24  1  0.250000  0.421225  0.111170  1
  P  P25  1  0.250000  0.078887  0.609776  1
  P  P26  1  0.750000  0.579125  0.889116  1
  P  P27  1  0.750000  0.920467  0.388499  1
  P  P28  1  0.250000  0.264789  0.872638  1
  P  P29  1  0.250000  0.237164  0.371898  1
  P  P30  1  0.750000  0.736626  0.128183  1
  P  P31  1  0.750000  0.762977  0.627890  1
  P  P32  1  0.250000  0.592520  0.385347  1
  P  P33  1  0.250000  0.906101  0.886118  1
  P  P34  1  0.750000  0.407846  0.614586  1
  P  P35  1  0.750000  0.092260  0.114822  1
