# generated using pymatgen
data_Ca7Ac(MnN3)4
_symmetry_space_group_name_H-M   'P 1'
_cell_length_a   5.95685896
_cell_length_b   5.95685880
_cell_length_c   11.74846997
_cell_angle_alpha   90.72889434
_cell_angle_beta   89.27110718
_cell_angle_gamma   125.32453632
_symmetry_Int_Tables_number   1
_chemical_formula_structural   Ca7Ac(MnN3)4
_chemical_formula_sum   'Ca7 Ac1 Mn4 N12'
_cell_volume   340.09718349
_cell_formula_units_Z   1
loop_
 _symmetry_equiv_pos_site_id
 _symmetry_equiv_pos_as_xyz
  1  'x, y, z'
loop_
 _atom_site_type_symbol
 _atom_site_label
 _atom_site_symmetry_multiplicity
 _atom_site_fract_x
 _atom_site_fract_y
 _atom_site_fract_z
 _atom_site_occupancy
  Ca  Ca0  1  0.552543  0.447457  0.649385  1
  Ca  Ca1  1  0.050092  0.949908  0.854904  1
  Ca  Ca2  1  0.941067  0.058933  0.135643  1
  Ca  Ca3  1  0.144261  0.855739  0.430128  1
  Ca  Ca4  1  0.862018  0.137982  0.580470  1
  Ca  Ca5  1  0.358200  0.641800  0.922206  1
  Ca  Ca6  1  0.637006  0.362994  0.072005  1
  Ac  Ac7  1  0.454634  0.545366  0.350259  1
  Mn  Mn8  1  0.248006  0.751994  0.158531  1
  Mn  Mn9  1  0.743919  0.256081  0.838616  1
  Mn  Mn10  1  0.245134  0.754866  0.663190  1
  Mn  Mn11  1  0.759676  0.240324  0.341119  1
  N  N12  1  0.151569  0.848431  0.038792  1
  N  N13  1  0.839576  0.160424  0.959720  1
  N  N14  1  0.346100  0.653900  0.540106  1
  N  N15  1  0.663677  0.336323  0.465817  1
  N  N16  1  0.417236  0.582764  0.129061  1
  N  N17  1  0.577155  0.422845  0.865018  1
  N  N18  1  0.079065  0.920935  0.637005  1
  N  N19  1  0.928410  0.071590  0.363964  1
  N  N20  1  0.965777  0.532638  0.251989  1
  N  N21  1  0.534411  0.966891  0.750040  1
  N  N22  1  0.033109  0.465589  0.750040  1
  N  N23  1  0.467362  0.034223  0.251989  1
