# generated using pymatgen
data_Cd2Ni2SbRhO8
_symmetry_space_group_name_H-M   'P 1'
_cell_length_a   6.22253566
_cell_length_b   6.32461422
_cell_length_c   6.33323300
_cell_angle_alpha   60.33310678
_cell_angle_beta   60.57652491
_cell_angle_gamma   60.53248975
_symmetry_Int_Tables_number   1
_chemical_formula_structural   Cd2Ni2SbRhO8
_chemical_formula_sum   'Cd2 Ni2 Sb1 Rh1 O8'
_cell_volume   178.15614561
_cell_formula_units_Z   1
loop_
 _symmetry_equiv_pos_site_id
 _symmetry_equiv_pos_as_xyz
  1  'x, y, z'
loop_
 _atom_site_type_symbol
 _atom_site_label
 _atom_site_symmetry_multiplicity
 _atom_site_fract_x
 _atom_site_fract_y
 _atom_site_fract_z
 _atom_site_occupancy
  Cd  Cd0  1  0.266740  0.224223  0.242295  1
  Cd  Cd1  1  0.983260  0.025777  0.007705  1
  Ni  Ni2  1  0.125000  0.625000  0.625000  1
  Ni  Ni3  1  0.625000  0.625000  0.625000  1
  Sb  Sb4  1  0.625000  0.125000  0.625000  1
  Rh  Rh5  1  0.625000  0.625000  0.125000  1
  O  O6  1  0.848216  0.875968  0.427601  1
  O  O7  1  0.853923  0.439228  0.852927  1
  O  O8  1  0.419664  0.870257  0.861589  1
  O  O9  1  0.848492  0.870257  0.861589  1
  O  O10  1  0.401784  0.374032  0.822399  1
  O  O11  1  0.396077  0.810772  0.397073  1
  O  O12  1  0.830336  0.379743  0.388411  1
  O  O13  1  0.401508  0.379743  0.388411  1
