# generated using pymatgen
data_TaCo4B4W3
_symmetry_space_group_name_H-M   'P 1'
_cell_length_a   3.27308400
_cell_length_b   5.75987566
_cell_length_c   6.67169972
_cell_angle_alpha   90.24918580
_cell_angle_beta   90.00000000
_cell_angle_gamma   90.00000000
_symmetry_Int_Tables_number   1
_chemical_formula_structural   TaCo4B4W3
_chemical_formula_sum   'Ta1 Co4 B4 W3'
_cell_volume   125.77740893
_cell_formula_units_Z   1
loop_
 _symmetry_equiv_pos_site_id
 _symmetry_equiv_pos_as_xyz
  1  'x, y, z'
loop_
 _atom_site_type_symbol
 _atom_site_label
 _atom_site_symmetry_multiplicity
 _atom_site_fract_x
 _atom_site_fract_y
 _atom_site_fract_z
 _atom_site_occupancy
  Ta  Ta0  1  0.250000  0.027456  0.822335  1
  Co  Co1  1  0.250000  0.145203  0.440938  1
  Co  Co2  1  0.250000  0.641731  0.058082  1
  Co  Co3  1  0.750000  0.857036  0.557825  1
  Co  Co4  1  0.750000  0.357148  0.942932  1
  B  B5  1  0.250000  0.268662  0.128530  1
  B  B6  1  0.250000  0.770146  0.374568  1
  B  B7  1  0.750000  0.724968  0.877179  1
  B  B8  1  0.750000  0.235347  0.620518  1
  W  W9  1  0.250000  0.526813  0.674401  1
  W  W10  1  0.750000  0.972411  0.178503  1
  W  W11  1  0.750000  0.473079  0.324188  1
