# generated using pymatgen
data_PaTiCl6
_symmetry_space_group_name_H-M   'P 1'
_cell_length_a   6.45128188
_cell_length_b   6.45171940
_cell_length_c   20.88165098
_cell_angle_alpha   89.96811936
_cell_angle_beta   90.02977567
_cell_angle_gamma   119.94530099
_symmetry_Int_Tables_number   1
_chemical_formula_structural   PaTiCl6
_chemical_formula_sum   'Pa3 Ti3 Cl18'
_cell_volume   753.10578071
_cell_formula_units_Z   3
loop_
 _symmetry_equiv_pos_site_id
 _symmetry_equiv_pos_as_xyz
  1  'x, y, z'
loop_
 _atom_site_type_symbol
 _atom_site_label
 _atom_site_symmetry_multiplicity
 _atom_site_fract_x
 _atom_site_fract_y
 _atom_site_fract_z
 _atom_site_occupancy
  Pa  Pa0  1  0.651804  0.983765  0.665503  1
  Pa  Pa1  1  0.348226  0.016257  0.334342  1
  Pa  Pa2  1  0.666674  0.334195  0.000096  1
  Ti  Ti3  1  0.016281  0.348870  0.334379  1
  Ti  Ti4  1  0.333835  0.665647  0.000122  1
  Ti  Ti5  1  0.982846  0.651271  0.665523  1
  Cl  Cl6  1  0.337909  0.978853  0.071790  1
  Cl  Cl7  1  0.325823  0.662038  0.263074  1
  Cl  Cl8  1  0.020265  0.041891  0.262054  1
  Cl  Cl9  1  0.323605  0.344571  0.406627  1
  Cl  Cl10  1  0.676260  0.655908  0.592857  1
  Cl  Cl11  1  0.641684  0.662062  0.072573  1
  Cl  Cl12  1  0.018671  0.661117  0.405753  1
  Cl  Cl13  1  0.703402  0.346193  0.262902  1
  Cl  Cl14  1  0.980855  0.339445  0.593989  1
  Cl  Cl15  1  0.703038  0.038968  0.405675  1
  Cl  Cl16  1  0.642342  0.979230  0.928482  1
  Cl  Cl17  1  0.020717  0.357613  0.071881  1
  Cl  Cl18  1  0.979235  0.958204  0.738153  1
  Cl  Cl19  1  0.674561  0.337912  0.737184  1
  Cl  Cl20  1  0.296776  0.960432  0.594007  1
  Cl  Cl21  1  0.021174  0.662371  0.928261  1
  Cl  Cl22  1  0.337803  0.358217  0.927703  1
  Cl  Cl23  1  0.296214  0.654971  0.737068  1
