# generated using pymatgen
data_Eu2TaCdO6
_symmetry_space_group_name_H-M   'P 1'
_cell_length_a   5.67858890
_cell_length_b   5.97840600
_cell_length_c   10.01031804
_cell_angle_alpha   90.00000000
_cell_angle_beta   125.10352851
_cell_angle_gamma   90.00000000
_symmetry_Int_Tables_number   1
_chemical_formula_structural   Eu2TaCdO6
_chemical_formula_sum   'Eu4 Ta2 Cd2 O12'
_cell_volume   278.02746288
_cell_formula_units_Z   2
loop_
 _symmetry_equiv_pos_site_id
 _symmetry_equiv_pos_as_xyz
  1  'x, y, z'
loop_
 _atom_site_type_symbol
 _atom_site_label
 _atom_site_symmetry_multiplicity
 _atom_site_fract_x
 _atom_site_fract_y
 _atom_site_fract_z
 _atom_site_occupancy
  Eu  Eu0  1  0.238334  0.441085  0.754120  1
  Eu  Eu1  1  0.238334  0.058915  0.254120  1
  Eu  Eu2  1  0.761666  0.558915  0.245880  1
  Eu  Eu3  1  0.761666  0.941085  0.745880  1
  Ta  Ta4  1  0.000000  0.500000  0.000000  1
  Ta  Ta5  1  0.000000  0.000000  0.500000  1
  Cd  Cd6  1  0.500000  0.500000  0.500000  1
  Cd  Cd7  1  0.500000  0.000000  0.000000  1
  O  O8  1  0.346813  0.052519  0.729818  1
  O  O9  1  0.346813  0.447481  0.229818  1
  O  O10  1  0.653187  0.947481  0.270182  1
  O  O11  1  0.653187  0.552519  0.770182  1
  O  O12  1  0.762642  0.177545  0.551423  1
  O  O13  1  0.762642  0.322455  0.051423  1
  O  O14  1  0.237358  0.822455  0.448577  1
  O  O15  1  0.237358  0.677545  0.948577  1
  O  O16  1  0.101214  0.220229  0.930330  1
  O  O17  1  0.101214  0.279771  0.430330  1
  O  O18  1  0.898786  0.779771  0.069670  1
  O  O19  1  0.898786  0.720229  0.569670  1
