# generated using pymatgen
data_YEr4Ga2Ru3
_symmetry_space_group_name_H-M   'P 1'
_cell_length_a   8.28362610
_cell_length_b   8.28769690
_cell_length_c   8.28300544
_cell_angle_alpha   109.44075587
_cell_angle_beta   109.50706697
_cell_angle_gamma   109.46101634
_symmetry_Int_Tables_number   1
_chemical_formula_structural   YEr4Ga2Ru3
_chemical_formula_sum   'Y2 Er8 Ga4 Ru6'
_cell_volume   437.77013950
_cell_formula_units_Z   2
loop_
 _symmetry_equiv_pos_site_id
 _symmetry_equiv_pos_as_xyz
  1  'x, y, z'
loop_
 _atom_site_type_symbol
 _atom_site_label
 _atom_site_symmetry_multiplicity
 _atom_site_fract_x
 _atom_site_fract_y
 _atom_site_fract_z
 _atom_site_occupancy
  Y  Y0  1  0.281651  0.281709  0.781935  1
  Y  Y1  1  0.682901  0.750273  0.932771  1
  Er  Er2  1  0.999844  0.217008  0.000012  1
  Er  Er3  1  0.750287  0.432198  0.182577  1
  Er  Er4  1  0.432289  0.682445  0.250394  1
  Er  Er5  1  0.249988  0.067528  0.317303  1
  Er  Er6  1  0.216554  0.500090  0.499527  1
  Er  Er7  1  0.817194  0.249769  0.567363  1
  Er  Er8  1  0.499975  0.999778  0.716602  1
  Er  Er9  1  0.067559  0.817293  0.749792  1
  Ga  Ga10  1  0.000339  0.587562  0.000249  1
  Ga  Ga11  1  0.499954  0.000237  0.087691  1
  Ga  Ga12  1  0.912148  0.912081  0.412277  1
  Ga  Ga13  1  0.587586  0.500116  0.499754  1
  Ru  Ru14  1  0.374977  0.249788  0.126149  1
  Ru  Ru15  1  0.876262  0.126814  0.251337  1
  Ru  Ru16  1  0.125217  0.750131  0.375300  1
  Ru  Ru17  1  0.750269  0.875694  0.624930  1
  Ru  Ru18  1  0.625849  0.373622  0.749177  1
  Ru  Ru19  1  0.249159  0.625866  0.874861  1
