# generated using pymatgen
data_Yb2PrGa8Ag3
_symmetry_space_group_name_H-M   'P 1'
_cell_length_a   4.42200849
_cell_length_b   8.37263478
_cell_length_c   8.37263439
_cell_angle_alpha   70.35738365
_cell_angle_beta   74.68798810
_cell_angle_gamma   74.68799029
_symmetry_Int_Tables_number   1
_chemical_formula_structural   Yb2PrGa8Ag3
_chemical_formula_sum   'Yb2 Pr1 Ga8 Ag3'
_cell_volume   276.29133169
_cell_formula_units_Z   1
loop_
 _symmetry_equiv_pos_site_id
 _symmetry_equiv_pos_as_xyz
  1  'x, y, z'
loop_
 _atom_site_type_symbol
 _atom_site_label
 _atom_site_symmetry_multiplicity
 _atom_site_fract_x
 _atom_site_fract_y
 _atom_site_fract_z
 _atom_site_occupancy
  Yb  Yb0  1  0.802587  0.197413  0.197413  1
  Yb  Yb1  1  0.197413  0.802587  0.802587  1
  Pr  Pr2  1  0.500000  0.500000  0.500000  1
  Ga  Ga3  1  0.643526  0.076173  0.636775  1
  Ga  Ga4  1  0.356474  0.923827  0.363225  1
  Ga  Ga5  1  0.643526  0.636775  0.076173  1
  Ga  Ga6  1  0.356474  0.363225  0.923827  1
  Ga  Ga7  1  0.836894  0.794835  0.531375  1
  Ga  Ga8  1  0.163106  0.205165  0.468625  1
  Ga  Ga9  1  0.836894  0.531375  0.794835  1
  Ga  Ga10  1  0.163106  0.468625  0.205165  1
  Ag  Ag11  1  0.500000  0.000000  0.000000  1
  Ag  Ag12  1  0.000000  0.803797  0.196203  1
  Ag  Ag13  1  0.000000  0.196203  0.803797  1
