# generated using pymatgen
data_Tm12Co4CuBi
_symmetry_space_group_name_H-M   'P 1'
_cell_length_a   8.19624827
_cell_length_b   8.19624788
_cell_length_c   8.19624806
_cell_angle_alpha   110.18803609
_cell_angle_beta   111.35191939
_cell_angle_gamma   106.90600207
_symmetry_Int_Tables_number   1
_chemical_formula_structural   Tm12Co4CuBi
_chemical_formula_sum   'Tm12 Co4 Cu1 Bi1'
_cell_volume   423.18148794
_cell_formula_units_Z   1
loop_
 _symmetry_equiv_pos_site_id
 _symmetry_equiv_pos_as_xyz
  1  'x, y, z'
loop_
 _atom_site_type_symbol
 _atom_site_label
 _atom_site_symmetry_multiplicity
 _atom_site_fract_x
 _atom_site_fract_y
 _atom_site_fract_z
 _atom_site_occupancy
  Tm  Tm0  1  0.286635  0.183170  0.469805  1
  Tm  Tm1  1  0.713365  0.816830  0.530195  1
  Tm  Tm2  1  0.286635  0.816830  0.103464  1
  Tm  Tm3  1  0.713365  0.183170  0.896536  1
  Tm  Tm4  1  0.620466  0.312793  0.307673  1
  Tm  Tm5  1  0.379534  0.687207  0.692327  1
  Tm  Tm6  1  0.005120  0.312793  0.692327  1
  Tm  Tm7  1  0.994880  0.687207  0.307673  1
  Tm  Tm8  1  0.214333  0.415744  0.201413  1
  Tm  Tm9  1  0.785667  0.584256  0.798587  1
  Tm  Tm10  1  0.214333  0.012920  0.798587  1
  Tm  Tm11  1  0.785667  0.987080  0.201413  1
  Co  Co12  1  0.000000  0.375158  0.375158  1
  Co  Co13  1  0.000000  0.624842  0.624842  1
  Co  Co14  1  0.386558  0.886558  0.500000  1
  Co  Co15  1  0.613442  0.113442  0.500000  1
  Cu  Cu16  1  0.000000  0.000000  0.000000  1
  Bi  Bi17  1  0.500000  0.500000  0.000000  1
