# generated using pymatgen
data_YTh(AlIr)2
_symmetry_space_group_name_H-M   'P 1'
_cell_length_a   6.91507600
_cell_length_b   4.35173100
_cell_length_c   8.01633600
_cell_angle_alpha   90.00000000
_cell_angle_beta   90.00000000
_cell_angle_gamma   90.00000000
_symmetry_Int_Tables_number   1
_chemical_formula_structural   YTh(AlIr)2
_chemical_formula_sum   'Y2 Th2 Al4 Ir4'
_cell_volume   241.23199668
_cell_formula_units_Z   2
loop_
 _symmetry_equiv_pos_site_id
 _symmetry_equiv_pos_as_xyz
  1  'x, y, z'
loop_
 _atom_site_type_symbol
 _atom_site_label
 _atom_site_symmetry_multiplicity
 _atom_site_fract_x
 _atom_site_fract_y
 _atom_site_fract_z
 _atom_site_occupancy
  Y  Y0  1  0.965314  0.250000  0.186585  1
  Y  Y1  1  0.465314  0.250000  0.313415  1
  Th  Th2  1  0.032991  0.750000  0.823272  1
  Th  Th3  1  0.532991  0.750000  0.676728  1
  Al  Al4  1  0.863809  0.250000  0.554053  1
  Al  Al5  1  0.363809  0.250000  0.945947  1
  Al  Al6  1  0.136920  0.750000  0.430231  1
  Al  Al7  1  0.636920  0.750000  0.069769  1
  Ir  Ir8  1  0.736698  0.250000  0.876436  1
  Ir  Ir9  1  0.236698  0.250000  0.623564  1
  Ir  Ir10  1  0.264269  0.750000  0.114999  1
  Ir  Ir11  1  0.764269  0.750000  0.385001  1
