# generated using pymatgen
data_Ho(Er3In2)3
_symmetry_space_group_name_H-M   'P 1'
_cell_length_a   5.99925117
_cell_length_b   9.09167201
_cell_length_c   9.09167238
_cell_angle_alpha   83.75070764
_cell_angle_beta   70.73540586
_cell_angle_gamma   70.73540685
_symmetry_Int_Tables_number   1
_chemical_formula_structural   Ho(Er3In2)3
_chemical_formula_sum   'Ho1 Er9 In6'
_cell_volume   441.90934437
_cell_formula_units_Z   1
loop_
 _symmetry_equiv_pos_site_id
 _symmetry_equiv_pos_as_xyz
  1  'x, y, z'
loop_
 _atom_site_type_symbol
 _atom_site_label
 _atom_site_symmetry_multiplicity
 _atom_site_fract_x
 _atom_site_fract_y
 _atom_site_fract_z
 _atom_site_occupancy
  Ho  Ho0  1  0.250000  0.500000  0.500000  1
  Er  Er1  1  0.719043  0.861934  0.699844  1
  Er  Er2  1  0.280821  0.138066  0.300156  1
  Er  Er3  1  0.780957  0.300156  0.138066  1
  Er  Er4  1  0.219179  0.699844  0.861934  1
  Er  Er5  1  0.581113  0.699844  0.138066  1
  Er  Er6  1  0.419023  0.300156  0.861934  1
  Er  Er7  1  0.080977  0.138066  0.699844  1
  Er  Er8  1  0.918887  0.861934  0.300156  1
  Er  Er9  1  0.750000  0.500000  0.500000  1
  In  In10  1  0.162449  0.500000  0.174833  1
  In  In11  1  0.837282  0.500000  0.825167  1
  In  In12  1  0.337551  0.825167  0.500000  1
  In  In13  1  0.662718  0.174833  0.500000  1
  In  In14  1  0.250000  0.000000  0.000000  1
  In  In15  1  0.750000  0.000000  0.000000  1
