# generated using pymatgen
data_Nd8Hf11Si16Au
_symmetry_space_group_name_H-M   'P 1'
_cell_length_a   7.40474629
_cell_length_b   7.40474590
_cell_length_c   13.47446113
_cell_angle_alpha   89.67271362
_cell_angle_beta   90.32728470
_cell_angle_gamma   89.70520779
_symmetry_Int_Tables_number   1
_chemical_formula_structural   Nd8Hf11Si16Au
_chemical_formula_sum   'Nd8 Hf11 Si16 Au1'
_cell_volume   738.77426039
_cell_formula_units_Z   1
loop_
 _symmetry_equiv_pos_site_id
 _symmetry_equiv_pos_as_xyz
  1  'x, y, z'
loop_
 _atom_site_type_symbol
 _atom_site_label
 _atom_site_symmetry_multiplicity
 _atom_site_fract_x
 _atom_site_fract_y
 _atom_site_fract_z
 _atom_site_occupancy
  Nd  Nd0  1  0.996828  0.345204  0.210541  1
  Nd  Nd1  1  0.006230  0.655436  0.716467  1
  Nd  Nd2  1  0.156135  0.494059  0.465084  1
  Nd  Nd3  1  0.498272  0.848748  0.032476  1
  Nd  Nd4  1  0.848748  0.498272  0.967524  1
  Nd  Nd5  1  0.494059  0.156135  0.534916  1
  Nd  Nd6  1  0.345204  0.996828  0.789459  1
  Nd  Nd7  1  0.655436  0.006230  0.283533  1
  Hf  Hf8  1  0.824659  0.824659  0.500000  1
  Hf  Hf9  1  0.321851  0.677294  0.249200  1
  Hf  Hf10  1  0.677294  0.321851  0.750800  1
  Hf  Hf11  1  0.146768  0.994587  0.373719  1
  Hf  Hf12  1  0.856525  0.003886  0.879071  1
  Hf  Hf13  1  0.505897  0.649152  0.626321  1
  Hf  Hf14  1  0.354140  0.489051  0.878765  1
  Hf  Hf15  1  0.489051  0.354140  0.121235  1
  Hf  Hf16  1  0.649152  0.505897  0.373679  1
  Hf  Hf17  1  0.994587  0.146768  0.626281  1
  Hf  Hf18  1  0.003886  0.856525  0.120929  1
  Si  Si19  1  0.362831  0.297976  0.313964  1
  Si  Si20  1  0.636749  0.702834  0.818020  1
  Si  Si21  1  0.206166  0.864208  0.566537  1
  Si  Si22  1  0.129807  0.775031  0.929546  1
  Si  Si23  1  0.775031  0.129807  0.070454  1
  Si  Si24  1  0.864208  0.206166  0.433463  1
  Si  Si25  1  0.297976  0.362831  0.686036  1
  Si  Si26  1  0.702834  0.636749  0.181980  1
  Si  Si27  1  0.291074  0.052411  0.189183  1
  Si  Si28  1  0.708863  0.949764  0.687110  1
  Si  Si29  1  0.449515  0.791567  0.435765  1
  Si  Si30  1  0.213273  0.568953  0.064591  1
  Si  Si31  1  0.568953  0.213273  0.935409  1
  Si  Si32  1  0.791567  0.449515  0.564235  1
  Si  Si33  1  0.052411  0.291074  0.810817  1
  Si  Si34  1  0.949764  0.708863  0.312890  1
  Au  Au35  1  0.174253  0.174253  0.000000  1
