# generated using pymatgen
data_Cs2PrY(SiSe4)2
_symmetry_space_group_name_H-M   'P 1'
_cell_length_a   7.14715772
_cell_length_b   6.80880145
_cell_length_c   9.89560860
_cell_angle_alpha   72.06553271
_cell_angle_beta   90.05662135
_cell_angle_gamma   90.18849766
_symmetry_Int_Tables_number   1
_chemical_formula_structural   Cs2PrY(SiSe4)2
_chemical_formula_sum   'Cs2 Pr1 Y1 Si2 Se8'
_cell_volume   458.15412737
_cell_formula_units_Z   1
loop_
 _symmetry_equiv_pos_site_id
 _symmetry_equiv_pos_as_xyz
  1  'x, y, z'
loop_
 _atom_site_type_symbol
 _atom_site_label
 _atom_site_symmetry_multiplicity
 _atom_site_fract_x
 _atom_site_fract_y
 _atom_site_fract_z
 _atom_site_occupancy
  Cs  Cs0  1  0.978584  0.735451  0.064170  1
  Cs  Cs1  1  0.478572  0.264158  0.935893  1
  Pr  Pr2  1  0.497066  0.226559  0.455429  1
  Y  Y3  1  0.000803  0.770379  0.545610  1
  Si  Si4  1  0.462299  0.782600  0.336544  1
  Si  Si5  1  0.962129  0.217733  0.663244  1
  Se  Se6  1  0.468935  0.589789  0.185644  1
  Se  Se7  1  0.225725  0.023701  0.291998  1
  Se  Se8  1  0.733365  0.976272  0.311646  1
  Se  Se9  1  0.902927  0.427782  0.437937  1
  Se  Se10  1  0.395939  0.584026  0.564177  1
  Se  Se11  1  0.224598  0.013677  0.690717  1
  Se  Se12  1  0.733023  0.967610  0.708942  1
  Se  Se13  1  0.970035  0.420264  0.808048  1
