# generated using pymatgen
data_Y15ErCd4Ir3Pd
_symmetry_space_group_name_H-M   'P 1'
_cell_length_a   9.67732132
_cell_length_b   9.67732047
_cell_length_c   9.67731992
_cell_angle_alpha   60.12435173
_cell_angle_beta   60.12435861
_cell_angle_gamma   60.12435526
_symmetry_Int_Tables_number   1
_chemical_formula_structural   Y15ErCd4Ir3Pd
_chemical_formula_sum   'Y15 Er1 Cd4 Ir3 Pd1'
_cell_volume   642.64653505
_cell_formula_units_Z   1
loop_
 _symmetry_equiv_pos_site_id
 _symmetry_equiv_pos_as_xyz
  1  'x, y, z'
loop_
 _atom_site_type_symbol
 _atom_site_label
 _atom_site_symmetry_multiplicity
 _atom_site_fract_x
 _atom_site_fract_y
 _atom_site_fract_z
 _atom_site_occupancy
  Y  Y0  1  0.353934  0.353934  0.946923  1
  Y  Y1  1  0.353934  0.946923  0.353934  1
  Y  Y2  1  0.946923  0.353934  0.353934  1
  Y  Y3  1  0.803735  0.191209  0.191209  1
  Y  Y4  1  0.188577  0.810223  0.810223  1
  Y  Y5  1  0.191209  0.803735  0.191209  1
  Y  Y6  1  0.810223  0.188577  0.810223  1
  Y  Y7  1  0.191209  0.191209  0.803735  1
  Y  Y8  1  0.810223  0.810223  0.188577  1
  Y  Y9  1  0.939124  0.562609  0.562609  1
  Y  Y10  1  0.564604  0.937068  0.937068  1
  Y  Y11  1  0.562609  0.939124  0.562609  1
  Y  Y12  1  0.937068  0.564604  0.937068  1
  Y  Y13  1  0.562609  0.562609  0.939124  1
  Y  Y14  1  0.937068  0.937068  0.564604  1
  Er  Er15  1  0.346810  0.346810  0.346810  1
  Cd  Cd16  1  0.580642  0.580642  0.580642  1
  Cd  Cd17  1  0.580497  0.580497  0.256540  1
  Cd  Cd18  1  0.580497  0.256540  0.580497  1
  Cd  Cd19  1  0.256540  0.580497  0.580497  1
  Ir  Ir20  1  0.142964  0.142964  0.572918  1
  Ir  Ir21  1  0.142964  0.572918  0.142964  1
  Ir  Ir22  1  0.572918  0.142964  0.142964  1
  Pd  Pd23  1  0.143120  0.143120  0.143120  1
