# generated using pymatgen
data_Dy10Y2Tc3Pd
_symmetry_space_group_name_H-M   'P 1'
_cell_length_a   6.29531300
_cell_length_b   7.42902965
_cell_length_c   9.15375800
_cell_angle_alpha   90.00000000
_cell_angle_beta   90.00000000
_cell_angle_gamma   90.13832235
_symmetry_Int_Tables_number   1
_chemical_formula_structural   Dy10Y2Tc3Pd
_chemical_formula_sum   'Dy10 Y2 Tc3 Pd1'
_cell_volume   428.10231923
_cell_formula_units_Z   1
loop_
 _symmetry_equiv_pos_site_id
 _symmetry_equiv_pos_as_xyz
  1  'x, y, z'
loop_
 _atom_site_type_symbol
 _atom_site_label
 _atom_site_symmetry_multiplicity
 _atom_site_fract_x
 _atom_site_fract_y
 _atom_site_fract_z
 _atom_site_occupancy
  Dy  Dy0  1  0.371202  0.957133  0.750000  1
  Dy  Dy1  1  0.123502  0.462048  0.750000  1
  Dy  Dy2  1  0.165344  0.184139  0.057634  1
  Dy  Dy3  1  0.830181  0.823909  0.931660  1
  Dy  Dy4  1  0.664361  0.321812  0.935311  1
  Dy  Dy5  1  0.830181  0.823909  0.568340  1
  Dy  Dy6  1  0.341482  0.670291  0.058386  1
  Dy  Dy7  1  0.165344  0.184139  0.442366  1
  Dy  Dy8  1  0.341482  0.670291  0.441614  1
  Dy  Dy9  1  0.664361  0.321812  0.564689  1
  Y  Y10  1  0.626364  0.044453  0.250000  1
  Y  Y11  1  0.869450  0.533852  0.250000  1
  Tc  Tc12  1  0.451741  0.385204  0.250000  1
  Tc  Tc13  1  0.537842  0.614952  0.750000  1
  Tc  Tc14  1  0.964520  0.114191  0.750000  1
  Pd  Pd15  1  0.052641  0.887865  0.250000  1
