# generated using pymatgen
data_Ho11Cd9Pd4
_symmetry_space_group_name_H-M   'P 1'
_cell_length_a   13.11588895
_cell_length_b   13.11589034
_cell_length_c   3.70406200
_cell_angle_alpha   90.00000000
_cell_angle_beta   90.00000000
_cell_angle_gamma   112.77108441
_symmetry_Int_Tables_number   1
_chemical_formula_structural   Ho11Cd9Pd4
_chemical_formula_sum   'Ho11 Cd9 Pd4'
_cell_volume   587.53302020
_cell_formula_units_Z   1
loop_
 _symmetry_equiv_pos_site_id
 _symmetry_equiv_pos_as_xyz
  1  'x, y, z'
loop_
 _atom_site_type_symbol
 _atom_site_label
 _atom_site_symmetry_multiplicity
 _atom_site_fract_x
 _atom_site_fract_y
 _atom_site_fract_z
 _atom_site_occupancy
  Ho  Ho0  1  0.415438  0.075581  0.000000  1
  Ho  Ho1  1  0.584562  0.924419  0.000000  1
  Ho  Ho2  1  0.075581  0.415438  0.000000  1
  Ho  Ho3  1  0.924419  0.584562  0.000000  1
  Ho  Ho4  1  0.162405  0.837595  0.000000  1
  Ho  Ho5  1  0.837595  0.162405  0.000000  1
  Ho  Ho6  1  0.372664  0.627336  0.000000  1
  Ho  Ho7  1  0.627336  0.372664  0.000000  1
  Ho  Ho8  1  0.308344  0.308344  0.000000  1
  Ho  Ho9  1  0.691656  0.691656  0.000000  1
  Ho  Ho10  1  0.000000  0.000000  0.000000  1
  Cd  Cd11  1  0.366687  0.843281  0.500000  1
  Cd  Cd12  1  0.633313  0.156719  0.500000  1
  Cd  Cd13  1  0.843281  0.366687  0.500000  1
  Cd  Cd14  1  0.156719  0.633313  0.500000  1
  Cd  Cd15  1  0.214117  0.068511  0.500000  1
  Cd  Cd16  1  0.785883  0.931489  0.500000  1
  Cd  Cd17  1  0.068511  0.214117  0.500000  1
  Cd  Cd18  1  0.931489  0.785883  0.500000  1
  Cd  Cd19  1  0.500000  0.500000  0.500000  1
  Pd  Pd20  1  0.450583  0.249297  0.500000  1
  Pd  Pd21  1  0.549417  0.750703  0.500000  1
  Pd  Pd22  1  0.249297  0.450583  0.500000  1
  Pd  Pd23  1  0.750703  0.549417  0.500000  1
