# generated using pymatgen
data_Lu6Co17TcAs12
_symmetry_space_group_name_H-M   'P 1'
_cell_length_a   3.76701300
_cell_length_b   10.84974900
_cell_length_c   12.59774800
_cell_angle_alpha   90.00000000
_cell_angle_beta   90.00000000
_cell_angle_gamma   90.00000000
_symmetry_Int_Tables_number   1
_chemical_formula_structural   Lu6Co17TcAs12
_chemical_formula_sum   'Lu6 Co17 Tc1 As12'
_cell_volume   514.88439185
_cell_formula_units_Z   1
loop_
 _symmetry_equiv_pos_site_id
 _symmetry_equiv_pos_as_xyz
  1  'x, y, z'
loop_
 _atom_site_type_symbol
 _atom_site_label
 _atom_site_symmetry_multiplicity
 _atom_site_fract_x
 _atom_site_fract_y
 _atom_site_fract_z
 _atom_site_occupancy
  Lu  Lu0  1  0.000000  0.500000  0.526644  1
  Lu  Lu1  1  0.500000  0.000000  0.476129  1
  Lu  Lu2  1  0.500000  0.818503  0.207486  1
  Lu  Lu3  1  0.500000  0.181497  0.207486  1
  Lu  Lu4  1  0.000000  0.681895  0.794729  1
  Lu  Lu5  1  0.000000  0.318105  0.794729  1
  Co  Co6  1  0.000000  0.000000  0.840720  1
  Co  Co7  1  0.500000  0.500000  0.701266  1
  Co  Co8  1  0.000000  0.000000  0.298028  1
  Co  Co9  1  0.000000  0.500000  0.987480  1
  Co  Co10  1  0.500000  0.000000  0.015861  1
  Co  Co11  1  0.500000  0.332101  0.991652  1
  Co  Co12  1  0.500000  0.667899  0.991652  1
  Co  Co13  1  0.000000  0.166268  0.004893  1
  Co  Co14  1  0.000000  0.833732  0.004893  1
  Co  Co15  1  0.500000  0.297917  0.431239  1
  Co  Co16  1  0.500000  0.702083  0.431239  1
  Co  Co17  1  0.000000  0.201660  0.568378  1
  Co  Co18  1  0.000000  0.798340  0.568378  1
  Co  Co19  1  0.500000  0.878144  0.706663  1
  Co  Co20  1  0.500000  0.121856  0.706663  1
  Co  Co21  1  0.000000  0.621141  0.293113  1
  Co  Co22  1  0.000000  0.378859  0.293113  1
  Tc  Tc23  1  0.500000  0.500000  0.156062  1
  As  As24  1  0.500000  0.500000  0.878707  1
  As  As25  1  0.000000  0.000000  0.120807  1
  As  As26  1  0.500000  0.500000  0.352948  1
  As  As27  1  0.000000  0.000000  0.651187  1
  As  As28  1  0.500000  0.314068  0.617393  1
  As  As29  1  0.500000  0.685932  0.617393  1
  As  As30  1  0.000000  0.185242  0.383210  1
  As  As31  1  0.000000  0.814758  0.383210  1
  As  As32  1  0.500000  0.848436  0.888810  1
  As  As33  1  0.500000  0.151564  0.888810  1
  As  As34  1  0.000000  0.657490  0.109514  1
  As  As35  1  0.000000  0.342510  0.109514  1
