# generated using pymatgen
data_Yb13Lu(InN4)2
_symmetry_space_group_name_H-M   'P 1'
_cell_length_a   3.49607200
_cell_length_b   11.92041517
_cell_length_c   11.40749114
_cell_angle_alpha   90.05108176
_cell_angle_beta   90.00000000
_cell_angle_gamma   90.00000000
_symmetry_Int_Tables_number   1
_chemical_formula_structural   Yb13Lu(InN4)2
_chemical_formula_sum   'Yb13 Lu1 In2 N8'
_cell_volume   475.40278048
_cell_formula_units_Z   1
loop_
 _symmetry_equiv_pos_site_id
 _symmetry_equiv_pos_as_xyz
  1  'x, y, z'
loop_
 _atom_site_type_symbol
 _atom_site_label
 _atom_site_symmetry_multiplicity
 _atom_site_fract_x
 _atom_site_fract_y
 _atom_site_fract_z
 _atom_site_occupancy
  Yb  Yb0  1  0.499426  0.665257  0.239852  1
  Yb  Yb1  1  0.499426  0.334743  0.760148  1
  Yb  Yb2  1  0.500579  0.169022  0.258850  1
  Yb  Yb3  1  0.500579  0.830978  0.741150  1
  Yb  Yb4  1  0.500761  0.000000  0.500000  1
  Yb  Yb5  1  0.999524  0.928778  0.263589  1
  Yb  Yb6  1  0.999524  0.071222  0.736411  1
  Yb  Yb7  1  0.000737  0.426685  0.238753  1
  Yb  Yb8  1  0.000737  0.573315  0.761247  1
  Yb  Yb9  1  0.001933  0.764338  0.480275  1
  Yb  Yb10  1  0.001933  0.235662  0.519725  1
  Yb  Yb11  1  0.998049  0.262730  0.018948  1
  Yb  Yb12  1  0.998049  0.737270  0.981052  1
  Lu  Lu13  1  0.499394  0.500000  0.000000  1
  In  In14  1  0.535880  0.500000  0.500000  1
  In  In15  1  0.463268  0.000000  0.000000  1
  N  N16  1  0.999135  0.591107  0.119467  1
  N  N17  1  0.999135  0.408893  0.880533  1
  N  N18  1  0.000829  0.100893  0.369847  1
  N  N19  1  0.000829  0.899107  0.630153  1
  N  N20  1  0.500508  0.830312  0.356501  1
  N  N21  1  0.500508  0.169688  0.643499  1
  N  N22  1  0.499628  0.342075  0.131891  1
  N  N23  1  0.499628  0.657925  0.868109  1
