# generated using pymatgen
data_Hf12Al4OsRh7
_symmetry_space_group_name_H-M   'P 1'
_cell_length_a   8.49410081
_cell_length_b   8.49410015
_cell_length_c   8.49410078
_cell_angle_alpha   60.00176042
_cell_angle_beta   60.00176058
_cell_angle_gamma   60.00176800
_symmetry_Int_Tables_number   1
_chemical_formula_structural   Hf12Al4OsRh7
_chemical_formula_sum   'Hf12 Al4 Os1 Rh7'
_cell_volume   433.36572363
_cell_formula_units_Z   1
loop_
 _symmetry_equiv_pos_site_id
 _symmetry_equiv_pos_as_xyz
  1  'x, y, z'
loop_
 _atom_site_type_symbol
 _atom_site_label
 _atom_site_symmetry_multiplicity
 _atom_site_fract_x
 _atom_site_fract_y
 _atom_site_fract_z
 _atom_site_occupancy
  Hf  Hf0  1  0.807481  0.807481  0.189590  1
  Hf  Hf1  1  0.192592  0.192592  0.807807  1
  Hf  Hf2  1  0.807481  0.189590  0.807481  1
  Hf  Hf3  1  0.192592  0.807807  0.192592  1
  Hf  Hf4  1  0.189590  0.807481  0.807481  1
  Hf  Hf5  1  0.807807  0.192592  0.192592  1
  Hf  Hf6  1  0.442613  0.442613  0.057422  1
  Hf  Hf7  1  0.056413  0.056413  0.444530  1
  Hf  Hf8  1  0.442613  0.057422  0.442613  1
  Hf  Hf9  1  0.056413  0.444530  0.056413  1
  Hf  Hf10  1  0.057422  0.442613  0.442613  1
  Hf  Hf11  1  0.444530  0.056413  0.056413  1
  Al  Al12  1  0.126397  0.624629  0.624629  1
  Al  Al13  1  0.624629  0.126397  0.624629  1
  Al  Al14  1  0.624629  0.624629  0.126397  1
  Al  Al15  1  0.625114  0.625114  0.625114  1
  Os  Os16  1  0.839458  0.839458  0.839458  1
  Rh  Rh17  1  0.769061  0.410591  0.410591  1
  Rh  Rh18  1  0.410591  0.769061  0.410591  1
  Rh  Rh19  1  0.410591  0.410591  0.769061  1
  Rh  Rh20  1  0.410114  0.410114  0.410114  1
  Rh  Rh21  1  0.481741  0.840064  0.840064  1
  Rh  Rh22  1  0.840064  0.481741  0.840064  1
  Rh  Rh23  1  0.840064  0.840064  0.481741  1
