# generated using pymatgen
data_Ca2ErThPt4
_symmetry_space_group_name_H-M   'P 1'
_cell_length_a   4.43012400
_cell_length_b   5.75449382
_cell_length_c   7.55113600
_cell_angle_alpha   90.97010790
_cell_angle_beta   90.00000000
_cell_angle_gamma   90.00000000
_symmetry_Int_Tables_number   1
_chemical_formula_structural   Ca2ErThPt4
_chemical_formula_sum   'Ca2 Er1 Th1 Pt4'
_cell_volume   192.47443283
_cell_formula_units_Z   1
loop_
 _symmetry_equiv_pos_site_id
 _symmetry_equiv_pos_as_xyz
  1  'x, y, z'
loop_
 _atom_site_type_symbol
 _atom_site_label
 _atom_site_symmetry_multiplicity
 _atom_site_fract_x
 _atom_site_fract_y
 _atom_site_fract_z
 _atom_site_occupancy
  Ca  Ca0  1  0.250000  0.138222  0.181208  1
  Ca  Ca1  1  0.750000  0.641472  0.314051  1
  Er  Er2  1  0.750000  0.863964  0.825234  1
  Th  Th3  1  0.250000  0.362769  0.679537  1
  Pt  Pt4  1  0.250000  0.846810  0.568438  1
  Pt  Pt5  1  0.250000  0.648207  0.019113  1
  Pt  Pt6  1  0.750000  0.149225  0.476381  1
  Pt  Pt7  1  0.750000  0.349330  0.936037  1
