# generated using pymatgen
data_K3Cu(PAu)2
_symmetry_space_group_name_H-M   'P 1'
_cell_length_a   7.55425967
_cell_length_b   7.55425887
_cell_length_c   7.34781884
_cell_angle_alpha   46.99727707
_cell_angle_beta   46.99728709
_cell_angle_gamma   49.32774403
_symmetry_Int_Tables_number   1
_chemical_formula_structural   K3Cu(PAu)2
_chemical_formula_sum   'K3 Cu1 P2 Au2'
_cell_volume   210.17713215
_cell_formula_units_Z   1
loop_
 _symmetry_equiv_pos_site_id
 _symmetry_equiv_pos_as_xyz
  1  'x, y, z'
loop_
 _atom_site_type_symbol
 _atom_site_label
 _atom_site_symmetry_multiplicity
 _atom_site_fract_x
 _atom_site_fract_y
 _atom_site_fract_z
 _atom_site_occupancy
  K  K0  1  0.912870  0.912870  0.904146  1
  K  K1  1  0.500000  0.500000  0.500000  1
  K  K2  1  0.087130  0.087130  0.095854  1
  Cu  Cu3  1  0.500000  0.500000  0.000000  1
  P  P4  1  0.265685  0.265685  0.227276  1
  P  P5  1  0.734315  0.734315  0.772724  1
  Au  Au6  1  0.000000  0.500000  0.500000  1
  Au  Au7  1  0.500000  0.000000  0.500000  1
