# generated using pymatgen
data_Zr6Zn20PAu3
_symmetry_space_group_name_H-M   'P 1'
_cell_length_a   8.83551411
_cell_length_b   8.83554849
_cell_length_c   8.80711000
_cell_angle_alpha   59.96903466
_cell_angle_beta   59.97014913
_cell_angle_gamma   59.60097220
_symmetry_Int_Tables_number   1
_chemical_formula_structural   Zr6Zn20PAu3
_chemical_formula_sum   'Zr6 Zn20 P1 Au3'
_cell_volume   484.46050571
_cell_formula_units_Z   1
loop_
 _symmetry_equiv_pos_site_id
 _symmetry_equiv_pos_as_xyz
  1  'x, y, z'
loop_
 _atom_site_type_symbol
 _atom_site_label
 _atom_site_symmetry_multiplicity
 _atom_site_fract_x
 _atom_site_fract_y
 _atom_site_fract_z
 _atom_site_occupancy
  Zr  Zr0  1  0.708204  0.293811  0.294781  1
  Zr  Zr1  1  0.290878  0.709894  0.704701  1
  Zr  Zr2  1  0.293813  0.708221  0.294766  1
  Zr  Zr3  1  0.709893  0.290862  0.704713  1
  Zr  Zr4  1  0.294192  0.294171  0.705544  1
  Zr  Zr5  1  0.705582  0.705597  0.292312  1
  Zn  Zn6  1  0.123900  0.628288  0.122296  1
  Zn  Zn7  1  0.876777  0.876796  0.371869  1
  Zn  Zn8  1  0.879470  0.367607  0.875007  1
  Zn  Zn9  1  0.628293  0.123901  0.122304  1
  Zn  Zn10  1  0.367609  0.879470  0.875001  1
  Zn  Zn11  1  0.498204  0.001310  0.997950  1
  Zn  Zn12  1  0.999255  0.507317  0.493885  1
  Zn  Zn13  1  0.001309  0.498205  0.997952  1
  Zn  Zn14  1  0.507312  0.999254  0.493891  1
  Zn  Zn15  1  0.999229  0.999233  0.500291  1
  Zn  Zn16  1  0.500752  0.500747  0.998556  1
  Zn  Zn17  1  0.336438  0.336441  0.332982  1
  Zn  Zn18  1  0.663731  0.663720  0.665034  1
  Zn  Zn19  1  0.336541  0.336537  0.993773  1
  Zn  Zn20  1  0.334046  0.999765  0.333360  1
  Zn  Zn21  1  0.664881  0.664880  0.001442  1
  Zn  Zn22  1  0.665492  0.002726  0.664873  1
  Zn  Zn23  1  0.999752  0.334052  0.333367  1
  Zn  Zn24  1  0.002731  0.665487  0.664871  1
  Zn  Zn25  1  0.993408  0.993405  0.013138  1
  P  P26  1  0.499852  0.499844  0.501978  1
  Au  Au27  1  0.118260  0.118274  0.118642  1
  Au  Au28  1  0.878278  0.878273  0.885800  1
  Au  Au29  1  0.121914  0.121907  0.644922  1
