# generated using pymatgen
data_Er4Se3N2
_symmetry_space_group_name_H-M   'P 1'
_cell_length_a   6.88736073
_cell_length_b   6.88736038
_cell_length_c   10.22020413
_cell_angle_alpha   52.26929748
_cell_angle_beta   52.26930034
_cell_angle_gamma   32.89149217
_symmetry_Int_Tables_number   1
_chemical_formula_structural   Er4Se3N2
_chemical_formula_sum   'Er4 Se3 N2'
_cell_volume   202.71712390
_cell_formula_units_Z   1
loop_
 _symmetry_equiv_pos_site_id
 _symmetry_equiv_pos_as_xyz
  1  'x, y, z'
loop_
 _atom_site_type_symbol
 _atom_site_label
 _atom_site_symmetry_multiplicity
 _atom_site_fract_x
 _atom_site_fract_y
 _atom_site_fract_z
 _atom_site_occupancy
  Er  Er0  1  0.442577  0.442577  0.848557  1
  Er  Er1  1  0.557423  0.557423  0.151443  1
  Er  Er2  1  0.756729  0.756729  0.361279  1
  Er  Er3  1  0.243271  0.243271  0.638721  1
  Se  Se4  1  0.834551  0.834551  0.771849  1
  Se  Se5  1  0.000000  0.000000  0.000000  1
  Se  Se6  1  0.165449  0.165449  0.228151  1
  N  N7  1  0.351284  0.351284  0.362210  1
  N  N8  1  0.648716  0.648716  0.637791  1
