# generated using pymatgen
data_Ta(O2F7)2
_symmetry_space_group_name_H-M   'P 1'
_cell_length_a   12.69713700
_cell_length_b   6.69176391
_cell_length_c   8.77909187
_cell_angle_alpha   67.91888299
_cell_angle_beta   90.00000000
_cell_angle_gamma   90.00000000
_symmetry_Int_Tables_number   1
_chemical_formula_structural   Ta(O2F7)2
_chemical_formula_sum   'Ta2 O8 F28'
_cell_volume   691.21466877
_cell_formula_units_Z   2
loop_
 _symmetry_equiv_pos_site_id
 _symmetry_equiv_pos_as_xyz
  1  'x, y, z'
loop_
 _atom_site_type_symbol
 _atom_site_label
 _atom_site_symmetry_multiplicity
 _atom_site_fract_x
 _atom_site_fract_y
 _atom_site_fract_z
 _atom_site_occupancy
  Ta  Ta0  1  0.500000  0.500000  0.500000  1
  Ta  Ta1  1  0.000000  0.500000  0.000000  1
  O  O2  1  0.367937  0.770261  0.908016  1
  O  O3  1  0.632063  0.229739  0.091984  1
  O  O4  1  0.867937  0.229739  0.591984  1
  O  O5  1  0.132063  0.770261  0.408016  1
  O  O6  1  0.735668  0.747406  0.874280  1
  O  O7  1  0.264332  0.252594  0.125720  1
  O  O8  1  0.235668  0.252594  0.625720  1
  O  O9  1  0.764332  0.747406  0.374280  1
  F  F10  1  0.441672  0.857956  0.780320  1
  F  F11  1  0.558328  0.142044  0.219680  1
  F  F12  1  0.941672  0.142044  0.719680  1
  F  F13  1  0.058328  0.857956  0.280320  1
  F  F14  1  0.433164  0.764945  0.485002  1
  F  F15  1  0.566836  0.235055  0.514998  1
  F  F16  1  0.933164  0.235055  0.014998  1
  F  F17  1  0.066836  0.764945  0.985002  1
  F  F18  1  0.428477  0.348813  0.705994  1
  F  F19  1  0.571523  0.651187  0.294006  1
  F  F20  1  0.928477  0.651187  0.794006  1
  F  F21  1  0.071523  0.348813  0.205994  1
  F  F22  1  0.089869  0.807865  0.544096  1
  F  F23  1  0.910131  0.192135  0.455904  1
  F  F24  1  0.589869  0.192135  0.955904  1
  F  F25  1  0.410131  0.807865  0.044096  1
  F  F26  1  0.341665  0.297599  0.001206  1
  F  F27  1  0.658335  0.702401  0.998794  1
  F  F28  1  0.841665  0.702401  0.498794  1
  F  F29  1  0.158335  0.297599  0.501206  1
  F  F30  1  0.117217  0.441274  0.883102  1
  F  F31  1  0.882783  0.558726  0.116898  1
  F  F32  1  0.617217  0.558726  0.616898  1
  F  F33  1  0.382783  0.441274  0.383102  1
  F  F34  1  0.189698  0.094877  0.765985  1
  F  F35  1  0.810302  0.905123  0.234015  1
  F  F36  1  0.689698  0.905123  0.734015  1
  F  F37  1  0.310302  0.094877  0.265985  1
