# generated using pymatgen
data_Ti2Zn(Co10B3)2
_symmetry_space_group_name_H-M   'P 1'
_cell_length_a   7.40166723
_cell_length_b   7.40141969
_cell_length_c   7.40178300
_cell_angle_alpha   60.00199037
_cell_angle_beta   59.99989389
_cell_angle_gamma   60.00161888
_symmetry_Int_Tables_number   1
_chemical_formula_structural   Ti2Zn(Co10B3)2
_chemical_formula_sum   'Ti2 Zn1 Co20 B6'
_cell_volume   286.73283957
_cell_formula_units_Z   1
loop_
 _symmetry_equiv_pos_site_id
 _symmetry_equiv_pos_as_xyz
  1  'x, y, z'
loop_
 _atom_site_type_symbol
 _atom_site_label
 _atom_site_symmetry_multiplicity
 _atom_site_fract_x
 _atom_site_fract_y
 _atom_site_fract_z
 _atom_site_occupancy
  Ti  Ti0  1  0.249978  0.249991  0.250006  1
  Ti  Ti1  1  0.750022  0.750009  0.749994  1
  Zn  Zn2  1  0.000000  0.000000  0.000000  1
  Co  Co3  1  0.852347  0.382526  0.382562  1
  Co  Co4  1  0.382512  0.852346  0.382579  1
  Co  Co5  1  0.382537  0.382567  0.852319  1
  Co  Co6  1  0.382550  0.382564  0.382590  1
  Co  Co7  1  0.147653  0.617474  0.617438  1
  Co  Co8  1  0.617488  0.147654  0.617421  1
  Co  Co9  1  0.617463  0.617433  0.147681  1
  Co  Co10  1  0.617450  0.617436  0.617410  1
  Co  Co11  1  0.658490  0.000002  0.999995  1
  Co  Co12  1  0.658496  0.999981  0.341537  1
  Co  Co13  1  0.658492  0.341516  0.999990  1
  Co  Co14  1  0.999992  0.658457  0.341565  1
  Co  Co15  1  0.999999  0.658497  0.000005  1
  Co  Co16  1  0.341508  0.658484  0.000010  1
  Co  Co17  1  0.000008  0.341543  0.658435  1
  Co  Co18  1  0.341504  0.000019  0.658463  1
  Co  Co19  1  0.000008  0.000021  0.658446  1
  Co  Co20  1  0.341510  0.999998  0.000005  1
  Co  Co21  1  0.000001  0.341503  0.999995  1
  Co  Co22  1  0.999992  0.999979  0.341554  1
  B  B23  1  0.724406  0.275620  0.275631  1
  B  B24  1  0.724412  0.275597  0.724365  1
  B  B25  1  0.724400  0.724364  0.275609  1
  B  B26  1  0.275594  0.724380  0.724369  1
  B  B27  1  0.275588  0.724403  0.275635  1
  B  B28  1  0.275600  0.275636  0.724391  1
