# generated using pymatgen
data_Tm4Ge3Bi3Rh7
_symmetry_space_group_name_H-M   'P 1'
_cell_length_a   7.47021977
_cell_length_b   7.47021999
_cell_length_c   7.56758300
_cell_angle_alpha   109.73546057
_cell_angle_beta   109.73546116
_cell_angle_gamma   109.20569188
_symmetry_Int_Tables_number   1
_chemical_formula_structural   Tm4Ge3Bi3Rh7
_chemical_formula_sum   'Tm4 Ge3 Bi3 Rh7'
_cell_volume   324.02267691
_cell_formula_units_Z   1
loop_
 _symmetry_equiv_pos_site_id
 _symmetry_equiv_pos_as_xyz
  1  'x, y, z'
loop_
 _atom_site_type_symbol
 _atom_site_label
 _atom_site_symmetry_multiplicity
 _atom_site_fract_x
 _atom_site_fract_y
 _atom_site_fract_z
 _atom_site_occupancy
  Tm  Tm0  1  0.000000  0.000000  0.556360  1
  Tm  Tm1  1  0.000000  0.470877  0.981975  1
  Tm  Tm2  1  0.470877  0.000000  0.981975  1
  Tm  Tm3  1  0.529123  0.529123  0.511099  1
  Ge  Ge4  1  0.337349  0.337349  0.007519  1
  Ge  Ge5  1  0.662651  0.000000  0.670170  1
  Ge  Ge6  1  0.000000  0.662651  0.670170  1
  Bi  Bi7  1  0.706395  0.706395  0.013491  1
  Bi  Bi8  1  0.293605  0.000000  0.307096  1
  Bi  Bi9  1  0.000000  0.293605  0.307096  1
  Rh  Rh10  1  0.750463  0.251713  0.510258  1
  Rh  Rh11  1  0.748287  0.498750  0.258546  1
  Rh  Rh12  1  0.501250  0.249537  0.759796  1
  Rh  Rh13  1  0.249537  0.501250  0.759796  1
  Rh  Rh14  1  0.251713  0.750463  0.510258  1
  Rh  Rh15  1  0.498750  0.748287  0.258546  1
  Rh  Rh16  1  0.000000  0.000000  0.935854  1
