# generated using pymatgen
data_Yb8ErPd6
_symmetry_space_group_name_H-M   'P 1'
_cell_length_a   7.56823575
_cell_length_b   7.56823706
_cell_length_c   7.56823607
_cell_angle_alpha   70.77805962
_cell_angle_beta   70.77804919
_cell_angle_gamma   70.77805986
_symmetry_Int_Tables_number   1
_chemical_formula_structural   Yb8ErPd6
_chemical_formula_sum   'Yb8 Er1 Pd6'
_cell_volume   374.46465511
_cell_formula_units_Z   1
loop_
 _symmetry_equiv_pos_site_id
 _symmetry_equiv_pos_as_xyz
  1  'x, y, z'
loop_
 _atom_site_type_symbol
 _atom_site_label
 _atom_site_symmetry_multiplicity
 _atom_site_fract_x
 _atom_site_fract_y
 _atom_site_fract_z
 _atom_site_occupancy
  Yb  Yb0  1  0.797014  0.797014  0.797014  1
  Yb  Yb1  1  0.202986  0.202986  0.202986  1
  Yb  Yb2  1  0.331724  0.602925  0.843886  1
  Yb  Yb3  1  0.843886  0.331724  0.602925  1
  Yb  Yb4  1  0.602925  0.843886  0.331724  1
  Yb  Yb5  1  0.668276  0.397075  0.156114  1
  Yb  Yb6  1  0.156114  0.668276  0.397075  1
  Yb  Yb7  1  0.397075  0.156114  0.668276  1
  Er  Er8  1  0.000000  0.000000  0.000000  1
  Pd  Pd9  1  0.152629  0.955745  0.597909  1
  Pd  Pd10  1  0.597909  0.152629  0.955745  1
  Pd  Pd11  1  0.955745  0.597909  0.152629  1
  Pd  Pd12  1  0.847371  0.044255  0.402091  1
  Pd  Pd13  1  0.402091  0.847371  0.044255  1
  Pd  Pd14  1  0.044255  0.402091  0.847371  1
