# generated using pymatgen
data_Pr2Re14(MoC)3
_symmetry_space_group_name_H-M   'P 1'
_cell_length_a   7.07948616
_cell_length_b   7.07948622
_cell_length_c   7.11046111
_cell_angle_alpha   82.82426706
_cell_angle_beta   82.82426710
_cell_angle_gamma   82.98428864
_symmetry_Int_Tables_number   1
_chemical_formula_structural   Pr2Re14(MoC)3
_chemical_formula_sum   'Pr2 Re14 Mo3 C3'
_cell_volume   348.74897066
_cell_formula_units_Z   1
loop_
 _symmetry_equiv_pos_site_id
 _symmetry_equiv_pos_as_xyz
  1  'x, y, z'
loop_
 _atom_site_type_symbol
 _atom_site_label
 _atom_site_symmetry_multiplicity
 _atom_site_fract_x
 _atom_site_fract_y
 _atom_site_fract_z
 _atom_site_occupancy
  Pr  Pr0  1  0.650369  0.650369  0.649778  1
  Pr  Pr1  1  0.349914  0.349914  0.350382  1
  Re  Re2  1  0.000569  0.000569  0.498006  1
  Re  Re3  1  0.497915  0.000246  0.001006  1
  Re  Re4  1  0.000246  0.497915  0.001006  1
  Re  Re5  1  0.716629  0.282774  0.000292  1
  Re  Re6  1  0.002116  0.719284  0.280354  1
  Re  Re7  1  0.280026  0.998080  0.719068  1
  Re  Re8  1  0.998080  0.280026  0.719068  1
  Re  Re9  1  0.719284  0.002116  0.280354  1
  Re  Re10  1  0.282774  0.716629  0.000292  1
  Re  Re11  1  0.864751  0.345974  0.347589  1
  Re  Re12  1  0.345974  0.864751  0.347589  1
  Re  Re13  1  0.138371  0.653048  0.651867  1
  Re  Re14  1  0.653048  0.138371  0.651867  1
  Re  Re15  1  0.095680  0.095680  0.098723  1
  Mo  Mo16  1  0.343801  0.343801  0.860053  1
  Mo  Mo17  1  0.656027  0.656027  0.140810  1
  Mo  Mo18  1  0.904062  0.904062  0.900876  1
  C  C19  1  0.499781  0.499781  0.000576  1
  C  C20  1  0.000462  0.500121  0.500222  1
  C  C21  1  0.500121  0.000462  0.500222  1
