# generated using pymatgen
data_Tm2Lu2TiOs7
_symmetry_space_group_name_H-M   'P 1'
_cell_length_a   5.37371300
_cell_length_b   5.37371364
_cell_length_c   8.60694700
_cell_angle_alpha   90.00000000
_cell_angle_beta   90.00000000
_cell_angle_gamma   119.99998990
_symmetry_Int_Tables_number   1
_chemical_formula_structural   Tm2Lu2TiOs7
_chemical_formula_sum   'Tm2 Lu2 Ti1 Os7'
_cell_volume   215.24287889
_cell_formula_units_Z   1
loop_
 _symmetry_equiv_pos_site_id
 _symmetry_equiv_pos_as_xyz
  1  'x, y, z'
loop_
 _atom_site_type_symbol
 _atom_site_label
 _atom_site_symmetry_multiplicity
 _atom_site_fract_x
 _atom_site_fract_y
 _atom_site_fract_z
 _atom_site_occupancy
  Tm  Tm0  1  0.333333  0.666667  0.438401  1
  Tm  Tm1  1  0.666667  0.333333  0.561599  1
  Lu  Lu2  1  0.666667  0.333333  0.928436  1
  Lu  Lu3  1  0.333333  0.666667  0.071564  1
  Ti  Ti4  1  0.000000  0.000000  0.000000  1
  Os  Os5  1  0.172959  0.345918  0.751257  1
  Os  Os6  1  0.172959  0.827041  0.751257  1
  Os  Os7  1  0.345918  0.172959  0.248743  1
  Os  Os8  1  0.827041  0.654082  0.248743  1
  Os  Os9  1  0.654082  0.827041  0.751257  1
  Os  Os10  1  0.827041  0.172959  0.248743  1
  Os  Os11  1  0.000000  0.000000  0.500000  1
