# generated using pymatgen
data_Pr8SmEr3In20
_symmetry_space_group_name_H-M   'P 1'
_cell_length_a   6.69229504
_cell_length_b   10.56169500
_cell_length_c   12.49458000
_cell_angle_alpha   90.00000000
_cell_angle_beta   90.00602726
_cell_angle_gamma   90.00000000
_symmetry_Int_Tables_number   1
_chemical_formula_structural   Pr8SmEr3In20
_chemical_formula_sum   'Pr8 Sm1 Er3 In20'
_cell_volume   883.14163668
_cell_formula_units_Z   1
loop_
 _symmetry_equiv_pos_site_id
 _symmetry_equiv_pos_as_xyz
  1  'x, y, z'
loop_
 _atom_site_type_symbol
 _atom_site_label
 _atom_site_symmetry_multiplicity
 _atom_site_fract_x
 _atom_site_fract_y
 _atom_site_fract_z
 _atom_site_occupancy
  Pr  Pr0  1  0.888725  0.489742  0.143968  1
  Pr  Pr1  1  0.611008  0.009807  0.644338  1
  Pr  Pr2  1  0.111419  0.989478  0.856195  1
  Pr  Pr3  1  0.388382  0.510147  0.356063  1
  Pr  Pr4  1  0.111419  0.510522  0.856195  1
  Pr  Pr5  1  0.388382  0.989853  0.356063  1
  Pr  Pr6  1  0.888725  0.010258  0.143968  1
  Pr  Pr7  1  0.611008  0.490193  0.644338  1
  Sm  Sm8  1  0.850573  0.250000  0.440101  1
  Er  Er9  1  0.349156  0.750000  0.059791  1
  Er  Er10  1  0.150606  0.750000  0.559889  1
  Er  Er11  1  0.650613  0.250000  0.940504  1
  In  In12  1  0.616003  0.750000  0.503225  1
  In  In13  1  0.883534  0.750000  0.003229  1
  In  In14  1  0.380529  0.250000  0.497548  1
  In  In15  1  0.116424  0.250000  0.996471  1
  In  In16  1  0.653887  0.750000  0.243154  1
  In  In17  1  0.846053  0.750000  0.743393  1
  In  In18  1  0.346152  0.250000  0.757081  1
  In  In19  1  0.156705  0.250000  0.255164  1
  In  In20  1  0.110400  0.750000  0.283713  1
  In  In21  1  0.390093  0.750000  0.783898  1
  In  In22  1  0.890251  0.250000  0.717038  1
  In  In23  1  0.609452  0.250000  0.214499  1
  In  In24  1  0.874539  0.546885  0.404472  1
  In  In25  1  0.625396  0.955032  0.904598  1
  In  In26  1  0.125630  0.044409  0.595774  1
  In  In27  1  0.374683  0.455037  0.095242  1
  In  In28  1  0.125630  0.455591  0.595774  1
  In  In29  1  0.374683  0.044963  0.095242  1
  In  In30  1  0.874539  0.953115  0.404472  1
  In  In31  1  0.625396  0.544968  0.904598  1
