# generated using pymatgen
data_Pr2YEr(SiO5)2
_symmetry_space_group_name_H-M   'P 1'
_cell_length_a   8.13964368
_cell_length_b   8.13964244
_cell_length_c   10.82112422
_cell_angle_alpha   61.05105824
_cell_angle_beta   61.05106094
_cell_angle_gamma   50.23567743
_symmetry_Int_Tables_number   1
_chemical_formula_structural   Pr2YEr(SiO5)2
_chemical_formula_sum   'Pr4 Y2 Er2 Si4 O20'
_cell_volume   465.74316105
_cell_formula_units_Z   2
loop_
 _symmetry_equiv_pos_site_id
 _symmetry_equiv_pos_as_xyz
  1  'x, y, z'
loop_
 _atom_site_type_symbol
 _atom_site_label
 _atom_site_symmetry_multiplicity
 _atom_site_fract_x
 _atom_site_fract_y
 _atom_site_fract_z
 _atom_site_occupancy
  Pr  Pr0  1  0.782892  0.292884  0.035579  1
  Pr  Pr1  1  0.707116  0.217108  0.464421  1
  Pr  Pr2  1  0.217045  0.709028  0.964460  1
  Pr  Pr3  1  0.290972  0.782955  0.535540  1
  Y  Y4  1  0.766164  0.519883  0.662623  1
  Y  Y5  1  0.480117  0.233836  0.837377  1
  Er  Er6  1  0.237893  0.478905  0.335360  1
  Er  Er7  1  0.521095  0.762107  0.164640  1
  Si  Si8  1  0.728471  0.902974  0.306385  1
  Si  Si9  1  0.097026  0.271529  0.193615  1
  Si  Si10  1  0.271845  0.097463  0.690795  1
  Si  Si11  1  0.902537  0.728155  0.809205  1
  O  O12  1  0.420773  0.613444  0.110419  1
  O  O13  1  0.386556  0.579227  0.389581  1
  O  O14  1  0.578406  0.388095  0.891203  1
  O  O15  1  0.611905  0.421594  0.608797  1
  O  O16  1  0.869376  0.724176  0.431600  1
  O  O17  1  0.275824  0.130624  0.068400  1
  O  O18  1  0.137231  0.276669  0.562373  1
  O  O19  1  0.723331  0.862769  0.937627  1
  O  O20  1  0.567840  0.839924  0.315630  1
  O  O21  1  0.160076  0.432160  0.184370  1
  O  O22  1  0.433248  0.157467  0.683588  1
  O  O23  1  0.842533  0.566752  0.816412  1
  O  O24  1  0.159238  0.586164  0.824244  1
  O  O25  1  0.413836  0.840762  0.675756  1
  O  O26  1  0.840001  0.415613  0.177433  1
  O  O27  1  0.584387  0.159999  0.322567  1
  O  O28  1  0.905128  0.911213  0.649704  1
  O  O29  1  0.088787  0.094872  0.850296  1
  O  O30  1  0.090750  0.092398  0.354484  1
  O  O31  1  0.907602  0.909250  0.145516  1
