# generated using pymatgen
data_Dy3Th(GaRu)4
_symmetry_space_group_name_H-M   'P 1'
_cell_length_a   4.17105400
_cell_length_b   6.96027602
_cell_length_c   8.01013971
_cell_angle_alpha   89.07363784
_cell_angle_beta   90.00000000
_cell_angle_gamma   90.00000000
_symmetry_Int_Tables_number   1
_chemical_formula_structural   Dy3Th(GaRu)4
_chemical_formula_sum   'Dy3 Th1 Ga4 Ru4'
_cell_volume   232.51747596
_cell_formula_units_Z   1
loop_
 _symmetry_equiv_pos_site_id
 _symmetry_equiv_pos_as_xyz
  1  'x, y, z'
loop_
 _atom_site_type_symbol
 _atom_site_label
 _atom_site_symmetry_multiplicity
 _atom_site_fract_x
 _atom_site_fract_y
 _atom_site_fract_z
 _atom_site_occupancy
  Dy  Dy0  1  0.750000  0.522038  0.813801  1
  Dy  Dy1  1  0.250000  0.975745  0.306298  1
  Dy  Dy2  1  0.250000  0.470963  0.187218  1
  Th  Th3  1  0.750000  0.026799  0.685024  1
  Ga  Ga4  1  0.250000  0.830743  0.938311  1
  Ga  Ga5  1  0.250000  0.363058  0.565150  1
  Ga  Ga6  1  0.750000  0.158027  0.072495  1
  Ga  Ga7  1  0.750000  0.650457  0.431094  1
  Ru  Ru8  1  0.750000  0.768580  0.117222  1
  Ru  Ru9  1  0.250000  0.744000  0.617200  1
  Ru  Ru10  1  0.250000  0.216350  0.879761  1
  Ru  Ru11  1  0.750000  0.273240  0.386429  1
