# generated using pymatgen
data_Y3Tm9TcRu3
_symmetry_space_group_name_H-M   'P 1'
_cell_length_a   6.24394425
_cell_length_b   7.34391302
_cell_length_c   9.00864900
_cell_angle_alpha   90.00000000
_cell_angle_beta   90.00000000
_cell_angle_gamma   90.16647425
_symmetry_Int_Tables_number   1
_chemical_formula_structural   Y3Tm9TcRu3
_chemical_formula_sum   'Y3 Tm9 Tc1 Ru3'
_cell_volume   413.08970706
_cell_formula_units_Z   1
loop_
 _symmetry_equiv_pos_site_id
 _symmetry_equiv_pos_as_xyz
  1  'x, y, z'
loop_
 _atom_site_type_symbol
 _atom_site_label
 _atom_site_symmetry_multiplicity
 _atom_site_fract_x
 _atom_site_fract_y
 _atom_site_fract_z
 _atom_site_occupancy
  Y  Y0  1  0.627634  0.038380  0.250000  1
  Y  Y1  1  0.370954  0.959623  0.750000  1
  Y  Y2  1  0.129495  0.458548  0.750000  1
  Tm  Tm3  1  0.875150  0.541896  0.250000  1
  Tm  Tm4  1  0.162864  0.177280  0.064677  1
  Tm  Tm5  1  0.835581  0.822403  0.937141  1
  Tm  Tm6  1  0.663140  0.326701  0.938563  1
  Tm  Tm7  1  0.835581  0.822403  0.562859  1
  Tm  Tm8  1  0.333796  0.675173  0.064028  1
  Tm  Tm9  1  0.162864  0.177280  0.435323  1
  Tm  Tm10  1  0.333796  0.675173  0.435972  1
  Tm  Tm11  1  0.663140  0.326701  0.561437  1
  Tc  Tc12  1  0.462851  0.385510  0.250000  1
  Ru  Ru13  1  0.546764  0.616805  0.750000  1
  Ru  Ru14  1  0.953503  0.114444  0.750000  1
  Ru  Ru15  1  0.042887  0.881683  0.250000  1
