# generated using pymatgen
data_Nd6Zn(SiS7)2
_symmetry_space_group_name_H-M   'P 1'
_cell_length_a   10.20944100
_cell_length_b   10.20944015
_cell_length_c   5.73957500
_cell_angle_alpha   90.00000000
_cell_angle_beta   90.00000000
_cell_angle_gamma   120.00000598
_symmetry_Int_Tables_number   1
_chemical_formula_structural   Nd6Zn(SiS7)2
_chemical_formula_sum   'Nd6 Zn1 Si2 S14'
_cell_volume   518.10076347
_cell_formula_units_Z   1
loop_
 _symmetry_equiv_pos_site_id
 _symmetry_equiv_pos_as_xyz
  1  'x, y, z'
loop_
 _atom_site_type_symbol
 _atom_site_label
 _atom_site_symmetry_multiplicity
 _atom_site_fract_x
 _atom_site_fract_y
 _atom_site_fract_z
 _atom_site_occupancy
  Nd  Nd0  1  0.310610  0.100816  0.749944  1
  Nd  Nd1  1  0.790205  0.689390  0.749944  1
  Nd  Nd2  1  0.899184  0.209795  0.749944  1
  Nd  Nd3  1  0.023194  0.565688  0.247984  1
  Nd  Nd4  1  0.542494  0.976806  0.247984  1
  Nd  Nd5  1  0.434312  0.457506  0.247984  1
  Zn  Zn6  1  0.666667  0.333333  0.508740  1
  Si  Si7  1  0.000000  0.000000  0.164355  1
  Si  Si8  1  0.333333  0.666667  0.659540  1
  S  S9  1  0.000000  0.000000  0.531051  1
  S  S10  1  0.333333  0.666667  0.026922  1
  S  S11  1  0.420402  0.173437  0.276936  1
  S  S12  1  0.753035  0.579598  0.276936  1
  S  S13  1  0.826563  0.246965  0.276936  1
  S  S14  1  0.913900  0.496286  0.754470  1
  S  S15  1  0.582386  0.086100  0.754470  1
  S  S16  1  0.503714  0.417614  0.754470  1
  S  S17  1  0.143954  0.220730  0.019463  1
  S  S18  1  0.076774  0.856046  0.019463  1
  S  S19  1  0.779270  0.923226  0.019463  1
  S  S20  1  0.189849  0.445805  0.515675  1
  S  S21  1  0.255957  0.810151  0.515675  1
  S  S22  1  0.554195  0.744043  0.515675  1
