# generated using pymatgen
data_U2Pa2H15
_symmetry_space_group_name_H-M   'P 1'
_cell_length_a   7.57009429
_cell_length_b   7.57009409
_cell_length_c   7.57009509
_cell_angle_alpha   109.48012946
_cell_angle_beta   109.48012577
_cell_angle_gamma   109.48013318
_symmetry_Int_Tables_number   1
_chemical_formula_structural   U2Pa2H15
_chemical_formula_sum   'U4 Pa4 H30'
_cell_volume   333.84023667
_cell_formula_units_Z   2
loop_
 _symmetry_equiv_pos_site_id
 _symmetry_equiv_pos_as_xyz
  1  'x, y, z'
loop_
 _atom_site_type_symbol
 _atom_site_label
 _atom_site_symmetry_multiplicity
 _atom_site_fract_x
 _atom_site_fract_y
 _atom_site_fract_z
 _atom_site_occupancy
  U  U0  1  0.000110  0.584144  0.499241  1
  U  U1  1  0.584144  0.499241  0.000110  1
  U  U2  1  0.499241  0.000110  0.584144  1
  U  U3  1  0.418058  0.418058  0.418058  1
  Pa  Pa4  1  0.915796  0.915796  0.915796  1
  Pa  Pa5  1  0.500102  0.001312  0.081925  1
  Pa  Pa6  1  0.001312  0.081925  0.500102  1
  Pa  Pa7  1  0.081925  0.500102  0.001312  1
  H  H8  1  0.651726  0.968149  0.370902  1
  H  H9  1  0.218816  0.316025  0.848680  1
  H  H10  1  0.183475  0.402361  0.531994  1
  H  H11  1  0.097094  0.280655  0.129174  1
  H  H12  1  0.280655  0.129174  0.097094  1
  H  H13  1  0.129174  0.097094  0.280655  1
  H  H14  1  0.467110  0.151630  0.870392  1
  H  H15  1  0.719057  0.348045  0.815996  1
  H  H16  1  0.624758  0.374757  0.249752  1
  H  H17  1  0.249752  0.624758  0.374757  1
  H  H18  1  0.750067  0.875098  0.125186  1
  H  H19  1  0.125186  0.750067  0.875098  1
  H  H20  1  0.374757  0.249752  0.624758  1
  H  H21  1  0.875098  0.125186  0.750067  1
  H  H22  1  0.781379  0.596802  0.629548  1
  H  H23  1  0.316025  0.848680  0.218816  1
  H  H24  1  0.370902  0.651726  0.968149  1
  H  H25  1  0.968149  0.370902  0.651726  1
  H  H26  1  0.531994  0.183475  0.402361  1
  H  H27  1  0.402361  0.531994  0.183475  1
  H  H28  1  0.848680  0.218816  0.316025  1
  H  H29  1  0.903306  0.684507  0.032871  1
  H  H30  1  0.815996  0.719057  0.348045  1
  H  H31  1  0.151630  0.870392  0.467110  1
  H  H32  1  0.684507  0.032871  0.903306  1
  H  H33  1  0.348045  0.815996  0.719057  1
  H  H34  1  0.870392  0.467110  0.151630  1
  H  H35  1  0.629548  0.781379  0.596802  1
  H  H36  1  0.596802  0.629548  0.781379  1
  H  H37  1  0.032871  0.903306  0.684507  1
