# generated using pymatgen
data_Ho5TmZr2(Co4P3)4
_symmetry_space_group_name_H-M   'P 1'
_cell_length_a   3.71528900
_cell_length_b   10.68137920
_cell_length_c   12.39264323
_cell_angle_alpha   90.02223969
_cell_angle_beta   90.00000000
_cell_angle_gamma   90.00000000
_symmetry_Int_Tables_number   1
_chemical_formula_structural   Ho5TmZr2(Co4P3)4
_chemical_formula_sum   'Ho5 Tm1 Zr2 Co16 P12'
_cell_volume   491.79470608
_cell_formula_units_Z   1
loop_
 _symmetry_equiv_pos_site_id
 _symmetry_equiv_pos_as_xyz
  1  'x, y, z'
loop_
 _atom_site_type_symbol
 _atom_site_label
 _atom_site_symmetry_multiplicity
 _atom_site_fract_x
 _atom_site_fract_y
 _atom_site_fract_z
 _atom_site_occupancy
  Ho  Ho0  1  0.000000  0.500043  0.529377  1
  Ho  Ho1  1  0.500000  0.999921  0.470600  1
  Ho  Ho2  1  0.500000  0.177943  0.204676  1
  Ho  Ho3  1  0.000000  0.678274  0.795208  1
  Ho  Ho4  1  0.000000  0.321746  0.795300  1
  Tm  Tm5  1  0.500000  0.821885  0.204621  1
  Zr  Zr6  1  0.500000  0.500282  0.158434  1
  Zr  Zr7  1  0.000000  0.999956  0.841606  1
  Co  Co8  1  0.000000  0.500166  0.985794  1
  Co  Co9  1  0.500000  0.999746  0.014560  1
  Co  Co10  1  0.500000  0.295034  0.433462  1
  Co  Co11  1  0.500000  0.705012  0.433131  1
  Co  Co12  1  0.000000  0.204815  0.566519  1
  Co  Co13  1  0.000000  0.795142  0.566327  1
  Co  Co14  1  0.500000  0.877313  0.701188  1
  Co  Co15  1  0.500000  0.122722  0.701257  1
  Co  Co16  1  0.000000  0.623329  0.298344  1
  Co  Co17  1  0.000000  0.377348  0.298776  1
  Co  Co18  1  0.500000  0.332005  0.992831  1
  Co  Co19  1  0.500000  0.668250  0.993036  1
  Co  Co20  1  0.000000  0.167796  0.007356  1
  Co  Co21  1  0.000000  0.832000  0.007604  1
  Co  Co22  1  0.500000  0.500037  0.702922  1
  Co  Co23  1  0.000000  0.999282  0.296756  1
  P  P24  1  0.500000  0.310435  0.615757  1
  P  P25  1  0.500000  0.689632  0.615617  1
  P  P26  1  0.000000  0.189351  0.384207  1
  P  P27  1  0.000000  0.810617  0.383624  1
  P  P28  1  0.500000  0.500072  0.883229  1
  P  P29  1  0.000000  0.999431  0.117209  1
  P  P30  1  0.500000  0.837806  0.893608  1
  P  P31  1  0.500000  0.162100  0.893761  1
  P  P32  1  0.000000  0.662777  0.106947  1
  P  P33  1  0.000000  0.337799  0.106388  1
  P  P34  1  0.500000  0.499928  0.363631  1
  P  P35  1  0.000000  0.000004  0.636340  1
