# generated using pymatgen
data_Tb10IrOs3
_symmetry_space_group_name_H-M   'P 1'
_cell_length_a   6.46943489
_cell_length_b   7.32829296
_cell_length_c   8.48236641
_cell_angle_alpha   96.65342058
_cell_angle_beta   112.29543215
_cell_angle_gamma   90.02337757
_symmetry_Int_Tables_number   1
_chemical_formula_structural   Tb10IrOs3
_chemical_formula_sum   'Tb10 Ir1 Os3'
_cell_volume   369.14684100
_cell_formula_units_Z   1
loop_
 _symmetry_equiv_pos_site_id
 _symmetry_equiv_pos_as_xyz
  1  'x, y, z'
loop_
 _atom_site_type_symbol
 _atom_site_label
 _atom_site_symmetry_multiplicity
 _atom_site_fract_x
 _atom_site_fract_y
 _atom_site_fract_z
 _atom_site_occupancy
  Tb  Tb0  1  0.972044  0.915683  0.181032  1
  Tb  Tb1  1  0.791336  0.582777  0.817351  1
  Tb  Tb2  1  0.024180  0.083212  0.814892  1
  Tb  Tb3  1  0.207529  0.418480  0.181301  1
  Tb  Tb4  1  0.651158  0.816187  0.439554  1
  Tb  Tb5  1  0.212063  0.683022  0.562018  1
  Tb  Tb6  1  0.349182  0.183035  0.563572  1
  Tb  Tb7  1  0.790842  0.318198  0.439139  1
  Tb  Tb8  1  0.425798  0.748270  0.998782  1
  Tb  Tb9  1  0.574650  0.250583  0.999527  1
  Ir  Ir10  1  0.395002  0.074329  0.221217  1
  Os  Os11  1  0.824829  0.574118  0.218892  1
  Os  Os12  1  0.606685  0.927011  0.780890  1
  Os  Os13  1  0.174702  0.425093  0.781833  1
