# generated using pymatgen
data_La15Tb(HgRh)4
_symmetry_space_group_name_H-M   'P 1'
_cell_length_a   10.06115490
_cell_length_b   10.06115526
_cell_length_c   10.08009100
_cell_angle_alpha   59.93771896
_cell_angle_beta   59.93771780
_cell_angle_gamma   60.12678802
_symmetry_Int_Tables_number   1
_chemical_formula_structural   La15Tb(HgRh)4
_chemical_formula_sum   'La15 Tb1 Hg4 Rh4'
_cell_volume   721.52151632
_cell_formula_units_Z   1
loop_
 _symmetry_equiv_pos_site_id
 _symmetry_equiv_pos_as_xyz
  1  'x, y, z'
loop_
 _atom_site_type_symbol
 _atom_site_label
 _atom_site_symmetry_multiplicity
 _atom_site_fract_x
 _atom_site_fract_y
 _atom_site_fract_z
 _atom_site_occupancy
  La  La0  1  0.300129  0.899316  0.900277  1
  La  La1  1  0.691041  0.308592  0.686618  1
  La  La2  1  0.308592  0.691041  0.313749  1
  La  La3  1  0.059355  0.437111  0.440792  1
  La  La4  1  0.691041  0.308592  0.313749  1
  La  La5  1  0.437111  0.059355  0.440792  1
  La  La6  1  0.437111  0.059355  0.062742  1
  La  La7  1  0.902511  0.902511  0.897347  1
  La  La8  1  0.059355  0.437111  0.062742  1
  La  La9  1  0.899316  0.300129  0.900277  1
  La  La10  1  0.308592  0.691041  0.686618  1
  La  La11  1  0.902511  0.902511  0.297630  1
  La  La12  1  0.441846  0.441846  0.058154  1
  La  La13  1  0.309907  0.309907  0.690093  1
  La  La14  1  0.690144  0.690144  0.309856  1
  Tb  Tb15  1  0.058322  0.058322  0.441678  1
  Hg  Hg16  1  0.000365  0.669238  0.665198  1
  Hg  Hg17  1  0.669238  0.000365  0.665198  1
  Hg  Hg18  1  0.666723  0.666723  0.000182  1
  Hg  Hg19  1  0.666723  0.666723  0.666370  1
  Rh  Rh20  1  0.108858  0.108858  0.672492  1
  Rh  Rh21  1  0.108884  0.673465  0.108825  1
  Rh  Rh22  1  0.108858  0.108858  0.109792  1
  Rh  Rh23  1  0.673465  0.108884  0.108825  1
