# generated using pymatgen
data_Tb4Y12Cd3Ni4Ag
_symmetry_space_group_name_H-M   'P 1'
_cell_length_a   9.56512313
_cell_length_b   9.56512407
_cell_length_c   9.56512301
_cell_angle_alpha   60.09571141
_cell_angle_beta   60.09570715
_cell_angle_gamma   60.09570353
_symmetry_Int_Tables_number   1
_chemical_formula_structural   Tb4Y12Cd3Ni4Ag
_chemical_formula_sum   'Tb4 Y12 Cd3 Ni4 Ag1'
_cell_volume   620.15111843
_cell_formula_units_Z   1
loop_
 _symmetry_equiv_pos_site_id
 _symmetry_equiv_pos_as_xyz
  1  'x, y, z'
loop_
 _atom_site_type_symbol
 _atom_site_label
 _atom_site_symmetry_multiplicity
 _atom_site_fract_x
 _atom_site_fract_y
 _atom_site_fract_z
 _atom_site_occupancy
  Tb  Tb0  1  0.596798  0.596798  0.596798  1
  Tb  Tb1  1  0.600596  0.600596  0.199569  1
  Tb  Tb2  1  0.600596  0.199569  0.600596  1
  Tb  Tb3  1  0.199569  0.600596  0.600596  1
  Y  Y4  1  0.061993  0.440196  0.440196  1
  Y  Y5  1  0.438709  0.061659  0.061659  1
  Y  Y6  1  0.440196  0.061993  0.440196  1
  Y  Y7  1  0.061659  0.438709  0.061659  1
  Y  Y8  1  0.440196  0.440196  0.061993  1
  Y  Y9  1  0.061659  0.061659  0.438709  1
  Y  Y10  1  0.184732  0.812960  0.812960  1
  Y  Y11  1  0.812263  0.186602  0.186602  1
  Y  Y12  1  0.812960  0.184732  0.812960  1
  Y  Y13  1  0.186602  0.812263  0.186602  1
  Y  Y14  1  0.812960  0.812960  0.184732  1
  Y  Y15  1  0.186602  0.186602  0.812263  1
  Cd  Cd16  1  0.831104  0.831104  0.507439  1
  Cd  Cd17  1  0.831104  0.507439  0.831104  1
  Cd  Cd18  1  0.507439  0.831104  0.831104  1
  Ni  Ni19  1  0.394408  0.394408  0.394408  1
  Ni  Ni20  1  0.392004  0.392004  0.821447  1
  Ni  Ni21  1  0.392004  0.821447  0.392004  1
  Ni  Ni22  1  0.821447  0.392004  0.392004  1
  Ag  Ag23  1  0.832405  0.832405  0.832405  1
