# generated using pymatgen
data_Na4Bi3Sb(PS3)8
_symmetry_space_group_name_H-M   'P 1'
_cell_length_a   11.44096764
_cell_length_b   7.41331271
_cell_length_c   11.93056155
_cell_angle_alpha   89.81565743
_cell_angle_beta   109.19789751
_cell_angle_gamma   90.11971874
_symmetry_Int_Tables_number   1
_chemical_formula_structural   Na4Bi3Sb(PS3)8
_chemical_formula_sum   'Na4 Bi3 Sb1 P8 S24'
_cell_volume   955.61755087
_cell_formula_units_Z   1
loop_
 _symmetry_equiv_pos_site_id
 _symmetry_equiv_pos_as_xyz
  1  'x, y, z'
loop_
 _atom_site_type_symbol
 _atom_site_label
 _atom_site_symmetry_multiplicity
 _atom_site_fract_x
 _atom_site_fract_y
 _atom_site_fract_z
 _atom_site_occupancy
  Na  Na0  1  0.405105  0.611153  0.121166  1
  Na  Na1  1  0.595268  0.110781  0.379583  1
  Na  Na2  1  0.405332  0.888828  0.620238  1
  Na  Na3  1  0.596332  0.389043  0.879576  1
  Bi  Bi4  1  0.871563  0.854294  0.172262  1
  Bi  Bi5  1  0.126704  0.352736  0.324059  1
  Bi  Bi6  1  0.870962  0.646447  0.673894  1
  Sb  Sb7  1  0.133928  0.157217  0.824540  1
  P  P8  1  0.243462  0.101076  0.165673  1
  P  P9  1  0.752332  0.380130  0.201786  1
  P  P10  1  0.247763  0.879749  0.298197  1
  P  P11  1  0.756858  0.600758  0.333736  1
  P  P12  1  0.243257  0.400438  0.666561  1
  P  P13  1  0.752795  0.120762  0.701863  1
  P  P14  1  0.247223  0.621366  0.797428  1
  P  P15  1  0.756863  0.898703  0.833635  1
  S  S16  1  0.311083  0.003856  0.042865  1
  S  S17  1  0.821025  0.503562  0.081172  1
  S  S18  1  0.062879  0.188094  0.105919  1
  S  S19  1  0.579228  0.287628  0.133980  1
  S  S20  1  0.124910  0.695169  0.194461  1
  S  S21  1  0.655850  0.803116  0.226243  1
  S  S22  1  0.344323  0.303125  0.273198  1
  S  S23  1  0.875188  0.194871  0.305326  1
  S  S24  1  0.420821  0.787563  0.366350  1
  S  S25  1  0.936946  0.687251  0.394679  1
  S  S26  1  0.179381  0.002602  0.418592  1
  S  S27  1  0.687503  0.501702  0.455795  1
  S  S28  1  0.312584  0.496236  0.544772  1
  S  S29  1  0.819950  0.997443  0.580790  1
  S  S30  1  0.063341  0.309544  0.610120  1
  S  S31  1  0.578936  0.211860  0.634610  1
  S  S32  1  0.125113  0.806261  0.696504  1
  S  S33  1  0.654811  0.697227  0.726130  1
  S  S34  1  0.341718  0.195638  0.775638  1
  S  S35  1  0.876003  0.304974  0.804623  1
  S  S36  1  0.420803  0.710759  0.866950  1
  S  S37  1  0.936049  0.811467  0.895058  1
  S  S38  1  0.178139  0.489067  0.916295  1
  S  S39  1  0.687671  0.997499  0.955735  1
