# generated using pymatgen
data_TbDy5Ho3Er11(CoBi2)4
_symmetry_space_group_name_H-M   'P 1'
_cell_length_a   7.94763804
_cell_length_b   8.86877900
_cell_length_c   12.36154600
_cell_angle_alpha   90.00000000
_cell_angle_beta   90.00587546
_cell_angle_gamma   90.00000000
_symmetry_Int_Tables_number   1
_chemical_formula_structural   TbDy5Ho3Er11(CoBi2)4
_chemical_formula_sum   'Tb1 Dy5 Ho3 Er11 Co4 Bi8'
_cell_volume   871.31401524
_cell_formula_units_Z   1
loop_
 _symmetry_equiv_pos_site_id
 _symmetry_equiv_pos_as_xyz
  1  'x, y, z'
loop_
 _atom_site_type_symbol
 _atom_site_label
 _atom_site_symmetry_multiplicity
 _atom_site_fract_x
 _atom_site_fract_y
 _atom_site_fract_z
 _atom_site_occupancy
  Tb  Tb0  1  0.653494  0.750000  0.699786  1
  Dy  Dy1  1  0.118902  0.750000  0.812044  1
  Dy  Dy2  1  0.881658  0.250000  0.187925  1
  Dy  Dy3  1  0.618207  0.250000  0.687627  1
  Dy  Dy4  1  0.382001  0.750000  0.312295  1
  Dy  Dy5  1  0.551432  0.750000  0.997650  1
  Ho  Ho6  1  0.346837  0.250000  0.300753  1
  Ho  Ho7  1  0.152637  0.250000  0.801013  1
  Ho  Ho8  1  0.847294  0.750000  0.199265  1
  Er  Er9  1  0.447086  0.250000  0.003103  1
  Er  Er10  1  0.052337  0.250000  0.502219  1
  Er  Er11  1  0.948031  0.750000  0.497311  1
  Er  Er12  1  0.825410  0.463196  0.936522  1
  Er  Er13  1  0.174443  0.537037  0.063449  1
  Er  Er14  1  0.325295  0.536435  0.562995  1
  Er  Er15  1  0.174443  0.962963  0.063449  1
  Er  Er16  1  0.674799  0.462931  0.436449  1
  Er  Er17  1  0.825410  0.036804  0.936522  1
  Er  Er18  1  0.674799  0.037069  0.436449  1
  Er  Er19  1  0.325295  0.963565  0.562995  1
  Co  Co20  1  0.936288  0.750000  0.992128  1
  Co  Co21  1  0.063464  0.250000  0.007805  1
  Co  Co22  1  0.436090  0.250000  0.507393  1
  Co  Co23  1  0.564139  0.750000  0.492523  1
  Bi  Bi24  1  0.931423  0.008670  0.672439  1
  Bi  Bi25  1  0.069292  0.991666  0.327144  1
  Bi  Bi26  1  0.429927  0.992726  0.827274  1
  Bi  Bi27  1  0.069292  0.508334  0.327144  1
  Bi  Bi28  1  0.569463  0.008675  0.173310  1
  Bi  Bi29  1  0.931423  0.491330  0.672439  1
  Bi  Bi30  1  0.569463  0.491325  0.173310  1
  Bi  Bi31  1  0.429927  0.507274  0.827274  1
