# generated using pymatgen
data_Sr3Ho(Si3Pd5)4
_symmetry_space_group_name_H-M   'P 1'
_cell_length_a   4.06694000
_cell_length_b   19.95516275
_cell_length_c   7.34419900
_cell_angle_alpha   89.87465941
_cell_angle_beta   90.00000000
_cell_angle_gamma   90.00000000
_symmetry_Int_Tables_number   1
_chemical_formula_structural   Sr3Ho(Si3Pd5)4
_chemical_formula_sum   'Sr3 Ho1 Si12 Pd20'
_cell_volume   596.02768974
_cell_formula_units_Z   1
loop_
 _symmetry_equiv_pos_site_id
 _symmetry_equiv_pos_as_xyz
  1  'x, y, z'
loop_
 _atom_site_type_symbol
 _atom_site_label
 _atom_site_symmetry_multiplicity
 _atom_site_fract_x
 _atom_site_fract_y
 _atom_site_fract_z
 _atom_site_occupancy
  Sr  Sr0  1  0.750000  0.642609  0.122514  1
  Sr  Sr1  1  0.250000  0.356364  0.877531  1
  Sr  Sr2  1  0.250000  0.858359  0.623824  1
  Ho  Ho3  1  0.750000  0.144225  0.376937  1
  Si  Si4  1  0.750000  0.737163  0.628168  1
  Si  Si5  1  0.250000  0.259034  0.370572  1
  Si  Si6  1  0.250000  0.763582  0.128433  1
  Si  Si7  1  0.750000  0.236172  0.872582  1
  Si  Si8  1  0.750000  0.925364  0.343721  1
  Si  Si9  1  0.250000  0.076526  0.647323  1
  Si  Si10  1  0.250000  0.574248  0.844515  1
  Si  Si11  1  0.750000  0.424093  0.156881  1
  Si  Si12  1  0.750000  0.918569  0.915912  1
  Si  Si13  1  0.250000  0.085085  0.098625  1
  Si  Si14  1  0.250000  0.583510  0.415119  1
  Si  Si15  1  0.750000  0.414762  0.582435  1
  Pd  Pd16  1  0.750000  0.799806  0.324077  1
  Pd  Pd17  1  0.250000  0.198022  0.668654  1
  Pd  Pd18  1  0.250000  0.700425  0.824595  1
  Pd  Pd19  1  0.750000  0.298036  0.177517  1
  Pd  Pd20  1  0.750000  0.994379  0.625410  1
  Pd  Pd21  1  0.250000  0.008984  0.373199  1
  Pd  Pd22  1  0.250000  0.505135  0.127765  1
  Pd  Pd23  1  0.750000  0.493782  0.872624  1
  Pd  Pd24  1  0.750000  0.512795  0.379221  1
  Pd  Pd25  1  0.250000  0.486236  0.619805  1
  Pd  Pd26  1  0.250000  0.990804  0.879722  1
  Pd  Pd27  1  0.750000  0.015151  0.124333  1
  Pd  Pd28  1  0.750000  0.797169  0.932829  1
  Pd  Pd29  1  0.250000  0.202715  0.069640  1
  Pd  Pd30  1  0.250000  0.704064  0.433646  1
  Pd  Pd31  1  0.750000  0.294227  0.567474  1
  Pd  Pd32  1  0.750000  0.616165  0.641994  1
  Pd  Pd33  1  0.250000  0.381722  0.358438  1
  Pd  Pd34  1  0.250000  0.885097  0.141727  1
  Pd  Pd35  1  0.750000  0.115622  0.852243  1
