# generated using pymatgen
data_Pr6Y9Ho(CdIr)4
_symmetry_space_group_name_H-M   'P 1'
_cell_length_a   9.80259689
_cell_length_b   9.80259606
_cell_length_c   9.80259714
_cell_angle_alpha   59.91402818
_cell_angle_beta   59.91403064
_cell_angle_gamma   59.91402564
_symmetry_Int_Tables_number   1
_chemical_formula_structural   Pr6Y9Ho(CdIr)4
_chemical_formula_sum   'Pr6 Y9 Ho1 Cd4 Ir4'
_cell_volume   664.75344731
_cell_formula_units_Z   1
loop_
 _symmetry_equiv_pos_site_id
 _symmetry_equiv_pos_as_xyz
  1  'x, y, z'
loop_
 _atom_site_type_symbol
 _atom_site_label
 _atom_site_symmetry_multiplicity
 _atom_site_fract_x
 _atom_site_fract_y
 _atom_site_fract_z
 _atom_site_occupancy
  Pr  Pr0  1  0.940998  0.558987  0.558987  1
  Pr  Pr1  1  0.558529  0.941156  0.941156  1
  Pr  Pr2  1  0.558987  0.940998  0.558987  1
  Pr  Pr3  1  0.941156  0.558529  0.941156  1
  Pr  Pr4  1  0.558987  0.558987  0.940998  1
  Pr  Pr5  1  0.941156  0.941156  0.558529  1
  Y  Y6  1  0.347911  0.347911  0.957128  1
  Y  Y7  1  0.347911  0.957128  0.347911  1
  Y  Y8  1  0.957128  0.347911  0.347911  1
  Y  Y9  1  0.811245  0.188068  0.188068  1
  Y  Y10  1  0.186825  0.812173  0.812173  1
  Y  Y11  1  0.188068  0.811245  0.188068  1
  Y  Y12  1  0.812173  0.186825  0.812173  1
  Y  Y13  1  0.188068  0.188068  0.811245  1
  Y  Y14  1  0.812173  0.812173  0.186825  1
  Ho  Ho15  1  0.346651  0.346651  0.346651  1
  Cd  Cd16  1  0.579141  0.579141  0.579141  1
  Cd  Cd17  1  0.579326  0.579326  0.261992  1
  Cd  Cd18  1  0.579326  0.261992  0.579326  1
  Cd  Cd19  1  0.261992  0.579326  0.579326  1
  Ir  Ir20  1  0.141152  0.141152  0.141152  1
  Ir  Ir21  1  0.142609  0.142609  0.575882  1
  Ir  Ir22  1  0.142609  0.575882  0.142609  1
  Ir  Ir23  1  0.575882  0.142609  0.142609  1
