# generated using pymatgen
data_Er4InCo
_symmetry_space_group_name_H-M   'P 1'
_cell_length_a   9.45947778
_cell_length_b   9.45947761
_cell_length_c   9.45947700
_cell_angle_alpha   59.99999865
_cell_angle_beta   59.99999923
_cell_angle_gamma   59.99999890
_symmetry_Int_Tables_number   1
_chemical_formula_structural   Er4InCo
_chemical_formula_sum   'Er16 In4 Co4'
_cell_volume   598.53070139
_cell_formula_units_Z   4
loop_
 _symmetry_equiv_pos_site_id
 _symmetry_equiv_pos_as_xyz
  1  'x, y, z'
loop_
 _atom_site_type_symbol
 _atom_site_label
 _atom_site_symmetry_multiplicity
 _atom_site_fract_x
 _atom_site_fract_y
 _atom_site_fract_z
 _atom_site_occupancy
  Er  Er0  1  0.596411  0.596411  0.596411  1
  Er  Er1  1  0.596411  0.596411  0.210767  1
  Er  Er2  1  0.596411  0.210767  0.596411  1
  Er  Er3  1  0.210767  0.596411  0.596411  1
  Er  Er4  1  0.061800  0.438200  0.438200  1
  Er  Er5  1  0.438200  0.061800  0.061800  1
  Er  Er6  1  0.438200  0.061800  0.438200  1
  Er  Er7  1  0.061800  0.438200  0.061800  1
  Er  Er8  1  0.438200  0.438200  0.061800  1
  Er  Er9  1  0.061800  0.061800  0.438200  1
  Er  Er10  1  0.188779  0.811221  0.811221  1
  Er  Er11  1  0.811221  0.188779  0.188779  1
  Er  Er12  1  0.811221  0.188779  0.811221  1
  Er  Er13  1  0.188779  0.811221  0.188779  1
  Er  Er14  1  0.811221  0.811221  0.188779  1
  Er  Er15  1  0.188779  0.188779  0.811221  1
  In  In16  1  0.832877  0.832877  0.832877  1
  In  In17  1  0.832877  0.832877  0.501368  1
  In  In18  1  0.832877  0.501368  0.832877  1
  In  In19  1  0.501368  0.832877  0.832877  1
  Co  Co20  1  0.390331  0.390331  0.390331  1
  Co  Co21  1  0.390331  0.390331  0.829007  1
  Co  Co22  1  0.390331  0.829007  0.390331  1
  Co  Co23  1  0.829007  0.390331  0.390331  1
