# generated using pymatgen
data_K5Rb9(UAs4)2
_symmetry_space_group_name_H-M   'P 1'
_cell_length_a   8.75250754
_cell_length_b   9.81477971
_cell_length_c   10.95089700
_cell_angle_alpha   90.00000000
_cell_angle_beta   90.00000000
_cell_angle_gamma   90.18523627
_symmetry_Int_Tables_number   1
_chemical_formula_structural   K5Rb9(UAs4)2
_chemical_formula_sum   'K5 Rb9 U2 As8'
_cell_volume   940.72021007
_cell_formula_units_Z   1
loop_
 _symmetry_equiv_pos_site_id
 _symmetry_equiv_pos_as_xyz
  1  'x, y, z'
loop_
 _atom_site_type_symbol
 _atom_site_label
 _atom_site_symmetry_multiplicity
 _atom_site_fract_x
 _atom_site_fract_y
 _atom_site_fract_z
 _atom_site_occupancy
  K  K0  1  0.877597  0.027040  0.000000  1
  K  K1  1  0.392728  0.888082  0.000000  1
  K  K2  1  0.378585  0.975110  0.500000  1
  K  K3  1  0.891698  0.112257  0.500000  1
  K  K4  1  0.666304  0.336357  0.000000  1
  Rb  Rb5  1  0.705358  0.837946  0.716705  1
  Rb  Rb6  1  0.875969  0.461616  0.289748  1
  Rb  Rb7  1  0.158370  0.667437  0.500000  1
  Rb  Rb8  1  0.205344  0.161996  0.215100  1
  Rb  Rb9  1  0.377314  0.537315  0.207822  1
  Rb  Rb10  1  0.377314  0.537315  0.792178  1
  Rb  Rb11  1  0.875969  0.461616  0.710252  1
  Rb  Rb12  1  0.705358  0.837946  0.283295  1
  Rb  Rb13  1  0.205344  0.161996  0.784900  1
  U  U14  1  0.002594  0.671569  0.000000  1
  U  U15  1  0.505276  0.326929  0.500000  1
  As  As16  1  0.690919  0.677979  0.000000  1
  As  As17  1  0.194617  0.315190  0.500000  1
  As  As18  1  0.068827  0.399400  0.000000  1
  As  As19  1  0.572035  0.599070  0.500000  1
  As  As20  1  0.098441  0.813609  0.203210  1
  As  As21  1  0.598899  0.189308  0.293192  1
  As  As22  1  0.598899  0.189308  0.706808  1
  As  As23  1  0.098441  0.813609  0.796790  1
