# generated using pymatgen
data_Tm16Lu4ZnBi11
_symmetry_space_group_name_H-M   'P 1'
_cell_length_a   8.11858893
_cell_length_b   9.40295600
_cell_length_c   11.86743200
_cell_angle_alpha   90.00000000
_cell_angle_beta   89.68999085
_cell_angle_gamma   90.00000000
_symmetry_Int_Tables_number   1
_chemical_formula_structural   Tm16Lu4ZnBi11
_chemical_formula_sum   'Tm16 Lu4 Zn1 Bi11'
_cell_volume   905.93147967
_cell_formula_units_Z   1
loop_
 _symmetry_equiv_pos_site_id
 _symmetry_equiv_pos_as_xyz
  1  'x, y, z'
loop_
 _atom_site_type_symbol
 _atom_site_label
 _atom_site_symmetry_multiplicity
 _atom_site_fract_x
 _atom_site_fract_y
 _atom_site_fract_z
 _atom_site_occupancy
  Tm  Tm0  1  0.356689  0.250000  0.294852  1
  Tm  Tm1  1  0.647062  0.750000  0.716270  1
  Tm  Tm2  1  0.149519  0.750000  0.782453  1
  Tm  Tm3  1  0.853406  0.250000  0.216084  1
  Tm  Tm4  1  0.191432  0.250000  0.778691  1
  Tm  Tm5  1  0.809999  0.750000  0.217453  1
  Tm  Tm6  1  0.313031  0.750000  0.281354  1
  Tm  Tm7  1  0.674770  0.250000  0.710524  1
  Tm  Tm8  1  0.193926  0.066062  0.061275  1
  Tm  Tm9  1  0.806033  0.934418  0.940330  1
  Tm  Tm10  1  0.308739  0.952052  0.559017  1
  Tm  Tm11  1  0.806033  0.565582  0.940330  1
  Tm  Tm12  1  0.684234  0.071966  0.445330  1
  Tm  Tm13  1  0.193926  0.433938  0.061275  1
  Tm  Tm14  1  0.684234  0.428034  0.445330  1
  Tm  Tm15  1  0.308739  0.547948  0.559017  1
  Lu  Lu16  1  0.036537  0.250000  0.508708  1
  Lu  Lu17  1  0.980220  0.750000  0.489889  1
  Lu  Lu18  1  0.475452  0.750000  0.010209  1
  Lu  Lu19  1  0.525466  0.250000  0.989311  1
  Zn  Zn20  1  0.407921  0.250000  0.539777  1
  Bi  Bi21  1  0.594672  0.750000  0.457264  1
  Bi  Bi22  1  0.094776  0.750000  0.042631  1
  Bi  Bi23  1  0.906544  0.250000  0.954861  1
  Bi  Bi24  1  0.063199  0.002584  0.324513  1
  Bi  Bi25  1  0.935101  0.997449  0.675195  1
  Bi  Bi26  1  0.435481  0.997255  0.825209  1
  Bi  Bi27  1  0.935101  0.502551  0.675195  1
  Bi  Bi28  1  0.564541  0.003835  0.173966  1
  Bi  Bi29  1  0.063199  0.497416  0.324513  1
  Bi  Bi30  1  0.564541  0.496165  0.173966  1
  Bi  Bi31  1  0.435481  0.502745  0.825209  1
