# generated using pymatgen
data_Ce2GaFe(Tc5C)3
_symmetry_space_group_name_H-M   'P 1'
_cell_length_a   6.98697049
_cell_length_b   6.93919971
_cell_length_c   6.94497089
_cell_angle_alpha   82.90673181
_cell_angle_beta   82.33046788
_cell_angle_gamma   82.84656078
_symmetry_Int_Tables_number   1
_chemical_formula_structural   Ce2GaFe(Tc5C)3
_chemical_formula_sum   'Ce2 Ga1 Fe1 Tc15 C3'
_cell_volume   329.14906071
_cell_formula_units_Z   1
loop_
 _symmetry_equiv_pos_site_id
 _symmetry_equiv_pos_as_xyz
  1  'x, y, z'
loop_
 _atom_site_type_symbol
 _atom_site_label
 _atom_site_symmetry_multiplicity
 _atom_site_fract_x
 _atom_site_fract_y
 _atom_site_fract_z
 _atom_site_occupancy
  Ce  Ce0  1  0.652639  0.652607  0.652848  1
  Ce  Ce1  1  0.347361  0.347393  0.347152  1
  Ga  Ga2  1  0.500000  0.000000  0.000000  1
  Fe  Fe3  1  0.000000  0.500000  0.000000  1
  Tc  Tc4  1  0.000000  0.000000  0.500000  1
  Tc  Tc5  1  0.726107  0.279269  0.001987  1
  Tc  Tc6  1  0.000532  0.722006  0.273697  1
  Tc  Tc7  1  0.276546  0.996756  0.724462  1
  Tc  Tc8  1  0.999468  0.277994  0.726303  1
  Tc  Tc9  1  0.723454  0.003244  0.275538  1
  Tc  Tc10  1  0.273893  0.720731  0.998013  1
  Tc  Tc11  1  0.344772  0.350433  0.858138  1
  Tc  Tc12  1  0.859447  0.354372  0.348425  1
  Tc  Tc13  1  0.351320  0.852756  0.351023  1
  Tc  Tc14  1  0.655228  0.649567  0.141862  1
  Tc  Tc15  1  0.140553  0.645628  0.651575  1
  Tc  Tc16  1  0.648680  0.147244  0.648977  1
  Tc  Tc17  1  0.906513  0.897978  0.900517  1
  Tc  Tc18  1  0.093487  0.102022  0.099483  1
  C  C19  1  0.500000  0.500000  0.000000  1
  C  C20  1  0.000000  0.500000  0.500000  1
  C  C21  1  0.500000  0.000000  0.500000  1
