# generated using pymatgen
data_Dy5YB14MoOs
_symmetry_space_group_name_H-M   'P 1'
_cell_length_a   8.11728004
_cell_length_b   8.11727858
_cell_length_c   9.39281600
_cell_angle_alpha   90.00000000
_cell_angle_beta   90.00000000
_cell_angle_gamma   155.04035300
_symmetry_Int_Tables_number   1
_chemical_formula_structural   Dy5YB14MoOs
_chemical_formula_sum   'Dy5 Y1 B14 Mo1 Os1'
_cell_volume   261.16111228
_cell_formula_units_Z   1
loop_
 _symmetry_equiv_pos_site_id
 _symmetry_equiv_pos_as_xyz
  1  'x, y, z'
loop_
 _atom_site_type_symbol
 _atom_site_label
 _atom_site_symmetry_multiplicity
 _atom_site_fract_x
 _atom_site_fract_y
 _atom_site_fract_z
 _atom_site_occupancy
  Dy  Dy0  1  0.256651  0.743349  0.250000  1
  Dy  Dy1  1  0.605786  0.394214  0.062044  1
  Dy  Dy2  1  0.393309  0.606691  0.940803  1
  Dy  Dy3  1  0.393309  0.606691  0.559197  1
  Dy  Dy4  1  0.605786  0.394214  0.437956  1
  Y  Y5  1  0.744589  0.255411  0.750000  1
  B  B6  1  0.978715  0.021285  0.096536  1
  B  B7  1  0.019814  0.980186  0.908582  1
  B  B8  1  0.019814  0.980186  0.591418  1
  B  B9  1  0.978715  0.021285  0.403464  1
  B  B10  1  0.773484  0.226516  0.034769  1
  B  B11  1  0.227954  0.772046  0.968156  1
  B  B12  1  0.227954  0.772046  0.531844  1
  B  B13  1  0.773484  0.226516  0.465231  1
  B  B14  1  0.868219  0.131781  0.151094  1
  B  B15  1  0.134497  0.865503  0.852647  1
  B  B16  1  0.134497  0.865503  0.647353  1
  B  B17  1  0.868219  0.131781  0.348906  1
  B  B18  1  0.041549  0.958451  0.250000  1
  B  B19  1  0.955297  0.044703  0.750000  1
  Mo  Mo20  1  0.552761  0.447239  0.750000  1
  Os  Os21  1  0.445600  0.554400  0.250000  1
