# generated using pymatgen
data_Gd3In3IrBr2
_symmetry_space_group_name_H-M   'P 1'
_cell_length_a   8.54039011
_cell_length_b   8.52833276
_cell_length_c   3.74774800
_cell_angle_alpha   90.00000000
_cell_angle_beta   90.00000000
_cell_angle_gamma   120.12745980
_symmetry_Int_Tables_number   1
_chemical_formula_structural   Gd3In3IrBr2
_chemical_formula_sum   'Gd3 In3 Ir1 Br2'
_cell_volume   236.09328252
_cell_formula_units_Z   1
loop_
 _symmetry_equiv_pos_site_id
 _symmetry_equiv_pos_as_xyz
  1  'x, y, z'
loop_
 _atom_site_type_symbol
 _atom_site_label
 _atom_site_symmetry_multiplicity
 _atom_site_fract_x
 _atom_site_fract_y
 _atom_site_fract_z
 _atom_site_occupancy
  Gd  Gd0  1  0.374533  0.374641  0.000000  1
  Gd  Gd1  1  0.624761  0.999968  0.000000  1
  Gd  Gd2  1  0.999839  0.625093  0.000000  1
  In  In3  1  0.997146  0.232953  0.500000  1
  In  In4  1  0.765693  0.767354  0.500000  1
  In  In5  1  0.235644  0.999196  0.500000  1
  Ir  Ir6  1  0.001518  0.000415  0.000000  1
  Br  Br7  1  0.333719  0.666267  0.500000  1
  Br  Br8  1  0.667146  0.334114  0.500000  1
