# generated using pymatgen
data_Nd17Ho3(BiPb3)4
_symmetry_space_group_name_H-M   'P 1'
_cell_length_a   8.45632422
_cell_length_b   8.49566803
_cell_length_c   16.20035800
_cell_angle_alpha   89.90885996
_cell_angle_beta   90.07990343
_cell_angle_gamma   89.98548564
_symmetry_Int_Tables_number   1
_chemical_formula_structural   Nd17Ho3(BiPb3)4
_chemical_formula_sum   'Nd17 Ho3 Bi4 Pb12'
_cell_volume   1163.86547498
_cell_formula_units_Z   1
loop_
 _symmetry_equiv_pos_site_id
 _symmetry_equiv_pos_as_xyz
  1  'x, y, z'
loop_
 _atom_site_type_symbol
 _atom_site_label
 _atom_site_symmetry_multiplicity
 _atom_site_fract_x
 _atom_site_fract_y
 _atom_site_fract_z
 _atom_site_occupancy
  Nd  Nd0  1  0.386528  0.842970  0.881622  1
  Nd  Nd1  1  0.885783  0.658388  0.618812  1
  Nd  Nd2  1  0.613847  0.157436  0.380618  1
  Nd  Nd3  1  0.113768  0.342587  0.119948  1
  Nd  Nd4  1  0.618067  0.158861  0.118965  1
  Nd  Nd5  1  0.118398  0.340978  0.380357  1
  Nd  Nd6  1  0.382403  0.841839  0.618278  1
  Nd  Nd7  1  0.882009  0.659955  0.881595  1
  Nd  Nd8  1  0.553538  0.328928  0.894318  1
  Nd  Nd9  1  0.052143  0.169801  0.605568  1
  Nd  Nd10  1  0.447021  0.670111  0.393319  1
  Nd  Nd11  1  0.946378  0.828782  0.105939  1
  Nd  Nd12  1  0.458003  0.672342  0.104683  1
  Nd  Nd13  1  0.957869  0.826880  0.395718  1
  Nd  Nd14  1  0.542480  0.326813  0.603534  1
  Nd  Nd15  1  0.041131  0.172636  0.896161  1
  Nd  Nd16  1  0.216647  0.498847  0.747842  1
  Ho  Ho17  1  0.717597  0.998895  0.752453  1
  Ho  Ho18  1  0.781762  0.499551  0.247408  1
  Ho  Ho19  1  0.281866  0.000693  0.252310  1
  Bi  Bi20  1  0.270928  0.021704  0.049374  1
  Bi  Bi21  1  0.771905  0.478571  0.450787  1
  Bi  Bi22  1  0.728862  0.978622  0.548594  1
  Bi  Bi23  1  0.229649  0.522422  0.953885  1
  Pb  Pb24  1  0.726260  0.975385  0.953579  1
  Pb  Pb25  1  0.226753  0.526846  0.544862  1
  Pb  Pb26  1  0.274065  0.025208  0.452864  1
  Pb  Pb27  1  0.774360  0.475023  0.046924  1
  Pb  Pb28  1  0.582142  0.631550  0.749317  1
  Pb  Pb29  1  0.078094  0.872808  0.750945  1
  Pb  Pb30  1  0.421098  0.369736  0.248910  1
  Pb  Pb31  1  0.920804  0.129198  0.250828  1
  Pb  Pb32  1  0.357225  0.145025  0.750967  1
  Pb  Pb33  1  0.851176  0.349785  0.748503  1
  Pb  Pb34  1  0.644834  0.851052  0.251289  1
  Pb  Pb35  1  0.144609  0.649771  0.248923  1
