# generated using pymatgen
data_Rb2NaBi(AsSe2)6
_symmetry_space_group_name_H-M   'P 1'
_cell_length_a   9.99509100
_cell_length_b   9.99509013
_cell_length_c   7.85734700
_cell_angle_alpha   90.00000000
_cell_angle_beta   90.00000000
_cell_angle_gamma   119.99999385
_symmetry_Int_Tables_number   1
_chemical_formula_structural   Rb2NaBi(AsSe2)6
_chemical_formula_sum   'Rb2 Na1 Bi1 As6 Se12'
_cell_volume   679.79827588
_cell_formula_units_Z   1
loop_
 _symmetry_equiv_pos_site_id
 _symmetry_equiv_pos_as_xyz
  1  'x, y, z'
loop_
 _atom_site_type_symbol
 _atom_site_label
 _atom_site_symmetry_multiplicity
 _atom_site_fract_x
 _atom_site_fract_y
 _atom_site_fract_z
 _atom_site_occupancy
  Rb  Rb0  1  0.333333  0.666667  0.839220  1
  Rb  Rb1  1  0.666667  0.333333  0.160780  1
  Na  Na2  1  0.000000  0.000000  0.000000  1
  Bi  Bi3  1  0.000000  0.000000  0.500000  1
  As  As4  1  0.290515  0.841920  0.374761  1
  As  As5  1  0.158080  0.448594  0.374761  1
  As  As6  1  0.551406  0.709485  0.374761  1
  As  As7  1  0.709485  0.158080  0.625239  1
  As  As8  1  0.841920  0.551406  0.625239  1
  As  As9  1  0.448594  0.290515  0.625239  1
  Se  Se10  1  0.257637  0.047637  0.270162  1
  Se  Se11  1  0.952363  0.210001  0.270162  1
  Se  Se12  1  0.789999  0.742363  0.270162  1
  Se  Se13  1  0.742363  0.952363  0.729838  1
  Se  Se14  1  0.047637  0.789999  0.729838  1
  Se  Se15  1  0.210001  0.257637  0.729838  1
  Se  Se16  1  0.526725  0.906603  0.210561  1
  Se  Se17  1  0.093397  0.620122  0.210561  1
  Se  Se18  1  0.379878  0.473275  0.210561  1
  Se  Se19  1  0.473275  0.093397  0.789439  1
  Se  Se20  1  0.906603  0.379878  0.789439  1
  Se  Se21  1  0.620122  0.526725  0.789439  1
