# generated using pymatgen
data_NbSb2RuF20
_symmetry_space_group_name_H-M   'P 1'
_cell_length_a   5.72005407
_cell_length_b   7.64198012
_cell_length_c   10.17494064
_cell_angle_alpha   88.19052100
_cell_angle_beta   105.77007361
_cell_angle_gamma   98.95278115
_symmetry_Int_Tables_number   1
_chemical_formula_structural   NbSb2RuF20
_chemical_formula_sum   'Nb1 Sb2 Ru1 F20'
_cell_volume   422.78968127
_cell_formula_units_Z   1
loop_
 _symmetry_equiv_pos_site_id
 _symmetry_equiv_pos_as_xyz
  1  'x, y, z'
loop_
 _atom_site_type_symbol
 _atom_site_label
 _atom_site_symmetry_multiplicity
 _atom_site_fract_x
 _atom_site_fract_y
 _atom_site_fract_z
 _atom_site_occupancy
  Nb  Nb0  1  0.659428  0.615881  0.779386  1
  Sb  Sb1  1  0.965410  0.768417  0.313894  1
  Sb  Sb2  1  0.034696  0.232647  0.685662  1
  Ru  Ru3  1  0.347352  0.403716  0.227970  1
  F  F4  1  0.041237  0.270164  0.173763  1
  F  F5  1  0.973487  0.744553  0.830289  1
  F  F6  1  0.497663  0.244472  0.162335  1
  F  F7  1  0.501096  0.774697  0.842958  1
  F  F8  1  0.110775  0.223767  0.878262  1
  F  F9  1  0.886474  0.759651  0.121179  1
  F  F10  1  0.962899  0.288172  0.498184  1
  F  F11  1  0.035495  0.713303  0.500956  1
  F  F12  1  0.761269  0.051315  0.662960  1
  F  F13  1  0.240375  0.945163  0.332373  1
  F  F14  1  0.264914  0.085785  0.674671  1
  F  F15  1  0.735707  0.917405  0.319256  1
  F  F16  1  0.303862  0.444998  0.712465  1
  F  F17  1  0.690684  0.556557  0.293894  1
  F  F18  1  0.822634  0.415215  0.698913  1
  F  F19  1  0.190681  0.586563  0.307776  1
  F  F20  1  0.689022  0.449984  0.921243  1
  F  F21  1  0.297727  0.536256  0.067460  1
  F  F22  1  0.570858  0.662709  0.591530  1
  F  F23  1  0.416257  0.308610  0.402622  1
