# generated using pymatgen
data_Pr11In9AgPd3
_symmetry_space_group_name_H-M   'P 1'
_cell_length_a   13.61009800
_cell_length_b   13.62709697
_cell_length_c   3.83255400
_cell_angle_alpha   90.00000000
_cell_angle_beta   90.00000000
_cell_angle_gamma   111.66597007
_symmetry_Int_Tables_number   1
_chemical_formula_structural   Pr11In9AgPd3
_chemical_formula_sum   'Pr11 In9 Ag1 Pd3'
_cell_volume   660.59171929
_cell_formula_units_Z   1
loop_
 _symmetry_equiv_pos_site_id
 _symmetry_equiv_pos_as_xyz
  1  'x, y, z'
loop_
 _atom_site_type_symbol
 _atom_site_label
 _atom_site_symmetry_multiplicity
 _atom_site_fract_x
 _atom_site_fract_y
 _atom_site_fract_z
 _atom_site_occupancy
  Pr  Pr0  1  0.500408  0.500123  0.500000  1
  Pr  Pr1  1  0.811293  0.799826  0.500000  1
  Pr  Pr2  1  0.192207  0.192598  0.500000  1
  Pr  Pr3  1  0.561719  0.915532  0.500000  1
  Pr  Pr4  1  0.428335  0.081812  0.500000  1
  Pr  Pr5  1  0.918562  0.567157  0.500000  1
  Pr  Pr6  1  0.083725  0.432568  0.500000  1
  Pr  Pr7  1  0.128830  0.872780  0.500000  1
  Pr  Pr8  1  0.877415  0.139405  0.500000  1
  Pr  Pr9  1  0.340767  0.658252  0.500000  1
  Pr  Pr10  1  0.656365  0.338951  0.500000  1
  In  In11  1  0.335391  0.864320  0.000000  1
  In  In12  1  0.660160  0.132249  0.000000  1
  In  In13  1  0.864665  0.340976  0.000000  1
  In  In14  1  0.134076  0.662993  0.000000  1
  In  In15  1  0.577136  0.719894  0.000000  1
  In  In16  1  0.422037  0.280581  0.000000  1
  In  In17  1  0.720199  0.574077  0.000000  1
  In  In18  1  0.280833  0.422347  0.000000  1
  In  In19  1  0.999596  0.000733  0.000000  1
  Ag  Ag20  1  0.751938  0.951363  0.000000  1
  Pd  Pd21  1  0.251093  0.051143  0.000000  1
  Pd  Pd22  1  0.951432  0.745708  0.000000  1
  Pd  Pd23  1  0.051819  0.254611  0.000000  1
