# generated using pymatgen
data_CaHo6NiCl12
_symmetry_space_group_name_H-M   'P 1'
_cell_length_a   8.78767424
_cell_length_b   8.78767341
_cell_length_c   8.78767310
_cell_angle_alpha   106.48276049
_cell_angle_beta   106.48275987
_cell_angle_gamma   106.48275420
_symmetry_Int_Tables_number   1
_chemical_formula_structural   CaHo6NiCl12
_chemical_formula_sum   'Ca1 Ho6 Ni1 Cl12'
_cell_volume   572.94206652
_cell_formula_units_Z   1
loop_
 _symmetry_equiv_pos_site_id
 _symmetry_equiv_pos_as_xyz
  1  'x, y, z'
loop_
 _atom_site_type_symbol
 _atom_site_label
 _atom_site_symmetry_multiplicity
 _atom_site_fract_x
 _atom_site_fract_y
 _atom_site_fract_z
 _atom_site_occupancy
  Ca  Ca0  1  0.500000  0.500000  0.500000  1
  Ho  Ho1  1  0.104402  0.021897  0.313754  1
  Ho  Ho2  1  0.021897  0.313754  0.104402  1
  Ho  Ho3  1  0.313754  0.104402  0.021897  1
  Ho  Ho4  1  0.895597  0.978103  0.686246  1
  Ho  Ho5  1  0.978103  0.686246  0.895597  1
  Ho  Ho6  1  0.686246  0.895597  0.978103  1
  Ni  Ni7  1  0.000000  0.000000  0.000000  1
  Cl  Cl8  1  0.072812  0.677714  0.216694  1
  Cl  Cl9  1  0.677714  0.216694  0.072812  1
  Cl  Cl10  1  0.216694  0.072812  0.677714  1
  Cl  Cl11  1  0.927188  0.322286  0.783306  1
  Cl  Cl12  1  0.322286  0.783306  0.927188  1
  Cl  Cl13  1  0.783306  0.927188  0.322286  1
  Cl  Cl14  1  0.449397  0.157130  0.371611  1
  Cl  Cl15  1  0.157130  0.371611  0.449397  1
  Cl  Cl16  1  0.371611  0.449397  0.157130  1
  Cl  Cl17  1  0.550603  0.842870  0.628389  1
  Cl  Cl18  1  0.842870  0.628389  0.550603  1
  Cl  Cl19  1  0.628389  0.550603  0.842870  1
