# generated using pymatgen
data_La15ThCd3HgIr4
_symmetry_space_group_name_H-M   'P 1'
_cell_length_a   10.12914095
_cell_length_b   10.12914125
_cell_length_c   10.12914009
_cell_angle_alpha   60.03664842
_cell_angle_beta   60.03665268
_cell_angle_gamma   60.03664960
_symmetry_Int_Tables_number   1
_chemical_formula_structural   La15ThCd3HgIr4
_chemical_formula_sum   'La15 Th1 Cd3 Hg1 Ir4'
_cell_volume   735.46746643
_cell_formula_units_Z   1
loop_
 _symmetry_equiv_pos_site_id
 _symmetry_equiv_pos_as_xyz
  1  'x, y, z'
loop_
 _atom_site_type_symbol
 _atom_site_label
 _atom_site_symmetry_multiplicity
 _atom_site_fract_x
 _atom_site_fract_y
 _atom_site_fract_z
 _atom_site_occupancy
  La  La0  1  0.597844  0.597844  0.206801  1
  La  La1  1  0.597844  0.206801  0.597844  1
  La  La2  1  0.206801  0.597844  0.597844  1
  La  La3  1  0.060105  0.439561  0.439561  1
  La  La4  1  0.440840  0.057566  0.057566  1
  La  La5  1  0.439561  0.060105  0.439561  1
  La  La6  1  0.057566  0.440840  0.057566  1
  La  La7  1  0.439561  0.439561  0.060105  1
  La  La8  1  0.057566  0.057566  0.440840  1
  La  La9  1  0.193375  0.809997  0.809997  1
  La  La10  1  0.807190  0.190328  0.190328  1
  La  La11  1  0.809997  0.193375  0.809997  1
  La  La12  1  0.190328  0.807190  0.190328  1
  La  La13  1  0.809997  0.809997  0.193375  1
  La  La14  1  0.190328  0.190328  0.807190  1
  Th  Th15  1  0.594713  0.594713  0.594713  1
  Cd  Cd16  1  0.828045  0.828045  0.511287  1
  Cd  Cd17  1  0.828045  0.511287  0.828045  1
  Cd  Cd18  1  0.511287  0.828045  0.828045  1
  Hg  Hg19  1  0.831860  0.831860  0.831860  1
  Ir  Ir20  1  0.391393  0.391393  0.391393  1
  Ir  Ir21  1  0.396770  0.396770  0.822217  1
  Ir  Ir22  1  0.396770  0.822217  0.396770  1
  Ir  Ir23  1  0.822217  0.396770  0.396770  1
