# generated using pymatgen
data_Dy4Tm6BiPb5
_symmetry_space_group_name_H-M   'P 1'
_cell_length_a   6.50542000
_cell_length_b   9.02497791
_cell_length_c   9.03065266
_cell_angle_alpha   119.97922276
_cell_angle_beta   89.99982072
_cell_angle_gamma   90.00034189
_symmetry_Int_Tables_number   1
_chemical_formula_structural   Dy4Tm6BiPb5
_chemical_formula_sum   'Dy4 Tm6 Bi1 Pb5'
_cell_volume   459.26372773
_cell_formula_units_Z   1
loop_
 _symmetry_equiv_pos_site_id
 _symmetry_equiv_pos_as_xyz
  1  'x, y, z'
loop_
 _atom_site_type_symbol
 _atom_site_label
 _atom_site_symmetry_multiplicity
 _atom_site_fract_x
 _atom_site_fract_y
 _atom_site_fract_z
 _atom_site_occupancy
  Dy  Dy0  1  0.750004  0.235512  0.000000  1
  Dy  Dy1  1  0.750001  0.763982  0.760256  1
  Dy  Dy2  1  0.750001  0.003727  0.239744  1
  Dy  Dy3  1  0.250002  0.762956  0.000000  1
  Tm  Tm4  1  0.499086  0.331381  0.664318  1
  Tm  Tm5  1  0.499086  0.667063  0.335682  1
  Tm  Tm6  1  0.000911  0.667077  0.335689  1
  Tm  Tm7  1  0.000911  0.331388  0.664311  1
  Tm  Tm8  1  0.250001  0.237160  0.237628  1
  Tm  Tm9  1  0.250001  0.999533  0.762372  1
  Bi  Bi10  1  0.749994  0.606208  0.000000  1
  Pb  Pb11  1  0.749998  0.395937  0.395350  1
  Pb  Pb12  1  0.749998  0.000587  0.604650  1
  Pb  Pb13  1  0.249987  0.393462  0.000000  1
  Pb  Pb14  1  0.250009  0.605075  0.606122  1
  Pb  Pb15  1  0.250009  0.998953  0.393878  1
