# generated using pymatgen
data_Tm3LuAl18Ir5Pt
_symmetry_space_group_name_H-M   'P 1'
_cell_length_a   7.54363624
_cell_length_b   7.54580261
_cell_length_c   9.41525201
_cell_angle_alpha   89.96513468
_cell_angle_beta   89.96632536
_cell_angle_gamma   119.61083573
_symmetry_Int_Tables_number   1
_chemical_formula_structural   Tm3LuAl18Ir5Pt
_chemical_formula_sum   'Tm3 Lu1 Al18 Ir5 Pt1'
_cell_volume   465.94880815
_cell_formula_units_Z   1
loop_
 _symmetry_equiv_pos_site_id
 _symmetry_equiv_pos_as_xyz
  1  'x, y, z'
loop_
 _atom_site_type_symbol
 _atom_site_label
 _atom_site_symmetry_multiplicity
 _atom_site_fract_x
 _atom_site_fract_y
 _atom_site_fract_z
 _atom_site_occupancy
  Tm  Tm0  1  0.995249  0.671157  0.250890  1
  Tm  Tm1  1  0.004845  0.328939  0.749189  1
  Tm  Tm2  1  0.670978  0.995327  0.250778  1
  Lu  Lu3  1  0.328467  0.004337  0.749003  1
  Al  Al4  1  0.127830  0.127000  0.250299  1
  Al  Al5  1  0.873052  0.872083  0.749693  1
  Al  Al6  1  0.003545  0.335234  0.076925  1
  Al  Al7  1  0.002714  0.668573  0.923190  1
  Al  Al8  1  0.000374  0.665153  0.575213  1
  Al  Al9  1  0.335264  0.999874  0.425223  1
  Al  Al10  1  0.000389  0.334646  0.424207  1
  Al  Al11  1  0.664931  0.999602  0.575736  1
  Al  Al12  1  0.664361  0.996473  0.923151  1
  Al  Al13  1  0.331885  0.997599  0.076428  1
  Al  Al14  1  0.332852  0.332386  0.553838  1
  Al  Al15  1  0.667364  0.667158  0.446324  1
  Al  Al16  1  0.666621  0.669751  0.056770  1
  Al  Al17  1  0.330245  0.333160  0.943066  1
  Al  Al18  1  0.340088  0.549490  0.250371  1
  Al  Al19  1  0.659950  0.452631  0.747585  1
  Al  Al20  1  0.547192  0.339675  0.252430  1
  Al  Al21  1  0.450811  0.660334  0.749645  1
  Ir  Ir22  1  0.327774  0.671999  0.999825  1
  Ir  Ir23  1  0.327950  0.671777  0.500198  1
  Ir  Ir24  1  0.672373  0.327675  0.500225  1
  Ir  Ir25  1  0.999994  0.000333  0.999763  1
  Ir  Ir26  1  0.000450  0.999873  0.500225  1
  Pt  Pt27  1  0.672452  0.327763  0.999810  1
