# generated using pymatgen
data_Pr11In9HgRh3
_symmetry_space_group_name_H-M   'P 1'
_cell_length_a   13.64963659
_cell_length_b   13.68072772
_cell_length_c   3.83885100
_cell_angle_alpha   90.00000000
_cell_angle_beta   90.00000000
_cell_angle_gamma   111.59819412
_symmetry_Int_Tables_number   1
_chemical_formula_structural   Pr11In9HgRh3
_chemical_formula_sum   'Pr11 In9 Hg1 Rh3'
_cell_volume   666.52358608
_cell_formula_units_Z   1
loop_
 _symmetry_equiv_pos_site_id
 _symmetry_equiv_pos_as_xyz
  1  'x, y, z'
loop_
 _atom_site_type_symbol
 _atom_site_label
 _atom_site_symmetry_multiplicity
 _atom_site_fract_x
 _atom_site_fract_y
 _atom_site_fract_z
 _atom_site_occupancy
  Pr  Pr0  1  0.500493  0.500681  0.500000  1
  Pr  Pr1  1  0.818988  0.797128  0.500000  1
  Pr  Pr2  1  0.191302  0.188876  0.500000  1
  Pr  Pr3  1  0.556662  0.911560  0.500000  1
  Pr  Pr4  1  0.418463  0.079216  0.500000  1
  Pr  Pr5  1  0.919214  0.573021  0.500000  1
  Pr  Pr6  1  0.085387  0.426628  0.500000  1
  Pr  Pr7  1  0.126170  0.874977  0.500000  1
  Pr  Pr8  1  0.888066  0.146157  0.500000  1
  Pr  Pr9  1  0.341912  0.658143  0.500000  1
  Pr  Pr10  1  0.657690  0.341971  0.500000  1
  In  In11  1  0.330564  0.864080  0.000000  1
  In  In12  1  0.654682  0.132044  0.000000  1
  In  In13  1  0.864529  0.339567  0.000000  1
  In  In14  1  0.134272  0.664590  0.000000  1
  In  In15  1  0.573193  0.716980  0.000000  1
  In  In16  1  0.422661  0.280652  0.000000  1
  In  In17  1  0.719892  0.574638  0.000000  1
  In  In18  1  0.281435  0.420138  0.000000  1
  In  In19  1  0.003914  0.003341  0.000000  1
  Hg  Hg20  1  0.752474  0.952984  0.000000  1
  Rh  Rh21  1  0.255799  0.054629  0.000000  1
  Rh  Rh22  1  0.948681  0.737616  0.000000  1
  Rh  Rh23  1  0.053555  0.260382  0.000000  1
