# generated using pymatgen
data_Nd2Pa(SnIr)3
_symmetry_space_group_name_H-M   'P 1'
_cell_length_a   7.64752800
_cell_length_b   7.54255995
_cell_length_c   4.04414900
_cell_angle_alpha   90.00000000
_cell_angle_beta   90.00000000
_cell_angle_gamma   120.46143191
_symmetry_Int_Tables_number   1
_chemical_formula_structural   Nd2Pa(SnIr)3
_chemical_formula_sum   'Nd2 Pa1 Sn3 Ir3'
_cell_volume   201.07563678
_cell_formula_units_Z   1
loop_
 _symmetry_equiv_pos_site_id
 _symmetry_equiv_pos_as_xyz
  1  'x, y, z'
loop_
 _atom_site_type_symbol
 _atom_site_label
 _atom_site_symmetry_multiplicity
 _atom_site_fract_x
 _atom_site_fract_y
 _atom_site_fract_z
 _atom_site_occupancy
  Nd  Nd0  1  0.999746  0.591595  0.000000  1
  Nd  Nd1  1  0.408151  0.408405  0.000000  1
  Pa  Pa2  1  0.586421  0.000000  0.000000  1
  Sn  Sn3  1  0.242138  0.000000  0.500000  1
  Sn  Sn4  1  0.008473  0.261987  0.500000  1
  Sn  Sn5  1  0.746486  0.738013  0.500000  1
  Ir  Ir6  1  0.364920  0.702899  0.500000  1
  Ir  Ir7  1  0.662022  0.297101  0.500000  1
  Ir  Ir8  1  0.981643  0.000000  0.000000  1
