# generated using pymatgen
data_Er3TiSn2Ir3
_symmetry_space_group_name_H-M   'P 1'
_cell_length_a   7.22819006
_cell_length_b   7.22818910
_cell_length_c   4.17175000
_cell_angle_alpha   90.00000000
_cell_angle_beta   90.00000000
_cell_angle_gamma   121.06822554
_symmetry_Int_Tables_number   1
_chemical_formula_structural   Er3TiSn2Ir3
_chemical_formula_sum   'Er3 Ti1 Sn2 Ir3'
_cell_volume   186.69461470
_cell_formula_units_Z   1
loop_
 _symmetry_equiv_pos_site_id
 _symmetry_equiv_pos_as_xyz
  1  'x, y, z'
loop_
 _atom_site_type_symbol
 _atom_site_label
 _atom_site_symmetry_multiplicity
 _atom_site_fract_x
 _atom_site_fract_y
 _atom_site_fract_z
 _atom_site_occupancy
  Er  Er0  1  0.405281  0.405281  0.500000  1
  Er  Er1  1  0.586383  0.996063  0.500000  1
  Er  Er2  1  0.996063  0.586383  0.500000  1
  Ti  Ti3  1  0.755873  0.755873  0.000000  1
  Sn  Sn4  1  0.251565  0.996312  0.000000  1
  Sn  Sn5  1  0.996312  0.251565  0.000000  1
  Ir  Ir6  1  0.673765  0.363155  0.000000  1
  Ir  Ir7  1  0.363155  0.673765  0.000000  1
  Ir  Ir8  1  0.971603  0.971603  0.500000  1
