# generated using pymatgen
data_UCo21B6W
_symmetry_space_group_name_H-M   'P 1'
_cell_length_a   7.41522044
_cell_length_b   7.41524159
_cell_length_c   7.41412205
_cell_angle_alpha   60.01029738
_cell_angle_beta   60.01971804
_cell_angle_gamma   60.00700509
_symmetry_Int_Tables_number   1
_chemical_formula_structural   UCo21B6W
_chemical_formula_sum   'U1 Co21 B6 W1'
_cell_volume   288.34709124
_cell_formula_units_Z   1
loop_
 _symmetry_equiv_pos_site_id
 _symmetry_equiv_pos_as_xyz
  1  'x, y, z'
loop_
 _atom_site_type_symbol
 _atom_site_label
 _atom_site_symmetry_multiplicity
 _atom_site_fract_x
 _atom_site_fract_y
 _atom_site_fract_z
 _atom_site_occupancy
  U  U0  1  0.250006  0.249881  0.250032  1
  Co  Co1  1  0.000029  0.999993  0.000006  1
  Co  Co2  1  0.848782  0.383670  0.383896  1
  Co  Co3  1  0.383683  0.848848  0.383646  1
  Co  Co4  1  0.383935  0.383668  0.848789  1
  Co  Co5  1  0.383731  0.383884  0.383641  1
  Co  Co6  1  0.144144  0.618698  0.618467  1
  Co  Co7  1  0.618674  0.144144  0.618678  1
  Co  Co8  1  0.618454  0.618689  0.144133  1
  Co  Co9  1  0.618656  0.618494  0.618701  1
  Co  Co10  1  0.664425  0.997956  0.997710  1
  Co  Co11  1  0.664429  0.997884  0.339829  1
  Co  Co12  1  0.664484  0.339816  0.997744  1
  Co  Co13  1  0.997953  0.664501  0.339811  1
  Co  Co14  1  0.997867  0.664440  0.997864  1
  Co  Co15  1  0.339790  0.664534  0.997949  1
  Co  Co16  1  0.997744  0.339797  0.664462  1
  Co  Co17  1  0.339789  0.997881  0.664440  1
  Co  Co18  1  0.997721  0.997964  0.664440  1
  Co  Co19  1  0.339815  0.997767  0.997995  1
  Co  Co20  1  0.997909  0.339763  0.997941  1
  Co  Co21  1  0.997976  0.997776  0.339824  1
  B  B22  1  0.725659  0.274246  0.274402  1
  B  B23  1  0.725611  0.274217  0.725633  1
  B  B24  1  0.725741  0.725787  0.274153  1
  B  B25  1  0.274182  0.725751  0.725726  1
  B  B26  1  0.274382  0.725630  0.274373  1
  B  B27  1  0.274379  0.274219  0.725696  1
  W  W28  1  0.750052  0.750103  0.750017  1
