# generated using pymatgen
data_Yb3Th(Sc3Pt4)2
_symmetry_space_group_name_H-M   'P 1'
_cell_length_a   7.29512200
_cell_length_b   7.38884028
_cell_length_c   14.06495604
_cell_angle_alpha   89.86304748
_cell_angle_beta   90.00000000
_cell_angle_gamma   90.00000000
_symmetry_Int_Tables_number   1
_chemical_formula_structural   Yb3Th(Sc3Pt4)2
_chemical_formula_sum   'Yb6 Th2 Sc12 Pt16'
_cell_volume   758.13400449
_cell_formula_units_Z   2
loop_
 _symmetry_equiv_pos_site_id
 _symmetry_equiv_pos_as_xyz
  1  'x, y, z'
loop_
 _atom_site_type_symbol
 _atom_site_label
 _atom_site_symmetry_multiplicity
 _atom_site_fract_x
 _atom_site_fract_y
 _atom_site_fract_z
 _atom_site_occupancy
  Yb  Yb0  1  0.512323  0.325735  0.094818  1
  Yb  Yb1  1  0.012323  0.174265  0.405182  1
  Yb  Yb2  1  0.512702  0.321934  0.403824  1
  Yb  Yb3  1  0.012702  0.178066  0.096176  1
  Yb  Yb4  1  0.488935  0.673529  0.904884  1
  Yb  Yb5  1  0.988935  0.826471  0.595116  1
  Th  Th6  1  0.487752  0.676755  0.592524  1
  Th  Th7  1  0.987752  0.823245  0.907476  1
  Sc  Sc8  1  0.647689  0.167944  0.623755  1
  Sc  Sc9  1  0.147689  0.332056  0.876245  1
  Sc  Sc10  1  0.355763  0.833881  0.124141  1
  Sc  Sc11  1  0.855763  0.666119  0.375859  1
  Sc  Sc12  1  0.347593  0.837850  0.370548  1
  Sc  Sc13  1  0.847593  0.662150  0.129452  1
  Sc  Sc14  1  0.643231  0.172028  0.875645  1
  Sc  Sc15  1  0.143231  0.327972  0.624355  1
  Sc  Sc16  1  0.813756  0.500309  0.750415  1
  Sc  Sc17  1  0.313756  0.999691  0.749585  1
  Sc  Sc18  1  0.188226  0.495735  0.250627  1
  Sc  Sc19  1  0.688226  0.004265  0.249373  1
  Pt  Pt20  1  0.673746  0.949788  0.454229  1
  Pt  Pt21  1  0.173746  0.550212  0.045771  1
  Pt  Pt22  1  0.318289  0.038766  0.954302  1
  Pt  Pt23  1  0.818289  0.461234  0.545698  1
  Pt  Pt24  1  0.324230  0.041315  0.545208  1
  Pt  Pt25  1  0.824230  0.458685  0.954792  1
  Pt  Pt26  1  0.686393  0.954045  0.040748  1
  Pt  Pt27  1  0.186393  0.545955  0.459252  1
  Pt  Pt28  1  0.446640  0.373429  0.747330  1
  Pt  Pt29  1  0.946640  0.126571  0.752670  1
  Pt  Pt30  1  0.548776  0.625971  0.251209  1
  Pt  Pt31  1  0.048776  0.874029  0.248791  1
  Pt  Pt32  1  0.677387  0.859777  0.748129  1
  Pt  Pt33  1  0.177387  0.640223  0.751871  1
  Pt  Pt34  1  0.326570  0.135342  0.247806  1
  Pt  Pt35  1  0.826570  0.364658  0.252194  1
