# generated using pymatgen
data_Ho4Co7P12Rh13
_symmetry_space_group_name_H-M   'P 1'
_cell_length_a   3.79502900
_cell_length_b   10.66592783
_cell_length_c   12.25148521
_cell_angle_alpha   89.96061858
_cell_angle_beta   90.00000000
_cell_angle_gamma   90.00000000
_symmetry_Int_Tables_number   1
_chemical_formula_structural   Ho4Co7P12Rh13
_chemical_formula_sum   'Ho4 Co7 P12 Rh13'
_cell_volume   495.90944217
_cell_formula_units_Z   1
loop_
 _symmetry_equiv_pos_site_id
 _symmetry_equiv_pos_as_xyz
  1  'x, y, z'
loop_
 _atom_site_type_symbol
 _atom_site_label
 _atom_site_symmetry_multiplicity
 _atom_site_fract_x
 _atom_site_fract_y
 _atom_site_fract_z
 _atom_site_occupancy
  Ho  Ho0  1  0.250000  0.580732  0.709574  1
  Ho  Ho1  1  0.250000  0.917104  0.209229  1
  Ho  Ho2  1  0.750000  0.417249  0.290496  1
  Ho  Ho3  1  0.750000  0.085745  0.792201  1
  Co  Co4  1  0.250000  0.615219  0.197098  1
  Co  Co5  1  0.750000  0.117106  0.303058  1
  Co  Co6  1  0.750000  0.382994  0.804043  1
  Co  Co7  1  0.250000  0.462626  0.933539  1
  Co  Co8  1  0.250000  0.036924  0.430225  1
  Co  Co9  1  0.750000  0.536235  0.067878  1
  Co  Co10  1  0.750000  0.963806  0.563701  1
  P  P11  1  0.250000  0.430908  0.111142  1
  P  P12  1  0.250000  0.077213  0.605076  1
  P  P13  1  0.750000  0.566711  0.889942  1
  P  P14  1  0.750000  0.930759  0.387301  1
  P  P15  1  0.250000  0.274041  0.871450  1
  P  P16  1  0.250000  0.226652  0.369964  1
  P  P17  1  0.750000  0.725300  0.129267  1
  P  P18  1  0.750000  0.770583  0.626172  1
  P  P19  1  0.250000  0.598840  0.380037  1
  P  P20  1  0.250000  0.899572  0.889134  1
  P  P21  1  0.750000  0.400327  0.619138  1
  P  P22  1  0.750000  0.100909  0.119757  1
  Rh  Rh23  1  0.250000  0.715336  0.993517  1
  Rh  Rh24  1  0.250000  0.783084  0.486002  1
  Rh  Rh25  1  0.750000  0.284285  0.009914  1
  Rh  Rh26  1  0.750000  0.216235  0.510123  1
  Rh  Rh27  1  0.250000  0.408327  0.477407  1
  Rh  Rh28  1  0.250000  0.092277  0.980196  1
  Rh  Rh29  1  0.750000  0.590087  0.520460  1
  Rh  Rh30  1  0.750000  0.909084  0.022236  1
  Rh  Rh31  1  0.250000  0.226710  0.180046  1
  Rh  Rh32  1  0.250000  0.276478  0.680534  1
  Rh  Rh33  1  0.750000  0.768734  0.823053  1
  Rh  Rh34  1  0.750000  0.725815  0.318649  1
  Rh  Rh35  1  0.250000  0.885997  0.698438  1
