# generated using pymatgen
data_Ce3Al3CuIr2
_symmetry_space_group_name_H-M   'P 1'
_cell_length_a   7.03222100
_cell_length_b   7.03107703
_cell_length_c   4.18982200
_cell_angle_alpha   90.00000000
_cell_angle_beta   90.00000000
_cell_angle_gamma   120.00240920
_symmetry_Int_Tables_number   1
_chemical_formula_structural   Ce3Al3CuIr2
_chemical_formula_sum   'Ce3 Al3 Cu1 Ir2'
_cell_volume   179.40313483
_cell_formula_units_Z   1
loop_
 _symmetry_equiv_pos_site_id
 _symmetry_equiv_pos_as_xyz
  1  'x, y, z'
loop_
 _atom_site_type_symbol
 _atom_site_label
 _atom_site_symmetry_multiplicity
 _atom_site_fract_x
 _atom_site_fract_y
 _atom_site_fract_z
 _atom_site_occupancy
  Ce  Ce0  1  0.422872  0.419273  0.500000  1
  Ce  Ce1  1  0.580696  0.003539  0.500000  1
  Ce  Ce2  1  0.996394  0.577116  0.500000  1
  Al  Al3  1  0.770763  0.765987  0.000000  1
  Al  Al4  1  0.234036  0.004722  0.000000  1
  Al  Al5  1  0.995229  0.229296  0.000000  1
  Cu  Cu6  1  0.333333  0.666663  0.000000  1
  Ir  Ir7  1  0.666731  0.333300  0.000000  1
  Ir  Ir8  1  0.999945  0.000104  0.500000  1
