# generated using pymatgen
data_LuZr3(Al8Pt3)3
_symmetry_space_group_name_H-M   'P 1'
_cell_length_a   7.49089969
_cell_length_b   7.49893284
_cell_length_c   12.99181391
_cell_angle_alpha   84.54145246
_cell_angle_beta   78.89517663
_cell_angle_gamma   59.96560807
_symmetry_Int_Tables_number   1
_chemical_formula_structural   LuZr3(Al8Pt3)3
_chemical_formula_sum   'Lu1 Zr3 Al24 Pt9'
_cell_volume   619.97495280
_cell_formula_units_Z   1
loop_
 _symmetry_equiv_pos_site_id
 _symmetry_equiv_pos_as_xyz
  1  'x, y, z'
loop_
 _atom_site_type_symbol
 _atom_site_label
 _atom_site_symmetry_multiplicity
 _atom_site_fract_x
 _atom_site_fract_y
 _atom_site_fract_z
 _atom_site_occupancy
  Lu  Lu0  1  0.266148  0.501330  0.192569  1
  Zr  Zr1  1  0.392497  0.168465  0.811181  1
  Zr  Zr2  1  0.607003  0.831947  0.188082  1
  Zr  Zr3  1  0.733053  0.498371  0.810939  1
  Al  Al4  1  0.682185  0.833690  0.940745  1
  Al  Al5  1  0.317733  0.164823  0.057116  1
  Al  Al6  1  0.145960  0.832658  0.563427  1
  Al  Al7  1  0.854433  0.167148  0.436278  1
  Al  Al8  1  0.479956  0.166804  0.561109  1
  Al  Al9  1  0.520221  0.833136  0.438325  1
  Al  Al10  1  0.221121  0.163437  0.325903  1
  Al  Al11  1  0.778356  0.834582  0.677038  1
  Al  Al12  1  0.437204  0.504601  0.676945  1
  Al  Al13  1  0.563477  0.495590  0.325927  1
  Al  Al14  1  0.108035  0.162050  0.674972  1
  Al  Al15  1  0.889571  0.839349  0.327315  1
  Al  Al16  1  0.356817  0.496988  0.939810  1
  Al  Al17  1  0.646040  0.503234  0.056836  1
  Al  Al18  1  0.017194  0.170183  0.948081  1
  Al  Al19  1  0.982015  0.832011  0.049140  1
  Al  Al20  1  0.186970  0.499629  0.440050  1
  Al  Al21  1  0.812983  0.499991  0.560989  1
  Al  Al22  1  0.732792  0.159760  0.183298  1
  Al  Al23  1  0.272628  0.835913  0.815992  1
  Al  Al24  1  0.061265  0.625749  0.815087  1
  Al  Al25  1  0.934093  0.373923  0.184614  1
  Al  Al26  1  0.849616  0.047404  0.815789  1
  Al  Al27  1  0.149635  0.957811  0.184219  1
  Pt  Pt28  1  0.120065  0.490085  0.639299  1
  Pt  Pt29  1  0.880723  0.509020  0.360838  1
  Pt  Pt30  1  0.655863  0.173140  0.999296  1
  Pt  Pt31  1  0.342948  0.827604  0.999968  1
  Pt  Pt32  1  0.536555  0.167036  0.361051  1
  Pt  Pt33  1  0.463937  0.833329  0.638432  1
  Pt  Pt34  1  0.777628  0.176433  0.637611  1
  Pt  Pt35  1  0.221926  0.823200  0.362258  1
  Pt  Pt36  1  0.001355  0.499575  0.999467  1
