# generated using pymatgen
data_La16MgIn3Os4
_symmetry_space_group_name_H-M   'P 1'
_cell_length_a   10.11278063
_cell_length_b   10.09836944
_cell_length_c   10.09836900
_cell_angle_alpha   59.99999815
_cell_angle_beta   60.04712718
_cell_angle_gamma   60.04712702
_symmetry_Int_Tables_number   1
_chemical_formula_structural   La16MgIn3Os4
_chemical_formula_sum   'La16 Mg1 In3 Os4'
_cell_volume   729.73817418
_cell_formula_units_Z   1
loop_
 _symmetry_equiv_pos_site_id
 _symmetry_equiv_pos_as_xyz
  1  'x, y, z'
loop_
 _atom_site_type_symbol
 _atom_site_label
 _atom_site_symmetry_multiplicity
 _atom_site_fract_x
 _atom_site_fract_y
 _atom_site_fract_z
 _atom_site_occupancy
  La  La0  1  0.558062  0.942553  0.556832  1
  La  La1  1  0.189160  0.188727  0.811057  1
  La  La2  1  0.558062  0.556832  0.942553  1
  La  La3  1  0.964758  0.345081  0.345081  1
  La  La4  1  0.808764  0.191179  0.808878  1
  La  La5  1  0.189160  0.811057  0.188727  1
  La  La6  1  0.344585  0.344475  0.966465  1
  La  La7  1  0.344585  0.966465  0.344475  1
  La  La8  1  0.941832  0.942619  0.557774  1
  La  La9  1  0.941832  0.557774  0.557774  1
  La  La10  1  0.344585  0.344475  0.344475  1
  La  La11  1  0.808764  0.808878  0.191179  1
  La  La12  1  0.808764  0.191179  0.191179  1
  La  La13  1  0.558062  0.942553  0.942553  1
  La  La14  1  0.941832  0.557774  0.942619  1
  La  La15  1  0.189160  0.811057  0.811057  1
  Mg  Mg16  1  0.271659  0.576114  0.576114  1
  In  In17  1  0.578817  0.579648  0.579648  1
  In  In18  1  0.578817  0.261889  0.579648  1
  In  In19  1  0.578817  0.579648  0.261889  1
  Os  Os20  1  0.137941  0.586854  0.137604  1
  Os  Os21  1  0.586105  0.137966  0.137966  1
  Os  Os22  1  0.137941  0.137604  0.586854  1
  Os  Os23  1  0.137941  0.137604  0.137604  1
