# generated using pymatgen
data_Ho10Si2BiPb5
_symmetry_space_group_name_H-M   'P 1'
_cell_length_a   9.29632481
_cell_length_b   9.29632477
_cell_length_c   6.47044100
_cell_angle_alpha   90.00000000
_cell_angle_beta   90.00000000
_cell_angle_gamma   119.78347984
_symmetry_Int_Tables_number   1
_chemical_formula_structural   Ho10Si2BiPb5
_chemical_formula_sum   'Ho10 Si2 Bi1 Pb5'
_cell_volume   485.32258838
_cell_formula_units_Z   1
loop_
 _symmetry_equiv_pos_site_id
 _symmetry_equiv_pos_as_xyz
  1  'x, y, z'
loop_
 _atom_site_type_symbol
 _atom_site_label
 _atom_site_symmetry_multiplicity
 _atom_site_fract_x
 _atom_site_fract_y
 _atom_site_fract_z
 _atom_site_occupancy
  Ho  Ho0  1  0.667634  0.333486  0.501237  1
  Ho  Ho1  1  0.333486  0.667634  0.501237  1
  Ho  Ho2  1  0.333486  0.667634  0.998763  1
  Ho  Ho3  1  0.667634  0.333486  0.998763  1
  Ho  Ho4  1  0.749873  0.749873  0.250000  1
  Ho  Ho5  1  0.247834  0.998639  0.250000  1
  Ho  Ho6  1  0.998639  0.247834  0.250000  1
  Ho  Ho7  1  0.250509  0.250509  0.750000  1
  Ho  Ho8  1  0.750249  0.998896  0.750000  1
  Ho  Ho9  1  0.998896  0.750249  0.750000  1
  Si  Si10  1  0.000072  0.000072  0.499872  1
  Si  Si11  1  0.000072  0.000072  0.000128  1
  Bi  Bi12  1  0.392471  0.392471  0.250000  1
  Pb  Pb13  1  0.607413  0.000045  0.250000  1
  Pb  Pb14  1  0.000045  0.607413  0.250000  1
  Pb  Pb15  1  0.608496  0.608496  0.750000  1
  Pb  Pb16  1  0.392432  0.000762  0.750000  1
  Pb  Pb17  1  0.000762  0.392432  0.750000  1
