# generated using pymatgen
data_Tb18CdHgIr12
_symmetry_space_group_name_H-M   'P 1'
_cell_length_a   10.90011200
_cell_length_b   10.90011200
_cell_length_c   6.28604200
_cell_angle_alpha   90.00000000
_cell_angle_beta   90.00000000
_cell_angle_gamma   90.00000000
_symmetry_Int_Tables_number   1
_chemical_formula_structural   Tb18CdHgIr12
_chemical_formula_sum   'Tb18 Cd1 Hg1 Ir12'
_cell_volume   746.85999810
_cell_formula_units_Z   1
loop_
 _symmetry_equiv_pos_site_id
 _symmetry_equiv_pos_as_xyz
  1  'x, y, z'
loop_
 _atom_site_type_symbol
 _atom_site_label
 _atom_site_symmetry_multiplicity
 _atom_site_fract_x
 _atom_site_fract_y
 _atom_site_fract_z
 _atom_site_occupancy
  Tb  Tb0  1  0.282658  0.084629  0.379867  1
  Tb  Tb1  1  0.292923  0.913139  0.876044  1
  Tb  Tb2  1  0.707077  0.086861  0.876044  1
  Tb  Tb3  1  0.717342  0.915371  0.379867  1
  Tb  Tb4  1  0.584138  0.780426  0.879412  1
  Tb  Tb5  1  0.587562  0.206430  0.375412  1
  Tb  Tb6  1  0.412438  0.793570  0.375412  1
  Tb  Tb7  1  0.415862  0.219574  0.879412  1
  Tb  Tb8  1  0.206430  0.412438  0.624588  1
  Tb  Tb9  1  0.219574  0.584138  0.120588  1
  Tb  Tb10  1  0.780426  0.415862  0.120588  1
  Tb  Tb11  1  0.793570  0.587562  0.624588  1
  Tb  Tb12  1  0.913139  0.707077  0.123956  1
  Tb  Tb13  1  0.915371  0.282658  0.620133  1
  Tb  Tb14  1  0.084629  0.717342  0.620133  1
  Tb  Tb15  1  0.086861  0.292923  0.123956  1
  Tb  Tb16  1  0.000000  0.000000  0.000000  1
  Tb  Tb17  1  0.500000  0.500000  0.500000  1
  Cd  Cd18  1  0.000000  0.000000  0.500000  1
  Hg  Hg19  1  0.500000  0.500000  0.000000  1
  Ir  Ir20  1  0.845077  0.160866  0.235532  1
  Ir  Ir21  1  0.839134  0.845077  0.764468  1
  Ir  Ir22  1  0.160866  0.154923  0.764468  1
  Ir  Ir23  1  0.154923  0.839134  0.235532  1
  Ir  Ir24  1  0.662308  0.343184  0.732751  1
  Ir  Ir25  1  0.656816  0.662308  0.267249  1
  Ir  Ir26  1  0.343184  0.337692  0.267249  1
  Ir  Ir27  1  0.337692  0.656816  0.732751  1
  Ir  Ir28  1  0.500000  0.000000  0.118195  1
  Ir  Ir29  1  0.500000  0.000000  0.619644  1
  Ir  Ir30  1  0.000000  0.500000  0.881805  1
  Ir  Ir31  1  0.000000  0.500000  0.380356  1
