# generated using pymatgen
data_BaSc2H12IrRh
_symmetry_space_group_name_H-M   'P 1'
_cell_length_a   4.79206600
_cell_length_b   4.79206746
_cell_length_c   8.46003700
_cell_angle_alpha   90.00000000
_cell_angle_beta   90.00000000
_cell_angle_gamma   120.00000373
_symmetry_Int_Tables_number   1
_chemical_formula_structural   BaSc2H12IrRh
_chemical_formula_sum   'Ba1 Sc2 H12 Ir1 Rh1'
_cell_volume   168.24748915
_cell_formula_units_Z   1
loop_
 _symmetry_equiv_pos_site_id
 _symmetry_equiv_pos_as_xyz
  1  'x, y, z'
loop_
 _atom_site_type_symbol
 _atom_site_label
 _atom_site_symmetry_multiplicity
 _atom_site_fract_x
 _atom_site_fract_y
 _atom_site_fract_z
 _atom_site_occupancy
  Ba  Ba0  1  0.000000  0.000000  0.990404  1
  Sc  Sc1  1  0.666667  0.333333  0.376250  1
  Sc  Sc2  1  0.333333  0.666667  0.635367  1
  H  H3  1  0.162686  0.837314  0.394745  1
  H  H4  1  0.674628  0.837314  0.394745  1
  H  H5  1  0.162686  0.325372  0.394745  1
  H  H6  1  0.835228  0.164772  0.603751  1
  H  H7  1  0.329544  0.164772  0.603751  1
  H  H8  1  0.835228  0.670456  0.603751  1
  H  H9  1  0.494295  0.988587  0.831250  1
  H  H10  1  0.494295  0.505705  0.831250  1
  H  H11  1  0.011413  0.505705  0.831250  1
  H  H12  1  0.500507  0.001016  0.169087  1
  H  H13  1  0.500507  0.499493  0.169087  1
  H  H14  1  0.998984  0.499493  0.169087  1
  Ir  Ir15  1  0.333333  0.666667  0.285812  1
  Rh  Rh16  1  0.666667  0.333333  0.715671  1
