# generated using pymatgen
data_Ac2Sb5
_symmetry_space_group_name_H-M   'P 1'
_cell_length_a   4.40537100
_cell_length_b   14.18598744
_cell_length_c   16.36351720
_cell_angle_alpha   77.24977938
_cell_angle_beta   90.00000000
_cell_angle_gamma   90.00000000
_symmetry_Int_Tables_number   1
_chemical_formula_structural   Ac2Sb5
_chemical_formula_sum   'Ac8 Sb20'
_cell_volume   997.41387971
_cell_formula_units_Z   4
loop_
 _symmetry_equiv_pos_site_id
 _symmetry_equiv_pos_as_xyz
  1  'x, y, z'
loop_
 _atom_site_type_symbol
 _atom_site_label
 _atom_site_symmetry_multiplicity
 _atom_site_fract_x
 _atom_site_fract_y
 _atom_site_fract_z
 _atom_site_occupancy
  Ac  Ac0  1  0.250000  0.666079  0.579210  1
  Ac  Ac1  1  0.750000  0.333921  0.420790  1
  Ac  Ac2  1  0.250000  0.392355  0.774496  1
  Ac  Ac3  1  0.750000  0.607645  0.225504  1
  Ac  Ac4  1  0.250000  0.945872  0.375587  1
  Ac  Ac5  1  0.750000  0.054128  0.624413  1
  Ac  Ac6  1  0.250000  0.668666  0.854330  1
  Ac  Ac7  1  0.750000  0.331334  0.145670  1
  Sb  Sb8  1  0.250000  0.423011  0.558512  1
  Sb  Sb9  1  0.750000  0.576989  0.441488  1
  Sb  Sb10  1  0.250000  0.707744  0.053868  1
  Sb  Sb11  1  0.750000  0.292256  0.946132  1
  Sb  Sb12  1  0.250000  0.421018  0.974960  1
  Sb  Sb13  1  0.750000  0.578982  0.025040  1
  Sb  Sb14  1  0.250000  0.862628  0.672836  1
  Sb  Sb15  1  0.750000  0.137372  0.327164  1
  Sb  Sb16  1  0.250000  0.139804  0.195392  1
  Sb  Sb17  1  0.750000  0.860196  0.804608  1
  Sb  Sb18  1  0.250000  0.701322  0.359834  1
  Sb  Sb19  1  0.750000  0.298678  0.640166  1
  Sb  Sb20  1  0.250000  0.144306  0.761641  1
  Sb  Sb21  1  0.750000  0.855694  0.238359  1
  Sb  Sb22  1  0.250000  0.423467  0.263319  1
  Sb  Sb23  1  0.750000  0.576533  0.736681  1
  Sb  Sb24  1  0.250000  0.146040  0.468643  1
  Sb  Sb25  1  0.750000  0.853960  0.531357  1
  Sb  Sb26  1  0.250000  0.961954  0.139998  1
  Sb  Sb27  1  0.750000  0.038046  0.860002  1
