# generated using pymatgen
data_Hf2ZrNb7(ZnSn3)2
_symmetry_space_group_name_H-M   'P 1'
_cell_length_a   8.42923209
_cell_length_b   8.43132593
_cell_length_c   5.70334600
_cell_angle_alpha   90.00000000
_cell_angle_beta   90.00000000
_cell_angle_gamma   120.00821033
_symmetry_Int_Tables_number   1
_chemical_formula_structural   Hf2ZrNb7(ZnSn3)2
_chemical_formula_sum   'Hf2 Zr1 Nb7 Zn2 Sn6'
_cell_volume   351.00096023
_cell_formula_units_Z   1
loop_
 _symmetry_equiv_pos_site_id
 _symmetry_equiv_pos_as_xyz
  1  'x, y, z'
loop_
 _atom_site_type_symbol
 _atom_site_label
 _atom_site_symmetry_multiplicity
 _atom_site_fract_x
 _atom_site_fract_y
 _atom_site_fract_z
 _atom_site_occupancy
  Hf  Hf0  1  0.260741  0.260773  0.250000  1
  Hf  Hf1  1  0.739259  0.000032  0.250000  1
  Zr  Zr2  1  0.000000  0.739230  0.250000  1
  Nb  Nb3  1  0.666444  0.332945  0.998000  1
  Nb  Nb4  1  0.333556  0.666503  0.998000  1
  Nb  Nb5  1  0.333556  0.666503  0.502000  1
  Nb  Nb6  1  0.666444  0.332945  0.502000  1
  Nb  Nb7  1  0.720139  0.720473  0.750000  1
  Nb  Nb8  1  0.279861  0.000333  0.750000  1
  Nb  Nb9  1  0.000000  0.279565  0.750000  1
  Zn  Zn10  1  0.000000  0.000607  0.976678  1
  Zn  Zn11  1  0.000000  0.000607  0.523322  1
  Sn  Sn12  1  0.381775  0.381796  0.750000  1
  Sn  Sn13  1  0.618225  0.000021  0.750000  1
  Sn  Sn14  1  0.000000  0.618081  0.750000  1
  Sn  Sn15  1  0.607448  0.607899  0.250000  1
  Sn  Sn16  1  0.392552  0.000451  0.250000  1
  Sn  Sn17  1  0.000000  0.391235  0.250000  1
