# generated using pymatgen
data_Eu2YHo3Ta2O14
_symmetry_space_group_name_H-M   'P 1'
_cell_length_a   6.47840948
_cell_length_b   6.48569969
_cell_length_c   7.54837790
_cell_angle_alpha   89.82540359
_cell_angle_beta   90.17038123
_cell_angle_gamma   108.80115434
_symmetry_Int_Tables_number   1
_chemical_formula_structural   Eu2YHo3Ta2O14
_chemical_formula_sum   'Eu2 Y1 Ho3 Ta2 O14'
_cell_volume   300.23547668
_cell_formula_units_Z   1
loop_
 _symmetry_equiv_pos_site_id
 _symmetry_equiv_pos_as_xyz
  1  'x, y, z'
loop_
 _atom_site_type_symbol
 _atom_site_label
 _atom_site_symmetry_multiplicity
 _atom_site_fract_x
 _atom_site_fract_y
 _atom_site_fract_z
 _atom_site_occupancy
  Eu  Eu0  1  0.503378  0.503305  0.499616  1
  Eu  Eu1  1  0.498437  0.498135  0.000332  1
  Y  Y2  1  0.000312  0.466527  0.749175  1
  Ho  Ho3  1  0.000250  0.534253  0.248858  1
  Ho  Ho4  1  0.534053  0.000498  0.751136  1
  Ho  Ho5  1  0.465955  0.999802  0.250845  1
  Ta  Ta6  1  0.999954  0.000140  0.499524  1
  Ta  Ta7  1  0.000031  0.000245  0.000418  1
  O  O8  1  0.639171  0.358929  0.750092  1
  O  O9  1  0.359549  0.641165  0.249761  1
  O  O10  1  0.933412  0.064871  0.749799  1
  O  O11  1  0.067988  0.934062  0.250205  1
  O  O12  1  0.929914  0.678496  0.530261  1
  O  O13  1  0.068664  0.320439  0.033514  1
  O  O14  1  0.320414  0.066814  0.966901  1
  O  O15  1  0.679113  0.933101  0.467149  1
  O  O16  1  0.367744  0.635263  0.749784  1
  O  O17  1  0.634058  0.365347  0.250310  1
  O  O18  1  0.932380  0.680533  0.967663  1
  O  O19  1  0.065674  0.318296  0.463989  1
  O  O20  1  0.318211  0.063678  0.535605  1
  O  O21  1  0.681338  0.936102  0.035062  1
