# generated using pymatgen
data_Tb2UAl3Ru2Pt
_symmetry_space_group_name_H-M   'P 1'
_cell_length_a   6.82640657
_cell_length_b   6.82640758
_cell_length_c   4.10472200
_cell_angle_alpha   90.00000000
_cell_angle_beta   90.00000000
_cell_angle_gamma   115.16219369
_symmetry_Int_Tables_number   1
_chemical_formula_structural   Tb2UAl3Ru2Pt
_chemical_formula_sum   'Tb2 U1 Al3 Ru2 Pt1'
_cell_volume   173.12844299
_cell_formula_units_Z   1
loop_
 _symmetry_equiv_pos_site_id
 _symmetry_equiv_pos_as_xyz
  1  'x, y, z'
loop_
 _atom_site_type_symbol
 _atom_site_label
 _atom_site_symmetry_multiplicity
 _atom_site_fract_x
 _atom_site_fract_y
 _atom_site_fract_z
 _atom_site_occupancy
  Tb  Tb0  1  0.421263  0.000085  0.500000  1
  Tb  Tb1  1  0.000085  0.421263  0.500000  1
  U  U2  1  0.572027  0.572027  0.500000  1
  Al  Al3  1  0.755164  0.014443  0.000000  1
  Al  Al4  1  0.014443  0.755164  0.000000  1
  Al  Al5  1  0.220348  0.220348  0.000000  1
  Ru  Ru6  1  0.384214  0.647270  0.000000  1
  Ru  Ru7  1  0.647270  0.384214  0.000000  1
  Pt  Pt8  1  0.985185  0.985185  0.500000  1
