# generated using pymatgen
data_Ti20Si15As
_symmetry_space_group_name_H-M   'P 1'
_cell_length_a   6.71923650
_cell_length_b   6.71511151
_cell_length_c   12.20529108
_cell_angle_alpha   90.01255651
_cell_angle_beta   89.86849582
_cell_angle_gamma   90.02488881
_symmetry_Int_Tables_number   1
_chemical_formula_structural   Ti20Si15As
_chemical_formula_sum   'Ti20 Si15 As1'
_cell_volume   550.70637320
_cell_formula_units_Z   1
loop_
 _symmetry_equiv_pos_site_id
 _symmetry_equiv_pos_as_xyz
  1  'x, y, z'
loop_
 _atom_site_type_symbol
 _atom_site_label
 _atom_site_symmetry_multiplicity
 _atom_site_fract_x
 _atom_site_fract_y
 _atom_site_fract_z
 _atom_site_occupancy
  Ti  Ti0  1  0.345622  0.996164  0.466448  1
  Ti  Ti1  1  0.504305  0.842929  0.719220  1
  Ti  Ti2  1  0.497794  0.154293  0.217874  1
  Ti  Ti3  1  0.844810  0.501333  0.282280  1
  Ti  Ti4  1  0.154141  0.500226  0.782398  1
  Ti  Ti5  1  0.657280  0.999265  0.969356  1
  Ti  Ti6  1  0.992321  0.348694  0.529734  1
  Ti  Ti7  1  0.002238  0.655378  0.032109  1
  Ti  Ti8  1  0.328754  0.329534  0.000100  1
  Ti  Ti9  1  0.170912  0.829440  0.249861  1
  Ti  Ti10  1  0.828005  0.171397  0.749958  1
  Ti  Ti11  1  0.670519  0.670322  0.499723  1
  Ti  Ti12  1  0.150764  0.005490  0.872243  1
  Ti  Ti13  1  0.495843  0.648947  0.122003  1
  Ti  Ti14  1  0.504448  0.350578  0.623373  1
  Ti  Ti15  1  0.650268  0.497525  0.878306  1
  Ti  Ti16  1  0.349986  0.504132  0.377649  1
  Ti  Ti17  1  0.850122  0.996279  0.372242  1
  Ti  Ti18  1  0.004156  0.148662  0.127661  1
  Ti  Ti19  1  0.994396  0.848311  0.626762  1
  Si  Si20  1  0.357614  0.705846  0.923246  1
  Si  Si21  1  0.640641  0.294484  0.423354  1
  Si  Si22  1  0.705681  0.357351  0.077268  1
  Si  Si23  1  0.295740  0.642982  0.575968  1
  Si  Si24  1  0.794877  0.856913  0.173532  1
  Si  Si25  1  0.141966  0.205321  0.326730  1
  Si  Si26  1  0.859386  0.795361  0.826764  1
  Si  Si27  1  0.302392  0.956044  0.063801  1
  Si  Si28  1  0.544386  0.800705  0.313247  1
  Si  Si29  1  0.463200  0.197276  0.818122  1
  Si  Si30  1  0.800832  0.544862  0.686507  1
  Si  Si31  1  0.197638  0.455987  0.186320  1
  Si  Si32  1  0.697585  0.043526  0.563537  1
  Si  Si33  1  0.956098  0.301823  0.936473  1
  Si  Si34  1  0.043785  0.698948  0.435491  1
  As  As35  1  0.201493  0.143676  0.670338  1
