# generated using pymatgen
data_Zr10Sn3Bi4
_symmetry_space_group_name_H-M   'P 1'
_cell_length_a   6.03309604
_cell_length_b   8.75368516
_cell_length_c   8.75322005
_cell_angle_alpha   120.00176988
_cell_angle_beta   89.99934915
_cell_angle_gamma   90.00128673
_symmetry_Int_Tables_number   1
_chemical_formula_structural   Zr10Sn3Bi4
_chemical_formula_sum   'Zr10 Sn3 Bi4'
_cell_volume   400.33346334
_cell_formula_units_Z   1
loop_
 _symmetry_equiv_pos_site_id
 _symmetry_equiv_pos_as_xyz
  1  'x, y, z'
loop_
 _atom_site_type_symbol
 _atom_site_label
 _atom_site_symmetry_multiplicity
 _atom_site_fract_x
 _atom_site_fract_y
 _atom_site_fract_z
 _atom_site_occupancy
  Zr  Zr0  1  0.495492  0.333329  0.666663  1
  Zr  Zr1  1  0.495492  0.666667  0.333337  1
  Zr  Zr2  1  0.006141  0.666666  0.333329  1
  Zr  Zr3  1  0.006141  0.333337  0.666671  1
  Zr  Zr4  1  0.789905  0.263618  0.000000  1
  Zr  Zr5  1  0.789923  0.736394  0.736400  1
  Zr  Zr6  1  0.789923  0.999993  0.263600  1
  Zr  Zr7  1  0.213705  0.730503  0.000000  1
  Zr  Zr8  1  0.213698  0.269492  0.269475  1
  Zr  Zr9  1  0.213698  0.000017  0.730525  1
  Sn  Sn10  1  0.257833  0.385857  0.000000  1
  Sn  Sn11  1  0.257818  0.614141  0.614153  1
  Sn  Sn12  1  0.257818  0.999989  0.385847  1
  Bi  Bi13  1  0.739015  0.608545  0.000000  1
  Bi  Bi14  1  0.739028  0.391456  0.391455  1
  Bi  Bi15  1  0.739028  0.000001  0.608545  1
  Bi  Bi16  1  0.495339  0.000000  0.000000  1
