# generated using pymatgen
data_Dy2(AlAu3)3
_symmetry_space_group_name_H-M   'P 1'
_cell_length_a   7.96291956
_cell_length_b   7.96291854
_cell_length_c   10.76283544
_cell_angle_alpha   68.37172234
_cell_angle_beta   68.37172773
_cell_angle_gamma   59.74854773
_symmetry_Int_Tables_number   1
_chemical_formula_structural   Dy2(AlAu3)3
_chemical_formula_sum   'Dy4 Al6 Au18'
_cell_volume   533.60813493
_cell_formula_units_Z   2
loop_
 _symmetry_equiv_pos_site_id
 _symmetry_equiv_pos_as_xyz
  1  'x, y, z'
loop_
 _atom_site_type_symbol
 _atom_site_label
 _atom_site_symmetry_multiplicity
 _atom_site_fract_x
 _atom_site_fract_y
 _atom_site_fract_z
 _atom_site_occupancy
  Dy  Dy0  1  0.247968  0.414553  0.248643  1
  Dy  Dy1  1  0.585447  0.752032  0.251357  1
  Dy  Dy2  1  0.752032  0.585447  0.751357  1
  Dy  Dy3  1  0.414553  0.247968  0.748643  1
  Al  Al4  1  0.823092  0.350041  0.501985  1
  Al  Al5  1  0.649959  0.176908  0.998015  1
  Al  Al6  1  0.350041  0.823092  0.001985  1
  Al  Al7  1  0.176908  0.649959  0.498015  1
  Al  Al8  1  0.000000  0.500000  0.000000  1
  Al  Al9  1  0.500000  0.000000  0.500000  1
  Au  Au10  1  0.201564  0.021548  0.426434  1
  Au  Au11  1  0.311535  0.143087  0.067892  1
  Au  Au12  1  0.640263  0.479501  0.072550  1
  Au  Au13  1  0.520499  0.359737  0.427450  1
  Au  Au14  1  0.856913  0.688465  0.432108  1
  Au  Au15  1  0.918369  0.305884  0.255485  1
  Au  Au16  1  0.694116  0.081631  0.244515  1
  Au  Au17  1  0.798436  0.978452  0.573566  1
  Au  Au18  1  0.479501  0.640263  0.572550  1
  Au  Au19  1  0.851860  0.148140  0.750000  1
  Au  Au20  1  0.978452  0.798436  0.073566  1
  Au  Au21  1  0.305884  0.918369  0.755485  1
  Au  Au22  1  0.359737  0.520499  0.927450  1
  Au  Au23  1  0.148140  0.851860  0.250000  1
  Au  Au24  1  0.688465  0.856913  0.932108  1
  Au  Au25  1  0.081631  0.694116  0.744515  1
  Au  Au26  1  0.021548  0.201564  0.926434  1
  Au  Au27  1  0.143087  0.311535  0.567892  1
