# generated using pymatgen
data_Rb3Sb2(PS4)3
_symmetry_space_group_name_H-M   'P 1'
_cell_length_a   6.79974500
_cell_length_b   18.08120037
_cell_length_c   18.79961700
_cell_angle_alpha   81.53546847
_cell_angle_beta   90.00000000
_cell_angle_gamma   90.00000000
_symmetry_Int_Tables_number   1
_chemical_formula_structural   Rb3Sb2(PS4)3
_chemical_formula_sum   'Rb12 Sb8 P12 S48'
_cell_volume   2286.18956775
_cell_formula_units_Z   4
loop_
 _symmetry_equiv_pos_site_id
 _symmetry_equiv_pos_as_xyz
  1  'x, y, z'
loop_
 _atom_site_type_symbol
 _atom_site_label
 _atom_site_symmetry_multiplicity
 _atom_site_fract_x
 _atom_site_fract_y
 _atom_site_fract_z
 _atom_site_occupancy
  Rb  Rb0  1  0.718428  0.882663  0.991950  1
  Rb  Rb1  1  0.218428  0.117337  0.508050  1
  Rb  Rb2  1  0.281572  0.117337  0.008050  1
  Rb  Rb3  1  0.781572  0.882663  0.491950  1
  Rb  Rb4  1  0.758534  0.615014  0.302632  1
  Rb  Rb5  1  0.258534  0.384986  0.197368  1
  Rb  Rb6  1  0.241466  0.384986  0.697368  1
  Rb  Rb7  1  0.741466  0.615014  0.802632  1
  Rb  Rb8  1  0.271681  0.762856  0.635257  1
  Rb  Rb9  1  0.771681  0.237144  0.864743  1
  Rb  Rb10  1  0.728319  0.237144  0.364743  1
  Rb  Rb11  1  0.228319  0.762856  0.135257  1
  Sb  Sb12  1  0.182735  0.928884  0.792432  1
  Sb  Sb13  1  0.682735  0.071116  0.707568  1
  Sb  Sb14  1  0.817265  0.071116  0.207568  1
  Sb  Sb15  1  0.317265  0.928884  0.292432  1
  Sb  Sb16  1  0.345711  0.600423  0.499699  1
  Sb  Sb17  1  0.845711  0.399577  0.000301  1
  Sb  Sb18  1  0.654289  0.399577  0.500301  1
  Sb  Sb19  1  0.154289  0.600423  0.999699  1
  P  P20  1  0.794298  0.879851  0.694500  1
  P  P21  1  0.294298  0.120149  0.805500  1
  P  P22  1  0.205702  0.120149  0.305500  1
  P  P23  1  0.705702  0.879851  0.194500  1
  P  P24  1  0.250424  0.779359  0.418504  1
  P  P25  1  0.750424  0.220641  0.081496  1
  P  P26  1  0.749576  0.220641  0.581496  1
  P  P27  1  0.249576  0.779359  0.918504  1
  P  P28  1  0.743919  0.537708  0.609387  1
  P  P29  1  0.243919  0.462292  0.890613  1
  P  P30  1  0.256081  0.462292  0.390613  1
  P  P31  1  0.756081  0.537708  0.109387  1
  S  S32  1  0.831777  0.883861  0.805925  1
  S  S33  1  0.331777  0.116139  0.694075  1
  S  S34  1  0.168223  0.116139  0.194075  1
  S  S35  1  0.668223  0.883861  0.305925  1
  S  S36  1  0.774802  0.776631  0.668513  1
  S  S37  1  0.274802  0.223369  0.831487  1
  S  S38  1  0.225198  0.223369  0.331487  1
  S  S39  1  0.725198  0.776631  0.168513  1
  S  S40  1  0.214966  0.889806  0.935667  1
  S  S41  1  0.714966  0.110194  0.564333  1
  S  S42  1  0.785034  0.110194  0.064333  1
  S  S43  1  0.285034  0.889806  0.435667  1
  S  S44  1  0.040134  0.936407  0.651302  1
  S  S45  1  0.540134  0.063593  0.848698  1
  S  S46  1  0.959866  0.063593  0.348698  1
  S  S47  1  0.459866  0.936407  0.151302  1
  S  S48  1  0.517029  0.726056  0.445460  1
  S  S49  1  0.017029  0.273944  0.054540  1
  S  S50  1  0.482971  0.273944  0.554540  1
  S  S51  1  0.982971  0.726056  0.945460  1
  S  S52  1  0.183140  0.786486  0.311028  1
  S  S53  1  0.683140  0.213514  0.188972  1
  S  S54  1  0.816860  0.213514  0.688972  1
  S  S55  1  0.316860  0.786486  0.811028  1
  S  S56  1  0.498980  0.582876  0.647785  1
  S  S57  1  0.998980  0.417124  0.852215  1
  S  S58  1  0.501020  0.417124  0.352215  1
  S  S59  1  0.001020  0.582876  0.147785  1
  S  S60  1  0.274088  0.579454  0.367726  1
  S  S61  1  0.774088  0.420546  0.132274  1
  S  S62  1  0.725912  0.420546  0.632274  1
  S  S63  1  0.225912  0.579454  0.867726  1
  S  S64  1  0.043195  0.723529  0.481234  1
  S  S65  1  0.543195  0.276471  0.018766  1
  S  S66  1  0.956805  0.276471  0.518766  1
  S  S67  1  0.456805  0.723529  0.981234  1
  S  S68  1  0.719868  0.559185  0.494810  1
  S  S69  1  0.219868  0.440815  0.005190  1
  S  S70  1  0.280132  0.440815  0.505190  1
  S  S71  1  0.780132  0.559185  0.994810  1
  S  S72  1  0.999612  0.570879  0.644571  1
  S  S73  1  0.499612  0.429121  0.855429  1
  S  S74  1  0.000388  0.429121  0.355429  1
  S  S75  1  0.500388  0.570879  0.144571  1
  S  S76  1  0.543285  0.938513  0.661678  1
  S  S77  1  0.043285  0.061487  0.838322  1
  S  S78  1  0.456715  0.061487  0.338322  1
  S  S79  1  0.956715  0.938513  0.161678  1
