# generated using pymatgen
data_Er4Mg4Ir3Au
_symmetry_space_group_name_H-M   'P 1'
_cell_length_a   4.10605800
_cell_length_b   7.08743049
_cell_length_c   8.62961583
_cell_angle_alpha   91.18115231
_cell_angle_beta   90.00000000
_cell_angle_gamma   90.00000000
_symmetry_Int_Tables_number   1
_chemical_formula_structural   Er4Mg4Ir3Au
_chemical_formula_sum   'Er4 Mg4 Ir3 Au1'
_cell_volume   251.08054646
_cell_formula_units_Z   1
loop_
 _symmetry_equiv_pos_site_id
 _symmetry_equiv_pos_as_xyz
  1  'x, y, z'
loop_
 _atom_site_type_symbol
 _atom_site_label
 _atom_site_symmetry_multiplicity
 _atom_site_fract_x
 _atom_site_fract_y
 _atom_site_fract_z
 _atom_site_occupancy
  Er  Er0  1  0.250000  0.026816  0.339159  1
  Er  Er1  1  0.250000  0.560447  0.177345  1
  Er  Er2  1  0.750000  0.960361  0.675636  1
  Er  Er3  1  0.750000  0.468835  0.814759  1
  Mg  Mg4  1  0.250000  0.133684  0.931487  1
  Mg  Mg5  1  0.250000  0.635961  0.560875  1
  Mg  Mg6  1  0.750000  0.859816  0.059749  1
  Mg  Mg7  1  0.750000  0.363479  0.441896  1
  Ir  Ir8  1  0.250000  0.246843  0.628008  1
  Ir  Ir9  1  0.250000  0.746028  0.874978  1
  Ir  Ir10  1  0.750000  0.748539  0.369661  1
  Au  Au11  1  0.750000  0.249189  0.126447  1
