# generated using pymatgen
data_AcYb3(InN)2
_symmetry_space_group_name_H-M   'P 1'
_cell_length_a   10.31245009
_cell_length_b   10.31244916
_cell_length_c   4.97831600
_cell_angle_alpha   90.00000000
_cell_angle_beta   90.00000000
_cell_angle_gamma   159.62655338
_symmetry_Int_Tables_number   1
_chemical_formula_structural   AcYb3(InN)2
_chemical_formula_sum   'Ac1 Yb3 In2 N2'
_cell_volume   184.31348539
_cell_formula_units_Z   1
loop_
 _symmetry_equiv_pos_site_id
 _symmetry_equiv_pos_as_xyz
  1  'x, y, z'
loop_
 _atom_site_type_symbol
 _atom_site_label
 _atom_site_symmetry_multiplicity
 _atom_site_fract_x
 _atom_site_fract_y
 _atom_site_fract_z
 _atom_site_occupancy
  Ac  Ac0  1  0.617083  0.382917  0.250000  1
  Yb  Yb1  1  0.224093  0.775907  0.750000  1
  Yb  Yb2  1  0.786988  0.213012  0.250000  1
  Yb  Yb3  1  0.380531  0.619469  0.750000  1
  In  In4  1  0.032218  0.967782  0.750000  1
  In  In5  1  0.955461  0.044539  0.250000  1
  N  N6  1  0.799726  0.200274  0.750000  1
  N  N7  1  0.203898  0.796102  0.250000  1
