# generated using pymatgen
data_Tm2Fe10Ni2P7
_symmetry_space_group_name_H-M   'P 1'
_cell_length_a   8.99947464
_cell_length_b   9.00043134
_cell_length_c   3.61331200
_cell_angle_alpha   90.00000000
_cell_angle_beta   90.00000000
_cell_angle_gamma   120.30403856
_symmetry_Int_Tables_number   1
_chemical_formula_structural   Tm2Fe10Ni2P7
_chemical_formula_sum   'Tm2 Fe10 Ni2 P7'
_cell_volume   252.68406844
_cell_formula_units_Z   1
loop_
 _symmetry_equiv_pos_site_id
 _symmetry_equiv_pos_as_xyz
  1  'x, y, z'
loop_
 _atom_site_type_symbol
 _atom_site_label
 _atom_site_symmetry_multiplicity
 _atom_site_fract_x
 _atom_site_fract_y
 _atom_site_fract_z
 _atom_site_occupancy
  Tm  Tm0  1  0.999121  0.999358  0.000000  1
  Tm  Tm1  1  0.335552  0.669423  0.500000  1
  Fe  Fe2  1  0.606136  0.903590  0.000000  1
  Fe  Fe3  1  0.820110  0.213190  0.000000  1
  Fe  Fe4  1  0.784156  0.606066  0.000000  1
  Fe  Fe5  1  0.392206  0.177720  0.000000  1
  Fe  Fe6  1  0.054080  0.284932  0.500000  1
  Fe  Fe7  1  0.715813  0.769572  0.500000  1
  Fe  Fe8  1  0.230237  0.943699  0.500000  1
  Fe  Fe9  1  0.889007  0.457250  0.500000  1
  Fe  Fe10  1  0.540701  0.432606  0.500000  1
  Fe  Fe11  1  0.569047  0.113297  0.500000  1
  Ni  Ni12  1  0.098666  0.701152  0.000000  1
  Ni  Ni13  1  0.298738  0.396042  0.000000  1
  P  P14  1  0.074161  0.441428  0.000000  1
  P  P15  1  0.559899  0.636278  0.000000  1
  P  P16  1  0.373335  0.928145  0.000000  1
  P  P17  1  0.780903  0.045531  0.500000  1
  P  P18  1  0.950187  0.737058  0.500000  1
  P  P19  1  0.261580  0.210986  0.500000  1
  P  P20  1  0.666367  0.332676  0.000000  1
