# generated using pymatgen
data_Ba2VNi3P4
_symmetry_space_group_name_H-M   'P 1'
_cell_length_a   5.57210548
_cell_length_b   6.74317441
_cell_length_c   5.58979019
_cell_angle_alpha   65.46401237
_cell_angle_beta   90.00165251
_cell_angle_gamma   89.99986681
_symmetry_Int_Tables_number   1
_chemical_formula_structural   Ba2VNi3P4
_chemical_formula_sum   'Ba2 V1 Ni3 P4'
_cell_volume   191.06349592
_cell_formula_units_Z   1
loop_
 _symmetry_equiv_pos_site_id
 _symmetry_equiv_pos_as_xyz
  1  'x, y, z'
loop_
 _atom_site_type_symbol
 _atom_site_label
 _atom_site_symmetry_multiplicity
 _atom_site_fract_x
 _atom_site_fract_y
 _atom_site_fract_z
 _atom_site_occupancy
  Ba  Ba0  1  0.991695  0.999991  0.000024  1
  Ba  Ba1  1  0.508788  0.999999  0.499997  1
  V  V2  1  0.250430  0.499793  0.500109  1
  Ni  Ni3  1  0.249345  0.499207  0.000277  1
  Ni  Ni4  1  0.750522  0.500392  0.999762  1
  Ni  Ni5  1  0.749687  0.500528  0.499844  1
  P  P6  1  0.500356  0.687824  0.154742  1
  P  P7  1  0.999481  0.687735  0.656413  1
  P  P8  1  0.998803  0.312369  0.343677  1
  P  P9  1  0.500892  0.312160  0.845157  1
