# generated using pymatgen
data_Sn16Pd3Ru
_symmetry_space_group_name_H-M   'P 1'
_cell_length_a   12.77418970
_cell_length_b   12.77418948
_cell_length_c   12.77952571
_cell_angle_alpha   150.90820735
_cell_angle_beta   150.90820790
_cell_angle_gamma   41.54683545
_symmetry_Int_Tables_number   1
_chemical_formula_structural   Sn16Pd3Ru
_chemical_formula_sum   'Sn16 Pd3 Ru1'
_cell_volume   491.96214644
_cell_formula_units_Z   1
loop_
 _symmetry_equiv_pos_site_id
 _symmetry_equiv_pos_as_xyz
  1  'x, y, z'
loop_
 _atom_site_type_symbol
 _atom_site_label
 _atom_site_symmetry_multiplicity
 _atom_site_fract_x
 _atom_site_fract_y
 _atom_site_fract_z
 _atom_site_occupancy
  Sn  Sn0  1  0.139075  0.639325  0.150346  1
  Sn  Sn1  1  0.639229  0.489778  0.499874  1
  Sn  Sn2  1  0.882361  0.893150  0.649801  1
  Sn  Sn3  1  0.391641  0.742333  0.008530  1
  Sn  Sn4  1  0.606850  0.617639  0.350199  1
  Sn  Sn5  1  0.116890  0.766198  0.008530  1
  Sn  Sn6  1  0.860675  0.360925  0.849654  1
  Sn  Sn7  1  0.360646  0.510097  0.499874  1
  Sn  Sn8  1  0.989903  0.139354  0.500126  1
  Sn  Sn9  1  0.488979  0.988730  0.849654  1
  Sn  Sn10  1  0.733802  0.383110  0.991470  1
  Sn  Sn11  1  0.243348  0.232560  0.350199  1
  Sn  Sn12  1  0.757667  0.108359  0.991470  1
  Sn  Sn13  1  0.267440  0.256652  0.649801  1
  Sn  Sn14  1  0.010222  0.860771  0.500126  1
  Sn  Sn15  1  0.511270  0.011021  0.150346  1
  Pd  Pd16  1  0.750000  0.750000  0.000000  1
  Pd  Pd17  1  0.250000  0.250000  0.000000  1
  Pd  Pd18  1  0.000000  0.500000  0.500000  1
  Ru  Ru19  1  0.500000  0.000000  0.500000  1
