# generated using pymatgen
data_Ca12PaGa7Ir8
_symmetry_space_group_name_H-M   'P 1'
_cell_length_a   5.85472400
_cell_length_b   7.98436014
_cell_length_c   13.85816829
_cell_angle_alpha   90.02239114
_cell_angle_beta   90.00000000
_cell_angle_gamma   90.00000000
_symmetry_Int_Tables_number   1
_chemical_formula_structural   Ca12PaGa7Ir8
_chemical_formula_sum   'Ca12 Pa1 Ga7 Ir8'
_cell_volume   647.81700248
_cell_formula_units_Z   1
loop_
 _symmetry_equiv_pos_site_id
 _symmetry_equiv_pos_as_xyz
  1  'x, y, z'
loop_
 _atom_site_type_symbol
 _atom_site_label
 _atom_site_symmetry_multiplicity
 _atom_site_fract_x
 _atom_site_fract_y
 _atom_site_fract_z
 _atom_site_occupancy
  Ca  Ca0  1  0.135721  0.618290  0.101767  1
  Ca  Ca1  1  0.135721  0.881710  0.898233  1
  Ca  Ca2  1  0.856364  0.104555  0.405962  1
  Ca  Ca3  1  0.856364  0.395445  0.594038  1
  Ca  Ca4  1  0.862270  0.404510  0.895085  1
  Ca  Ca5  1  0.862270  0.095490  0.104915  1
  Ca  Ca6  1  0.142318  0.893664  0.596048  1
  Ca  Ca7  1  0.142318  0.606336  0.403952  1
  Ca  Ca8  1  0.375506  0.257701  0.260816  1
  Ca  Ca9  1  0.375506  0.242299  0.739184  1
  Ca  Ca10  1  0.625880  0.755999  0.257471  1
  Ca  Ca11  1  0.625880  0.744001  0.742529  1
  Pa  Pa12  1  0.382628  0.250000  0.000000  1
  Ga  Ga13  1  0.596141  0.750000  0.500000  1
  Ga  Ga14  1  0.615521  0.750000  0.000000  1
  Ga  Ga15  1  0.399917  0.250000  0.500000  1
  Ga  Ga16  1  0.843269  0.407764  0.249695  1
  Ga  Ga17  1  0.843269  0.092236  0.750305  1
  Ga  Ga18  1  0.155108  0.915505  0.254664  1
  Ga  Ga19  1  0.155108  0.584495  0.745336  1
  Ir  Ir20  1  0.636917  0.471276  0.092053  1
  Ir  Ir21  1  0.636917  0.028724  0.907947  1
  Ir  Ir22  1  0.362078  0.974102  0.409181  1
  Ir  Ir23  1  0.362078  0.525898  0.590819  1
  Ir  Ir24  1  0.365468  0.528061  0.906921  1
  Ir  Ir25  1  0.365468  0.971939  0.093079  1
  Ir  Ir26  1  0.641999  0.027151  0.593290  1
  Ir  Ir27  1  0.641999  0.472849  0.406710  1
