# generated using pymatgen
data_AlAs3Se5Br4
_symmetry_space_group_name_H-M   'P 1'
_cell_length_a   10.71103700
_cell_length_b   7.00464999
_cell_length_c   12.61499404
_cell_angle_alpha   75.47698393
_cell_angle_beta   90.00000000
_cell_angle_gamma   90.00000000
_symmetry_Int_Tables_number   1
_chemical_formula_structural   AlAs3Se5Br4
_chemical_formula_sum   'Al2 As6 Se10 Br8'
_cell_volume   916.22353662
_cell_formula_units_Z   2
loop_
 _symmetry_equiv_pos_site_id
 _symmetry_equiv_pos_as_xyz
  1  'x, y, z'
loop_
 _atom_site_type_symbol
 _atom_site_label
 _atom_site_symmetry_multiplicity
 _atom_site_fract_x
 _atom_site_fract_y
 _atom_site_fract_z
 _atom_site_occupancy
  Al  Al0  1  0.750000  0.482462  0.720010  1
  Al  Al1  1  0.250000  0.517538  0.279990  1
  As  As2  1  0.082482  0.051250  0.670308  1
  As  As3  1  0.582482  0.948750  0.329692  1
  As  As4  1  0.917518  0.948750  0.329692  1
  As  As5  1  0.750000  0.974936  0.051492  1
  As  As6  1  0.250000  0.025064  0.948508  1
  As  As7  1  0.417518  0.051250  0.670308  1
  Se  Se8  1  0.432483  0.923271  0.864682  1
  Se  Se9  1  0.750000  0.682806  0.332897  1
  Se  Se10  1  0.750000  0.630029  0.158815  1
  Se  Se11  1  0.567517  0.076729  0.135318  1
  Se  Se12  1  0.250000  0.317194  0.667103  1
  Se  Se13  1  0.250000  0.873684  0.606548  1
  Se  Se14  1  0.250000  0.369971  0.841185  1
  Se  Se15  1  0.750000  0.126316  0.393452  1
  Se  Se16  1  0.067517  0.923271  0.864682  1
  Se  Se17  1  0.932483  0.076729  0.135318  1
  Br  Br18  1  0.250000  0.481324  0.101991  1
  Br  Br19  1  0.750000  0.150733  0.720295  1
  Br  Br20  1  0.750000  0.518676  0.898009  1
  Br  Br21  1  0.250000  0.849267  0.279705  1
  Br  Br22  1  0.928404  0.628343  0.625386  1
  Br  Br23  1  0.571596  0.628343  0.625386  1
  Br  Br24  1  0.071596  0.371657  0.374614  1
  Br  Br25  1  0.428404  0.371657  0.374614  1
