# generated using pymatgen
data_La2DyHo(Zn5Sn)2
_symmetry_space_group_name_H-M   'P 1'
_cell_length_a   8.51206300
_cell_length_b   8.51206243
_cell_length_c   9.07142000
_cell_angle_alpha   90.00000000
_cell_angle_beta   90.00000000
_cell_angle_gamma   149.64093376
_symmetry_Int_Tables_number   1
_chemical_formula_structural   La2DyHo(Zn5Sn)2
_chemical_formula_sum   'La2 Dy1 Ho1 Zn10 Sn2'
_cell_volume   332.19655168
_cell_formula_units_Z   1
loop_
 _symmetry_equiv_pos_site_id
 _symmetry_equiv_pos_as_xyz
  1  'x, y, z'
loop_
 _atom_site_type_symbol
 _atom_site_label
 _atom_site_symmetry_multiplicity
 _atom_site_fract_x
 _atom_site_fract_y
 _atom_site_fract_z
 _atom_site_occupancy
  La  La0  1  0.000009  0.999991  0.499979  1
  La  La1  1  0.000009  0.999991  0.000021  1
  Dy  Dy2  1  0.793763  0.206237  0.750000  1
  Ho  Ho3  1  0.206237  0.793763  0.250000  1
  Zn  Zn4  1  0.812112  0.187888  0.389557  1
  Zn  Zn5  1  0.187871  0.812129  0.610374  1
  Zn  Zn6  1  0.812112  0.187888  0.110443  1
  Zn  Zn7  1  0.187871  0.812129  0.889626  1
  Zn  Zn8  1  0.659232  0.340768  0.483633  1
  Zn  Zn9  1  0.340764  0.659236  0.516308  1
  Zn  Zn10  1  0.659232  0.340768  0.016367  1
  Zn  Zn11  1  0.340764  0.659236  0.983692  1
  Zn  Zn12  1  0.395042  0.604958  0.250000  1
  Zn  Zn13  1  0.604934  0.395066  0.750000  1
  Sn  Sn14  1  0.559546  0.440454  0.250000  1
  Sn  Sn15  1  0.440500  0.559500  0.750000  1
