# generated using pymatgen
data_La16MgTl(InRh2)2
_symmetry_space_group_name_H-M   'P 1'
_cell_length_a   10.11710147
_cell_length_b   10.16838569
_cell_length_c   10.16892834
_cell_angle_alpha   60.06152710
_cell_angle_beta   59.96494129
_cell_angle_gamma   59.97400751
_symmetry_Int_Tables_number   1
_chemical_formula_structural   La16MgTl(InRh2)2
_chemical_formula_sum   'La16 Mg1 Tl1 In2 Rh4'
_cell_volume   739.72298691
_cell_formula_units_Z   1
loop_
 _symmetry_equiv_pos_site_id
 _symmetry_equiv_pos_as_xyz
  1  'x, y, z'
loop_
 _atom_site_type_symbol
 _atom_site_label
 _atom_site_symmetry_multiplicity
 _atom_site_fract_x
 _atom_site_fract_y
 _atom_site_fract_z
 _atom_site_occupancy
  La  La0  1  0.348625  0.345112  0.344963  1
  La  La1  1  0.349073  0.346832  0.957323  1
  La  La2  1  0.349171  0.957217  0.347061  1
  La  La3  1  0.955198  0.348569  0.348436  1
  La  La4  1  0.808194  0.192531  0.192478  1
  La  La5  1  0.186761  0.811672  0.811459  1
  La  La6  1  0.188453  0.809467  0.190336  1
  La  La7  1  0.805297  0.194637  0.806926  1
  La  La8  1  0.188482  0.190436  0.809281  1
  La  La9  1  0.805491  0.806652  0.194744  1
  La  La10  1  0.943785  0.561361  0.561492  1
  La  La11  1  0.557949  0.939736  0.939840  1
  La  La12  1  0.561422  0.942203  0.560595  1
  La  La13  1  0.938173  0.560164  0.939800  1
  La  La14  1  0.561154  0.560985  0.942103  1
  La  La15  1  0.938192  0.939877  0.559897  1
  Mg  Mg16  1  0.277901  0.573309  0.573114  1
  Tl  Tl17  1  0.580983  0.582609  0.582806  1
  In  In18  1  0.579357  0.580981  0.256712  1
  In  In19  1  0.579289  0.256582  0.581302  1
  Rh  Rh20  1  0.139853  0.140222  0.140728  1
  Rh  Rh21  1  0.140649  0.140308  0.577181  1
  Rh  Rh22  1  0.140840  0.577323  0.140019  1
  Rh  Rh23  1  0.575709  0.141214  0.141406  1
