# generated using pymatgen
data_LaPr5(GaI3)2
_symmetry_space_group_name_H-M   'P 1'
_cell_length_a   10.96033793
_cell_length_b   10.96033803
_cell_length_c   10.97866356
_cell_angle_alpha   109.42186356
_cell_angle_beta   109.42186471
_cell_angle_gamma   109.50237357
_symmetry_Int_Tables_number   1
_chemical_formula_structural   LaPr5(GaI3)2
_chemical_formula_sum   'La2 Pr10 Ga4 I12'
_cell_volume   1016.10091639
_cell_formula_units_Z   2
loop_
 _symmetry_equiv_pos_site_id
 _symmetry_equiv_pos_as_xyz
  1  'x, y, z'
loop_
 _atom_site_type_symbol
 _atom_site_label
 _atom_site_symmetry_multiplicity
 _atom_site_fract_x
 _atom_site_fract_y
 _atom_site_fract_z
 _atom_site_occupancy
  La  La0  1  0.987742  0.512258  0.750000  1
  La  La1  1  0.762258  0.737742  0.750000  1
  Pr  Pr2  1  0.250762  0.987315  0.014525  1
  Pr  Pr3  1  0.763764  0.527211  0.014525  1
  Pr  Pr4  1  0.513749  0.763749  0.027498  1
  Pr  Pr5  1  0.250321  0.764087  0.237411  1
  Pr  Pr6  1  0.987090  0.973324  0.237411  1
  Pr  Pr7  1  0.735913  0.249679  0.262589  1
  Pr  Pr8  1  0.526676  0.512910  0.262589  1
  Pr  Pr9  1  0.736251  0.986251  0.472502  1
  Pr  Pr10  1  0.512685  0.249238  0.485475  1
  Pr  Pr11  1  0.972789  0.736236  0.485475  1
  Ga  Ga12  1  0.000800  0.750800  0.001599  1
  Ga  Ga13  1  0.500163  0.999837  0.250000  1
  Ga  Ga14  1  0.749837  0.750163  0.250000  1
  Ga  Ga15  1  0.749200  0.499200  0.498401  1
  I  I16  1  0.242507  0.257493  0.250000  1
  I  I17  1  0.007493  0.492508  0.250001  1
  I  I18  1  0.014979  0.256725  0.506657  1
  I  I19  1  0.491678  0.749933  0.506657  1
  I  I20  1  0.257534  0.007534  0.515068  1
  I  I21  1  0.484157  0.491574  0.742684  1
  I  I22  1  0.258528  0.751110  0.742684  1
  I  I23  1  0.008425  0.015843  0.757316  1
  I  I24  1  0.748890  0.241472  0.757316  1
  I  I25  1  0.492467  0.242467  0.984933  1
  I  I26  1  0.750067  0.008323  0.993343  1
  I  I27  1  0.243275  0.485022  0.993343  1
