# generated using pymatgen
data_CeLuMnB6
_symmetry_space_group_name_H-M   'P 1'
_cell_length_a   3.58961500
_cell_length_b   9.06476700
_cell_length_c   11.45533700
_cell_angle_alpha   90.00000000
_cell_angle_beta   90.00000000
_cell_angle_gamma   90.00000000
_symmetry_Int_Tables_number   1
_chemical_formula_structural   CeLuMnB6
_chemical_formula_sum   'Ce4 Lu4 Mn4 B24'
_cell_volume   372.74548093
_cell_formula_units_Z   4
loop_
 _symmetry_equiv_pos_site_id
 _symmetry_equiv_pos_as_xyz
  1  'x, y, z'
loop_
 _atom_site_type_symbol
 _atom_site_label
 _atom_site_symmetry_multiplicity
 _atom_site_fract_x
 _atom_site_fract_y
 _atom_site_fract_z
 _atom_site_occupancy
  Ce  Ce0  1  0.000000  0.322944  0.414265  1
  Ce  Ce1  1  0.000000  0.677056  0.585735  1
  Ce  Ce2  1  0.000000  0.822944  0.085735  1
  Ce  Ce3  1  0.000000  0.177056  0.914265  1
  Lu  Lu4  1  0.000000  0.943791  0.370463  1
  Lu  Lu5  1  0.000000  0.056209  0.629537  1
  Lu  Lu6  1  0.000000  0.443791  0.129537  1
  Lu  Lu7  1  0.000000  0.556209  0.870463  1
  Mn  Mn8  1  0.000000  0.639635  0.319986  1
  Mn  Mn9  1  0.000000  0.360365  0.680014  1
  Mn  Mn10  1  0.000000  0.139635  0.180014  1
  Mn  Mn11  1  0.000000  0.860365  0.819986  1
  B  B12  1  0.500000  0.556018  0.430012  1
  B  B13  1  0.500000  0.443982  0.569988  1
  B  B14  1  0.500000  0.056018  0.069988  1
  B  B15  1  0.500000  0.943982  0.930012  1
  B  B16  1  0.500000  0.749132  0.416910  1
  B  B17  1  0.500000  0.250868  0.583090  1
  B  B18  1  0.500000  0.249132  0.083090  1
  B  B19  1  0.500000  0.750868  0.916910  1
  B  B20  1  0.500000  0.790379  0.266623  1
  B  B21  1  0.500000  0.209621  0.733377  1
  B  B22  1  0.500000  0.290379  0.233377  1
  B  B23  1  0.500000  0.709621  0.766623  1
  B  B24  1  0.500000  0.631026  0.186107  1
  B  B25  1  0.500000  0.368974  0.813893  1
  B  B26  1  0.500000  0.131026  0.313893  1
  B  B27  1  0.500000  0.868974  0.686107  1
  B  B28  1  0.500000  0.986203  0.212774  1
  B  B29  1  0.500000  0.013797  0.787226  1
  B  B30  1  0.500000  0.486203  0.287226  1
  B  B31  1  0.500000  0.513797  0.712774  1
  B  B32  1  0.500000  0.603476  0.028434  1
  B  B33  1  0.500000  0.396524  0.971566  1
  B  B34  1  0.500000  0.103476  0.471566  1
  B  B35  1  0.500000  0.896524  0.528434  1
