# generated using pymatgen
data_Ce4Mg3CdIr4
_symmetry_space_group_name_H-M   'P 1'
_cell_length_a   4.07491500
_cell_length_b   7.15012738
_cell_length_c   8.80758003
_cell_angle_alpha   89.32188238
_cell_angle_beta   90.00000000
_cell_angle_gamma   90.00000000
_symmetry_Int_Tables_number   1
_chemical_formula_structural   Ce4Mg3CdIr4
_chemical_formula_sum   'Ce4 Mg3 Cd1 Ir4'
_cell_volume   256.60109955
_cell_formula_units_Z   1
loop_
 _symmetry_equiv_pos_site_id
 _symmetry_equiv_pos_as_xyz
  1  'x, y, z'
loop_
 _atom_site_type_symbol
 _atom_site_label
 _atom_site_symmetry_multiplicity
 _atom_site_fract_x
 _atom_site_fract_y
 _atom_site_fract_z
 _atom_site_occupancy
  Ce  Ce0  1  0.250000  0.537440  0.182926  1
  Ce  Ce1  1  0.750000  0.460496  0.818750  1
  Ce  Ce2  1  0.750000  0.962118  0.682256  1
  Ce  Ce3  1  0.250000  0.040645  0.317378  1
  Mg  Mg4  1  0.250000  0.635331  0.554944  1
  Mg  Mg5  1  0.750000  0.367277  0.445518  1
  Mg  Mg6  1  0.750000  0.866932  0.054651  1
  Cd  Cd7  1  0.250000  0.133339  0.943687  1
  Ir  Ir8  1  0.250000  0.734683  0.860521  1
  Ir  Ir9  1  0.750000  0.262562  0.148047  1
  Ir  Ir10  1  0.750000  0.760277  0.362851  1
  Ir  Ir11  1  0.250000  0.238900  0.628472  1
