# generated using pymatgen
data_LaEr3S4
_symmetry_space_group_name_H-M   'P 1'
_cell_length_a   13.19999968
_cell_length_b   13.19999966
_cell_length_c   13.20000032
_cell_angle_alpha   17.09129389
_cell_angle_beta   17.09129481
_cell_angle_gamma   17.09129576
_symmetry_Int_Tables_number   1
_chemical_formula_structural   LaEr3S4
_chemical_formula_sum   'La1 Er3 S4'
_cell_volume   173.31859236
_cell_formula_units_Z   1
loop_
 _symmetry_equiv_pos_site_id
 _symmetry_equiv_pos_as_xyz
  1  'x, y, z'
loop_
 _atom_site_type_symbol
 _atom_site_label
 _atom_site_symmetry_multiplicity
 _atom_site_fract_x
 _atom_site_fract_y
 _atom_site_fract_z
 _atom_site_occupancy
  La  La0  1  0.000000  0.000000  0.000000  1
  Er  Er1  1  0.247807  0.247807  0.247807  1
  Er  Er2  1  0.500000  0.500000  0.500000  1
  Er  Er3  1  0.752193  0.752193  0.752193  1
  S  S4  1  0.380852  0.380852  0.380852  1
  S  S5  1  0.126783  0.126783  0.126783  1
  S  S6  1  0.619148  0.619148  0.619148  1
  S  S7  1  0.873217  0.873217  0.873217  1
