# generated using pymatgen
data_Li2MgZn(H6Ir)2
_symmetry_space_group_name_H-M   'P 1'
_cell_length_a   6.62331500
_cell_length_b   6.62206300
_cell_length_c   6.62206300
_cell_angle_alpha   90.00000000
_cell_angle_beta   90.00000000
_cell_angle_gamma   90.00000000
_symmetry_Int_Tables_number   1
_chemical_formula_structural   Li2MgZn(H6Ir)2
_chemical_formula_sum   'Li4 Mg2 Zn2 H24 Ir4'
_cell_volume   290.44374410
_cell_formula_units_Z   2
loop_
 _symmetry_equiv_pos_site_id
 _symmetry_equiv_pos_as_xyz
  1  'x, y, z'
loop_
 _atom_site_type_symbol
 _atom_site_label
 _atom_site_symmetry_multiplicity
 _atom_site_fract_x
 _atom_site_fract_y
 _atom_site_fract_z
 _atom_site_occupancy
  Li  Li0  1  0.499999  0.499999  0.000000  1
  Li  Li1  1  0.499999  0.000000  0.499999  1
  Li  Li2  1  0.000000  0.499999  0.499999  1
  Li  Li3  1  0.499999  0.499999  0.499999  1
  Mg  Mg4  1  0.000000  0.499999  0.000000  1
  Mg  Mg5  1  0.000000  0.000000  0.499999  1
  Zn  Zn6  1  0.000000  0.000000  0.000000  1
  Zn  Zn7  1  0.499999  0.000000  0.000000  1
  H  H8  1  0.253485  0.256847  0.009716  1
  H  H9  1  0.746515  0.743153  0.009716  1
  H  H10  1  0.505817  0.251628  0.251628  1
  H  H11  1  0.749173  0.492195  0.249185  1
  H  H12  1  0.250828  0.507805  0.249185  1
  H  H13  1  0.494183  0.748373  0.251628  1
  H  H14  1  0.253485  0.009716  0.256847  1
  H  H15  1  0.007003  0.254756  0.254756  1
  H  H16  1  0.992997  0.745244  0.254756  1
  H  H17  1  0.746515  0.990284  0.256847  1
  H  H18  1  0.749173  0.249185  0.492195  1
  H  H19  1  0.250828  0.750816  0.492195  1
  H  H20  1  0.250828  0.249185  0.507805  1
  H  H21  1  0.749173  0.750816  0.507805  1
  H  H22  1  0.746515  0.009716  0.743153  1
  H  H23  1  0.992997  0.254756  0.745244  1
  H  H24  1  0.007003  0.745244  0.745244  1
  H  H25  1  0.253485  0.990284  0.743153  1
  H  H26  1  0.494183  0.251628  0.748373  1
  H  H27  1  0.250828  0.492195  0.750816  1
  H  H28  1  0.749173  0.507805  0.750816  1
  H  H29  1  0.505817  0.748373  0.748373  1
  H  H30  1  0.746515  0.256847  0.990284  1
  H  H31  1  0.253485  0.743153  0.990284  1
  Ir  Ir32  1  0.756272  0.239970  0.239970  1
  Ir  Ir33  1  0.243730  0.760032  0.239970  1
  Ir  Ir34  1  0.243730  0.239970  0.760032  1
  Ir  Ir35  1  0.756272  0.760032  0.760032  1
