# generated using pymatgen
data_Ni2PtI9
_symmetry_space_group_name_H-M   'P 1'
_cell_length_a   6.92094231
_cell_length_b   6.93169208
_cell_length_c   20.96564630
_cell_angle_alpha   89.65018689
_cell_angle_beta   90.17517772
_cell_angle_gamma   120.05140164
_symmetry_Int_Tables_number   1
_chemical_formula_structural   Ni2PtI9
_chemical_formula_sum   'Ni4 Pt2 I18'
_cell_volume   870.58284461
_cell_formula_units_Z   2
loop_
 _symmetry_equiv_pos_site_id
 _symmetry_equiv_pos_as_xyz
  1  'x, y, z'
loop_
 _atom_site_type_symbol
 _atom_site_label
 _atom_site_symmetry_multiplicity
 _atom_site_fract_x
 _atom_site_fract_y
 _atom_site_fract_z
 _atom_site_occupancy
  Ni  Ni0  1  0.555211  0.777605  0.000000  1
  Ni  Ni1  1  0.223864  0.778269  0.333399  1
  Ni  Ni2  1  0.223864  0.445596  0.666601  1
  Ni  Ni3  1  0.887299  0.443649  0.000000  1
  Pt  Pt4  1  0.556686  0.444382  0.333161  1
  Pt  Pt5  1  0.556686  0.112306  0.666839  1
  I  I6  1  0.219541  0.484309  0.926758  1
  I  I7  1  0.533451  0.754090  0.259695  1
  I  I8  1  0.219541  0.735234  0.073242  1
  I  I9  1  0.248013  0.782495  0.593193  1
  I  I10  1  0.533451  0.779361  0.740305  1
  I  I11  1  0.248013  0.465518  0.406807  1
  I  I12  1  0.590865  0.107357  0.928436  1
  I  I13  1  0.888747  0.471099  0.259408  1
  I  I14  1  0.590865  0.483509  0.071564  1
  I  I15  1  0.532312  0.420951  0.593246  1
  I  I16  1  0.888747  0.417648  0.740592  1
  I  I17  1  0.532312  0.111359  0.406754  1
  I  I18  1  0.847347  0.107878  0.073702  1
  I  I19  1  0.887627  0.750002  0.407277  1
  I  I20  1  0.847347  0.739470  0.926298  1
  I  I21  1  0.250292  0.135109  0.741092  1
  I  I22  1  0.887627  0.137623  0.592723  1
  I  I23  1  0.250292  0.115183  0.258908  1
