# generated using pymatgen
data_Pr8Si13Ni3
_symmetry_space_group_name_H-M   'P 1'
_cell_length_a   8.11754400
_cell_length_b   8.11754509
_cell_length_c   8.58717100
_cell_angle_alpha   90.00000000
_cell_angle_beta   90.00000000
_cell_angle_gamma   120.00000371
_symmetry_Int_Tables_number   1
_chemical_formula_structural   Pr8Si13Ni3
_chemical_formula_sum   'Pr8 Si13 Ni3'
_cell_volume   490.03837115
_cell_formula_units_Z   1
loop_
 _symmetry_equiv_pos_site_id
 _symmetry_equiv_pos_as_xyz
  1  'x, y, z'
loop_
 _atom_site_type_symbol
 _atom_site_label
 _atom_site_symmetry_multiplicity
 _atom_site_fract_x
 _atom_site_fract_y
 _atom_site_fract_z
 _atom_site_occupancy
  Pr  Pr0  1  0.501535  0.498465  0.750031  1
  Pr  Pr1  1  0.501703  0.498297  0.250149  1
  Pr  Pr2  1  0.996930  0.498465  0.750031  1
  Pr  Pr3  1  0.996594  0.498297  0.250149  1
  Pr  Pr4  1  0.501535  0.003070  0.750031  1
  Pr  Pr5  1  0.501703  0.003406  0.250149  1
  Pr  Pr6  1  0.000000  0.000000  0.752404  1
  Pr  Pr7  1  0.000000  0.000000  0.247517  1
  Si  Si8  1  0.828498  0.171502  0.999809  1
  Si  Si9  1  0.171921  0.828079  0.000263  1
  Si  Si10  1  0.343004  0.171502  0.999809  1
  Si  Si11  1  0.175390  0.824610  0.500656  1
  Si  Si12  1  0.656157  0.828079  0.000263  1
  Si  Si13  1  0.838057  0.161943  0.499453  1
  Si  Si14  1  0.828498  0.656996  0.999809  1
  Si  Si15  1  0.649222  0.824610  0.500656  1
  Si  Si16  1  0.171921  0.343843  0.000263  1
  Si  Si17  1  0.323886  0.161943  0.499453  1
  Si  Si18  1  0.175390  0.350778  0.500656  1
  Si  Si19  1  0.838057  0.676114  0.499453  1
  Si  Si20  1  0.666667  0.333333  0.500835  1
  Ni  Ni21  1  0.666667  0.333333  0.999933  1
  Ni  Ni22  1  0.333333  0.666667  0.000657  1
  Ni  Ni23  1  0.333333  0.666667  0.497574  1
