# generated using pymatgen
data_Tb3Pt2RhPb3
_symmetry_space_group_name_H-M   'P 1'
_cell_length_a   7.83861600
_cell_length_b   7.83861549
_cell_length_c   3.85358200
_cell_angle_alpha   90.00000000
_cell_angle_beta   90.00000000
_cell_angle_gamma   120.00000214
_symmetry_Int_Tables_number   1
_chemical_formula_structural   Tb3Pt2RhPb3
_chemical_formula_sum   'Tb3 Pt2 Rh1 Pb3'
_cell_volume   205.05670673
_cell_formula_units_Z   1
loop_
 _symmetry_equiv_pos_site_id
 _symmetry_equiv_pos_as_xyz
  1  'x, y, z'
loop_
 _atom_site_type_symbol
 _atom_site_label
 _atom_site_symmetry_multiplicity
 _atom_site_fract_x
 _atom_site_fract_y
 _atom_site_fract_z
 _atom_site_occupancy
  Tb  Tb0  1  0.000000  0.594648  0.500000  1
  Tb  Tb1  1  0.405352  0.405352  0.500000  1
  Tb  Tb2  1  0.594648  0.000000  0.500000  1
  Pt  Pt3  1  0.333333  0.666667  0.000000  1
  Pt  Pt4  1  0.666667  0.333333  0.000000  1
  Rh  Rh5  1  0.000000  0.000000  0.500000  1
  Pb  Pb6  1  0.740079  0.740079  0.000000  1
  Pb  Pb7  1  0.000000  0.259921  0.000000  1
  Pb  Pb8  1  0.259921  0.000000  0.000000  1
