# generated using pymatgen
data_HoGaPRu2
_symmetry_space_group_name_H-M   'P 1'
_cell_length_a   5.65968831
_cell_length_b   5.65968896
_cell_length_c   5.65968842
_cell_angle_alpha   136.59397804
_cell_angle_beta   136.59397579
_cell_angle_gamma   63.06335726
_symmetry_Int_Tables_number   1
_chemical_formula_structural   HoGaPRu2
_chemical_formula_sum   'Ho1 Ga1 P1 Ru2'
_cell_volume   84.52391525
_cell_formula_units_Z   1
loop_
 _symmetry_equiv_pos_site_id
 _symmetry_equiv_pos_as_xyz
  1  'x, y, z'
loop_
 _atom_site_type_symbol
 _atom_site_label
 _atom_site_symmetry_multiplicity
 _atom_site_fract_x
 _atom_site_fract_y
 _atom_site_fract_z
 _atom_site_occupancy
  Ho  Ho0  1  0.000461  0.000461  0.000000  1
  Ga  Ga1  1  0.380115  0.380115  0.000000  1
  P  P2  1  0.638933  0.638933  0.000000  1
  Ru  Ru3  1  0.240246  0.740246  0.500000  1
  Ru  Ru4  1  0.740246  0.240246  0.500000  1
