# generated using pymatgen
data_NdGdHo4Ta2O14
_symmetry_space_group_name_H-M   'P 1'
_cell_length_a   6.49243625
_cell_length_b   6.49243662
_cell_length_c   7.53022523
_cell_angle_alpha   89.90778589
_cell_angle_beta   90.09221236
_cell_angle_gamma   108.77524085
_symmetry_Int_Tables_number   1
_chemical_formula_structural   NdGdHo4Ta2O14
_chemical_formula_sum   'Nd1 Gd1 Ho4 Ta2 O14'
_cell_volume   300.52144639
_cell_formula_units_Z   1
loop_
 _symmetry_equiv_pos_site_id
 _symmetry_equiv_pos_as_xyz
  1  'x, y, z'
loop_
 _atom_site_type_symbol
 _atom_site_label
 _atom_site_symmetry_multiplicity
 _atom_site_fract_x
 _atom_site_fract_y
 _atom_site_fract_z
 _atom_site_occupancy
  Nd  Nd0  1  0.519330  0.519330  0.500000  1
  Gd  Gd1  1  0.468423  0.468423  0.000000  1
  Ho  Ho2  1  0.000208  0.534456  0.241250  1
  Ho  Ho3  1  0.998870  0.465892  0.744707  1
  Ho  Ho4  1  0.534456  0.000208  0.758750  1
  Ho  Ho5  1  0.465892  0.998870  0.255293  1
  Ta  Ta6  1  0.001757  0.001757  0.500000  1
  Ta  Ta7  1  0.997603  0.997603  0.000000  1
  O  O8  1  0.932912  0.067072  0.749726  1
  O  O9  1  0.067072  0.932912  0.250274  1
  O  O10  1  0.356919  0.643004  0.244399  1
  O  O11  1  0.643004  0.356919  0.755601  1
  O  O12  1  0.365271  0.633848  0.755243  1
  O  O13  1  0.633848  0.365271  0.244757  1
  O  O14  1  0.326386  0.078161  0.974188  1
  O  O15  1  0.674337  0.924632  0.473506  1
  O  O16  1  0.312994  0.058377  0.542186  1
  O  O17  1  0.690682  0.948862  0.042682  1
  O  O18  1  0.058377  0.312994  0.457814  1
  O  O19  1  0.948862  0.690682  0.957318  1
  O  O20  1  0.924632  0.674337  0.526494  1
  O  O21  1  0.078161  0.326386  0.025812  1
