# generated using pymatgen
data_Nd3Dy13Cd4NiOs3
_symmetry_space_group_name_H-M   'P 1'
_cell_length_a   9.64270717
_cell_length_b   9.76260892
_cell_length_c   9.75168802
_cell_angle_alpha   59.65530037
_cell_angle_beta   59.16263232
_cell_angle_gamma   59.19366067
_symmetry_Int_Tables_number   1
_chemical_formula_structural   Nd3Dy13Cd4NiOs3
_chemical_formula_sum   'Nd3 Dy13 Cd4 Ni1 Os3'
_cell_volume   639.30215522
_cell_formula_units_Z   1
loop_
 _symmetry_equiv_pos_site_id
 _symmetry_equiv_pos_as_xyz
  1  'x, y, z'
loop_
 _atom_site_type_symbol
 _atom_site_label
 _atom_site_symmetry_multiplicity
 _atom_site_fract_x
 _atom_site_fract_y
 _atom_site_fract_z
 _atom_site_occupancy
  Nd  Nd0  1  0.190598  0.808056  0.192140  1
  Nd  Nd1  1  0.805642  0.821503  0.184562  1
  Nd  Nd2  1  0.187934  0.191100  0.808672  1
  Dy  Dy3  1  0.602423  0.595704  0.594694  1
  Dy  Dy4  1  0.602236  0.596032  0.210324  1
  Dy  Dy5  1  0.601602  0.208776  0.597255  1
  Dy  Dy6  1  0.214992  0.594050  0.596325  1
  Dy  Dy7  1  0.061683  0.436115  0.438013  1
  Dy  Dy8  1  0.433941  0.062674  0.062410  1
  Dy  Dy9  1  0.436534  0.061130  0.439609  1
  Dy  Dy10  1  0.061545  0.438185  0.061275  1
  Dy  Dy11  1  0.438195  0.438833  0.060467  1
  Dy  Dy12  1  0.059482  0.061026  0.440502  1
  Dy  Dy13  1  0.191559  0.806411  0.804590  1
  Dy  Dy14  1  0.799092  0.194620  0.191497  1
  Dy  Dy15  1  0.801921  0.190572  0.817049  1
  Cd  Cd16  1  0.830186  0.830816  0.828504  1
  Cd  Cd17  1  0.827375  0.830946  0.511109  1
  Cd  Cd18  1  0.826613  0.509225  0.831385  1
  Cd  Cd19  1  0.508772  0.828501  0.829016  1
  Ni  Ni20  1  0.829604  0.388864  0.392211  1
  Os  Os21  1  0.399080  0.386679  0.386794  1
  Os  Os22  1  0.397104  0.391097  0.828650  1
  Os  Os23  1  0.391887  0.829086  0.392947  1
