# generated using pymatgen
data_Hf9ReNiW3
_symmetry_space_group_name_H-M   'P 1'
_cell_length_a   8.68186972
_cell_length_b   8.68186932
_cell_length_c   8.47959600
_cell_angle_alpha   90.00000000
_cell_angle_beta   90.00000000
_cell_angle_gamma   120.01487401
_symmetry_Int_Tables_number   1
_chemical_formula_structural   Hf9ReNiW3
_chemical_formula_sum   'Hf18 Re2 Ni2 W6'
_cell_volume   553.43572551
_cell_formula_units_Z   2
loop_
 _symmetry_equiv_pos_site_id
 _symmetry_equiv_pos_as_xyz
  1  'x, y, z'
loop_
 _atom_site_type_symbol
 _atom_site_label
 _atom_site_symmetry_multiplicity
 _atom_site_fract_x
 _atom_site_fract_y
 _atom_site_fract_z
 _atom_site_occupancy
  Hf  Hf0  1  0.199822  0.800178  0.442128  1
  Hf  Hf1  1  0.199412  0.398650  0.442609  1
  Hf  Hf2  1  0.601350  0.800588  0.442609  1
  Hf  Hf3  1  0.800602  0.199398  0.559305  1
  Hf  Hf4  1  0.800476  0.601020  0.558283  1
  Hf  Hf5  1  0.398980  0.199524  0.558283  1
  Hf  Hf6  1  0.800602  0.199398  0.940695  1
  Hf  Hf7  1  0.800476  0.601020  0.941717  1
  Hf  Hf8  1  0.398980  0.199524  0.941717  1
  Hf  Hf9  1  0.199822  0.800178  0.057872  1
  Hf  Hf10  1  0.199412  0.398650  0.057391  1
  Hf  Hf11  1  0.601350  0.800588  0.057391  1
  Hf  Hf12  1  0.541835  0.458165  0.250000  1
  Hf  Hf13  1  0.542295  0.083902  0.250000  1
  Hf  Hf14  1  0.916098  0.457705  0.250000  1
  Hf  Hf15  1  0.457456  0.542544  0.750000  1
  Hf  Hf16  1  0.457916  0.915227  0.750000  1
  Hf  Hf17  1  0.084773  0.542084  0.750000  1
  Re  Re18  1  0.111717  0.224723  0.750000  1
  Re  Re19  1  0.775277  0.888283  0.750000  1
  Ni  Ni20  1  0.333884  0.666116  0.250000  1
  Ni  Ni21  1  0.666633  0.333367  0.750000  1
  W  W22  1  0.888575  0.111425  0.250000  1
  W  W23  1  0.888087  0.776561  0.250000  1
  W  W24  1  0.223439  0.111913  0.250000  1
  W  W25  1  0.111598  0.888402  0.750000  1
  W  W26  1  0.999567  0.000433  0.501482  1
  W  W27  1  0.999567  0.000433  0.998518  1
