# generated using pymatgen
data_Yb5Pr(Si3Os)8
_symmetry_space_group_name_H-M   'P 1'
_cell_length_a   10.18338062
_cell_length_b   10.18337908
_cell_length_c   8.18793676
_cell_angle_alpha   90.15357696
_cell_angle_beta   89.84642448
_cell_angle_gamma   132.57771447
_symmetry_Int_Tables_number   1
_chemical_formula_structural   Yb5Pr(Si3Os)8
_chemical_formula_sum   'Yb5 Pr1 Si24 Os8'
_cell_volume   625.24017442
_cell_formula_units_Z   1
loop_
 _symmetry_equiv_pos_site_id
 _symmetry_equiv_pos_as_xyz
  1  'x, y, z'
loop_
 _atom_site_type_symbol
 _atom_site_label
 _atom_site_symmetry_multiplicity
 _atom_site_fract_x
 _atom_site_fract_y
 _atom_site_fract_z
 _atom_site_occupancy
  Yb  Yb0  1  0.999551  0.499551  0.250000  1
  Yb  Yb1  1  0.499900  0.999900  0.250000  1
  Yb  Yb2  1  0.000758  0.500758  0.750000  1
  Yb  Yb3  1  0.999783  0.999662  0.000444  1
  Yb  Yb4  1  0.499662  0.499783  0.499556  1
  Pr  Pr5  1  0.500235  0.000235  0.750000  1
  Si  Si6  1  0.798763  0.208458  0.496530  1
  Si  Si7  1  0.708458  0.298763  0.003470  1
  Si  Si8  1  0.200844  0.791496  0.496142  1
  Si  Si9  1  0.291496  0.700844  0.003858  1
  Si  Si10  1  0.667443  0.664863  0.168239  1
  Si  Si11  1  0.164863  0.167443  0.331761  1
  Si  Si12  1  0.832517  0.833520  0.668270  1
  Si  Si13  1  0.333520  0.332517  0.831730  1
  Si  Si14  1  0.848401  0.614118  0.991945  1
  Si  Si15  1  0.114118  0.348401  0.508055  1
  Si  Si16  1  0.652289  0.886274  0.489572  1
  Si  Si17  1  0.386274  0.152289  0.010428  1
  Si  Si18  1  0.152222  0.385702  0.009456  1
  Si  Si19  1  0.885702  0.652222  0.490544  1
  Si  Si20  1  0.124157  0.891493  0.730175  1
  Si  Si21  1  0.391493  0.624157  0.769825  1
  Si  Si22  1  0.374753  0.608098  0.230924  1
  Si  Si23  1  0.108098  0.874753  0.269076  1
  Si  Si24  1  0.874534  0.107980  0.268853  1
  Si  Si25  1  0.607980  0.374534  0.231147  1
  Si  Si26  1  0.627458  0.393903  0.768866  1
  Si  Si27  1  0.893903  0.127458  0.731134  1
  Si  Si28  1  0.613854  0.847000  0.992858  1
  Si  Si29  1  0.347000  0.113854  0.507142  1
  Os  Os30  1  0.626542  0.625876  0.875127  1
  Os  Os31  1  0.125876  0.126542  0.624873  1
  Os  Os32  1  0.373112  0.373059  0.124711  1
  Os  Os33  1  0.873059  0.873112  0.375289  1
  Os  Os34  1  0.170182  0.829670  0.000032  1
  Os  Os35  1  0.329670  0.670182  0.499968  1
  Os  Os36  1  0.830793  0.170737  0.000622  1
  Os  Os37  1  0.670737  0.330793  0.499378  1
