# generated using pymatgen
data_Dy8Y2Tl4In4Ni3Pt
_symmetry_space_group_name_H-M   'P 1'
_cell_length_a   3.58414200
_cell_length_b   8.08802350
_cell_length_c   18.01757200
_cell_angle_alpha   89.96518909
_cell_angle_beta   90.00147070
_cell_angle_gamma   90.00266449
_symmetry_Int_Tables_number   1
_chemical_formula_structural   Dy8Y2Tl4In4Ni3Pt
_chemical_formula_sum   'Dy8 Y2 Tl4 In4 Ni3 Pt1'
_cell_volume   522.30453627
_cell_formula_units_Z   1
loop_
 _symmetry_equiv_pos_site_id
 _symmetry_equiv_pos_as_xyz
  1  'x, y, z'
loop_
 _atom_site_type_symbol
 _atom_site_label
 _atom_site_symmetry_multiplicity
 _atom_site_fract_x
 _atom_site_fract_y
 _atom_site_fract_z
 _atom_site_occupancy
  Dy  Dy0  1  0.499229  0.385575  0.585799  1
  Dy  Dy1  1  0.500610  0.881168  0.917037  1
  Dy  Dy2  1  0.500271  0.115665  0.089364  1
  Dy  Dy3  1  0.500754  0.754872  0.717293  1
  Dy  Dy4  1  0.500294  0.262316  0.778929  1
  Dy  Dy5  1  0.499806  0.742309  0.219786  1
  Dy  Dy6  1  0.499722  0.242551  0.281298  1
  Dy  Dy7  1  0.498674  0.614912  0.411386  1
  Y  Y8  1  0.500378  0.498444  0.002084  1
  Y  Y9  1  0.500583  0.998985  0.498107  1
  Tl  Tl10  1  0.999910  0.793949  0.069336  1
  Tl  Tl11  1  0.999718  0.922348  0.347108  1
  Tl  Tl12  1  0.999867  0.080856  0.646652  1
  Tl  Tl13  1  0.999922  0.573635  0.848141  1
  In  In14  1  0.999782  0.702877  0.565373  1
  In  In15  1  0.000147  0.206071  0.935897  1
  In  In16  1  0.999680  0.296597  0.432064  1
  In  In17  1  0.999935  0.421230  0.154536  1
  Ni  Ni18  1  0.997587  0.519983  0.303141  1
  Ni  Ni19  1  0.000321  0.482276  0.693710  1
  Ni  Ni20  1  0.002216  0.025560  0.198155  1
  Pt  Pt21  1  0.000597  0.977819  0.804807  1
