# generated using pymatgen
data_Tb16InCo3Hg3Ir
_symmetry_space_group_name_H-M   'P 1'
_cell_length_a   9.55973352
_cell_length_b   9.58760954
_cell_length_c   9.54614729
_cell_angle_alpha   60.10630214
_cell_angle_beta   59.95291305
_cell_angle_gamma   60.09613094
_symmetry_Int_Tables_number   1
_chemical_formula_structural   Tb16InCo3Hg3Ir
_chemical_formula_sum   'Tb16 In1 Co3 Hg3 Ir1'
_cell_volume   619.40787850
_cell_formula_units_Z   1
loop_
 _symmetry_equiv_pos_site_id
 _symmetry_equiv_pos_as_xyz
  1  'x, y, z'
loop_
 _atom_site_type_symbol
 _atom_site_label
 _atom_site_symmetry_multiplicity
 _atom_site_fract_x
 _atom_site_fract_y
 _atom_site_fract_z
 _atom_site_occupancy
  Tb  Tb0  1  0.097437  0.706848  0.098280  1
  Tb  Tb1  1  0.939315  0.938265  0.560965  1
  Tb  Tb2  1  0.942118  0.564234  0.938386  1
  Tb  Tb3  1  0.312155  0.689276  0.310057  1
  Tb  Tb4  1  0.939494  0.565223  0.555788  1
  Tb  Tb5  1  0.310331  0.311560  0.687698  1
  Tb  Tb6  1  0.100342  0.094249  0.100784  1
  Tb  Tb7  1  0.555261  0.564234  0.938386  1
  Tb  Tb8  1  0.101011  0.095623  0.702356  1
  Tb  Tb9  1  0.690412  0.311560  0.687698  1
  Tb  Tb10  1  0.688511  0.689276  0.310057  1
  Tb  Tb11  1  0.689887  0.311662  0.308562  1
  Tb  Tb12  1  0.311713  0.690126  0.686447  1
  Tb  Tb13  1  0.561455  0.938265  0.560965  1
  Tb  Tb14  1  0.704626  0.094249  0.100784  1
  Tb  Tb15  1  0.560640  0.940890  0.937830  1
  In  In16  1  0.330675  0.330296  0.008353  1
  Co  Co17  1  0.890474  0.891268  0.891918  1
  Co  Co18  1  0.890824  0.891835  0.326517  1
  Co  Co19  1  0.326341  0.891268  0.891918  1
  Hg  Hg20  1  0.334102  0.334501  0.334465  1
  Hg  Hg21  1  0.996932  0.334501  0.334465  1
  Hg  Hg22  1  0.335055  0.994828  0.335061  1
  Ir  Ir23  1  0.890890  0.325961  0.892260  1
