# generated using pymatgen
data_Zr5Sc(Ti2Si3)2
_symmetry_space_group_name_H-M   'P 1'
_cell_length_a   7.79625874
_cell_length_b   7.79625949
_cell_length_c   5.35373400
_cell_angle_alpha   90.00000000
_cell_angle_beta   90.00000000
_cell_angle_gamma   119.90392329
_symmetry_Int_Tables_number   1
_chemical_formula_structural   Zr5Sc(Ti2Si3)2
_chemical_formula_sum   'Zr5 Sc1 Ti4 Si6'
_cell_volume   282.08473964
_cell_formula_units_Z   1
loop_
 _symmetry_equiv_pos_site_id
 _symmetry_equiv_pos_as_xyz
  1  'x, y, z'
loop_
 _atom_site_type_symbol
 _atom_site_label
 _atom_site_symmetry_multiplicity
 _atom_site_fract_x
 _atom_site_fract_y
 _atom_site_fract_z
 _atom_site_occupancy
  Zr  Zr0  1  0.251155  0.000686  0.750000  1
  Zr  Zr1  1  0.000686  0.251155  0.750000  1
  Zr  Zr2  1  0.251350  0.251350  0.250000  1
  Zr  Zr3  1  0.749164  0.999559  0.250000  1
  Zr  Zr4  1  0.999559  0.749164  0.250000  1
  Sc  Sc5  1  0.748514  0.748514  0.750000  1
  Ti  Ti6  1  0.666306  0.333045  0.000260  1
  Ti  Ti7  1  0.333045  0.666306  0.000260  1
  Ti  Ti8  1  0.333045  0.666306  0.499740  1
  Ti  Ti9  1  0.666306  0.333045  0.499740  1
  Si  Si10  1  0.399774  0.399774  0.750000  1
  Si  Si11  1  0.601553  0.999298  0.750000  1
  Si  Si12  1  0.999298  0.601553  0.750000  1
  Si  Si13  1  0.601570  0.601570  0.250000  1
  Si  Si14  1  0.398352  0.000323  0.250000  1
  Si  Si15  1  0.000323  0.398352  0.250000  1
