# generated using pymatgen
data_Th3Ga3OsRh2
_symmetry_space_group_name_H-M   'P 1'
_cell_length_a   7.33290800
_cell_length_b   7.33290747
_cell_length_c   4.00419300
_cell_angle_alpha   90.00000000
_cell_angle_beta   90.00000000
_cell_angle_gamma   120.00000239
_symmetry_Int_Tables_number   1
_chemical_formula_structural   Th3Ga3OsRh2
_chemical_formula_sum   'Th3 Ga3 Os1 Rh2'
_cell_volume   186.46531730
_cell_formula_units_Z   1
loop_
 _symmetry_equiv_pos_site_id
 _symmetry_equiv_pos_as_xyz
  1  'x, y, z'
loop_
 _atom_site_type_symbol
 _atom_site_label
 _atom_site_symmetry_multiplicity
 _atom_site_fract_x
 _atom_site_fract_y
 _atom_site_fract_z
 _atom_site_occupancy
  Th  Th0  1  0.002910  0.414791  0.500000  1
  Th  Th1  1  0.585209  0.588120  0.500000  1
  Th  Th2  1  0.411880  0.997090  0.500000  1
  Ga  Ga3  1  0.001506  0.758423  0.000000  1
  Ga  Ga4  1  0.241577  0.243083  0.000000  1
  Ga  Ga5  1  0.756917  0.998494  0.000000  1
  Os  Os6  1  0.333333  0.666667  0.000000  1
  Rh  Rh7  1  0.666667  0.333333  0.000000  1
  Rh  Rh8  1  0.000000  0.000000  0.500000  1
