# generated using pymatgen
data_Ho3Lu5Tc(B8Ru)3
_symmetry_space_group_name_H-M   'P 1'
_cell_length_a   3.61762200
_cell_length_b   9.05419624
_cell_length_c   11.43880607
_cell_angle_alpha   89.92437955
_cell_angle_beta   90.00000000
_cell_angle_gamma   90.00000000
_symmetry_Int_Tables_number   1
_chemical_formula_structural   Ho3Lu5Tc(B8Ru)3
_chemical_formula_sum   'Ho3 Lu5 Tc1 B24 Ru3'
_cell_volume   374.67387173
_cell_formula_units_Z   1
loop_
 _symmetry_equiv_pos_site_id
 _symmetry_equiv_pos_as_xyz
  1  'x, y, z'
loop_
 _atom_site_type_symbol
 _atom_site_label
 _atom_site_symmetry_multiplicity
 _atom_site_fract_x
 _atom_site_fract_y
 _atom_site_fract_z
 _atom_site_occupancy
  Ho  Ho0  1  0.000000  0.323417  0.413168  1
  Ho  Ho1  1  0.000000  0.677755  0.583720  1
  Ho  Ho2  1  0.000000  0.819927  0.087887  1
  Lu  Lu3  1  0.000000  0.178219  0.915121  1
  Lu  Lu4  1  0.000000  0.943431  0.372356  1
  Lu  Lu5  1  0.000000  0.057026  0.628174  1
  Lu  Lu6  1  0.000000  0.444222  0.127740  1
  Lu  Lu7  1  0.000000  0.556323  0.871839  1
  Tc  Tc8  1  0.000000  0.638296  0.320361  1
  B  B9  1  0.500000  0.553134  0.433205  1
  B  B10  1  0.500000  0.445923  0.567565  1
  B  B11  1  0.500000  0.054158  0.066357  1
  B  B12  1  0.500000  0.946639  0.933267  1
  B  B13  1  0.500000  0.749782  0.419472  1
  B  B14  1  0.500000  0.250582  0.580770  1
  B  B15  1  0.500000  0.249294  0.079493  1
  B  B16  1  0.500000  0.750547  0.919486  1
  B  B17  1  0.500000  0.792398  0.265776  1
  B  B18  1  0.500000  0.207829  0.734865  1
  B  B19  1  0.500000  0.291623  0.233191  1
  B  B20  1  0.500000  0.708715  0.765844  1
  B  B21  1  0.500000  0.630549  0.184773  1
  B  B22  1  0.500000  0.368428  0.816020  1
  B  B23  1  0.500000  0.130768  0.314855  1
  B  B24  1  0.500000  0.869840  0.684716  1
  B  B25  1  0.500000  0.982576  0.212881  1
  B  B26  1  0.500000  0.018387  0.787649  1
  B  B27  1  0.500000  0.481437  0.286704  1
  B  B28  1  0.500000  0.517194  0.713351  1
  B  B29  1  0.500000  0.604374  0.028155  1
  B  B30  1  0.500000  0.394073  0.970541  1
  B  B31  1  0.500000  0.104927  0.471407  1
  B  B32  1  0.500000  0.896564  0.529223  1
  Ru  Ru33  1  0.000000  0.360806  0.680825  1
  Ru  Ru34  1  0.000000  0.138225  0.178615  1
  Ru  Ru35  1  0.000000  0.862611  0.820625  1
