# generated using pymatgen
data_SrCdSn5Ir4
_symmetry_space_group_name_H-M   'P 1'
_cell_length_a   7.18860381
_cell_length_b   6.94911236
_cell_length_c   7.03709268
_cell_angle_alpha   119.79660960
_cell_angle_beta   120.91925138
_cell_angle_gamma   89.64425196
_symmetry_Int_Tables_number   1
_chemical_formula_structural   SrCdSn5Ir4
_chemical_formula_sum   'Sr1 Cd1 Sn5 Ir4'
_cell_volume   246.62029681
_cell_formula_units_Z   1
loop_
 _symmetry_equiv_pos_site_id
 _symmetry_equiv_pos_as_xyz
  1  'x, y, z'
loop_
 _atom_site_type_symbol
 _atom_site_label
 _atom_site_symmetry_multiplicity
 _atom_site_fract_x
 _atom_site_fract_y
 _atom_site_fract_z
 _atom_site_occupancy
  Sr  Sr0  1  0.997887  0.994966  0.000007  1
  Cd  Cd1  1  0.890672  0.528418  0.999980  1
  Sn  Sn2  1  0.537131  0.876576  0.000033  1
  Sn  Sn3  1  0.462950  0.466779  0.345019  1
  Sn  Sn4  1  0.500733  0.004169  0.503942  1
  Sn  Sn5  1  0.996805  0.500236  0.496066  1
  Sn  Sn6  1  0.117929  0.121733  0.654944  1
  Ir  Ir7  1  0.584412  0.250900  0.000010  1
  Ir  Ir8  1  0.264213  0.596181  0.999987  1
  Ir  Ir9  1  0.752124  0.758510  0.357006  1
  Ir  Ir10  1  0.395143  0.401531  0.643004  1
