# generated using pymatgen
data_PrNd3(B4W)4
_symmetry_space_group_name_H-M   'P 1'
_cell_length_a   3.70630800
_cell_length_b   6.13660973
_cell_length_c   11.87263386
_cell_angle_alpha   89.96971847
_cell_angle_beta   90.00000000
_cell_angle_gamma   90.00000000
_symmetry_Int_Tables_number   1
_chemical_formula_structural   PrNd3(B4W)4
_chemical_formula_sum   'Pr1 Nd3 B16 W4'
_cell_volume   270.03311444
_cell_formula_units_Z   1
loop_
 _symmetry_equiv_pos_site_id
 _symmetry_equiv_pos_as_xyz
  1  'x, y, z'
loop_
 _atom_site_type_symbol
 _atom_site_label
 _atom_site_symmetry_multiplicity
 _atom_site_fract_x
 _atom_site_fract_y
 _atom_site_fract_z
 _atom_site_occupancy
  Pr  Pr0  1  0.000000  0.375226  0.650405  1
  Nd  Nd1  1  0.000000  0.124827  0.150241  1
  Nd  Nd2  1  0.000000  0.874992  0.849969  1
  Nd  Nd3  1  0.000000  0.624960  0.349561  1
  B  B4  1  0.500000  0.475261  0.190816  1
  B  B5  1  0.500000  0.525036  0.809852  1
  B  B6  1  0.500000  0.975356  0.308969  1
  B  B7  1  0.500000  0.024252  0.690740  1
  B  B8  1  0.500000  0.281817  0.314930  1
  B  B9  1  0.500000  0.719085  0.684879  1
  B  B10  1  0.500000  0.781791  0.184764  1
  B  B11  1  0.500000  0.218031  0.815729  1
  B  B12  1  0.500000  0.362466  0.467156  1
  B  B13  1  0.500000  0.637864  0.531939  1
  B  B14  1  0.500000  0.862520  0.032471  1
  B  B15  1  0.500000  0.137165  0.967980  1
  B  B16  1  0.500000  0.387996  0.046300  1
  B  B17  1  0.500000  0.612012  0.954244  1
  B  B18  1  0.500000  0.888063  0.453593  1
  B  B19  1  0.500000  0.111494  0.545577  1
  W  W20  1  0.000000  0.128264  0.416184  1
  W  W21  1  0.000000  0.871598  0.583137  1
  W  W22  1  0.000000  0.628359  0.083564  1
  W  W23  1  0.000000  0.371569  0.917002  1
