# generated using pymatgen
data_LaYb7Bi6
_symmetry_space_group_name_H-M   'P 1'
_cell_length_a   8.41472711
_cell_length_b   8.37334340
_cell_length_c   8.41472671
_cell_angle_alpha   109.37163317
_cell_angle_beta   109.57062823
_cell_angle_gamma   109.37162689
_symmetry_Int_Tables_number   1
_chemical_formula_structural   LaYb7Bi6
_chemical_formula_sum   'La1 Yb7 Bi6'
_cell_volume   456.97176530
_cell_formula_units_Z   1
loop_
 _symmetry_equiv_pos_site_id
 _symmetry_equiv_pos_as_xyz
  1  'x, y, z'
loop_
 _atom_site_type_symbol
 _atom_site_label
 _atom_site_symmetry_multiplicity
 _atom_site_fract_x
 _atom_site_fract_y
 _atom_site_fract_z
 _atom_site_occupancy
  La  La0  1  0.000000  0.145696  0.500000  1
  Yb  Yb1  1  0.148012  0.502009  0.002530  1
  Yb  Yb2  1  0.354518  0.353997  0.351988  1
  Yb  Yb3  1  0.647936  0.499902  0.999886  1
  Yb  Yb4  1  0.500114  0.000016  0.648050  1
  Yb  Yb5  1  0.497470  0.999478  0.145482  1
  Yb  Yb6  1  0.000000  0.647776  0.500000  1
  Yb  Yb7  1  0.851950  0.851966  0.852064  1
  Bi  Bi8  1  0.251385  0.125872  0.877567  1
  Bi  Bi9  1  0.126182  0.874487  0.248615  1
  Bi  Bi10  1  0.749987  0.375152  0.624972  1
  Bi  Bi11  1  0.875028  0.250180  0.125015  1
  Bi  Bi12  1  0.622433  0.748305  0.373818  1
  Bi  Bi13  1  0.374985  0.625165  0.750013  1
