# generated using pymatgen
data_Tb2PrDy(CCl)2
_symmetry_space_group_name_H-M   'P 1'
_cell_length_a   3.68583100
_cell_length_b   3.68583274
_cell_length_c   13.95551000
_cell_angle_alpha   90.00000000
_cell_angle_beta   90.00000000
_cell_angle_gamma   119.99999336
_symmetry_Int_Tables_number   1
_chemical_formula_structural   Tb2PrDy(CCl)2
_chemical_formula_sum   'Tb2 Pr1 Dy1 C2 Cl2'
_cell_volume   164.19026914
_cell_formula_units_Z   1
loop_
 _symmetry_equiv_pos_site_id
 _symmetry_equiv_pos_as_xyz
  1  'x, y, z'
loop_
 _atom_site_type_symbol
 _atom_site_label
 _atom_site_symmetry_multiplicity
 _atom_site_fract_x
 _atom_site_fract_y
 _atom_site_fract_z
 _atom_site_occupancy
  Tb  Tb0  1  0.666667  0.333333  0.089712  1
  Tb  Tb1  1  0.333333  0.666667  0.904449  1
  Pr  Pr2  1  0.666667  0.333333  0.406185  1
  Dy  Dy3  1  0.333333  0.666667  0.598633  1
  C  C4  1  0.000000  0.000000  0.996571  1
  C  C5  1  0.000000  0.000000  0.513898  1
  Cl  Cl6  1  0.333333  0.666667  0.237375  1
  Cl  Cl7  1  0.666667  0.333333  0.753176  1
