# generated using pymatgen
data_TbEr7Hf12Si15Ge
_symmetry_space_group_name_H-M   'P 1'
_cell_length_a   7.26786625
_cell_length_b   7.27292427
_cell_length_c   13.34722631
_cell_angle_alpha   89.92544253
_cell_angle_beta   89.94177923
_cell_angle_gamma   89.96231917
_symmetry_Int_Tables_number   1
_chemical_formula_structural   TbEr7Hf12Si15Ge
_chemical_formula_sum   'Tb1 Er7 Hf12 Si15 Ge1'
_cell_volume   705.51512847
_cell_formula_units_Z   1
loop_
 _symmetry_equiv_pos_site_id
 _symmetry_equiv_pos_as_xyz
  1  'x, y, z'
loop_
 _atom_site_type_symbol
 _atom_site_label
 _atom_site_symmetry_multiplicity
 _atom_site_fract_x
 _atom_site_fract_y
 _atom_site_fract_z
 _atom_site_occupancy
  Tb  Tb0  1  0.656840  0.003636  0.284414  1
  Er  Er1  1  0.995239  0.344856  0.214417  1
  Er  Er2  1  0.003954  0.655495  0.715336  1
  Er  Er3  1  0.154004  0.498423  0.466482  1
  Er  Er4  1  0.504225  0.843534  0.034092  1
  Er  Er5  1  0.844675  0.503808  0.964890  1
  Er  Er6  1  0.496880  0.154801  0.536010  1
  Er  Er7  1  0.344284  0.996147  0.784830  1
  Hf  Hf8  1  0.174441  0.174848  0.999733  1
  Hf  Hf9  1  0.825552  0.825559  0.500263  1
  Hf  Hf10  1  0.325430  0.676875  0.249511  1
  Hf  Hf11  1  0.674736  0.325345  0.749948  1
  Hf  Hf12  1  0.148010  0.994249  0.374189  1
  Hf  Hf13  1  0.851217  0.004009  0.874347  1
  Hf  Hf14  1  0.503895  0.648929  0.624639  1
  Hf  Hf15  1  0.351002  0.495961  0.875449  1
  Hf  Hf16  1  0.495354  0.350822  0.123221  1
  Hf  Hf17  1  0.651474  0.506397  0.376454  1
  Hf  Hf18  1  0.995715  0.148992  0.625924  1
  Hf  Hf19  1  0.003397  0.850419  0.125107  1
  Si  Si20  1  0.638742  0.705123  0.817701  1
  Si  Si21  1  0.204894  0.861585  0.567788  1
  Si  Si22  1  0.138738  0.794927  0.931967  1
  Si  Si23  1  0.795222  0.138806  0.067196  1
  Si  Si24  1  0.862286  0.205398  0.433163  1
  Si  Si25  1  0.295230  0.361311  0.682261  1
  Si  Si26  1  0.704710  0.637094  0.181863  1
  Si  Si27  1  0.295466  0.045707  0.183133  1
  Si  Si28  1  0.703561  0.951077  0.685650  1
  Si  Si29  1  0.450504  0.796191  0.435999  1
  Si  Si30  1  0.203155  0.548370  0.064579  1
  Si  Si31  1  0.548475  0.203187  0.935064  1
  Si  Si32  1  0.796479  0.451583  0.564969  1
  Si  Si33  1  0.048506  0.296674  0.814456  1
  Si  Si34  1  0.952416  0.702403  0.314294  1
  Ge  Ge35  1  0.361292  0.297461  0.320663  1
