# generated using pymatgen
data_Pr6Ni20As13
_symmetry_space_group_name_H-M   'P 1'
_cell_length_a   13.22176600
_cell_length_b   13.22176579
_cell_length_c   3.98330100
_cell_angle_alpha   90.00000000
_cell_angle_beta   90.00000000
_cell_angle_gamma   120.00000052
_symmetry_Int_Tables_number   1
_chemical_formula_structural   Pr6Ni20As13
_chemical_formula_sum   'Pr6 Ni20 As13'
_cell_volume   603.04911072
_cell_formula_units_Z   1
loop_
 _symmetry_equiv_pos_site_id
 _symmetry_equiv_pos_as_xyz
  1  'x, y, z'
loop_
 _atom_site_type_symbol
 _atom_site_label
 _atom_site_symmetry_multiplicity
 _atom_site_fract_x
 _atom_site_fract_y
 _atom_site_fract_z
 _atom_site_occupancy
  Pr  Pr0  1  0.532452  0.815542  0.000000  1
  Pr  Pr1  1  0.283090  0.467548  0.000000  1
  Pr  Pr2  1  0.184458  0.716910  0.000000  1
  Pr  Pr3  1  0.813671  0.279094  0.500000  1
  Pr  Pr4  1  0.465423  0.186329  0.500000  1
  Pr  Pr5  1  0.720906  0.534577  0.500000  1
  Ni  Ni6  1  0.803397  0.914143  0.000000  1
  Ni  Ni7  1  0.110746  0.196603  0.000000  1
  Ni  Ni8  1  0.085857  0.889254  0.000000  1
  Ni  Ni9  1  0.333333  0.666667  0.500000  1
  Ni  Ni10  1  0.935273  0.076305  0.500000  1
  Ni  Ni11  1  0.141033  0.064727  0.500000  1
  Ni  Ni12  1  0.923695  0.858967  0.500000  1
  Ni  Ni13  1  0.666667  0.333333  0.000000  1
  Ni  Ni14  1  0.560677  0.585176  0.000000  1
  Ni  Ni15  1  0.024499  0.439323  0.000000  1
  Ni  Ni16  1  0.414824  0.975501  0.000000  1
  Ni  Ni17  1  0.691888  0.762645  0.500000  1
  Ni  Ni18  1  0.070759  0.308112  0.500000  1
  Ni  Ni19  1  0.237355  0.929241  0.500000  1
  Ni  Ni20  1  0.974732  0.561836  0.500000  1
  Ni  Ni21  1  0.587104  0.025268  0.500000  1
  Ni  Ni22  1  0.438164  0.412896  0.500000  1
  Ni  Ni23  1  0.757033  0.077018  0.000000  1
  Ni  Ni24  1  0.319985  0.242967  0.000000  1
  Ni  Ni25  1  0.922982  0.680015  0.000000  1
  As  As26  1  0.481283  0.616211  0.500000  1
  As  As27  1  0.134927  0.518717  0.500000  1
  As  As28  1  0.383789  0.865073  0.500000  1
  As  As29  1  0.726621  0.961189  0.500000  1
  As  As30  1  0.234568  0.273379  0.500000  1
  As  As31  1  0.038811  0.765432  0.500000  1
  As  As32  1  0.864235  0.476827  0.000000  1
  As  As33  1  0.612593  0.135765  0.000000  1
  As  As34  1  0.523173  0.387407  0.000000  1
  As  As35  1  0.956493  0.233751  0.000000  1
  As  As36  1  0.277258  0.043507  0.000000  1
  As  As37  1  0.766249  0.722742  0.000000  1
  As  As38  1  0.000000  0.000000  0.000000  1
