# generated using pymatgen
data_TbHf2Zr(NiAs2)2
_symmetry_space_group_name_H-M   'P 1'
_cell_length_a   3.99569900
_cell_length_b   3.99569939
_cell_length_c   13.30846900
_cell_angle_alpha   90.00000000
_cell_angle_beta   90.00000000
_cell_angle_gamma   120.00000506
_symmetry_Int_Tables_number   1
_chemical_formula_structural   TbHf2Zr(NiAs2)2
_chemical_formula_sum   'Tb1 Hf2 Zr1 Ni2 As4'
_cell_volume   184.01120910
_cell_formula_units_Z   1
loop_
 _symmetry_equiv_pos_site_id
 _symmetry_equiv_pos_as_xyz
  1  'x, y, z'
loop_
 _atom_site_type_symbol
 _atom_site_label
 _atom_site_symmetry_multiplicity
 _atom_site_fract_x
 _atom_site_fract_y
 _atom_site_fract_z
 _atom_site_occupancy
  Tb  Tb0  1  0.333333  0.666667  0.851828  1
  Hf  Hf1  1  0.333333  0.666667  0.130863  1
  Hf  Hf2  1  0.666667  0.333333  0.347529  1
  Zr  Zr3  1  0.666667  0.333333  0.609735  1
  Ni  Ni4  1  0.000000  0.000000  0.035910  1
  Ni  Ni5  1  0.000000  0.000000  0.458616  1
  As  As6  1  0.666667  0.333333  0.991835  1
  As  As7  1  0.333333  0.666667  0.480703  1
  As  As8  1  0.000000  0.000000  0.724256  1
  As  As9  1  0.000000  0.000000  0.237387  1
