# generated using pymatgen
data_Dy5Y3(InNi)2
_symmetry_space_group_name_H-M   'P 1'
_cell_length_a   9.60018467
_cell_length_b   9.60018465
_cell_length_c   9.60018500
_cell_angle_alpha   60.00000224
_cell_angle_beta   60.00000231
_cell_angle_gamma   59.99999948
_symmetry_Int_Tables_number   1
_chemical_formula_structural   Dy5Y3(InNi)2
_chemical_formula_sum   'Dy10 Y6 In4 Ni4'
_cell_volume   625.63896841
_cell_formula_units_Z   2
loop_
 _symmetry_equiv_pos_site_id
 _symmetry_equiv_pos_as_xyz
  1  'x, y, z'
loop_
 _atom_site_type_symbol
 _atom_site_label
 _atom_site_symmetry_multiplicity
 _atom_site_fract_x
 _atom_site_fract_y
 _atom_site_fract_z
 _atom_site_occupancy
  Dy  Dy0  1  0.597748  0.597748  0.597748  1
  Dy  Dy1  1  0.597748  0.597748  0.206758  1
  Dy  Dy2  1  0.597748  0.206758  0.597748  1
  Dy  Dy3  1  0.206758  0.597748  0.597748  1
  Dy  Dy4  1  0.061922  0.438078  0.438078  1
  Dy  Dy5  1  0.438078  0.061922  0.061922  1
  Dy  Dy6  1  0.438078  0.061922  0.438078  1
  Dy  Dy7  1  0.061922  0.438078  0.061922  1
  Dy  Dy8  1  0.438078  0.438078  0.061922  1
  Dy  Dy9  1  0.061922  0.061922  0.438078  1
  Y  Y10  1  0.188083  0.811917  0.811917  1
  Y  Y11  1  0.811917  0.188083  0.188083  1
  Y  Y12  1  0.811917  0.188083  0.811917  1
  Y  Y13  1  0.188083  0.811917  0.188083  1
  Y  Y14  1  0.811917  0.811917  0.188083  1
  Y  Y15  1  0.188083  0.188083  0.811917  1
  In  In16  1  0.832367  0.832367  0.832367  1
  In  In17  1  0.832367  0.832367  0.502898  1
  In  In18  1  0.832367  0.502898  0.832367  1
  In  In19  1  0.502898  0.832367  0.832367  1
  Ni  Ni20  1  0.392475  0.392475  0.392475  1
  Ni  Ni21  1  0.392475  0.392475  0.822576  1
  Ni  Ni22  1  0.392475  0.822576  0.392475  1
  Ni  Ni23  1  0.822576  0.392475  0.392475  1
