# generated using pymatgen
data_Ho3Er7Si5As
_symmetry_space_group_name_H-M   'P 1'
_cell_length_a   8.36232005
_cell_length_b   8.37958466
_cell_length_c   6.26434900
_cell_angle_alpha   90.00000000
_cell_angle_beta   90.00000000
_cell_angle_gamma   119.94491636
_symmetry_Int_Tables_number   1
_chemical_formula_structural   Ho3Er7Si5As
_chemical_formula_sum   'Ho3 Er7 Si5 As1'
_cell_volume   380.36158356
_cell_formula_units_Z   1
loop_
 _symmetry_equiv_pos_site_id
 _symmetry_equiv_pos_as_xyz
  1  'x, y, z'
loop_
 _atom_site_type_symbol
 _atom_site_label
 _atom_site_symmetry_multiplicity
 _atom_site_fract_x
 _atom_site_fract_y
 _atom_site_fract_z
 _atom_site_occupancy
  Ho  Ho0  1  0.758643  0.999982  0.750000  1
  Ho  Ho1  1  0.242627  0.246080  0.750000  1
  Ho  Ho2  1  0.242702  0.999963  0.250000  1
  Er  Er3  1  0.996485  0.753862  0.750000  1
  Er  Er4  1  0.000192  0.243834  0.250000  1
  Er  Er5  1  0.756453  0.756227  0.250000  1
  Er  Er6  1  0.332964  0.663889  0.498819  1
  Er  Er7  1  0.669117  0.336142  0.001167  1
  Er  Er8  1  0.669117  0.336142  0.498833  1
  Er  Er9  1  0.332964  0.663889  0.001181  1
  Si  Si10  1  0.394088  0.393156  0.250000  1
  Si  Si11  1  0.000932  0.606824  0.250000  1
  Si  Si12  1  0.999795  0.394142  0.750000  1
  Si  Si13  1  0.605881  0.605985  0.750000  1
  Si  Si14  1  0.607032  0.999999  0.250000  1
  As  As15  1  0.391007  0.999884  0.750000  1
