# generated using pymatgen
data_AcCd3Pt
_symmetry_space_group_name_H-M   'P 1'
_cell_length_a   7.38604341
_cell_length_b   7.38604267
_cell_length_c   7.38604430
_cell_angle_alpha   145.63352400
_cell_angle_beta   145.63351842
_cell_angle_gamma   49.39142615
_symmetry_Int_Tables_number   1
_chemical_formula_structural   AcCd3Pt
_chemical_formula_sum   'Ac1 Cd3 Pt1'
_cell_volume   127.80398687
_cell_formula_units_Z   1
loop_
 _symmetry_equiv_pos_site_id
 _symmetry_equiv_pos_as_xyz
  1  'x, y, z'
loop_
 _atom_site_type_symbol
 _atom_site_label
 _atom_site_symmetry_multiplicity
 _atom_site_fract_x
 _atom_site_fract_y
 _atom_site_fract_z
 _atom_site_occupancy
  Ac  Ac0  1  0.224619  0.224619  0.000000  1
  Cd  Cd1  1  0.597149  0.597149  0.000000  1
  Cd  Cd2  1  0.947479  0.447479  0.500001  1
  Cd  Cd3  1  0.447479  0.947479  0.500001  1
  Pt  Pt4  1  0.802595  0.802595  0.000000  1
