# generated using pymatgen
data_Sb2ClF15
_symmetry_space_group_name_H-M   'P 1'
_cell_length_a   5.24920900
_cell_length_b   14.24278117
_cell_length_c   14.52238300
_cell_angle_alpha   90.00000000
_cell_angle_beta   90.00000000
_cell_angle_gamma   87.92499945
_symmetry_Int_Tables_number   1
_chemical_formula_structural   Sb2ClF15
_chemical_formula_sum   'Sb8 Cl4 F60'
_cell_volume   1085.02985223
_cell_formula_units_Z   4
loop_
 _symmetry_equiv_pos_site_id
 _symmetry_equiv_pos_as_xyz
  1  'x, y, z'
loop_
 _atom_site_type_symbol
 _atom_site_label
 _atom_site_symmetry_multiplicity
 _atom_site_fract_x
 _atom_site_fract_y
 _atom_site_fract_z
 _atom_site_occupancy
  Sb  Sb0  1  0.752307  0.984378  0.355992  1
  Sb  Sb1  1  0.247693  0.515622  0.855992  1
  Sb  Sb2  1  0.247693  0.015622  0.644008  1
  Sb  Sb3  1  0.752307  0.484378  0.144008  1
  Sb  Sb4  1  0.461449  0.150524  0.144935  1
  Sb  Sb5  1  0.538551  0.349476  0.644935  1
  Sb  Sb6  1  0.538551  0.849476  0.855065  1
  Sb  Sb7  1  0.461449  0.650524  0.355065  1
  Cl  Cl8  1  0.084902  0.315147  0.355201  1
  Cl  Cl9  1  0.915098  0.184853  0.855201  1
  Cl  Cl10  1  0.915098  0.684853  0.644799  1
  Cl  Cl11  1  0.084902  0.815147  0.144799  1
  F  F12  1  0.958552  0.390154  0.424618  1
  F  F13  1  0.041447  0.109846  0.924618  1
  F  F14  1  0.041447  0.609846  0.575382  1
  F  F15  1  0.958552  0.890154  0.075382  1
  F  F16  1  0.206037  0.244572  0.430029  1
  F  F17  1  0.793963  0.255428  0.930029  1
  F  F18  1  0.793963  0.755428  0.569971  1
  F  F19  1  0.206037  0.744572  0.069971  1
  F  F20  1  0.351677  0.375548  0.358426  1
  F  F21  1  0.648323  0.124452  0.858426  1
  F  F22  1  0.648323  0.624452  0.641574  1
  F  F23  1  0.351677  0.875548  0.141574  1
  F  F24  1  0.325057  0.733250  0.445793  1
  F  F25  1  0.674943  0.766750  0.945793  1
  F  F26  1  0.674943  0.266750  0.554207  1
  F  F27  1  0.325057  0.233250  0.054207  1
  F  F28  1  0.299534  0.717270  0.252919  1
  F  F29  1  0.700466  0.782730  0.752919  1
  F  F30  1  0.700466  0.282730  0.747081  1
  F  F31  1  0.299534  0.217270  0.247081  1
  F  F32  1  0.180235  0.571341  0.360218  1
  F  F33  1  0.819765  0.928659  0.860218  1
  F  F34  1  0.819765  0.428659  0.639782  1
  F  F35  1  0.180235  0.071341  0.139782  1
  F  F36  1  0.643701  0.572611  0.440317  1
  F  F37  1  0.356299  0.927389  0.940317  1
  F  F38  1  0.356299  0.427389  0.559683  1
  F  F39  1  0.643701  0.072611  0.059683  1
  F  F40  1  0.754050  0.721645  0.334569  1
  F  F41  1  0.245950  0.778355  0.834569  1
  F  F42  1  0.245950  0.278355  0.665431  1
  F  F43  1  0.754050  0.221645  0.165431  1
  F  F44  1  0.600413  0.561637  0.254671  1
  F  F45  1  0.399587  0.938363  0.754671  1
  F  F46  1  0.399587  0.438363  0.745329  1
  F  F47  1  0.600413  0.061637  0.245329  1
  F  F48  1  0.902026  0.406496  0.052483  1
  F  F49  1  0.097974  0.093504  0.552483  1
  F  F50  1  0.097974  0.593504  0.947517  1
  F  F51  1  0.902026  0.906496  0.447517  1
  F  F52  1  0.460187  0.412268  0.159421  1
  F  F53  1  0.539813  0.087732  0.659421  1
  F  F54  1  0.539813  0.587732  0.840579  1
  F  F55  1  0.460187  0.912268  0.340579  1
  F  F56  1  0.577863  0.572598  0.067578  1
  F  F57  1  0.422137  0.927402  0.567578  1
  F  F58  1  0.422137  0.427402  0.932422  1
  F  F59  1  0.577863  0.072598  0.432422  1
  F  F60  1  0.031073  0.563860  0.155017  1
  F  F61  1  0.968927  0.936140  0.655017  1
  F  F62  1  0.968927  0.436140  0.844983  1
  F  F63  1  0.031073  0.063860  0.344983  1
  F  F64  1  0.907580  0.410043  0.244144  1
  F  F65  1  0.092420  0.089957  0.744144  1
  F  F66  1  0.092420  0.589957  0.755856  1
  F  F67  1  0.907580  0.910043  0.255856  1
  F  F68  1  0.817105  0.755871  0.140264  1
  F  F69  1  0.182895  0.744129  0.640264  1
  F  F70  1  0.182895  0.244129  0.859736  1
  F  F71  1  0.817105  0.255871  0.359736  1
