# generated using pymatgen
data_DyEr5TcOs
_symmetry_space_group_name_H-M   'P 1'
_cell_length_a   6.24410900
_cell_length_b   7.37925500
_cell_length_c   8.98828300
_cell_angle_alpha   90.00000000
_cell_angle_beta   90.00000000
_cell_angle_gamma   90.00000000
_symmetry_Int_Tables_number   1
_chemical_formula_structural   DyEr5TcOs
_chemical_formula_sum   'Dy2 Er10 Tc2 Os2'
_cell_volume   414.15197031
_cell_formula_units_Z   2
loop_
 _symmetry_equiv_pos_site_id
 _symmetry_equiv_pos_as_xyz
  1  'x, y, z'
loop_
 _atom_site_type_symbol
 _atom_site_label
 _atom_site_symmetry_multiplicity
 _atom_site_fract_x
 _atom_site_fract_y
 _atom_site_fract_z
 _atom_site_occupancy
  Dy  Dy0  1  0.876367  0.539244  0.250000  1
  Dy  Dy1  1  0.623633  0.039244  0.250000  1
  Er  Er2  1  0.337276  0.674760  0.061943  1
  Er  Er3  1  0.162724  0.174760  0.438057  1
  Er  Er4  1  0.664503  0.324941  0.563329  1
  Er  Er5  1  0.835497  0.824941  0.936671  1
  Er  Er6  1  0.664503  0.324941  0.936671  1
  Er  Er7  1  0.835497  0.824941  0.563329  1
  Er  Er8  1  0.337276  0.674760  0.438057  1
  Er  Er9  1  0.162724  0.174760  0.061943  1
  Er  Er10  1  0.129589  0.459513  0.750000  1
  Er  Er11  1  0.370411  0.959513  0.750000  1
  Tc  Tc12  1  0.039509  0.883844  0.250000  1
  Tc  Tc13  1  0.460491  0.383844  0.250000  1
  Os  Os14  1  0.959633  0.117997  0.750000  1
  Os  Os15  1  0.540367  0.617997  0.750000  1
