# generated using pymatgen
data_Er4B16IrRhW2
_symmetry_space_group_name_H-M   'P 1'
_cell_length_a   3.58095200
_cell_length_b   5.98549660
_cell_length_c   11.59115657
_cell_angle_alpha   89.68916483
_cell_angle_beta   90.00000000
_cell_angle_gamma   90.00000000
_symmetry_Int_Tables_number   1
_chemical_formula_structural   Er4B16IrRhW2
_chemical_formula_sum   'Er4 B16 Ir1 Rh1 W2'
_cell_volume   248.43859782
_cell_formula_units_Z   1
loop_
 _symmetry_equiv_pos_site_id
 _symmetry_equiv_pos_as_xyz
  1  'x, y, z'
loop_
 _atom_site_type_symbol
 _atom_site_label
 _atom_site_symmetry_multiplicity
 _atom_site_fract_x
 _atom_site_fract_y
 _atom_site_fract_z
 _atom_site_occupancy
  Er  Er0  1  0.000000  0.627666  0.349548  1
  Er  Er1  1  0.000000  0.372328  0.650098  1
  Er  Er2  1  0.000000  0.128991  0.148011  1
  Er  Er3  1  0.000000  0.870739  0.851985  1
  B  B4  1  0.500000  0.788719  0.185751  1
  B  B5  1  0.500000  0.211018  0.814131  1
  B  B6  1  0.500000  0.291044  0.311450  1
  B  B7  1  0.500000  0.708964  0.688451  1
  B  B8  1  0.500000  0.864749  0.030981  1
  B  B9  1  0.500000  0.135020  0.969319  1
  B  B10  1  0.500000  0.367728  0.467605  1
  B  B11  1  0.500000  0.632217  0.532314  1
  B  B12  1  0.500000  0.884941  0.453052  1
  B  B13  1  0.500000  0.114999  0.546904  1
  B  B14  1  0.500000  0.386336  0.046782  1
  B  B15  1  0.500000  0.613176  0.952794  1
  B  B16  1  0.500000  0.975375  0.305355  1
  B  B17  1  0.500000  0.024285  0.694596  1
  B  B18  1  0.500000  0.475915  0.191450  1
  B  B19  1  0.500000  0.524594  0.808670  1
  Ir  Ir20  1  0.000000  0.356820  0.906018  1
  Rh  Rh21  1  0.000000  0.644308  0.094364  1
  W  W22  1  0.000000  0.129983  0.413366  1
  W  W23  1  0.000000  0.870086  0.587004  1
