# generated using pymatgen
data_V12IrPt3
_symmetry_space_group_name_H-M   'P 1'
_cell_length_a   4.80525700
_cell_length_b   4.81475700
_cell_length_c   9.61432300
_cell_angle_alpha   90.00000000
_cell_angle_beta   90.00000000
_cell_angle_gamma   90.00000000
_symmetry_Int_Tables_number   1
_chemical_formula_structural   V12IrPt3
_chemical_formula_sum   'V12 Ir1 Pt3'
_cell_volume   222.43836887
_cell_formula_units_Z   1
loop_
 _symmetry_equiv_pos_site_id
 _symmetry_equiv_pos_as_xyz
  1  'x, y, z'
loop_
 _atom_site_type_symbol
 _atom_site_label
 _atom_site_symmetry_multiplicity
 _atom_site_fract_x
 _atom_site_fract_y
 _atom_site_fract_z
 _atom_site_occupancy
  V  V0  1  0.500000  0.000000  0.623441  1
  V  V1  1  0.500000  0.000000  0.124886  1
  V  V2  1  0.748644  0.500000  0.252922  1
  V  V3  1  0.748644  0.500000  0.747078  1
  V  V4  1  0.000000  0.749742  0.500000  1
  V  V5  1  0.000000  0.750720  0.000000  1
  V  V6  1  0.500000  0.000000  0.376559  1
  V  V7  1  0.500000  0.000000  0.875114  1
  V  V8  1  0.251356  0.500000  0.252922  1
  V  V9  1  0.251356  0.500000  0.747078  1
  V  V10  1  0.000000  0.250258  0.500000  1
  V  V11  1  0.000000  0.249280  0.000000  1
  Ir  Ir12  1  0.500000  0.500000  0.500000  1
  Pt  Pt13  1  0.500000  0.500000  0.000000  1
  Pt  Pt14  1  0.000000  0.000000  0.249331  1
  Pt  Pt15  1  0.000000  0.000000  0.750669  1
