# generated using pymatgen
data_TaNb3VSi3
_symmetry_space_group_name_H-M   'P 1'
_cell_length_a   7.52508274
_cell_length_b   7.52508223
_cell_length_c   7.52244295
_cell_angle_alpha   129.03184763
_cell_angle_beta   129.03184613
_cell_angle_gamma   74.98555806
_symmetry_Int_Tables_number   1
_chemical_formula_structural   TaNb3VSi3
_chemical_formula_sum   'Ta2 Nb6 V2 Si6'
_cell_volume   250.27206276
_cell_formula_units_Z   2
loop_
 _symmetry_equiv_pos_site_id
 _symmetry_equiv_pos_as_xyz
  1  'x, y, z'
loop_
 _atom_site_type_symbol
 _atom_site_label
 _atom_site_symmetry_multiplicity
 _atom_site_fract_x
 _atom_site_fract_y
 _atom_site_fract_z
 _atom_site_occupancy
  Ta  Ta0  1  0.483334  0.315606  0.500000  1
  Ta  Ta1  1  0.815606  0.983334  0.500000  1
  Nb  Nb2  1  0.017285  0.517285  0.833527  1
  Nb  Nb3  1  0.683758  0.183758  0.166473  1
  Nb  Nb4  1  0.518658  0.683946  0.500000  1
  Nb  Nb5  1  0.183946  0.018658  0.500000  1
  Nb  Nb6  1  0.981535  0.481535  0.165909  1
  Nb  Nb7  1  0.315626  0.815626  0.834091  1
  V  V8  1  0.000732  0.000732  0.000000  1
  V  V9  1  0.500732  0.500732  0.000000  1
  Si  Si10  1  0.749735  0.749735  0.000000  1
  Si  Si11  1  0.249735  0.249735  0.000000  1
  Si  Si12  1  0.632026  0.132026  0.764516  1
  Si  Si13  1  0.367508  0.867508  0.235484  1
  Si  Si14  1  0.132212  0.367573  0.500000  1
  Si  Si15  1  0.867573  0.632212  0.500000  1
