# generated using pymatgen
data_Pr3Be2Pt7
_symmetry_space_group_name_H-M   'P 1'
_cell_length_a   8.70248604
_cell_length_b   8.70248623
_cell_length_c   8.70248708
_cell_angle_alpha   37.08648843
_cell_angle_beta   37.08649847
_cell_angle_gamma   37.08648718
_symmetry_Int_Tables_number   1
_chemical_formula_structural   Pr3Be2Pt7
_chemical_formula_sum   'Pr3 Be2 Pt7'
_cell_volume   214.77136787
_cell_formula_units_Z   1
loop_
 _symmetry_equiv_pos_site_id
 _symmetry_equiv_pos_as_xyz
  1  'x, y, z'
loop_
 _atom_site_type_symbol
 _atom_site_label
 _atom_site_symmetry_multiplicity
 _atom_site_fract_x
 _atom_site_fract_y
 _atom_site_fract_z
 _atom_site_occupancy
  Pr  Pr0  1  0.858381  0.858381  0.858381  1
  Pr  Pr1  1  0.141619  0.141619  0.141619  1
  Pr  Pr2  1  0.000000  0.000000  0.000000  1
  Be  Be3  1  0.667176  0.667176  0.667176  1
  Be  Be4  1  0.332824  0.332824  0.332824  1
  Pt  Pt5  1  0.428764  0.927993  0.428764  1
  Pt  Pt6  1  0.428764  0.428764  0.927993  1
  Pt  Pt7  1  0.927993  0.428764  0.428764  1
  Pt  Pt8  1  0.571236  0.072007  0.571236  1
  Pt  Pt9  1  0.571236  0.571236  0.072007  1
  Pt  Pt10  1  0.072007  0.571236  0.571236  1
  Pt  Pt11  1  0.500000  0.500000  0.500000  1
