# generated using pymatgen
data_CaHoMgRuO6
_symmetry_space_group_name_H-M   'P 1'
_cell_length_a   5.65402800
_cell_length_b   5.37556387
_cell_length_c   9.41203887
_cell_angle_alpha   55.18248510
_cell_angle_beta   90.00000000
_cell_angle_gamma   90.00000000
_symmetry_Int_Tables_number   1
_chemical_formula_structural   CaHoMgRuO6
_chemical_formula_sum   'Ca2 Ho2 Mg2 Ru2 O12'
_cell_volume   234.85265333
_cell_formula_units_Z   2
loop_
 _symmetry_equiv_pos_site_id
 _symmetry_equiv_pos_as_xyz
  1  'x, y, z'
loop_
 _atom_site_type_symbol
 _atom_site_label
 _atom_site_symmetry_multiplicity
 _atom_site_fract_x
 _atom_site_fract_y
 _atom_site_fract_z
 _atom_site_occupancy
  Ca  Ca0  1  0.190423  0.235424  0.250266  1
  Ca  Ca1  1  0.809577  0.235424  0.750266  1
  Ho  Ho2  1  0.320080  0.769249  0.752710  1
  Ho  Ho3  1  0.679920  0.769249  0.252710  1
  Mg  Mg4  1  0.756673  0.501051  0.000517  1
  Mg  Mg5  1  0.243327  0.501051  0.500517  1
  Ru  Ru6  1  0.752976  0.000339  0.500254  1
  Ru  Ru7  1  0.247024  0.000339  0.000254  1
  O  O8  1  0.051132  0.119024  0.559886  1
  O  O9  1  0.948868  0.119024  0.059886  1
  O  O10  1  0.466927  0.861311  0.440930  1
  O  O11  1  0.533073  0.861311  0.940930  1
  O  O12  1  0.787009  0.363821  0.256791  1
  O  O13  1  0.212991  0.363821  0.756791  1
  O  O14  1  0.708113  0.658033  0.743449  1
  O  O15  1  0.291887  0.658033  0.243449  1
  O  O16  1  0.936930  0.753828  0.443141  1
  O  O17  1  0.063070  0.753828  0.943141  1
  O  O18  1  0.549064  0.237921  0.552059  1
  O  O19  1  0.450936  0.237921  0.052059  1
