# generated using pymatgen
data_Rb12Na8Si3GeP12
_symmetry_space_group_name_H-M   'P 1'
_cell_length_a   10.48439418
_cell_length_b   10.48439409
_cell_length_c   15.29085359
_cell_angle_alpha   89.97478718
_cell_angle_beta   89.97478678
_cell_angle_gamma   142.61053325
_symmetry_Int_Tables_number   1
_chemical_formula_structural   Rb12Na8Si3GeP12
_chemical_formula_sum   'Rb12 Na8 Si3 Ge1 P12'
_cell_volume   1020.63642609
_cell_formula_units_Z   1
loop_
 _symmetry_equiv_pos_site_id
 _symmetry_equiv_pos_as_xyz
  1  'x, y, z'
loop_
 _atom_site_type_symbol
 _atom_site_label
 _atom_site_symmetry_multiplicity
 _atom_site_fract_x
 _atom_site_fract_y
 _atom_site_fract_z
 _atom_site_occupancy
  Rb  Rb0  1  0.938200  0.607853  0.826729  1
  Rb  Rb1  1  0.561967  0.891916  0.327377  1
  Rb  Rb2  1  0.392147  0.061800  0.173271  1
  Rb  Rb3  1  0.061497  0.391773  0.172996  1
  Rb  Rb4  1  0.891979  0.561919  0.327855  1
  Rb  Rb5  1  0.438081  0.108021  0.672145  1
  Rb  Rb6  1  0.608227  0.938503  0.827004  1
  Rb  Rb7  1  0.265869  0.266053  0.319415  1
  Rb  Rb8  1  0.765796  0.765862  0.181016  1
  Rb  Rb9  1  0.234138  0.234204  0.818984  1
  Rb  Rb10  1  0.733947  0.734131  0.680585  1
  Rb  Rb11  1  0.108084  0.438033  0.672623  1
  Na  Na12  1  0.920988  0.079012  0.000000  1
  Na  Na13  1  0.578520  0.421480  0.500000  1
  Na  Na14  1  0.078491  0.921509  0.000000  1
  Na  Na15  1  0.421456  0.578544  0.500000  1
  Na  Na16  1  0.756143  0.243857  0.000000  1
  Na  Na17  1  0.744207  0.255793  0.500000  1
  Na  Na18  1  0.244602  0.755398  0.000000  1
  Na  Na19  1  0.255787  0.744213  0.500000  1
  Si  Si20  1  0.916009  0.083991  0.500000  1
  Si  Si21  1  0.414914  0.585086  0.000000  1
  Si  Si22  1  0.083962  0.916038  0.500000  1
  Ge  Ge23  1  0.584975  0.415025  0.000000  1
  P  P24  1  0.858759  0.551746  0.094186  1
  P  P25  1  0.448254  0.141241  0.905814  1
  P  P26  1  0.652429  0.953223  0.590019  1
  P  P27  1  0.953139  0.652388  0.590104  1
  P  P28  1  0.152290  0.453562  0.909691  1
  P  P29  1  0.546438  0.847710  0.090309  1
  P  P30  1  0.347612  0.046861  0.409896  1
  P  P31  1  0.178082  0.178107  0.577517  1
  P  P32  1  0.679602  0.685264  0.920147  1
  P  P33  1  0.314736  0.320398  0.079853  1
  P  P34  1  0.046777  0.347571  0.409981  1
  P  P35  1  0.821893  0.821918  0.422483  1
