# generated using pymatgen
data_DyHoU2(CoB4)4
_symmetry_space_group_name_H-M   'P 1'
_cell_length_a   3.36874500
_cell_length_b   5.90643453
_cell_length_c   11.43340437
_cell_angle_alpha   90.03837945
_cell_angle_beta   90.00000000
_cell_angle_gamma   90.00000000
_symmetry_Int_Tables_number   1
_chemical_formula_structural   DyHoU2(CoB4)4
_chemical_formula_sum   'Dy1 Ho1 U2 Co4 B16'
_cell_volume   227.49350338
_cell_formula_units_Z   1
loop_
 _symmetry_equiv_pos_site_id
 _symmetry_equiv_pos_as_xyz
  1  'x, y, z'
loop_
 _atom_site_type_symbol
 _atom_site_label
 _atom_site_symmetry_multiplicity
 _atom_site_fract_x
 _atom_site_fract_y
 _atom_site_fract_z
 _atom_site_occupancy
  Dy  Dy0  1  0.000000  0.372323  0.649085  1
  Ho  Ho1  1  0.000000  0.627696  0.351008  1
  U  U2  1  0.000000  0.126927  0.150368  1
  U  U3  1  0.000000  0.872883  0.849552  1
  Co  Co4  1  0.000000  0.633505  0.089047  1
  Co  Co5  1  0.000000  0.366497  0.911021  1
  Co  Co6  1  0.000000  0.133524  0.409857  1
  Co  Co7  1  0.000000  0.866551  0.590133  1
  B  B8  1  0.500000  0.783613  0.185174  1
  B  B9  1  0.500000  0.216024  0.814868  1
  B  B10  1  0.500000  0.282199  0.314531  1
  B  B11  1  0.500000  0.717898  0.685563  1
  B  B12  1  0.500000  0.864252  0.033842  1
  B  B13  1  0.500000  0.135603  0.965981  1
  B  B14  1  0.500000  0.361237  0.466936  1
  B  B15  1  0.500000  0.638832  0.533016  1
  B  B16  1  0.500000  0.887744  0.454343  1
  B  B17  1  0.500000  0.112136  0.545650  1
  B  B18  1  0.500000  0.386799  0.046050  1
  B  B19  1  0.500000  0.613592  0.953772  1
  B  B20  1  0.500000  0.976706  0.309507  1
  B  B21  1  0.500000  0.023125  0.690632  1
  B  B22  1  0.500000  0.477094  0.190675  1
  B  B23  1  0.500000  0.523238  0.809388  1
