# generated using pymatgen
data_Dy5Lu5Sn5Sb
_symmetry_space_group_name_H-M   'P 1'
_cell_length_a   8.85465276
_cell_length_b   8.87566917
_cell_length_c   6.42043800
_cell_angle_alpha   90.00000000
_cell_angle_beta   90.00000000
_cell_angle_gamma   119.67497641
_symmetry_Int_Tables_number   1
_chemical_formula_structural   Dy5Lu5Sn5Sb
_chemical_formula_sum   'Dy5 Lu5 Sn5 Sb1'
_cell_volume   438.41056681
_cell_formula_units_Z   1
loop_
 _symmetry_equiv_pos_site_id
 _symmetry_equiv_pos_as_xyz
  1  'x, y, z'
loop_
 _atom_site_type_symbol
 _atom_site_label
 _atom_site_symmetry_multiplicity
 _atom_site_fract_x
 _atom_site_fract_y
 _atom_site_fract_z
 _atom_site_occupancy
  Dy  Dy0  1  0.759533  0.758617  0.750000  1
  Dy  Dy1  1  0.235129  0.995734  0.750000  1
  Dy  Dy2  1  0.996236  0.237712  0.750000  1
  Dy  Dy3  1  0.241534  0.241624  0.250000  1
  Dy  Dy4  1  0.763438  0.001784  0.250000  1
  Lu  Lu5  1  0.667852  0.331898  0.000892  1
  Lu  Lu6  1  0.333160  0.668968  0.000969  1
  Lu  Lu7  1  0.333160  0.668968  0.499031  1
  Lu  Lu8  1  0.667852  0.331898  0.499108  1
  Lu  Lu9  1  0.001842  0.762818  0.250000  1
  Sn  Sn10  1  0.602397  0.999939  0.750000  1
  Sn  Sn11  1  0.000128  0.601789  0.750000  1
  Sn  Sn12  1  0.609727  0.607697  0.250000  1
  Sn  Sn13  1  0.395035  0.999669  0.250000  1
  Sn  Sn14  1  0.001664  0.399700  0.250000  1
  Sb  Sb15  1  0.391311  0.391183  0.750000  1
