# generated using pymatgen
data_Sn2As2Pb
_symmetry_space_group_name_H-M   'P 1'
_cell_length_a   9.00717013
_cell_length_b   9.00717027
_cell_length_c   9.00716907
_cell_angle_alpha   27.60853684
_cell_angle_beta   27.60853646
_cell_angle_gamma   27.60853802
_symmetry_Int_Tables_number   1
_chemical_formula_structural   Sn2As2Pb
_chemical_formula_sum   'Sn2 As2 Pb1'
_cell_volume   138.53986385
_cell_formula_units_Z   1
loop_
 _symmetry_equiv_pos_site_id
 _symmetry_equiv_pos_as_xyz
  1  'x, y, z'
loop_
 _atom_site_type_symbol
 _atom_site_label
 _atom_site_symmetry_multiplicity
 _atom_site_fract_x
 _atom_site_fract_y
 _atom_site_fract_z
 _atom_site_occupancy
  Sn  Sn0  1  0.210799  0.210799  0.210799  1
  Sn  Sn1  1  0.789201  0.789201  0.789201  1
  As  As2  1  0.595160  0.595160  0.595160  1
  As  As3  1  0.404840  0.404840  0.404840  1
  Pb  Pb4  1  0.000000  0.000000  0.000000  1
