# generated using pymatgen
data_CrCl30
_symmetry_space_group_name_H-M   'P 1'
_cell_length_a   13.49096554
_cell_length_b   13.49096577
_cell_length_c   15.86197411
_cell_angle_alpha   83.85702538
_cell_angle_beta   83.85702351
_cell_angle_gamma   124.63536745
_symmetry_Int_Tables_number   1
_chemical_formula_structural   CrCl30
_chemical_formula_sum   'Cr1 Cl30'
_cell_volume   2311.48896141
_cell_formula_units_Z   1
loop_
 _symmetry_equiv_pos_site_id
 _symmetry_equiv_pos_as_xyz
  1  'x, y, z'
loop_
 _atom_site_type_symbol
 _atom_site_label
 _atom_site_symmetry_multiplicity
 _atom_site_fract_x
 _atom_site_fract_y
 _atom_site_fract_z
 _atom_site_occupancy
  Cr  Cr0  1  0.000000  0.000000  0.000000  1
  Cl  Cl1  1  0.946580  0.946580  0.150158  1
  Cl  Cl2  1  0.053420  0.053420  0.849842  1
  Cl  Cl3  1  0.057039  0.188356  0.005184  1
  Cl  Cl4  1  0.942961  0.811644  0.994816  1
  Cl  Cl5  1  0.188356  0.057039  0.005184  1
  Cl  Cl6  1  0.811644  0.942961  0.994816  1
  Cl  Cl7  1  0.203627  0.742473  0.064521  1
  Cl  Cl8  1  0.796373  0.257527  0.935479  1
  Cl  Cl9  1  0.700700  0.077217  0.262516  1
  Cl  Cl10  1  0.257527  0.796373  0.935479  1
  Cl  Cl11  1  0.299300  0.922783  0.737484  1
  Cl  Cl12  1  0.742473  0.203627  0.064521  1
  Cl  Cl13  1  0.978628  0.196149  0.782253  1
  Cl  Cl14  1  0.922783  0.299300  0.737484  1
  Cl  Cl15  1  0.021372  0.803851  0.217747  1
  Cl  Cl16  1  0.077217  0.700700  0.262516  1
  Cl  Cl17  1  0.803851  0.021372  0.217747  1
  Cl  Cl18  1  0.196149  0.978628  0.782253  1
  Cl  Cl19  1  0.464148  0.547475  0.259365  1
  Cl  Cl20  1  0.535852  0.452525  0.740635  1
  Cl  Cl21  1  0.508215  0.205602  0.450509  1
  Cl  Cl22  1  0.452525  0.535852  0.740635  1
  Cl  Cl23  1  0.491785  0.794398  0.549491  1
  Cl  Cl24  1  0.547475  0.464148  0.259365  1
  Cl  Cl25  1  0.240208  0.428764  0.544387  1
  Cl  Cl26  1  0.794398  0.491785  0.549491  1
  Cl  Cl27  1  0.759792  0.571236  0.455613  1
  Cl  Cl28  1  0.205602  0.508215  0.450509  1
  Cl  Cl29  1  0.571236  0.759792  0.455613  1
  Cl  Cl30  1  0.428764  0.240208  0.544387  1
