# generated using pymatgen
data_Th2InPtAu
_symmetry_space_group_name_H-M   'P 1'
_cell_length_a   8.04026200
_cell_length_b   8.04605000
_cell_length_c   3.89474100
_cell_angle_alpha   90.00000000
_cell_angle_beta   90.00000000
_cell_angle_gamma   90.00000000
_symmetry_Int_Tables_number   1
_chemical_formula_structural   Th2InPtAu
_chemical_formula_sum   'Th4 In2 Pt2 Au2'
_cell_volume   251.95994818
_cell_formula_units_Z   2
loop_
 _symmetry_equiv_pos_site_id
 _symmetry_equiv_pos_as_xyz
  1  'x, y, z'
loop_
 _atom_site_type_symbol
 _atom_site_label
 _atom_site_symmetry_multiplicity
 _atom_site_fract_x
 _atom_site_fract_y
 _atom_site_fract_z
 _atom_site_occupancy
  Th  Th0  1  0.661411  0.175380  0.500000  1
  Th  Th1  1  0.185190  0.324835  0.500000  1
  Th  Th2  1  0.314810  0.824835  0.500000  1
  Th  Th3  1  0.838589  0.675380  0.500000  1
  In  In4  1  0.000024  0.004320  0.000000  1
  In  In5  1  0.499976  0.504320  0.000000  1
  Pt  Pt6  1  0.127432  0.626753  0.000000  1
  Pt  Pt7  1  0.372568  0.126753  0.000000  1
  Au  Au8  1  0.873008  0.368711  0.000000  1
  Au  Au9  1  0.626992  0.868711  0.000000  1
