# generated using pymatgen
data_LiHo3Co5(P2Ir)3
_symmetry_space_group_name_H-M   'P 1'
_cell_length_a   3.80642700
_cell_length_b   10.80046300
_cell_length_c   12.48778300
_cell_angle_alpha   90.00000000
_cell_angle_beta   90.00000000
_cell_angle_gamma   90.00000000
_symmetry_Int_Tables_number   1
_chemical_formula_structural   LiHo3Co5(P2Ir)3
_chemical_formula_sum   'Li2 Ho6 Co10 P12 Ir6'
_cell_volume   513.38741948
_cell_formula_units_Z   2
loop_
 _symmetry_equiv_pos_site_id
 _symmetry_equiv_pos_as_xyz
  1  'x, y, z'
loop_
 _atom_site_type_symbol
 _atom_site_label
 _atom_site_symmetry_multiplicity
 _atom_site_fract_x
 _atom_site_fract_y
 _atom_site_fract_z
 _atom_site_occupancy
  Li  Li0  1  0.500000  0.500000  0.149004  1
  Li  Li1  1  0.000000  0.000000  0.850996  1
  Ho  Ho2  1  0.000000  0.500000  0.519600  1
  Ho  Ho3  1  0.500000  0.000000  0.480400  1
  Ho  Ho4  1  0.500000  0.817731  0.196650  1
  Ho  Ho5  1  0.500000  0.182269  0.196650  1
  Ho  Ho6  1  0.000000  0.682269  0.803350  1
  Ho  Ho7  1  0.000000  0.317731  0.803350  1
  Co  Co8  1  0.000000  0.500000  0.989996  1
  Co  Co9  1  0.500000  0.000000  0.010004  1
  Co  Co10  1  0.500000  0.879051  0.713042  1
  Co  Co11  1  0.500000  0.120949  0.713042  1
  Co  Co12  1  0.000000  0.620949  0.286958  1
  Co  Co13  1  0.000000  0.379051  0.286958  1
  Co  Co14  1  0.500000  0.331612  0.998066  1
  Co  Co15  1  0.500000  0.668388  0.998066  1
  Co  Co16  1  0.000000  0.168388  0.001934  1
  Co  Co17  1  0.000000  0.831612  0.001934  1
  P  P18  1  0.500000  0.307535  0.625085  1
  P  P19  1  0.500000  0.692465  0.625085  1
  P  P20  1  0.000000  0.192465  0.374915  1
  P  P21  1  0.000000  0.807535  0.374915  1
  P  P22  1  0.500000  0.500000  0.895995  1
  P  P23  1  0.000000  0.000000  0.104005  1
  P  P24  1  0.500000  0.842963  0.894689  1
  P  P25  1  0.500000  0.157037  0.894689  1
  P  P26  1  0.000000  0.657037  0.105311  1
  P  P27  1  0.000000  0.342963  0.105311  1
  P  P28  1  0.500000  0.500000  0.337931  1
  P  P29  1  0.000000  0.000000  0.662069  1
  Ir  Ir30  1  0.500000  0.298555  0.426746  1
  Ir  Ir31  1  0.500000  0.701445  0.426746  1
  Ir  Ir32  1  0.000000  0.201445  0.573254  1
  Ir  Ir33  1  0.000000  0.798555  0.573254  1
  Ir  Ir34  1  0.500000  0.500000  0.708311  1
  Ir  Ir35  1  0.000000  0.000000  0.291689  1
