# generated using pymatgen
data_Na3Ca3(Fe3N5)2
_symmetry_space_group_name_H-M   'P 1'
_cell_length_a   5.42226904
_cell_length_b   6.83206233
_cell_length_c   8.20243958
_cell_angle_alpha   108.48398264
_cell_angle_beta   102.82911031
_cell_angle_gamma   94.87216132
_symmetry_Int_Tables_number   1
_chemical_formula_structural   Na3Ca3(Fe3N5)2
_chemical_formula_sum   'Na3 Ca3 Fe6 N10'
_cell_volume   276.99968505
_cell_formula_units_Z   1
loop_
 _symmetry_equiv_pos_site_id
 _symmetry_equiv_pos_as_xyz
  1  'x, y, z'
loop_
 _atom_site_type_symbol
 _atom_site_label
 _atom_site_symmetry_multiplicity
 _atom_site_fract_x
 _atom_site_fract_y
 _atom_site_fract_z
 _atom_site_occupancy
  Na  Na0  1  0.801531  0.425554  0.606697  1
  Na  Na1  1  0.191705  0.582440  0.394081  1
  Na  Na2  1  0.659887  0.854558  0.872903  1
  Ca  Ca3  1  0.339854  0.133818  0.119848  1
  Ca  Ca4  1  0.660454  0.664249  0.207637  1
  Ca  Ca5  1  0.332533  0.347578  0.788686  1
  Fe  Fe6  1  0.908009  0.317521  0.974493  1
  Fe  Fe7  1  0.085336  0.677863  0.025311  1
  Fe  Fe8  1  0.688702  0.955913  0.573669  1
  Fe  Fe9  1  0.315677  0.043933  0.431137  1
  Fe  Fe10  1  0.102165  0.886745  0.706463  1
  Fe  Fe11  1  0.901474  0.115063  0.297844  1
  N  N12  1  0.941069  0.122804  0.778789  1
  N  N13  1  0.067146  0.878755  0.223809  1
  N  N14  1  0.827515  0.725249  0.523763  1
  N  N15  1  0.179902  0.279067  0.471713  1
  N  N16  1  0.752827  0.528206  0.917994  1
  N  N17  1  0.247206  0.463282  0.083993  1
  N  N18  1  0.368541  0.947916  0.618402  1
  N  N19  1  0.633055  0.054462  0.382385  1
  N  N20  1  0.191337  0.774510  0.875814  1
  N  N21  1  0.804074  0.220514  0.124570  1
