# generated using pymatgen
data_Pr3TlSnRh3Pb
_symmetry_space_group_name_H-M   'P 1'
_cell_length_a   7.75413253
_cell_length_b   7.71922135
_cell_length_c   4.10223300
_cell_angle_alpha   90.00000000
_cell_angle_beta   90.00000000
_cell_angle_gamma   120.03714554
_symmetry_Int_Tables_number   1
_chemical_formula_structural   Pr3TlSnRh3Pb
_chemical_formula_sum   'Pr3 Tl1 Sn1 Rh3 Pb1'
_cell_volume   212.56658242
_cell_formula_units_Z   1
loop_
 _symmetry_equiv_pos_site_id
 _symmetry_equiv_pos_as_xyz
  1  'x, y, z'
loop_
 _atom_site_type_symbol
 _atom_site_label
 _atom_site_symmetry_multiplicity
 _atom_site_fract_x
 _atom_site_fract_y
 _atom_site_fract_z
 _atom_site_occupancy
  Pr  Pr0  1  0.591933  0.002968  0.500000  1
  Pr  Pr1  1  0.404845  0.408035  0.500000  1
  Pr  Pr2  1  0.999836  0.587237  0.500000  1
  Tl  Tl3  1  0.256332  0.999656  0.000000  1
  Sn  Sn4  1  0.000183  0.254179  0.000000  1
  Rh  Rh5  1  0.995910  0.015129  0.500000  1
  Rh  Rh6  1  0.326983  0.653940  0.000000  1
  Rh  Rh7  1  0.677740  0.333163  0.000000  1
  Pb  Pb8  1  0.746237  0.745690  0.000000  1
