# generated using pymatgen
data_Er13Tm7(Bi2Ir)4
_symmetry_space_group_name_H-M   'P 1'
_cell_length_a   7.91222781
_cell_length_b   8.97742729
_cell_length_c   12.45671701
_cell_angle_alpha   89.99235982
_cell_angle_beta   90.02508454
_cell_angle_gamma   90.01022340
_symmetry_Int_Tables_number   1
_chemical_formula_structural   Er13Tm7(Bi2Ir)4
_chemical_formula_sum   'Er13 Tm7 Bi8 Ir4'
_cell_volume   884.81856265
_cell_formula_units_Z   1
loop_
 _symmetry_equiv_pos_site_id
 _symmetry_equiv_pos_as_xyz
  1  'x, y, z'
loop_
 _atom_site_type_symbol
 _atom_site_label
 _atom_site_symmetry_multiplicity
 _atom_site_fract_x
 _atom_site_fract_y
 _atom_site_fract_z
 _atom_site_occupancy
  Er  Er0  1  0.658458  0.749853  0.705448  1
  Er  Er1  1  0.341499  0.250076  0.294486  1
  Er  Er2  1  0.158279  0.249980  0.794685  1
  Er  Er3  1  0.841615  0.750059  0.205451  1
  Er  Er4  1  0.124791  0.750161  0.809636  1
  Er  Er5  1  0.875351  0.249882  0.190494  1
  Er  Er6  1  0.625013  0.250252  0.690500  1
  Er  Er7  1  0.375642  0.749671  0.309369  1
  Er  Er8  1  0.554833  0.749958  0.998160  1
  Er  Er9  1  0.445127  0.249990  0.001815  1
  Er  Er10  1  0.054156  0.250381  0.501782  1
  Er  Er11  1  0.944878  0.749746  0.498191  1
  Er  Er12  1  0.324203  0.959572  0.566080  1
  Tm  Tm13  1  0.825507  0.459557  0.933963  1
  Tm  Tm14  1  0.174594  0.540443  0.066156  1
  Tm  Tm15  1  0.325525  0.540518  0.565992  1
  Tm  Tm16  1  0.174619  0.959523  0.066154  1
  Tm  Tm17  1  0.674559  0.459277  0.433678  1
  Tm  Tm18  1  0.825443  0.040409  0.934000  1
  Tm  Tm19  1  0.674604  0.040528  0.433820  1
  Bi  Bi20  1  0.933580  0.008112  0.672875  1
  Bi  Bi21  1  0.066114  0.991945  0.327456  1
  Bi  Bi22  1  0.434381  0.992103  0.827308  1
  Bi  Bi23  1  0.065884  0.508038  0.327219  1
  Bi  Bi24  1  0.565823  0.008031  0.172694  1
  Bi  Bi25  1  0.934351  0.492098  0.672866  1
  Bi  Bi26  1  0.566008  0.491883  0.172586  1
  Bi  Bi27  1  0.434199  0.507964  0.827256  1
  Ir  Ir28  1  0.931863  0.749995  0.992159  1
  Ir  Ir29  1  0.068251  0.249972  0.007985  1
  Ir  Ir30  1  0.432023  0.250305  0.507863  1
  Ir  Ir31  1  0.568826  0.749715  0.491878  1
