# generated using pymatgen
data_La2NdTh(Re2Si)8
_symmetry_space_group_name_H-M   'P 1'
_cell_length_a   4.17917700
_cell_length_b   7.34911866
_cell_length_c   15.65146065
_cell_angle_alpha   89.99668084
_cell_angle_beta   90.00000000
_cell_angle_gamma   90.00000000
_symmetry_Int_Tables_number   1
_chemical_formula_structural   La2NdTh(Re2Si)8
_chemical_formula_sum   'La2 Nd1 Th1 Re16 Si8'
_cell_volume   480.70749964
_cell_formula_units_Z   1
loop_
 _symmetry_equiv_pos_site_id
 _symmetry_equiv_pos_as_xyz
  1  'x, y, z'
loop_
 _atom_site_type_symbol
 _atom_site_label
 _atom_site_symmetry_multiplicity
 _atom_site_fract_x
 _atom_site_fract_y
 _atom_site_fract_z
 _atom_site_occupancy
  La  La0  1  0.500000  0.080015  0.381319  1
  La  La1  1  0.500000  0.918127  0.617317  1
  Nd  Nd2  1  0.000000  0.581127  0.118022  1
  Th  Th3  1  0.000000  0.418635  0.882778  1
  Re  Re4  1  0.000000  0.141989  0.051234  1
  Re  Re5  1  0.000000  0.863110  0.948928  1
  Re  Re6  1  0.500000  0.634430  0.447331  1
  Re  Re7  1  0.500000  0.363410  0.552854  1
  Re  Re8  1  0.000000  0.733152  0.318947  1
  Re  Re9  1  0.000000  0.266376  0.680479  1
  Re  Re10  1  0.500000  0.235558  0.178522  1
  Re  Re11  1  0.500000  0.763220  0.822045  1
  Re  Re12  1  0.000000  0.433261  0.418736  1
  Re  Re13  1  0.000000  0.565099  0.581314  1
  Re  Re14  1  0.500000  0.935619  0.081475  1
  Re  Re15  1  0.500000  0.070632  0.919923  1
  Re  Re16  1  0.000000  0.993603  0.205263  1
  Re  Re17  1  0.000000  0.004845  0.794586  1
  Re  Re18  1  0.500000  0.495481  0.292322  1
  Re  Re19  1  0.500000  0.503678  0.708174  1
  Si  Si20  1  0.000000  0.822809  0.474046  1
  Si  Si21  1  0.000000  0.174949  0.525250  1
  Si  Si22  1  0.500000  0.330153  0.025373  1
  Si  Si23  1  0.500000  0.674837  0.976297  1
  Si  Si24  1  0.000000  0.297281  0.272757  1
  Si  Si25  1  0.000000  0.703839  0.726262  1
  Si  Si26  1  0.500000  0.794640  0.224622  1
  Si  Si27  1  0.500000  0.200132  0.773827  1
