# generated using pymatgen
data_Dy3HoSc4(ReB6)4
_symmetry_space_group_name_H-M   'P 1'
_cell_length_a   3.58498800
_cell_length_b   9.00840500
_cell_length_c   11.39063100
_cell_angle_alpha   90.00031494
_cell_angle_beta   90.00000000
_cell_angle_gamma   90.00000000
_symmetry_Int_Tables_number   1
_chemical_formula_structural   Dy3HoSc4(ReB6)4
_chemical_formula_sum   'Dy3 Ho1 Sc4 Re4 B24'
_cell_volume   367.86069951
_cell_formula_units_Z   1
loop_
 _symmetry_equiv_pos_site_id
 _symmetry_equiv_pos_as_xyz
  1  'x, y, z'
loop_
 _atom_site_type_symbol
 _atom_site_label
 _atom_site_symmetry_multiplicity
 _atom_site_fract_x
 _atom_site_fract_y
 _atom_site_fract_z
 _atom_site_occupancy
  Dy  Dy0  1  0.000000  0.321712  0.413884  1
  Dy  Dy1  1  0.000000  0.678315  0.586127  1
  Dy  Dy2  1  0.000000  0.821693  0.086068  1
  Ho  Ho3  1  0.000000  0.178257  0.913887  1
  Sc  Sc4  1  0.000000  0.944164  0.370312  1
  Sc  Sc5  1  0.000000  0.055798  0.629745  1
  Sc  Sc6  1  0.000000  0.444219  0.129597  1
  Sc  Sc7  1  0.000000  0.555734  0.870387  1
  Re  Re8  1  0.000000  0.640802  0.318420  1
  Re  Re9  1  0.000000  0.359105  0.681698  1
  Re  Re10  1  0.000000  0.140820  0.181407  1
  Re  Re11  1  0.000000  0.859377  0.818502  1
  B  B12  1  0.500000  0.554387  0.432595  1
  B  B13  1  0.500000  0.445637  0.567391  1
  B  B14  1  0.500000  0.054450  0.067250  1
  B  B15  1  0.500000  0.945787  0.932611  1
  B  B16  1  0.500000  0.754638  0.418607  1
  B  B17  1  0.500000  0.245344  0.581384  1
  B  B18  1  0.500000  0.254565  0.081208  1
  B  B19  1  0.500000  0.745392  0.918577  1
  B  B20  1  0.500000  0.795281  0.264948  1
  B  B21  1  0.500000  0.204634  0.735224  1
  B  B22  1  0.500000  0.295314  0.235044  1
  B  B23  1  0.500000  0.704682  0.764937  1
  B  B24  1  0.500000  0.629143  0.183103  1
  B  B25  1  0.500000  0.370706  0.817028  1
  B  B26  1  0.500000  0.129148  0.316905  1
  B  B27  1  0.500000  0.870856  0.683108  1
  B  B28  1  0.500000  0.981524  0.213748  1
  B  B29  1  0.500000  0.018646  0.786332  1
  B  B30  1  0.500000  0.481527  0.286223  1
  B  B31  1  0.500000  0.518510  0.713786  1
  B  B32  1  0.500000  0.595482  0.026149  1
  B  B33  1  0.500000  0.404359  0.973799  1
  B  B34  1  0.500000  0.095474  0.473866  1
  B  B35  1  0.500000  0.904519  0.526137  1
