# generated using pymatgen
data_Sc10AlGaSb4
_symmetry_space_group_name_H-M   'P 1'
_cell_length_a   8.33740400
_cell_length_b   8.35303053
_cell_length_c   5.98697100
_cell_angle_alpha   90.00000000
_cell_angle_beta   90.00000000
_cell_angle_gamma   119.93813499
_symmetry_Int_Tables_number   1
_chemical_formula_structural   Sc10AlGaSb4
_chemical_formula_sum   'Sc10 Al1 Ga1 Sb4'
_cell_volume   361.31259396
_cell_formula_units_Z   1
loop_
 _symmetry_equiv_pos_site_id
 _symmetry_equiv_pos_as_xyz
  1  'x, y, z'
loop_
 _atom_site_type_symbol
 _atom_site_label
 _atom_site_symmetry_multiplicity
 _atom_site_fract_x
 _atom_site_fract_y
 _atom_site_fract_z
 _atom_site_occupancy
  Sc  Sc0  1  0.340145  0.681541  0.000198  1
  Sc  Sc1  1  0.658605  0.318459  0.499802  1
  Sc  Sc2  1  0.658605  0.318459  0.000198  1
  Sc  Sc3  1  0.340145  0.681541  0.499802  1
  Sc  Sc4  1  0.245350  0.000000  0.250000  1
  Sc  Sc5  1  0.244618  0.229765  0.750000  1
  Sc  Sc6  1  0.014855  0.770235  0.750000  1
  Sc  Sc7  1  0.987116  0.230233  0.250000  1
  Sc  Sc8  1  0.756883  0.769767  0.250000  1
  Sc  Sc9  1  0.753959  0.000000  0.750000  1
  Al  Al10  1  0.601025  0.000000  0.250000  1
  Ga  Ga11  1  0.398371  0.000000  0.750000  1
  Sb  Sb12  1  0.614113  0.608998  0.750000  1
  Sb  Sb13  1  0.005115  0.391002  0.750000  1
  Sb  Sb14  1  0.994677  0.608257  0.250000  1
  Sb  Sb15  1  0.386419  0.391743  0.250000  1
