# generated using pymatgen
data_CaMn3As4Rh3
_symmetry_space_group_name_H-M   'P 1'
_cell_length_a   7.31285300
_cell_length_b   7.31285321
_cell_length_c   3.74454300
_cell_angle_alpha   90.00000000
_cell_angle_beta   90.00000000
_cell_angle_gamma   119.99999454
_symmetry_Int_Tables_number   1
_chemical_formula_structural   CaMn3As4Rh3
_chemical_formula_sum   'Ca1 Mn3 As4 Rh3'
_cell_volume   173.42159532
_cell_formula_units_Z   1
loop_
 _symmetry_equiv_pos_site_id
 _symmetry_equiv_pos_as_xyz
  1  'x, y, z'
loop_
 _atom_site_type_symbol
 _atom_site_label
 _atom_site_symmetry_multiplicity
 _atom_site_fract_x
 _atom_site_fract_y
 _atom_site_fract_z
 _atom_site_occupancy
  Ca  Ca0  1  0.000000  0.000000  0.000000  1
  Mn  Mn1  1  0.542079  0.084159  0.000000  1
  Mn  Mn2  1  0.915841  0.457921  0.000000  1
  Mn  Mn3  1  0.542079  0.457921  0.000000  1
  As  As4  1  0.812804  0.187196  0.500000  1
  As  As5  1  0.374392  0.187196  0.500000  1
  As  As6  1  0.333333  0.666667  0.000000  1
  As  As7  1  0.812804  0.625608  0.500000  1
  Rh  Rh8  1  0.201247  0.798753  0.500000  1
  Rh  Rh9  1  0.201247  0.402493  0.500000  1
  Rh  Rh10  1  0.597507  0.798753  0.500000  1
