# generated using pymatgen
data_Sc3Ga3RuPt2
_symmetry_space_group_name_H-M   'P 1'
_cell_length_a   7.34872300
_cell_length_b   7.34872255
_cell_length_c   6.65709300
_cell_angle_alpha   90.00000000
_cell_angle_beta   90.00000000
_cell_angle_gamma   120.00000651
_symmetry_Int_Tables_number   1
_chemical_formula_structural   Sc3Ga3RuPt2
_chemical_formula_sum   'Sc6 Ga6 Ru2 Pt4'
_cell_volume   311.34289267
_cell_formula_units_Z   2
loop_
 _symmetry_equiv_pos_site_id
 _symmetry_equiv_pos_as_xyz
  1  'x, y, z'
loop_
 _atom_site_type_symbol
 _atom_site_label
 _atom_site_symmetry_multiplicity
 _atom_site_fract_x
 _atom_site_fract_y
 _atom_site_fract_z
 _atom_site_occupancy
  Sc  Sc0  1  0.393394  0.007690  0.250000  1
  Sc  Sc1  1  0.614296  0.606606  0.250000  1
  Sc  Sc2  1  0.992310  0.385704  0.250000  1
  Sc  Sc3  1  0.385704  0.992310  0.750000  1
  Sc  Sc4  1  0.606606  0.614296  0.750000  1
  Sc  Sc5  1  0.007690  0.393394  0.750000  1
  Ga  Ga6  1  0.274426  0.274426  0.000000  1
  Ga  Ga7  1  0.000000  0.725574  0.000000  1
  Ga  Ga8  1  0.000000  0.725574  0.500000  1
  Ga  Ga9  1  0.725574  0.000000  0.500000  1
  Ga  Ga10  1  0.274426  0.274426  0.500000  1
  Ga  Ga11  1  0.725574  0.000000  0.000000  1
  Ru  Ru12  1  0.000000  0.000000  0.750000  1
  Ru  Ru13  1  0.000000  0.000000  0.250000  1
  Pt  Pt14  1  0.666667  0.333333  0.990273  1
  Pt  Pt15  1  0.333333  0.666667  0.490273  1
  Pt  Pt16  1  0.333333  0.666667  0.009727  1
  Pt  Pt17  1  0.666667  0.333333  0.509727  1
