# generated using pymatgen
data_Y2Ho4LuCo17P12
_symmetry_space_group_name_H-M   'P 1'
_cell_length_a   3.71216700
_cell_length_b   10.58849500
_cell_length_c   12.31512000
_cell_angle_alpha   90.00000000
_cell_angle_beta   90.00000000
_cell_angle_gamma   90.00000000
_symmetry_Int_Tables_number   1
_chemical_formula_structural   Y2Ho4LuCo17P12
_chemical_formula_sum   'Y2 Ho4 Lu1 Co17 P12'
_cell_volume   484.06132982
_cell_formula_units_Z   1
loop_
 _symmetry_equiv_pos_site_id
 _symmetry_equiv_pos_as_xyz
  1  'x, y, z'
loop_
 _atom_site_type_symbol
 _atom_site_label
 _atom_site_symmetry_multiplicity
 _atom_site_fract_x
 _atom_site_fract_y
 _atom_site_fract_z
 _atom_site_occupancy
  Y  Y0  1  0.000000  0.500000  0.530516  1
  Y  Y1  1  0.500000  0.000000  0.477940  1
  Ho  Ho2  1  0.500000  0.822676  0.207764  1
  Ho  Ho3  1  0.500000  0.177324  0.207764  1
  Ho  Ho4  1  0.000000  0.683127  0.795410  1
  Ho  Ho5  1  0.000000  0.316873  0.795410  1
  Lu  Lu6  1  0.500000  0.500000  0.154222  1
  Co  Co7  1  0.000000  0.500000  0.982323  1
  Co  Co8  1  0.500000  0.000000  0.013117  1
  Co  Co9  1  0.500000  0.293240  0.435688  1
  Co  Co10  1  0.500000  0.706760  0.435688  1
  Co  Co11  1  0.000000  0.201436  0.571074  1
  Co  Co12  1  0.000000  0.798564  0.571074  1
  Co  Co13  1  0.500000  0.880494  0.707441  1
  Co  Co14  1  0.500000  0.119506  0.707441  1
  Co  Co15  1  0.000000  0.623204  0.301149  1
  Co  Co16  1  0.000000  0.376796  0.301149  1
  Co  Co17  1  0.500000  0.324712  0.987187  1
  Co  Co18  1  0.500000  0.675288  0.987187  1
  Co  Co19  1  0.000000  0.160087  0.999545  1
  Co  Co20  1  0.000000  0.839913  0.999545  1
  Co  Co21  1  0.000000  0.000000  0.835393  1
  Co  Co22  1  0.500000  0.500000  0.703772  1
  Co  Co23  1  0.000000  0.000000  0.295042  1
  P  P24  1  0.500000  0.308258  0.618730  1
  P  P25  1  0.500000  0.691742  0.618730  1
  P  P26  1  0.000000  0.188284  0.386813  1
  P  P27  1  0.000000  0.811716  0.386813  1
  P  P28  1  0.500000  0.500000  0.882023  1
  P  P29  1  0.000000  0.000000  0.115895  1
  P  P30  1  0.500000  0.853128  0.887462  1
  P  P31  1  0.500000  0.146872  0.887462  1
  P  P32  1  0.000000  0.667742  0.097680  1
  P  P33  1  0.000000  0.332258  0.097680  1
  P  P34  1  0.500000  0.500000  0.363266  1
  P  P35  1  0.000000  0.000000  0.654610  1
