# generated using pymatgen
data_Np8Tc3B24W
_symmetry_space_group_name_H-M   'P 1'
_cell_length_a   3.62929700
_cell_length_b   9.27842805
_cell_length_c   11.32717807
_cell_angle_alpha   89.98729969
_cell_angle_beta   90.00000000
_cell_angle_gamma   90.00000000
_symmetry_Int_Tables_number   1
_chemical_formula_structural   Np8Tc3B24W
_chemical_formula_sum   'Np8 Tc3 B24 W1'
_cell_volume   381.43332316
_cell_formula_units_Z   1
loop_
 _symmetry_equiv_pos_site_id
 _symmetry_equiv_pos_as_xyz
  1  'x, y, z'
loop_
 _atom_site_type_symbol
 _atom_site_label
 _atom_site_symmetry_multiplicity
 _atom_site_fract_x
 _atom_site_fract_y
 _atom_site_fract_z
 _atom_site_occupancy
  Np  Np0  1  0.000000  0.337986  0.406979  1
  Np  Np1  1  0.000000  0.661847  0.592294  1
  Np  Np2  1  0.000000  0.837431  0.094253  1
  Np  Np3  1  0.000000  0.160548  0.907053  1
  Np  Np4  1  0.000000  0.959010  0.400443  1
  Np  Np5  1  0.000000  0.042099  0.599723  1
  Np  Np6  1  0.000000  0.459539  0.099255  1
  Np  Np7  1  0.000000  0.540815  0.899932  1
  Tc  Tc8  1  0.000000  0.353991  0.681568  1
  Tc  Tc9  1  0.000000  0.145853  0.180062  1
  Tc  Tc10  1  0.000000  0.854321  0.819349  1
  B  B11  1  0.500000  0.550675  0.433260  1
  B  B12  1  0.500000  0.447693  0.568365  1
  B  B13  1  0.500000  0.051125  0.067390  1
  B  B14  1  0.500000  0.948649  0.932802  1
  B  B15  1  0.500000  0.744955  0.424950  1
  B  B16  1  0.500000  0.256407  0.576678  1
  B  B17  1  0.500000  0.243557  0.076283  1
  B  B18  1  0.500000  0.756283  0.923246  1
  B  B19  1  0.500000  0.807027  0.274233  1
  B  B20  1  0.500000  0.193961  0.725930  1
  B  B21  1  0.500000  0.304956  0.225230  1
  B  B22  1  0.500000  0.694316  0.773959  1
  B  B23  1  0.500000  0.646126  0.186394  1
  B  B24  1  0.500000  0.353775  0.812112  1
  B  B25  1  0.500000  0.146014  0.311496  1
  B  B26  1  0.500000  0.854210  0.688407  1
  B  B27  1  0.500000  0.988693  0.220505  1
  B  B28  1  0.500000  0.012189  0.779632  1
  B  B29  1  0.500000  0.486319  0.278634  1
  B  B30  1  0.500000  0.511807  0.720767  1
  B  B31  1  0.500000  0.642770  0.038402  1
  B  B32  1  0.500000  0.357238  0.960528  1
  B  B33  1  0.500000  0.143289  0.460286  1
  B  B34  1  0.500000  0.858482  0.540338  1
  W  W35  1  0.000000  0.646044  0.319260  1
