# generated using pymatgen
data_Nd5EuCo16(TcP6)2
_symmetry_space_group_name_H-M   'P 1'
_cell_length_a   3.78325400
_cell_length_b   10.68313800
_cell_length_c   12.43723800
_cell_angle_alpha   90.00305879
_cell_angle_beta   90.00000000
_cell_angle_gamma   90.00000000
_symmetry_Int_Tables_number   1
_chemical_formula_structural   Nd5EuCo16(TcP6)2
_chemical_formula_sum   'Nd5 Eu1 Co16 Tc2 P12'
_cell_volume   502.67615348
_cell_formula_units_Z   1
loop_
 _symmetry_equiv_pos_site_id
 _symmetry_equiv_pos_as_xyz
  1  'x, y, z'
loop_
 _atom_site_type_symbol
 _atom_site_label
 _atom_site_symmetry_multiplicity
 _atom_site_fract_x
 _atom_site_fract_y
 _atom_site_fract_z
 _atom_site_occupancy
  Nd  Nd0  1  0.000000  0.499659  0.523131  1
  Nd  Nd1  1  0.500000  0.000025  0.476508  1
  Nd  Nd2  1  0.500000  0.181185  0.205938  1
  Nd  Nd3  1  0.000000  0.682533  0.793946  1
  Nd  Nd4  1  0.000000  0.317584  0.794569  1
  Eu  Eu5  1  0.500000  0.818192  0.205700  1
  Co  Co6  1  0.500000  0.500269  0.704446  1
  Co  Co7  1  0.000000  0.999833  0.295516  1
  Co  Co8  1  0.000000  0.500786  0.988701  1
  Co  Co9  1  0.500000  0.999920  0.011941  1
  Co  Co10  1  0.500000  0.331988  0.992041  1
  Co  Co11  1  0.500000  0.668341  0.991838  1
  Co  Co12  1  0.000000  0.167511  0.008856  1
  Co  Co13  1  0.000000  0.831601  0.007628  1
  Co  Co14  1  0.500000  0.296650  0.430400  1
  Co  Co15  1  0.500000  0.703524  0.430261  1
  Co  Co16  1  0.000000  0.203288  0.569535  1
  Co  Co17  1  0.000000  0.796788  0.569043  1
  Co  Co18  1  0.500000  0.881493  0.709419  1
  Co  Co19  1  0.500000  0.118724  0.709587  1
  Co  Co20  1  0.000000  0.618327  0.291162  1
  Co  Co21  1  0.000000  0.380769  0.289978  1
  Tc  Tc22  1  0.500000  0.500319  0.154352  1
  Tc  Tc23  1  0.000000  0.000445  0.845344  1
  P  P24  1  0.500000  0.500362  0.886116  1
  P  P25  1  0.000000  0.998002  0.114677  1
  P  P26  1  0.500000  0.500228  0.343072  1
  P  P27  1  0.000000  0.000067  0.656540  1
  P  P28  1  0.500000  0.307056  0.614211  1
  P  P29  1  0.500000  0.693355  0.613736  1
  P  P30  1  0.000000  0.193007  0.385705  1
  P  P31  1  0.000000  0.806718  0.384122  1
  P  P32  1  0.500000  0.848056  0.895548  1
  P  P33  1  0.500000  0.151746  0.895625  1
  P  P34  1  0.000000  0.653625  0.106075  1
  P  P35  1  0.000000  0.348024  0.104733  1
