# generated using pymatgen
data_ZrNb(NiH3)2
_symmetry_space_group_name_H-M   'P 1'
_cell_length_a   5.42147878
_cell_length_b   5.42147921
_cell_length_c   4.28892900
_cell_angle_alpha   90.00000000
_cell_angle_beta   90.00000000
_cell_angle_gamma   142.45229648
_symmetry_Int_Tables_number   1
_chemical_formula_structural   ZrNb(NiH3)2
_chemical_formula_sum   'Zr1 Nb1 Ni2 H6'
_cell_volume   76.82496424
_cell_formula_units_Z   1
loop_
 _symmetry_equiv_pos_site_id
 _symmetry_equiv_pos_as_xyz
  1  'x, y, z'
loop_
 _atom_site_type_symbol
 _atom_site_label
 _atom_site_symmetry_multiplicity
 _atom_site_fract_x
 _atom_site_fract_y
 _atom_site_fract_z
 _atom_site_occupancy
  Zr  Zr0  1  0.141026  0.858974  0.250000  1
  Nb  Nb1  1  0.860484  0.139516  0.750000  1
  Ni  Ni2  1  0.566219  0.433781  0.750000  1
  Ni  Ni3  1  0.428579  0.571421  0.250000  1
  H  H4  1  0.063116  0.936884  0.750000  1
  H  H5  1  0.925256  0.074744  0.250000  1
  H  H6  1  0.691374  0.308626  0.504627  1
  H  H7  1  0.316286  0.683714  0.521208  1
  H  H8  1  0.691374  0.308626  0.995373  1
  H  H9  1  0.316286  0.683714  0.978792  1
