# generated using pymatgen
data_Dy15Lu5(IrAu)6
_symmetry_space_group_name_H-M   'P 1'
_cell_length_a   11.20105696
_cell_length_b   11.17542553
_cell_length_c   6.28445408
_cell_angle_alpha   90.02758330
_cell_angle_beta   89.66677059
_cell_angle_gamma   90.04423610
_symmetry_Int_Tables_number   1
_chemical_formula_structural   Dy15Lu5(IrAu)6
_chemical_formula_sum   'Dy15 Lu5 Ir6 Au6'
_cell_volume   786.65282761
_cell_formula_units_Z   1
loop_
 _symmetry_equiv_pos_site_id
 _symmetry_equiv_pos_as_xyz
  1  'x, y, z'
loop_
 _atom_site_type_symbol
 _atom_site_label
 _atom_site_symmetry_multiplicity
 _atom_site_fract_x
 _atom_site_fract_y
 _atom_site_fract_z
 _atom_site_occupancy
  Dy  Dy0  1  0.296875  0.910735  0.864678  1
  Dy  Dy1  1  0.697950  0.084082  0.854368  1
  Dy  Dy2  1  0.698060  0.916572  0.355061  1
  Dy  Dy3  1  0.573773  0.789276  0.860268  1
  Dy  Dy4  1  0.573390  0.210438  0.359376  1
  Dy  Dy5  1  0.409552  0.792337  0.373887  1
  Dy  Dy6  1  0.409177  0.207593  0.873685  1
  Dy  Dy7  1  0.215599  0.418540  0.629609  1
  Dy  Dy8  1  0.215325  0.581737  0.129784  1
  Dy  Dy9  1  0.800139  0.415015  0.139631  1
  Dy  Dy10  1  0.799665  0.585073  0.639854  1
  Dy  Dy11  1  0.921351  0.701791  0.141607  1
  Dy  Dy12  1  0.921327  0.298813  0.642478  1
  Dy  Dy13  1  0.095567  0.701352  0.640181  1
  Dy  Dy14  1  0.097716  0.297782  0.141642  1
  Lu  Lu15  1  0.300078  0.089155  0.365439  1
  Lu  Lu16  1  0.997666  0.999797  0.498766  1
  Lu  Lu17  1  0.997239  0.002090  0.999115  1
  Lu  Lu18  1  0.492181  0.496984  0.997993  1
  Lu  Lu19  1  0.492337  0.502393  0.497722  1
  Ir  Ir20  1  0.349037  0.345875  0.251788  1
  Ir  Ir21  1  0.348584  0.651319  0.749993  1
  Ir  Ir22  1  0.496763  0.999455  0.108626  1
  Ir  Ir23  1  0.496799  0.000707  0.607907  1
  Ir  Ir24  1  0.002425  0.500328  0.893653  1
  Ir  Ir25  1  0.002186  0.499422  0.393267  1
  Au  Au26  1  0.843587  0.152536  0.250615  1
  Au  Au27  1  0.844545  0.847864  0.750663  1
  Au  Au28  1  0.152860  0.152760  0.744647  1
  Au  Au29  1  0.151896  0.848534  0.249545  1
  Au  Au30  1  0.653386  0.349653  0.747283  1
  Au  Au31  1  0.652964  0.649995  0.246868  1
