# generated using pymatgen
data_Tm2InB2Ir5
_symmetry_space_group_name_H-M   'P 1'
_cell_length_a   3.19064200
_cell_length_b   9.71340800
_cell_length_c   9.71340800
_cell_angle_alpha   90.00000000
_cell_angle_beta   90.00000000
_cell_angle_gamma   90.00000000
_symmetry_Int_Tables_number   1
_chemical_formula_structural   Tm2InB2Ir5
_chemical_formula_sum   'Tm4 In2 B4 Ir10'
_cell_volume   301.03801386
_cell_formula_units_Z   2
loop_
 _symmetry_equiv_pos_site_id
 _symmetry_equiv_pos_as_xyz
  1  'x, y, z'
loop_
 _atom_site_type_symbol
 _atom_site_label
 _atom_site_symmetry_multiplicity
 _atom_site_fract_x
 _atom_site_fract_y
 _atom_site_fract_z
 _atom_site_occupancy
  Tm  Tm0  1  0.000000  0.177265  0.677265  1
  Tm  Tm1  1  0.000000  0.822735  0.322735  1
  Tm  Tm2  1  0.000000  0.322735  0.177265  1
  Tm  Tm3  1  0.000000  0.677265  0.822735  1
  In  In4  1  0.000000  0.000000  0.000000  1
  In  In5  1  0.000000  0.500000  0.500000  1
  B  B6  1  0.000000  0.620839  0.120839  1
  B  B7  1  0.000000  0.379161  0.879161  1
  B  B8  1  0.000000  0.879161  0.620839  1
  B  B9  1  0.000000  0.120839  0.379161  1
  Ir  Ir10  1  0.500000  0.069719  0.226734  1
  Ir  Ir11  1  0.500000  0.930281  0.773266  1
  Ir  Ir12  1  0.500000  0.773266  0.069719  1
  Ir  Ir13  1  0.500000  0.430281  0.726734  1
  Ir  Ir14  1  0.500000  0.226734  0.930281  1
  Ir  Ir15  1  0.500000  0.569719  0.273266  1
  Ir  Ir16  1  0.500000  0.726734  0.569719  1
  Ir  Ir17  1  0.500000  0.273266  0.430281  1
  Ir  Ir18  1  0.500000  0.000000  0.500000  1
  Ir  Ir19  1  0.500000  0.500000  0.000000  1
