# generated using pymatgen
data_Al13OsPt12
_symmetry_space_group_name_H-M   'P 1'
_cell_length_a   5.33540511
_cell_length_b   9.28022068
_cell_length_c   9.28022216
_cell_angle_alpha   116.41762941
_cell_angle_beta   101.04855242
_cell_angle_gamma   101.04854767
_symmetry_Int_Tables_number   1
_chemical_formula_structural   Al13OsPt12
_chemical_formula_sum   'Al13 Os1 Pt12'
_cell_volume   383.32264051
_cell_formula_units_Z   1
loop_
 _symmetry_equiv_pos_site_id
 _symmetry_equiv_pos_as_xyz
  1  'x, y, z'
loop_
 _atom_site_type_symbol
 _atom_site_label
 _atom_site_symmetry_multiplicity
 _atom_site_fract_x
 _atom_site_fract_y
 _atom_site_fract_z
 _atom_site_occupancy
  Al  Al0  1  0.000000  0.000000  0.000000  1
  Al  Al1  1  0.442166  0.287142  0.041341  1
  Al  Al2  1  0.247734  0.597847  0.154840  1
  Al  Al3  1  0.400824  0.958658  0.245800  1
  Al  Al4  1  0.844976  0.245801  0.287142  1
  Al  Al5  1  0.649887  0.556993  0.402153  1
  Al  Al6  1  0.092894  0.845160  0.443006  1
  Al  Al7  1  0.907106  0.154840  0.556993  1
  Al  Al8  1  0.350114  0.443007  0.597847  1
  Al  Al9  1  0.155024  0.754199  0.712857  1
  Al  Al10  1  0.599174  0.041340  0.754199  1
  Al  Al11  1  0.752264  0.402152  0.845159  1
  Al  Al12  1  0.557835  0.712858  0.958659  1
  Os  Os13  1  0.500001  0.000000  0.000000  1
  Pt  Pt14  1  0.938217  0.285875  0.036502  1
  Pt  Pt15  1  0.743572  0.595636  0.152711  1
  Pt  Pt16  1  0.901713  0.963498  0.249373  1
  Pt  Pt17  1  0.347659  0.249372  0.285874  1
  Pt  Pt18  1  0.147936  0.557075  0.404364  1
  Pt  Pt19  1  0.590860  0.847289  0.442925  1
  Pt  Pt20  1  0.409138  0.152710  0.557075  1
  Pt  Pt21  1  0.852064  0.442925  0.595636  1
  Pt  Pt22  1  0.652341  0.750628  0.714125  1
  Pt  Pt23  1  0.098285  0.036501  0.750626  1
  Pt  Pt24  1  0.256429  0.404364  0.847288  1
  Pt  Pt25  1  0.061784  0.714125  0.963498  1
