# generated using pymatgen
data_Lu4NpCoTc6
_symmetry_space_group_name_H-M   'P 1'
_cell_length_a   5.25131186
_cell_length_b   5.23278997
_cell_length_c   8.87295800
_cell_angle_alpha   90.00000000
_cell_angle_beta   90.00000000
_cell_angle_gamma   116.97041162
_symmetry_Int_Tables_number   1
_chemical_formula_structural   Lu4NpCoTc6
_chemical_formula_sum   'Lu4 Np1 Co1 Tc6'
_cell_volume   217.30245147
_cell_formula_units_Z   1
loop_
 _symmetry_equiv_pos_site_id
 _symmetry_equiv_pos_as_xyz
  1  'x, y, z'
loop_
 _atom_site_type_symbol
 _atom_site_label
 _atom_site_symmetry_multiplicity
 _atom_site_fract_x
 _atom_site_fract_y
 _atom_site_fract_z
 _atom_site_occupancy
  Lu  Lu0  1  0.323600  0.670621  0.445502  1
  Lu  Lu1  1  0.659709  0.338640  0.568749  1
  Lu  Lu2  1  0.659709  0.338640  0.931251  1
  Lu  Lu3  1  0.323600  0.670621  0.054498  1
  Np  Np4  1  0.840836  0.132272  0.250000  1
  Co  Co5  1  0.844379  0.632888  0.250000  1
  Tc  Tc6  1  0.989163  0.014603  0.486125  1
  Tc  Tc7  1  0.989163  0.014603  0.013875  1
  Tc  Tc8  1  0.395772  0.168525  0.250000  1
  Tc  Tc9  1  0.162165  0.835164  0.750000  1
  Tc  Tc10  1  0.161765  0.348459  0.750000  1
  Tc  Tc11  1  0.650137  0.834965  0.750000  1
