# generated using pymatgen
data_TbHoSn5Rh3
_symmetry_space_group_name_H-M   'P 1'
_cell_length_a   13.47214017
_cell_length_b   13.47214146
_cell_length_c   7.26107900
_cell_angle_alpha   90.00000000
_cell_angle_beta   90.00000000
_cell_angle_gamma   161.06291755
_symmetry_Int_Tables_number   1
_chemical_formula_structural   TbHoSn5Rh3
_chemical_formula_sum   'Tb2 Ho2 Sn10 Rh6'
_cell_volume   427.68970156
_cell_formula_units_Z   2
loop_
 _symmetry_equiv_pos_site_id
 _symmetry_equiv_pos_as_xyz
  1  'x, y, z'
loop_
 _atom_site_type_symbol
 _atom_site_label
 _atom_site_symmetry_multiplicity
 _atom_site_fract_x
 _atom_site_fract_y
 _atom_site_fract_z
 _atom_site_occupancy
  Tb  Tb0  1  0.172263  0.827737  0.745745  1
  Tb  Tb1  1  0.827737  0.172263  0.245745  1
  Ho  Ho2  1  0.476071  0.523929  0.760997  1
  Ho  Ho3  1  0.523929  0.476071  0.260997  1
  Sn  Sn4  1  0.881099  0.118901  0.769377  1
  Sn  Sn5  1  0.118901  0.881099  0.269377  1
  Sn  Sn6  1  0.704763  0.295237  0.452131  1
  Sn  Sn7  1  0.295237  0.704763  0.952131  1
  Sn  Sn8  1  0.596291  0.403709  0.885350  1
  Sn  Sn9  1  0.403709  0.596291  0.385350  1
  Sn  Sn10  1  0.952833  0.047167  0.100924  1
  Sn  Sn11  1  0.047167  0.952833  0.600924  1
  Sn  Sn12  1  0.290887  0.709113  0.523725  1
  Sn  Sn13  1  0.709113  0.290887  0.023725  1
  Rh  Rh14  1  0.050278  0.949722  0.981188  1
  Rh  Rh15  1  0.949722  0.050278  0.481188  1
  Rh  Rh16  1  0.777569  0.222431  0.737422  1
  Rh  Rh17  1  0.222431  0.777569  0.237422  1
  Rh  Rh18  1  0.394247  0.605753  0.015144  1
  Rh  Rh19  1  0.605753  0.394247  0.515144  1
