# generated using pymatgen
data_La3Nd2(Sn5Pt2)2
_symmetry_space_group_name_H-M   'P 1'
_cell_length_a   14.33783500
_cell_length_b   14.33783500
_cell_length_c   4.70682200
_cell_angle_alpha   90.00000000
_cell_angle_beta   90.00000000
_cell_angle_gamma   90.00000000
_symmetry_Int_Tables_number   1
_chemical_formula_structural   La3Nd2(Sn5Pt2)2
_chemical_formula_sum   'La6 Nd4 Sn20 Pt8'
_cell_volume   967.59793119
_cell_formula_units_Z   2
loop_
 _symmetry_equiv_pos_site_id
 _symmetry_equiv_pos_as_xyz
  1  'x, y, z'
loop_
 _atom_site_type_symbol
 _atom_site_label
 _atom_site_symmetry_multiplicity
 _atom_site_fract_x
 _atom_site_fract_y
 _atom_site_fract_z
 _atom_site_occupancy
  La  La0  1  0.500000  0.500000  0.000000  1
  La  La1  1  0.000000  0.000000  0.000000  1
  La  La2  1  0.890453  0.390453  0.500000  1
  La  La3  1  0.109547  0.609547  0.500000  1
  La  La4  1  0.390453  0.109547  0.500000  1
  La  La5  1  0.609547  0.890453  0.500000  1
  Nd  Nd6  1  0.678915  0.178915  0.500000  1
  Nd  Nd7  1  0.321085  0.821085  0.500000  1
  Nd  Nd8  1  0.178915  0.321085  0.500000  1
  Nd  Nd9  1  0.821085  0.678915  0.500000  1
  Sn  Sn10  1  0.569628  0.069628  0.000000  1
  Sn  Sn11  1  0.430372  0.930372  0.000000  1
  Sn  Sn12  1  0.069628  0.430372  0.000000  1
  Sn  Sn13  1  0.930372  0.569628  0.000000  1
  Sn  Sn14  1  0.654048  0.700748  0.000000  1
  Sn  Sn15  1  0.345952  0.299252  0.000000  1
  Sn  Sn16  1  0.154048  0.799252  0.000000  1
  Sn  Sn17  1  0.845952  0.200748  0.000000  1
  Sn  Sn18  1  0.299252  0.654048  0.000000  1
  Sn  Sn19  1  0.700748  0.345952  0.000000  1
  Sn  Sn20  1  0.200748  0.154048  0.000000  1
  Sn  Sn21  1  0.799252  0.845952  0.000000  1
  Sn  Sn22  1  0.661789  0.502070  0.500000  1
  Sn  Sn23  1  0.338211  0.497930  0.500000  1
  Sn  Sn24  1  0.161789  0.997930  0.500000  1
  Sn  Sn25  1  0.838211  0.002070  0.500000  1
  Sn  Sn26  1  0.497930  0.661789  0.500000  1
  Sn  Sn27  1  0.502070  0.338211  0.500000  1
  Sn  Sn28  1  0.002070  0.161789  0.500000  1
  Sn  Sn29  1  0.997930  0.838211  0.500000  1
  Pt  Pt30  1  0.744684  0.531168  0.000000  1
  Pt  Pt31  1  0.255316  0.468832  0.000000  1
  Pt  Pt32  1  0.244684  0.968832  0.000000  1
  Pt  Pt33  1  0.755316  0.031168  0.000000  1
  Pt  Pt34  1  0.468832  0.744684  0.000000  1
  Pt  Pt35  1  0.531168  0.255316  0.000000  1
  Pt  Pt36  1  0.031168  0.244684  0.000000  1
  Pt  Pt37  1  0.968832  0.755316  0.000000  1
