# generated using pymatgen
data_HoTh3(Al3Ir)6
_symmetry_space_group_name_H-M   'P 1'
_cell_length_a   7.64503415
_cell_length_b   7.65175239
_cell_length_c   9.50460000
_cell_angle_alpha   90.00000000
_cell_angle_beta   90.00000000
_cell_angle_gamma   119.53170289
_symmetry_Int_Tables_number   1
_chemical_formula_structural   HoTh3(Al3Ir)6
_chemical_formula_sum   'Ho1 Th3 Al18 Ir6'
_cell_volume   483.76552186
_cell_formula_units_Z   1
loop_
 _symmetry_equiv_pos_site_id
 _symmetry_equiv_pos_as_xyz
  1  'x, y, z'
loop_
 _atom_site_type_symbol
 _atom_site_label
 _atom_site_symmetry_multiplicity
 _atom_site_fract_x
 _atom_site_fract_y
 _atom_site_fract_z
 _atom_site_occupancy
  Ho  Ho0  1  0.328910  0.005629  0.750000  1
  Th  Th1  1  0.995279  0.670870  0.250000  1
  Th  Th2  1  0.003766  0.329554  0.750000  1
  Th  Th3  1  0.669856  0.994589  0.250000  1
  Al  Al4  1  0.134848  0.132280  0.250000  1
  Al  Al5  1  0.870800  0.869584  0.750000  1
  Al  Al6  1  0.005754  0.335527  0.074378  1
  Al  Al7  1  0.000321  0.669611  0.922552  1
  Al  Al8  1  0.000321  0.669611  0.577448  1
  Al  Al9  1  0.335109  0.004327  0.431337  1
  Al  Al10  1  0.005754  0.335527  0.425622  1
  Al  Al11  1  0.659813  0.995543  0.577365  1
  Al  Al12  1  0.659813  0.995543  0.922635  1
  Al  Al13  1  0.335109  0.004327  0.068663  1
  Al  Al14  1  0.336110  0.332694  0.553629  1
  Al  Al15  1  0.663213  0.663128  0.454091  1
  Al  Al16  1  0.663213  0.663128  0.045909  1
  Al  Al17  1  0.336110  0.332694  0.946371  1
  Al  Al18  1  0.341371  0.543970  0.250000  1
  Al  Al19  1  0.656985  0.450540  0.750000  1
  Al  Al20  1  0.543895  0.338556  0.250000  1
  Al  Al21  1  0.453398  0.662174  0.750000  1
  Ir  Ir22  1  0.674200  0.328443  0.000201  1
  Ir  Ir23  1  0.327227  0.671665  0.000353  1
  Ir  Ir24  1  0.327227  0.671665  0.499647  1
  Ir  Ir25  1  0.674200  0.328443  0.499799  1
  Ir  Ir26  1  0.998700  0.000189  0.000400  1
  Ir  Ir27  1  0.998700  0.000189  0.499600  1
