# generated using pymatgen
data_La3Pr5(IrO6)4
_symmetry_space_group_name_H-M   'P 1'
_cell_length_a   5.50859207
_cell_length_b   9.51761286
_cell_length_c   10.25340297
_cell_angle_alpha   90.07022782
_cell_angle_beta   90.01063028
_cell_angle_gamma   90.01458417
_symmetry_Int_Tables_number   1
_chemical_formula_structural   La3Pr5(IrO6)4
_chemical_formula_sum   'La3 Pr5 Ir4 O24'
_cell_volume   537.57161162
_cell_formula_units_Z   1
loop_
 _symmetry_equiv_pos_site_id
 _symmetry_equiv_pos_as_xyz
  1  'x, y, z'
loop_
 _atom_site_type_symbol
 _atom_site_label
 _atom_site_symmetry_multiplicity
 _atom_site_fract_x
 _atom_site_fract_y
 _atom_site_fract_z
 _atom_site_occupancy
  La  La0  1  0.031652  0.280553  0.636263  1
  La  La1  1  0.468799  0.719590  0.136955  1
  La  La2  1  0.968580  0.780387  0.863346  1
  Pr  Pr3  1  0.526078  0.102506  0.960184  1
  Pr  Pr4  1  0.025988  0.397442  0.040563  1
  Pr  Pr5  1  0.473963  0.602034  0.540021  1
  Pr  Pr6  1  0.973644  0.897862  0.459509  1
  Pr  Pr7  1  0.533147  0.218981  0.364896  1
  Ir  Ir8  1  0.457024  0.996796  0.639494  1
  Ir  Ir9  1  0.957473  0.502881  0.360226  1
  Ir  Ir10  1  0.542693  0.496794  0.860419  1
  Ir  Ir11  1  0.042955  0.003649  0.139980  1
  O  O12  1  0.313260  0.130927  0.177808  1
  O  O13  1  0.812580  0.369630  0.823303  1
  O  O14  1  0.687636  0.630365  0.323370  1
  O  O15  1  0.187263  0.869846  0.676545  1
  O  O16  1  0.723131  0.111450  0.561692  1
  O  O17  1  0.225296  0.388626  0.436158  1
  O  O18  1  0.275789  0.610869  0.936980  1
  O  O19  1  0.776020  0.889332  0.063133  1
  O  O20  1  0.671264  0.639328  0.744662  1
  O  O21  1  0.170985  0.860735  0.255376  1
  O  O22  1  0.328549  0.139311  0.755343  1
  O  O23  1  0.827303  0.360398  0.244809  1
  O  O24  1  0.663789  0.943508  0.781051  1
  O  O25  1  0.163137  0.556701  0.218549  1
  O  O26  1  0.336396  0.443158  0.718507  1
  O  O27  1  0.835627  0.057232  0.281532  1
  O  O28  1  0.249850  0.086881  0.503052  1
  O  O29  1  0.748404  0.412358  0.495833  1
  O  O30  1  0.750873  0.586797  0.996503  1
  O  O31  1  0.250781  0.913514  0.003772  1
  O  O32  1  0.065168  0.649352  0.482215  1
  O  O33  1  0.565406  0.850187  0.517931  1
  O  O34  1  0.934987  0.149648  0.017970  1
  O  O35  1  0.434510  0.350371  0.982049  1
