# generated using pymatgen
data_Ce9Nd(SiBi3)2
_symmetry_space_group_name_H-M   'P 1'
_cell_length_a   9.50012100
_cell_length_b   9.50011930
_cell_length_c   6.42948700
_cell_angle_alpha   90.00000000
_cell_angle_beta   90.00000000
_cell_angle_gamma   119.87496469
_symmetry_Int_Tables_number   1
_chemical_formula_structural   Ce9Nd(SiBi3)2
_chemical_formula_sum   'Ce9 Nd1 Si2 Bi6'
_cell_volume   503.16561701
_cell_formula_units_Z   1
loop_
 _symmetry_equiv_pos_site_id
 _symmetry_equiv_pos_as_xyz
  1  'x, y, z'
loop_
 _atom_site_type_symbol
 _atom_site_label
 _atom_site_symmetry_multiplicity
 _atom_site_fract_x
 _atom_site_fract_y
 _atom_site_fract_z
 _atom_site_occupancy
  Ce  Ce0  1  0.667049  0.332245  0.001575  1
  Ce  Ce1  1  0.332245  0.667049  0.001575  1
  Ce  Ce2  1  0.332245  0.667049  0.498425  1
  Ce  Ce3  1  0.667049  0.332245  0.498425  1
  Ce  Ce4  1  0.253874  0.998966  0.750000  1
  Ce  Ce5  1  0.998966  0.253874  0.750000  1
  Ce  Ce6  1  0.255174  0.255174  0.250000  1
  Ce  Ce7  1  0.745025  0.000510  0.250000  1
  Ce  Ce8  1  0.000510  0.745025  0.250000  1
  Nd  Nd9  1  0.744556  0.744556  0.750000  1
  Si  Si10  1  0.002085  0.002085  0.002414  1
  Si  Si11  1  0.002085  0.002085  0.497586  1
  Bi  Bi12  1  0.386343  0.386343  0.750000  1
  Bi  Bi13  1  0.612982  0.999465  0.750000  1
  Bi  Bi14  1  0.999465  0.612982  0.750000  1
  Bi  Bi15  1  0.614234  0.614234  0.250000  1
  Bi  Bi16  1  0.385957  0.000162  0.250000  1
  Bi  Bi17  1  0.000162  0.385957  0.250000  1
