# generated using pymatgen
data_PrNdTc2F14
_symmetry_space_group_name_H-M   'P 1'
_cell_length_a   5.73563700
_cell_length_b   9.22727012
_cell_length_c   12.38786218
_cell_angle_alpha   62.10103364
_cell_angle_beta   90.00000000
_cell_angle_gamma   90.00000000
_symmetry_Int_Tables_number   1
_chemical_formula_structural   PrNdTc2F14
_chemical_formula_sum   'Pr2 Nd2 Tc4 F28'
_cell_volume   579.41870721
_cell_formula_units_Z   2
loop_
 _symmetry_equiv_pos_site_id
 _symmetry_equiv_pos_as_xyz
  1  'x, y, z'
loop_
 _atom_site_type_symbol
 _atom_site_label
 _atom_site_symmetry_multiplicity
 _atom_site_fract_x
 _atom_site_fract_y
 _atom_site_fract_z
 _atom_site_occupancy
  Pr  Pr0  1  0.240984  0.189274  0.235422  1
  Pr  Pr1  1  0.740984  0.810726  0.264578  1
  Nd  Nd2  1  0.758951  0.811431  0.764448  1
  Nd  Nd3  1  0.258951  0.188569  0.735552  1
  Tc  Tc4  1  0.756701  0.274661  0.956010  1
  Tc  Tc5  1  0.256701  0.725339  0.543990  1
  Tc  Tc6  1  0.244136  0.727276  0.041024  1
  Tc  Tc7  1  0.744136  0.272724  0.458976  1
  F  F8  1  0.442168  0.709871  0.918420  1
  F  F9  1  0.942168  0.290129  0.581580  1
  F  F10  1  0.558477  0.290752  0.079056  1
  F  F11  1  0.058477  0.709248  0.420944  1
  F  F12  1  0.458715  0.281217  0.544923  1
  F  F13  1  0.958715  0.718783  0.955077  1
  F  F14  1  0.540862  0.717244  0.457398  1
  F  F15  1  0.040862  0.282756  0.042602  1
  F  F16  1  0.766519  0.515099  0.860507  1
  F  F17  1  0.266519  0.484901  0.639493  1
  F  F18  1  0.233171  0.487164  0.136814  1
  F  F19  1  0.733171  0.512836  0.363186  1
  F  F20  1  0.759752  0.035054  0.050540  1
  F  F21  1  0.259752  0.964946  0.449460  1
  F  F22  1  0.241489  0.967223  0.947713  1
  F  F23  1  0.741489  0.032777  0.552287  1
  F  F24  1  0.980316  0.730294  0.636014  1
  F  F25  1  0.480316  0.269706  0.863986  1
  F  F26  1  0.021762  0.269490  0.367374  1
  F  F27  1  0.521762  0.730510  0.132626  1
  F  F28  1  0.050685  0.743519  0.166415  1
  F  F29  1  0.550685  0.256481  0.333585  1
  F  F30  1  0.951466  0.257626  0.831214  1
  F  F31  1  0.451466  0.742374  0.668786  1
  F  F32  1  0.406281  0.966366  0.230017  1
  F  F33  1  0.906281  0.033634  0.269983  1
  F  F34  1  0.587565  0.030731  0.769230  1
  F  F35  1  0.087565  0.969269  0.730770  1
