# generated using pymatgen
data_V12Co3Si4Ni
_symmetry_space_group_name_H-M   'P 1'
_cell_length_a   6.29485602
_cell_length_b   6.29485602
_cell_length_c   6.29485602
_cell_angle_alpha   90.00660786
_cell_angle_beta   89.99339214
_cell_angle_gamma   89.99339214
_symmetry_Int_Tables_number   1
_chemical_formula_structural   V12Co3Si4Ni
_chemical_formula_sum   'V12 Co3 Si4 Ni1'
_cell_volume   249.43500140
_cell_formula_units_Z   1
loop_
 _symmetry_equiv_pos_site_id
 _symmetry_equiv_pos_as_xyz
  1  'x, y, z'
loop_
 _atom_site_type_symbol
 _atom_site_label
 _atom_site_symmetry_multiplicity
 _atom_site_fract_x
 _atom_site_fract_y
 _atom_site_fract_z
 _atom_site_occupancy
  V  V0  1  0.122489  0.206268  0.452029  1
  V  V1  1  0.378376  0.795426  0.951326  1
  V  V2  1  0.876047  0.703207  0.046908  1
  V  V3  1  0.453092  0.123953  0.203207  1
  V  V4  1  0.623218  0.295334  0.548285  1
  V  V5  1  0.951715  0.376782  0.795334  1
  V  V6  1  0.047971  0.877511  0.706268  1
  V  V7  1  0.548674  0.621624  0.295426  1
  V  V8  1  0.204574  0.451326  0.121624  1
  V  V9  1  0.704666  0.048285  0.876782  1
  V  V10  1  0.296793  0.546908  0.623953  1
  V  V11  1  0.793732  0.952029  0.377511  1
  Co  Co12  1  0.685788  0.686048  0.686040  1
  Co  Co13  1  0.813960  0.314212  0.186048  1
  Co  Co14  1  0.313952  0.186040  0.814212  1
  Si  Si15  1  0.065615  0.066359  0.065855  1
  Si  Si16  1  0.434145  0.934385  0.566359  1
  Si  Si17  1  0.933641  0.565855  0.434385  1
  Si  Si18  1  0.566422  0.433578  0.933578  1
  Ni  Ni19  1  0.185129  0.814871  0.314871  1
