# generated using pymatgen
data_Sc4ReB12Os
_symmetry_space_group_name_H-M   'P 1'
_cell_length_a   3.51253600
_cell_length_b   8.88957376
_cell_length_c   11.20020271
_cell_angle_alpha   90.10523896
_cell_angle_beta   90.00000000
_cell_angle_gamma   90.00000000
_symmetry_Int_Tables_number   1
_chemical_formula_structural   Sc4ReB12Os
_chemical_formula_sum   'Sc8 Re2 B24 Os2'
_cell_volume   349.72515564
_cell_formula_units_Z   2
loop_
 _symmetry_equiv_pos_site_id
 _symmetry_equiv_pos_as_xyz
  1  'x, y, z'
loop_
 _atom_site_type_symbol
 _atom_site_label
 _atom_site_symmetry_multiplicity
 _atom_site_fract_x
 _atom_site_fract_y
 _atom_site_fract_z
 _atom_site_occupancy
  Sc  Sc0  1  0.000000  0.317611  0.412092  1
  Sc  Sc1  1  0.000000  0.682389  0.587908  1
  Sc  Sc2  1  0.000000  0.823586  0.084833  1
  Sc  Sc3  1  0.000000  0.176414  0.915167  1
  Sc  Sc4  1  0.000000  0.944704  0.372068  1
  Sc  Sc5  1  0.000000  0.055296  0.627932  1
  Sc  Sc6  1  0.000000  0.443708  0.128048  1
  Sc  Sc7  1  0.000000  0.556292  0.871952  1
  Re  Re8  1  0.000000  0.139174  0.179990  1
  Re  Re9  1  0.000000  0.860826  0.820010  1
  B  B10  1  0.500000  0.553697  0.435186  1
  B  B11  1  0.500000  0.446303  0.564814  1
  B  B12  1  0.500000  0.053037  0.064917  1
  B  B13  1  0.500000  0.946963  0.935083  1
  B  B14  1  0.500000  0.752895  0.421167  1
  B  B15  1  0.500000  0.247105  0.578833  1
  B  B16  1  0.500000  0.253107  0.078418  1
  B  B17  1  0.500000  0.746893  0.921582  1
  B  B18  1  0.500000  0.794277  0.264415  1
  B  B19  1  0.500000  0.205723  0.735585  1
  B  B20  1  0.500000  0.295423  0.236221  1
  B  B21  1  0.500000  0.704577  0.763779  1
  B  B22  1  0.500000  0.630138  0.182686  1
  B  B23  1  0.500000  0.369862  0.817314  1
  B  B24  1  0.500000  0.130375  0.317945  1
  B  B25  1  0.500000  0.869625  0.682055  1
  B  B26  1  0.500000  0.979294  0.212851  1
  B  B27  1  0.500000  0.020706  0.787149  1
  B  B28  1  0.500000  0.480079  0.287569  1
  B  B29  1  0.500000  0.519921  0.712431  1
  B  B30  1  0.500000  0.599242  0.027487  1
  B  B31  1  0.500000  0.400758  0.972513  1
  B  B32  1  0.500000  0.100013  0.472636  1
  B  B33  1  0.500000  0.899987  0.527364  1
  Os  Os34  1  0.000000  0.638723  0.321136  1
  Os  Os35  1  0.000000  0.361277  0.678864  1
