# generated using pymatgen
data_Lu3In4CoPd
_symmetry_space_group_name_H-M   'P 1'
_cell_length_a   7.99366200
_cell_length_b   7.99366132
_cell_length_c   3.54585500
_cell_angle_alpha   90.00000000
_cell_angle_beta   90.00000000
_cell_angle_gamma   120.00001109
_symmetry_Int_Tables_number   1
_chemical_formula_structural   Lu3In4CoPd
_chemical_formula_sum   'Lu3 In4 Co1 Pd1'
_cell_volume   196.21991355
_cell_formula_units_Z   1
loop_
 _symmetry_equiv_pos_site_id
 _symmetry_equiv_pos_as_xyz
  1  'x, y, z'
loop_
 _atom_site_type_symbol
 _atom_site_label
 _atom_site_symmetry_multiplicity
 _atom_site_fract_x
 _atom_site_fract_y
 _atom_site_fract_z
 _atom_site_occupancy
  Lu  Lu0  1  0.044215  0.282892  0.500000  1
  Lu  Lu1  1  0.717108  0.761322  0.500000  1
  Lu  Lu2  1  0.238678  0.955785  0.500000  1
  In  In3  1  0.664746  0.066646  0.000000  1
  In  In4  1  0.933354  0.598101  0.000000  1
  In  In5  1  0.401899  0.335254  0.000000  1
  In  In6  1  0.333333  0.666667  0.000000  1
  Co  Co7  1  0.000000  0.000000  0.000000  1
  Pd  Pd8  1  0.666667  0.333333  0.500000  1
