# generated using pymatgen
data_PrHoMn(Si3Pd10)2
_symmetry_space_group_name_H-M   'P 1'
_cell_length_a   8.68809836
_cell_length_b   8.68809779
_cell_length_c   8.68809800
_cell_angle_alpha   59.99999919
_cell_angle_beta   60.00000139
_cell_angle_gamma   59.99999872
_symmetry_Int_Tables_number   1
_chemical_formula_structural   PrHoMn(Si3Pd10)2
_chemical_formula_sum   'Pr1 Ho1 Mn1 Si6 Pd20'
_cell_volume   463.72353780
_cell_formula_units_Z   1
loop_
 _symmetry_equiv_pos_site_id
 _symmetry_equiv_pos_as_xyz
  1  'x, y, z'
loop_
 _atom_site_type_symbol
 _atom_site_label
 _atom_site_symmetry_multiplicity
 _atom_site_fract_x
 _atom_site_fract_y
 _atom_site_fract_z
 _atom_site_occupancy
  Pr  Pr0  1  0.250000  0.250000  0.250000  1
  Ho  Ho1  1  0.750000  0.750000  0.750000  1
  Mn  Mn2  1  0.000000  0.000000  0.000000  1
  Si  Si3  1  0.733535  0.266465  0.266465  1
  Si  Si4  1  0.266465  0.733535  0.733535  1
  Si  Si5  1  0.266465  0.733535  0.266465  1
  Si  Si6  1  0.733535  0.266465  0.733535  1
  Si  Si7  1  0.266465  0.266465  0.733535  1
  Si  Si8  1  0.733535  0.733535  0.266465  1
  Pd  Pd9  1  0.385057  0.385057  0.385057  1
  Pd  Pd10  1  0.616983  0.616983  0.616983  1
  Pd  Pd11  1  0.385057  0.385057  0.844831  1
  Pd  Pd12  1  0.385057  0.844831  0.385057  1
  Pd  Pd13  1  0.616983  0.616983  0.149048  1
  Pd  Pd14  1  0.616983  0.149048  0.616983  1
  Pd  Pd15  1  0.844831  0.385057  0.385057  1
  Pd  Pd16  1  0.149048  0.616983  0.616983  1
  Pd  Pd17  1  0.343492  0.999357  0.999357  1
  Pd  Pd18  1  0.657795  0.999357  0.999357  1
  Pd  Pd19  1  0.999357  0.343492  0.657795  1
  Pd  Pd20  1  0.999357  0.657795  0.343492  1
  Pd  Pd21  1  0.999357  0.343492  0.999357  1
  Pd  Pd22  1  0.657795  0.999357  0.343492  1
  Pd  Pd23  1  0.999357  0.657795  0.999357  1
  Pd  Pd24  1  0.343492  0.999357  0.657795  1
  Pd  Pd25  1  0.999357  0.999357  0.343492  1
  Pd  Pd26  1  0.999357  0.999357  0.657795  1
  Pd  Pd27  1  0.657795  0.343492  0.999357  1
  Pd  Pd28  1  0.343492  0.657795  0.999357  1
