# generated using pymatgen
data_DyYLuGa7Cu4
_symmetry_space_group_name_H-M   'P 1'
_cell_length_a   7.98788948
_cell_length_b   7.98788903
_cell_length_c   9.35679266
_cell_angle_alpha   54.38632496
_cell_angle_beta   54.38632633
_cell_angle_gamma   30.55326555
_symmetry_Int_Tables_number   1
_chemical_formula_structural   DyYLuGa7Cu4
_chemical_formula_sum   'Dy1 Y1 Lu1 Ga7 Cu4'
_cell_volume   241.95809203
_cell_formula_units_Z   1
loop_
 _symmetry_equiv_pos_site_id
 _symmetry_equiv_pos_as_xyz
  1  'x, y, z'
loop_
 _atom_site_type_symbol
 _atom_site_label
 _atom_site_symmetry_multiplicity
 _atom_site_fract_x
 _atom_site_fract_y
 _atom_site_fract_z
 _atom_site_occupancy
  Dy  Dy0  1  0.303108  0.303108  0.703843  1
  Y  Y1  1  0.999635  0.999635  0.000260  1
  Lu  Lu2  1  0.696605  0.696605  0.295186  1
  Ga  Ga3  1  0.859199  0.859199  0.420055  1
  Ga  Ga4  1  0.141074  0.141074  0.578706  1
  Ga  Ga5  1  0.139635  0.139635  0.133098  1
  Ga  Ga6  1  0.860278  0.860278  0.868303  1
  Ga  Ga7  1  0.000456  0.000456  0.499883  1
  Ga  Ga8  1  0.343475  0.343475  0.277176  1
  Ga  Ga9  1  0.655648  0.655648  0.723283  1
  Cu  Cu10  1  0.497523  0.497523  0.309346  1
  Cu  Cu11  1  0.504106  0.504106  0.688886  1
  Cu  Cu12  1  0.657640  0.657640  0.983516  1
  Cu  Cu13  1  0.341617  0.341617  0.018460  1
