# generated using pymatgen
data_SrDy(Al5Os)4
_symmetry_space_group_name_H-M   'P 1'
_cell_length_a   6.89997742
_cell_length_b   6.89997785
_cell_length_c   9.20372400
_cell_angle_alpha   90.00000000
_cell_angle_beta   90.00000000
_cell_angle_gamma   96.55826167
_symmetry_Int_Tables_number   1
_chemical_formula_structural   SrDy(Al5Os)4
_chemical_formula_sum   'Sr1 Dy1 Al20 Os4'
_cell_volume   435.31906793
_cell_formula_units_Z   1
loop_
 _symmetry_equiv_pos_site_id
 _symmetry_equiv_pos_as_xyz
  1  'x, y, z'
loop_
 _atom_site_type_symbol
 _atom_site_label
 _atom_site_symmetry_multiplicity
 _atom_site_fract_x
 _atom_site_fract_y
 _atom_site_fract_z
 _atom_site_occupancy
  Sr  Sr0  1  0.875402  0.124598  0.750000  1
  Dy  Dy1  1  0.127334  0.872666  0.250000  1
  Al  Al2  1  0.520883  0.781637  0.750000  1
  Al  Al3  1  0.782278  0.520551  0.250000  1
  Al  Al4  1  0.479449  0.217722  0.250000  1
  Al  Al5  1  0.218363  0.479117  0.750000  1
  Al  Al6  1  0.622849  0.377151  0.961483  1
  Al  Al7  1  0.376532  0.623468  0.050245  1
  Al  Al8  1  0.622849  0.377151  0.538517  1
  Al  Al9  1  0.376532  0.623468  0.449755  1
  Al  Al10  1  0.409538  0.144071  0.750000  1
  Al  Al11  1  0.144540  0.417491  0.250000  1
  Al  Al12  1  0.582509  0.855460  0.250000  1
  Al  Al13  1  0.855929  0.590462  0.750000  1
  Al  Al14  1  0.845544  0.154456  0.398187  1
  Al  Al15  1  0.161154  0.838846  0.600197  1
  Al  Al16  1  0.845544  0.154456  0.101813  1
  Al  Al17  1  0.161154  0.838846  0.899803  1
  Al  Al18  1  0.774290  0.775363  0.003100  1
  Al  Al19  1  0.774290  0.775363  0.496900  1
  Al  Al20  1  0.224637  0.225710  0.003100  1
  Al  Al21  1  0.224637  0.225710  0.496900  1
  Os  Os22  1  0.497222  0.000343  0.001843  1
  Os  Os23  1  0.999657  0.502778  0.001843  1
  Os  Os24  1  0.497222  0.000343  0.498157  1
  Os  Os25  1  0.999657  0.502778  0.498157  1
