# generated using pymatgen
data_SmEu3Sb6Rh7
_symmetry_space_group_name_H-M   'P 1'
_cell_length_a   7.76023185
_cell_length_b   7.76023265
_cell_length_c   7.76023123
_cell_angle_alpha   109.41351246
_cell_angle_beta   109.41351551
_cell_angle_gamma   109.41351107
_symmetry_Int_Tables_number   1
_chemical_formula_structural   SmEu3Sb6Rh7
_chemical_formula_sum   'Sm1 Eu3 Sb6 Rh7'
_cell_volume   360.51775019
_cell_formula_units_Z   1
loop_
 _symmetry_equiv_pos_site_id
 _symmetry_equiv_pos_as_xyz
  1  'x, y, z'
loop_
 _atom_site_type_symbol
 _atom_site_label
 _atom_site_symmetry_multiplicity
 _atom_site_fract_x
 _atom_site_fract_y
 _atom_site_fract_z
 _atom_site_occupancy
  Sm  Sm0  1  0.500000  0.500000  0.500000  1
  Eu  Eu1  1  0.500000  0.000000  0.000000  1
  Eu  Eu2  1  0.000000  0.500000  0.000000  1
  Eu  Eu3  1  0.000000  0.000000  0.500000  1
  Sb  Sb4  1  0.321104  0.998151  0.321104  1
  Sb  Sb5  1  0.001849  0.678896  0.678896  1
  Sb  Sb6  1  0.678896  0.678896  0.001849  1
  Sb  Sb7  1  0.678896  0.001849  0.678896  1
  Sb  Sb8  1  0.998151  0.321104  0.321104  1
  Sb  Sb9  1  0.321104  0.321104  0.998151  1
  Rh  Rh10  1  0.253285  0.500000  0.746715  1
  Rh  Rh11  1  0.500000  0.253285  0.746715  1
  Rh  Rh12  1  0.746715  0.253285  0.500000  1
  Rh  Rh13  1  0.500000  0.746715  0.253285  1
  Rh  Rh14  1  0.000000  0.000000  0.000000  1
  Rh  Rh15  1  0.253285  0.746715  0.500000  1
  Rh  Rh16  1  0.746715  0.500000  0.253285  1
