# generated using pymatgen
data_ErLu9(AlSb2)2
_symmetry_space_group_name_H-M   'P 1'
_cell_length_a   8.64238300
_cell_length_b   8.66306797
_cell_length_c   6.27831000
_cell_angle_alpha   90.00000000
_cell_angle_beta   90.00000000
_cell_angle_gamma   119.88532868
_symmetry_Int_Tables_number   1
_chemical_formula_structural   ErLu9(AlSb2)2
_chemical_formula_sum   'Er1 Lu9 Al2 Sb4'
_cell_volume   407.54848987
_cell_formula_units_Z   1
loop_
 _symmetry_equiv_pos_site_id
 _symmetry_equiv_pos_as_xyz
  1  'x, y, z'
loop_
 _atom_site_type_symbol
 _atom_site_label
 _atom_site_symmetry_multiplicity
 _atom_site_fract_x
 _atom_site_fract_y
 _atom_site_fract_z
 _atom_site_occupancy
  Er  Er0  1  0.011606  0.767660  0.750000  1
  Lu  Lu1  1  0.341019  0.681859  0.000214  1
  Lu  Lu2  1  0.659352  0.318408  0.499922  1
  Lu  Lu3  1  0.659352  0.318408  0.000078  1
  Lu  Lu4  1  0.341019  0.681859  0.499786  1
  Lu  Lu5  1  0.243209  0.000338  0.250000  1
  Lu  Lu6  1  0.757199  0.999966  0.750000  1
  Lu  Lu7  1  0.987672  0.231144  0.250000  1
  Lu  Lu8  1  0.755421  0.768279  0.250000  1
  Lu  Lu9  1  0.244516  0.231942  0.750000  1
  Al  Al10  1  0.599663  0.000123  0.250000  1
  Al  Al11  1  0.401534  0.000685  0.750000  1
  Sb  Sb12  1  0.993540  0.605913  0.250000  1
  Sb  Sb13  1  0.387998  0.394462  0.250000  1
  Sb  Sb14  1  0.610348  0.605081  0.750000  1
  Sb  Sb15  1  0.006553  0.393875  0.750000  1
