# generated using pymatgen
data_Lu8Cr3ReC8
_symmetry_space_group_name_H-M   'P 1'
_cell_length_a   4.92421600
_cell_length_b   6.40612796
_cell_length_c   9.58968552
_cell_angle_alpha   89.76183353
_cell_angle_beta   90.00000000
_cell_angle_gamma   90.00000000
_symmetry_Int_Tables_number   1
_chemical_formula_structural   Lu8Cr3ReC8
_chemical_formula_sum   'Lu8 Cr3 Re1 C8'
_cell_volume   302.50552973
_cell_formula_units_Z   1
loop_
 _symmetry_equiv_pos_site_id
 _symmetry_equiv_pos_as_xyz
  1  'x, y, z'
loop_
 _atom_site_type_symbol
 _atom_site_label
 _atom_site_symmetry_multiplicity
 _atom_site_fract_x
 _atom_site_fract_y
 _atom_site_fract_z
 _atom_site_occupancy
  Lu  Lu0  1  0.250000  0.821923  0.940776  1
  Lu  Lu1  1  0.250000  0.324046  0.560518  1
  Lu  Lu2  1  0.750000  0.175107  0.056070  1
  Lu  Lu3  1  0.750000  0.681887  0.441396  1
  Lu  Lu4  1  0.250000  0.463677  0.217422  1
  Lu  Lu5  1  0.250000  0.963843  0.282796  1
  Lu  Lu6  1  0.750000  0.535376  0.781837  1
  Lu  Lu7  1  0.750000  0.034767  0.719848  1
  Cr  Cr8  1  0.250000  0.276354  0.863070  1
  Cr  Cr9  1  0.250000  0.777600  0.635387  1
  Cr  Cr10  1  0.750000  0.720378  0.133199  1
  Re  Re11  1  0.750000  0.219536  0.367552  1
  C  C12  1  0.250000  0.046338  0.739387  1
  C  C13  1  0.250000  0.548096  0.760986  1
  C  C14  1  0.750000  0.945573  0.256305  1
  C  C15  1  0.750000  0.456877  0.235798  1
  C  C16  1  0.250000  0.681891  0.455171  1
  C  C17  1  0.250000  0.183088  0.043034  1
  C  C18  1  0.750000  0.325736  0.556289  1
  C  C19  1  0.750000  0.817909  0.953158  1
