# generated using pymatgen
data_KYCl4
_symmetry_space_group_name_H-M   'P 1'
_cell_length_a   6.92796700
_cell_length_b   6.92506100
_cell_length_c   17.29211100
_cell_angle_alpha   90.00000000
_cell_angle_beta   90.00000000
_cell_angle_gamma   90.00000000
_symmetry_Int_Tables_number   1
_chemical_formula_structural   KYCl4
_chemical_formula_sum   'K4 Y4 Cl16'
_cell_volume   829.61659025
_cell_formula_units_Z   4
loop_
 _symmetry_equiv_pos_site_id
 _symmetry_equiv_pos_as_xyz
  1  'x, y, z'
loop_
 _atom_site_type_symbol
 _atom_site_label
 _atom_site_symmetry_multiplicity
 _atom_site_fract_x
 _atom_site_fract_y
 _atom_site_fract_z
 _atom_site_occupancy
  K  K0  1  0.000000  0.250000  0.323183  1
  K  K1  1  0.500000  0.750000  0.176817  1
  K  K2  1  0.000000  0.750000  0.676817  1
  K  K3  1  0.500000  0.250000  0.823183  1
  Y  Y4  1  0.000000  0.250000  0.068923  1
  Y  Y5  1  0.500000  0.250000  0.568923  1
  Y  Y6  1  0.000000  0.750000  0.931077  1
  Y  Y7  1  0.500000  0.750000  0.431077  1
  Cl  Cl8  1  0.273709  0.613013  0.327102  1
  Cl  Cl9  1  0.788188  0.430722  0.954316  1
  Cl  Cl10  1  0.288188  0.569278  0.545684  1
  Cl  Cl11  1  0.711812  0.930722  0.545684  1
  Cl  Cl12  1  0.773709  0.386987  0.172898  1
  Cl  Cl13  1  0.226291  0.613013  0.827102  1
  Cl  Cl14  1  0.726291  0.886987  0.327102  1
  Cl  Cl15  1  0.226291  0.113013  0.172898  1
  Cl  Cl16  1  0.273709  0.113013  0.672898  1
  Cl  Cl17  1  0.726291  0.386987  0.672898  1
  Cl  Cl18  1  0.211812  0.569278  0.045684  1
  Cl  Cl19  1  0.773709  0.886987  0.827102  1
  Cl  Cl20  1  0.788188  0.930722  0.045684  1
  Cl  Cl21  1  0.288188  0.069278  0.454316  1
  Cl  Cl22  1  0.711812  0.430722  0.454316  1
  Cl  Cl23  1  0.211812  0.069278  0.954316  1
