# generated using pymatgen
data_YbCo2(PO4)2
_symmetry_space_group_name_H-M   'P 1'
_cell_length_a   5.00169461
_cell_length_b   8.49266041
_cell_length_c   9.04521658
_cell_angle_alpha   113.54620622
_cell_angle_beta   102.64733769
_cell_angle_gamma   94.45623259
_symmetry_Int_Tables_number   1
_chemical_formula_structural   YbCo2(PO4)2
_chemical_formula_sum   'Yb2 Co4 P4 O16'
_cell_volume   337.77305585
_cell_formula_units_Z   2
loop_
 _symmetry_equiv_pos_site_id
 _symmetry_equiv_pos_as_xyz
  1  'x, y, z'
loop_
 _atom_site_type_symbol
 _atom_site_label
 _atom_site_symmetry_multiplicity
 _atom_site_fract_x
 _atom_site_fract_y
 _atom_site_fract_z
 _atom_site_occupancy
  Yb  Yb0  1  0.224479  0.733242  0.054857  1
  Yb  Yb1  1  0.775521  0.266758  0.945143  1
  Co  Co2  1  0.843382  0.084230  0.288064  1
  Co  Co3  1  0.377022  0.607637  0.408769  1
  Co  Co4  1  0.622978  0.392362  0.591231  1
  Co  Co5  1  0.156619  0.915770  0.711936  1
  P  P6  1  0.888400  0.715938  0.297398  1
  P  P7  1  0.111600  0.284062  0.702602  1
  P  P8  1  0.682693  0.793573  0.821050  1
  P  P9  1  0.317307  0.206426  0.178950  1
  O  O10  1  0.004235  0.879072  0.278187  1
  O  O11  1  0.995765  0.120928  0.721813  1
  O  O12  1  0.966140  0.556409  0.166582  1
  O  O13  1  0.033860  0.443591  0.833418  1
  O  O14  1  0.572519  0.704885  0.284446  1
  O  O15  1  0.427481  0.295115  0.715554  1
  O  O16  1  0.057982  0.729384  0.473267  1
  O  O17  1  0.942019  0.270616  0.526733  1
  O  O18  1  0.566292  0.634507  0.641794  1
  O  O19  1  0.433707  0.365492  0.358206  1
  O  O20  1  0.993762  0.170504  0.143985  1
  O  O21  1  0.006238  0.829495  0.856015  1
  O  O22  1  0.434490  0.047845  0.195456  1
  O  O23  1  0.606835  0.743968  0.952188  1
  O  O24  1  0.393165  0.256031  0.047812  1
  O  O25  1  0.565510  0.952155  0.804544  1
