# generated using pymatgen
data_Nb3SiPdN
_symmetry_space_group_name_H-M   'P 1'
_cell_length_a   7.00224600
_cell_length_b   7.00224600
_cell_length_c   7.00224600
_cell_angle_alpha   90.00000000
_cell_angle_beta   90.00000000
_cell_angle_gamma   90.00000000
_symmetry_Int_Tables_number   1
_chemical_formula_structural   Nb3SiPdN
_chemical_formula_sum   'Nb12 Si4 Pd4 N4'
_cell_volume   343.33026795
_cell_formula_units_Z   4
loop_
 _symmetry_equiv_pos_site_id
 _symmetry_equiv_pos_as_xyz
  1  'x, y, z'
loop_
 _atom_site_type_symbol
 _atom_site_label
 _atom_site_symmetry_multiplicity
 _atom_site_fract_x
 _atom_site_fract_y
 _atom_site_fract_z
 _atom_site_occupancy
  Nb  Nb0  1  0.786495  0.953102  0.379526  1
  Nb  Nb1  1  0.713505  0.046898  0.879526  1
  Nb  Nb2  1  0.213505  0.453102  0.120474  1
  Nb  Nb3  1  0.286495  0.546898  0.620474  1
  Nb  Nb4  1  0.953102  0.379526  0.786495  1
  Nb  Nb5  1  0.046898  0.879526  0.713505  1
  Nb  Nb6  1  0.453102  0.120474  0.213505  1
  Nb  Nb7  1  0.546898  0.620474  0.286495  1
  Nb  Nb8  1  0.379526  0.786495  0.953102  1
  Nb  Nb9  1  0.879526  0.713505  0.046898  1
  Nb  Nb10  1  0.120474  0.213505  0.453102  1
  Nb  Nb11  1  0.620474  0.286495  0.546898  1
  Si  Si12  1  0.572884  0.427116  0.927116  1
  Si  Si13  1  0.427116  0.927116  0.572884  1
  Si  Si14  1  0.927116  0.572884  0.427116  1
  Si  Si15  1  0.072884  0.072884  0.072884  1
  Pd  Pd16  1  0.178710  0.821290  0.321290  1
  Pd  Pd17  1  0.321290  0.178710  0.821290  1
  Pd  Pd18  1  0.821290  0.321290  0.178710  1
  Pd  Pd19  1  0.678710  0.678710  0.678710  1
  N  N20  1  0.876233  0.123767  0.623767  1
  N  N21  1  0.623767  0.876233  0.123767  1
  N  N22  1  0.123767  0.623767  0.876233  1
  N  N23  1  0.376233  0.376233  0.376233  1
