# generated using pymatgen
data_Yb2Dy(YRh)2
_symmetry_space_group_name_H-M   'P 1'
_cell_length_a   6.53488854
_cell_length_b   7.27274999
_cell_length_c   8.53063200
_cell_angle_alpha   97.08533973
_cell_angle_beta   112.52117797
_cell_angle_gamma   89.99999580
_symmetry_Int_Tables_number   1
_chemical_formula_structural   Yb2Dy(YRh)2
_chemical_formula_sum   'Yb4 Dy2 Y4 Rh4'
_cell_volume   371.15908275
_cell_formula_units_Z   2
loop_
 _symmetry_equiv_pos_site_id
 _symmetry_equiv_pos_as_xyz
  1  'x, y, z'
loop_
 _atom_site_type_symbol
 _atom_site_label
 _atom_site_symmetry_multiplicity
 _atom_site_fract_x
 _atom_site_fract_y
 _atom_site_fract_z
 _atom_site_occupancy
  Yb  Yb0  1  0.793185  0.081647  0.813838  1
  Yb  Yb1  1  0.979349  0.418353  0.186162  1
  Yb  Yb2  1  0.206815  0.918353  0.186162  1
  Yb  Yb3  1  0.020651  0.581647  0.813838  1
  Dy  Dy4  1  0.428903  0.250000  0.000000  1
  Dy  Dy5  1  0.571097  0.750000  0.000000  1
  Y  Y6  1  0.210154  0.185300  0.561773  1
  Y  Y7  1  0.648381  0.314700  0.438227  1
  Y  Y8  1  0.789846  0.814700  0.438227  1
  Y  Y9  1  0.351619  0.685300  0.561773  1
  Rh  Rh10  1  0.593818  0.428155  0.777165  1
  Rh  Rh11  1  0.816651  0.071845  0.222835  1
  Rh  Rh12  1  0.406182  0.571845  0.222835  1
  Rh  Rh13  1  0.183349  0.928155  0.777165  1
