# generated using pymatgen
data_Zr9Ti8Si16Mo3
_symmetry_space_group_name_H-M   'P 1'
_cell_length_a   6.83383813
_cell_length_b   6.83383925
_cell_length_c   12.55959772
_cell_angle_alpha   89.86913484
_cell_angle_beta   90.13086351
_cell_angle_gamma   89.80175751
_symmetry_Int_Tables_number   1
_chemical_formula_structural   Zr9Ti8Si16Mo3
_chemical_formula_sum   'Zr9 Ti8 Si16 Mo3'
_cell_volume   586.54360298
_cell_formula_units_Z   1
loop_
 _symmetry_equiv_pos_site_id
 _symmetry_equiv_pos_as_xyz
  1  'x, y, z'
loop_
 _atom_site_type_symbol
 _atom_site_label
 _atom_site_symmetry_multiplicity
 _atom_site_fract_x
 _atom_site_fract_y
 _atom_site_fract_z
 _atom_site_occupancy
  Zr  Zr0  1  0.000526  0.659738  0.031013  1
  Zr  Zr1  1  0.997971  0.340419  0.529137  1
  Zr  Zr2  1  0.659738  0.000526  0.968987  1
  Zr  Zr3  1  0.158472  0.499980  0.778996  1
  Zr  Zr4  1  0.840539  0.502785  0.281506  1
  Zr  Zr5  1  0.499980  0.158472  0.221004  1
  Zr  Zr6  1  0.502785  0.840539  0.718494  1
  Zr  Zr7  1  0.340419  0.997971  0.470863  1
  Zr  Zr8  1  0.330268  0.330268  0.000000  1
  Ti  Ti9  1  0.346133  0.506125  0.379398  1
  Ti  Ti10  1  0.846642  0.994889  0.372929  1
  Ti  Ti11  1  0.005534  0.152310  0.128236  1
  Ti  Ti12  1  0.994889  0.846642  0.627071  1
  Ti  Ti13  1  0.653775  0.498059  0.874909  1
  Ti  Ti14  1  0.506125  0.346133  0.620602  1
  Ti  Ti15  1  0.498059  0.653775  0.125091  1
  Ti  Ti16  1  0.152310  0.005534  0.871764  1
  Si  Si17  1  0.042488  0.705315  0.436399  1
  Si  Si18  1  0.949255  0.294489  0.934018  1
  Si  Si19  1  0.705315  0.042488  0.563601  1
  Si  Si20  1  0.203182  0.459924  0.189590  1
  Si  Si21  1  0.794101  0.543637  0.685401  1
  Si  Si22  1  0.459924  0.203182  0.810410  1
  Si  Si23  1  0.543637  0.794101  0.314599  1
  Si  Si24  1  0.294489  0.949255  0.065982  1
  Si  Si25  1  0.867728  0.793388  0.822722  1
  Si  Si26  1  0.132755  0.207020  0.323806  1
  Si  Si27  1  0.793388  0.867728  0.177278  1
  Si  Si28  1  0.292514  0.632295  0.573785  1
  Si  Si29  1  0.712580  0.367769  0.074042  1
  Si  Si30  1  0.632295  0.292514  0.426215  1
  Si  Si31  1  0.367769  0.712580  0.925958  1
  Si  Si32  1  0.207020  0.132755  0.676194  1
  Mo  Mo33  1  0.669375  0.669375  0.500000  1
  Mo  Mo34  1  0.830196  0.167824  0.747962  1
  Mo  Mo35  1  0.167824  0.830196  0.252038  1
