# generated using pymatgen
data_Tm2Co12GeP6
_symmetry_space_group_name_H-M   'P 1'
_cell_length_a   9.05187800
_cell_length_b   9.05187824
_cell_length_c   3.55976800
_cell_angle_alpha   90.00000000
_cell_angle_beta   90.00000000
_cell_angle_gamma   120.00000643
_symmetry_Int_Tables_number   1
_chemical_formula_structural   Tm2Co12GeP6
_chemical_formula_sum   'Tm2 Co12 Ge1 P6'
_cell_volume   252.59787559
_cell_formula_units_Z   1
loop_
 _symmetry_equiv_pos_site_id
 _symmetry_equiv_pos_as_xyz
  1  'x, y, z'
loop_
 _atom_site_type_symbol
 _atom_site_label
 _atom_site_symmetry_multiplicity
 _atom_site_fract_x
 _atom_site_fract_y
 _atom_site_fract_z
 _atom_site_occupancy
  Tm  Tm0  1  0.000000  0.000000  0.000000  1
  Tm  Tm1  1  0.333333  0.666667  0.500000  1
  Co  Co2  1  0.104825  0.394572  0.000000  1
  Co  Co3  1  0.605428  0.710253  0.000000  1
  Co  Co4  1  0.289747  0.895175  0.000000  1
  Co  Co5  1  0.052353  0.773178  0.500000  1
  Co  Co6  1  0.226822  0.279176  0.500000  1
  Co  Co7  1  0.720824  0.947647  0.500000  1
  Co  Co8  1  0.827926  0.620918  0.000000  1
  Co  Co9  1  0.379082  0.207008  0.000000  1
  Co  Co10  1  0.792992  0.172074  0.000000  1
  Co  Co11  1  0.919636  0.445724  0.500000  1
  Co  Co12  1  0.554276  0.473910  0.500000  1
  Co  Co13  1  0.526090  0.080364  0.500000  1
  Ge  Ge14  1  0.666667  0.333333  0.000000  1
  P  P15  1  0.779238  0.737615  0.500000  1
  P  P16  1  0.262385  0.041622  0.500000  1
  P  P17  1  0.958378  0.220762  0.500000  1
  P  P18  1  0.073240  0.625952  0.000000  1
  P  P19  1  0.374048  0.447289  0.000000  1
  P  P20  1  0.552711  0.926760  0.000000  1
