# generated using pymatgen
data_Tb2Al9Tc5
_symmetry_space_group_name_H-M   'P 1'
_cell_length_a   7.89451306
_cell_length_b   7.89451236
_cell_length_c   7.89451266
_cell_angle_alpha   132.58397738
_cell_angle_beta   132.58396815
_cell_angle_gamma   69.30824776
_symmetry_Int_Tables_number   1
_chemical_formula_structural   Tb2Al9Tc5
_chemical_formula_sum   'Tb2 Al9 Tc5'
_cell_volume   261.72211554
_cell_formula_units_Z   1
loop_
 _symmetry_equiv_pos_site_id
 _symmetry_equiv_pos_as_xyz
  1  'x, y, z'
loop_
 _atom_site_type_symbol
 _atom_site_label
 _atom_site_symmetry_multiplicity
 _atom_site_fract_x
 _atom_site_fract_y
 _atom_site_fract_z
 _atom_site_occupancy
  Tb  Tb0  1  0.000000  0.500000  0.500000  1
  Tb  Tb1  1  0.500000  0.000000  0.500000  1
  Al  Al2  1  0.438365  0.863168  0.000000  1
  Al  Al3  1  0.136832  0.136832  0.575197  1
  Al  Al4  1  0.863168  0.438365  0.000000  1
  Al  Al5  1  0.863168  0.863168  0.424803  1
  Al  Al6  1  0.561635  0.136832  0.000000  1
  Al  Al7  1  0.136832  0.561635  0.000000  1
  Al  Al8  1  0.561635  0.561635  0.424803  1
  Al  Al9  1  0.000000  0.000000  0.000000  1
  Al  Al10  1  0.438365  0.438365  0.575197  1
  Tc  Tc11  1  0.191707  0.191707  0.000000  1
  Tc  Tc12  1  0.808293  0.808293  0.000000  1
  Tc  Tc13  1  0.250000  0.750000  0.500000  1
  Tc  Tc14  1  0.750000  0.250000  0.500000  1
  Tc  Tc15  1  0.500000  0.500000  0.000000  1
