# generated using pymatgen
data_Li4Al8Ni3Ir
_symmetry_space_group_name_H-M   'P 1'
_cell_length_a   5.87416400
_cell_length_b   4.20156000
_cell_length_c   8.44138000
_cell_angle_alpha   90.00000679
_cell_angle_beta   89.99983077
_cell_angle_gamma   90.00002339
_symmetry_Int_Tables_number   1
_chemical_formula_structural   Li4Al8Ni3Ir
_chemical_formula_sum   'Li4 Al8 Ni3 Ir1'
_cell_volume   208.33876636
_cell_formula_units_Z   1
loop_
 _symmetry_equiv_pos_site_id
 _symmetry_equiv_pos_as_xyz
  1  'x, y, z'
loop_
 _atom_site_type_symbol
 _atom_site_label
 _atom_site_symmetry_multiplicity
 _atom_site_fract_x
 _atom_site_fract_y
 _atom_site_fract_z
 _atom_site_occupancy
  Li  Li0  1  0.250028  0.250000  0.124863  1
  Li  Li1  1  0.750013  0.750001  0.371267  1
  Li  Li2  1  0.249976  0.250001  0.624951  1
  Li  Li3  1  0.749972  0.750001  0.878901  1
  Al  Al4  1  0.009119  0.750000  0.125040  1
  Al  Al5  1  0.490902  0.750000  0.125053  1
  Al  Al6  1  0.001473  0.250001  0.377883  1
  Al  Al7  1  0.498539  0.250001  0.377894  1
  Al  Al8  1  0.501924  0.750000  0.625039  1
  Al  Al9  1  0.998056  0.750000  0.625053  1
  Al  Al10  1  0.498522  0.250000  0.872020  1
  Al  Al11  1  0.001460  0.250000  0.872035  1
  Ni  Ni12  1  0.249999  0.750002  0.380251  1
  Ni  Ni13  1  0.750013  0.250000  0.624934  1
  Ni  Ni14  1  0.250005  0.750000  0.869864  1
  Ir  Ir15  1  0.750002  0.250000  0.124953  1
