# generated using pymatgen
data_Ho2Si3P3Pd20Au
_symmetry_space_group_name_H-M   'P 1'
_cell_length_a   8.67311668
_cell_length_b   8.65490449
_cell_length_c   8.64818345
_cell_angle_alpha   60.16501661
_cell_angle_beta   59.95590965
_cell_angle_gamma   59.87907506
_symmetry_Int_Tables_number   1
_chemical_formula_structural   Ho2Si3P3Pd20Au
_chemical_formula_sum   'Ho2 Si3 P3 Pd20 Au1'
_cell_volume   459.03052583
_cell_formula_units_Z   1
loop_
 _symmetry_equiv_pos_site_id
 _symmetry_equiv_pos_as_xyz
  1  'x, y, z'
loop_
 _atom_site_type_symbol
 _atom_site_label
 _atom_site_symmetry_multiplicity
 _atom_site_fract_x
 _atom_site_fract_y
 _atom_site_fract_z
 _atom_site_occupancy
  Ho  Ho0  1  0.248950  0.251050  0.248950  1
  Ho  Ho1  1  0.748950  0.751050  0.748950  1
  Si  Si2  1  0.735655  0.264345  0.262466  1
  Si  Si3  1  0.262466  0.737534  0.735655  1
  Si  Si4  1  0.264098  0.735902  0.264098  1
  P  P5  1  0.734798  0.265202  0.734798  1
  P  P6  1  0.264293  0.266606  0.733394  1
  P  P7  1  0.733394  0.735707  0.264293  1
  Pd  Pd8  1  0.383485  0.383401  0.384735  1
  Pd  Pd9  1  0.615784  0.615155  0.614937  1
  Pd  Pd10  1  0.384845  0.384216  0.845878  1
  Pd  Pd11  1  0.384735  0.848380  0.383485  1
  Pd  Pd12  1  0.616599  0.616515  0.151620  1
  Pd  Pd13  1  0.614937  0.154122  0.615784  1
  Pd  Pd14  1  0.845878  0.385063  0.384845  1
  Pd  Pd15  1  0.151620  0.615265  0.616599  1
  Pd  Pd16  1  0.345400  0.002373  0.997627  1
  Pd  Pd17  1  0.657387  0.000057  0.999943  1
  Pd  Pd18  1  0.999943  0.342613  0.657387  1
  Pd  Pd19  1  0.997627  0.654600  0.345400  1
  Pd  Pd20  1  0.003825  0.343302  0.999059  1
  Pd  Pd21  1  0.656698  0.996175  0.346185  1
  Pd  Pd22  1  0.999059  0.653815  0.003825  1
  Pd  Pd23  1  0.346185  0.000941  0.656698  1
  Pd  Pd24  1  0.999941  0.000059  0.346811  1
  Pd  Pd25  1  0.997605  0.002395  0.655656  1
  Pd  Pd26  1  0.655656  0.344344  0.997605  1
  Pd  Pd27  1  0.346811  0.653189  0.999941  1
  Au  Au28  1  0.003374  0.996626  0.003374  1
