# generated using pymatgen
data_YP4Ru5Rh
_symmetry_space_group_name_H-M   'P 1'
_cell_length_a   6.96137440
_cell_length_b   6.96137277
_cell_length_c   3.75692700
_cell_angle_alpha   90.00000000
_cell_angle_beta   90.00000000
_cell_angle_gamma   120.47491084
_symmetry_Int_Tables_number   1
_chemical_formula_structural   YP4Ru5Rh
_chemical_formula_sum   'Y1 P4 Ru5 Rh1'
_cell_volume   156.91157855
_cell_formula_units_Z   1
loop_
 _symmetry_equiv_pos_site_id
 _symmetry_equiv_pos_as_xyz
  1  'x, y, z'
loop_
 _atom_site_type_symbol
 _atom_site_label
 _atom_site_symmetry_multiplicity
 _atom_site_fract_x
 _atom_site_fract_y
 _atom_site_fract_z
 _atom_site_occupancy
  Y  Y0  1  0.332951  0.667049  0.000000  1
  P  P1  1  0.670936  0.329064  0.000000  1
  P  P2  1  0.717286  0.863093  0.500000  1
  P  P3  1  0.136907  0.282714  0.500000  1
  P  P4  1  0.142603  0.857397  0.500000  1
  Ru  Ru5  1  0.267179  0.133371  0.000000  1
  Ru  Ru6  1  0.866629  0.732821  0.000000  1
  Ru  Ru7  1  0.868474  0.131526  0.000000  1
  Ru  Ru8  1  0.935047  0.467473  0.500000  1
  Ru  Ru9  1  0.532527  0.064953  0.500000  1
  Rh  Rh10  1  0.529460  0.470540  0.500000  1
