# generated using pymatgen
data_SmEr4Tm3(P3Ir4)4
_symmetry_space_group_name_H-M   'P 1'
_cell_length_a   12.95688400
_cell_length_b   12.95688513
_cell_length_c   3.99455500
_cell_angle_alpha   90.00000000
_cell_angle_beta   90.00000000
_cell_angle_gamma   119.99999712
_symmetry_Int_Tables_number   1
_chemical_formula_structural   SmEr4Tm3(P3Ir4)4
_chemical_formula_sum   'Sm1 Er4 Tm3 P12 Ir16'
_cell_volume   580.76472323
_cell_formula_units_Z   1
loop_
 _symmetry_equiv_pos_site_id
 _symmetry_equiv_pos_as_xyz
  1  'x, y, z'
loop_
 _atom_site_type_symbol
 _atom_site_label
 _atom_site_symmetry_multiplicity
 _atom_site_fract_x
 _atom_site_fract_y
 _atom_site_fract_z
 _atom_site_occupancy
  Sm  Sm0  1  0.666667  0.333333  0.500000  1
  Er  Er1  1  0.333333  0.666667  0.500000  1
  Er  Er2  1  0.999949  0.814096  0.000000  1
  Er  Er3  1  0.185904  0.185852  0.000000  1
  Er  Er4  1  0.814148  0.000051  0.000000  1
  Tm  Tm5  1  0.000508  0.446092  0.500000  1
  Tm  Tm6  1  0.553908  0.554417  0.500000  1
  Tm  Tm7  1  0.445583  0.999492  0.500000  1
  P  P8  1  0.999760  0.652106  0.500000  1
  P  P9  1  0.347894  0.347653  0.500000  1
  P  P10  1  0.652347  0.000240  0.500000  1
  P  P11  1  0.516501  0.688489  0.000000  1
  P  P12  1  0.311511  0.828012  0.000000  1
  P  P13  1  0.171988  0.483499  0.000000  1
  P  P14  1  0.481976  0.170587  0.000000  1
  P  P15  1  0.688610  0.518024  0.000000  1
  P  P16  1  0.829413  0.311390  0.000000  1
  P  P17  1  0.000126  0.175845  0.500000  1
  P  P18  1  0.824155  0.824281  0.500000  1
  P  P19  1  0.175719  0.999874  0.500000  1
  Ir  Ir20  1  0.508145  0.864839  0.000000  1
  Ir  Ir21  1  0.135161  0.643306  0.000000  1
  Ir  Ir22  1  0.356694  0.491855  0.000000  1
  Ir  Ir23  1  0.488468  0.356893  0.000000  1
  Ir  Ir24  1  0.868425  0.511532  0.000000  1
  Ir  Ir25  1  0.643107  0.131575  0.000000  1
  Ir  Ir26  1  0.000186  0.274269  0.000000  1
  Ir  Ir27  1  0.725731  0.725916  0.000000  1
  Ir  Ir28  1  0.274084  0.999814  0.000000  1
  Ir  Ir29  1  0.630963  0.810011  0.500000  1
  Ir  Ir30  1  0.189989  0.820951  0.500000  1
  Ir  Ir31  1  0.179049  0.369037  0.500000  1
  Ir  Ir32  1  0.368592  0.178441  0.500000  1
  Ir  Ir33  1  0.809848  0.631408  0.500000  1
  Ir  Ir34  1  0.821559  0.190152  0.500000  1
  Ir  Ir35  1  0.000000  0.000000  0.500000  1
