# generated using pymatgen
data_Ho3Er5Mn(B8Ru)3
_symmetry_space_group_name_H-M   'P 1'
_cell_length_a   3.61993000
_cell_length_b   9.09360634
_cell_length_c   11.47429502
_cell_angle_alpha   89.98134502
_cell_angle_beta   90.00000000
_cell_angle_gamma   90.00000000
_symmetry_Int_Tables_number   1
_chemical_formula_structural   Ho3Er5Mn(B8Ru)3
_chemical_formula_sum   'Ho3 Er5 Mn1 B24 Ru3'
_cell_volume   377.71332934
_cell_formula_units_Z   1
loop_
 _symmetry_equiv_pos_site_id
 _symmetry_equiv_pos_as_xyz
  1  'x, y, z'
loop_
 _atom_site_type_symbol
 _atom_site_label
 _atom_site_symmetry_multiplicity
 _atom_site_fract_x
 _atom_site_fract_y
 _atom_site_fract_z
 _atom_site_occupancy
  Ho  Ho0  1  0.000000  0.325793  0.412744  1
  Ho  Ho1  1  0.000000  0.676307  0.581970  1
  Ho  Ho2  1  0.000000  0.820426  0.088563  1
  Er  Er3  1  0.000000  0.177362  0.915200  1
  Er  Er4  1  0.000000  0.940896  0.371517  1
  Er  Er5  1  0.000000  0.056652  0.627690  1
  Er  Er6  1  0.000000  0.445739  0.130290  1
  Er  Er7  1  0.000000  0.556753  0.871779  1
  Mn  Mn8  1  0.000000  0.638120  0.320779  1
  B  B9  1  0.500000  0.554234  0.431674  1
  B  B10  1  0.500000  0.446582  0.566493  1
  B  B11  1  0.500000  0.053832  0.067246  1
  B  B12  1  0.500000  0.946381  0.933252  1
  B  B13  1  0.500000  0.746537  0.417754  1
  B  B14  1  0.500000  0.251748  0.580024  1
  B  B15  1  0.500000  0.249015  0.080707  1
  B  B16  1  0.500000  0.751616  0.919878  1
  B  B17  1  0.500000  0.789756  0.266553  1
  B  B18  1  0.500000  0.208677  0.734105  1
  B  B19  1  0.500000  0.291909  0.234143  1
  B  B20  1  0.500000  0.708781  0.765794  1
  B  B21  1  0.500000  0.631870  0.186898  1
  B  B22  1  0.500000  0.368117  0.815051  1
  B  B23  1  0.500000  0.131410  0.314684  1
  B  B24  1  0.500000  0.868165  0.684828  1
  B  B25  1  0.500000  0.982606  0.212859  1
  B  B26  1  0.500000  0.017024  0.787588  1
  B  B27  1  0.500000  0.485434  0.288181  1
  B  B28  1  0.500000  0.516867  0.712393  1
  B  B29  1  0.500000  0.606849  0.029779  1
  B  B30  1  0.500000  0.393215  0.970858  1
  B  B31  1  0.500000  0.106685  0.470242  1
  B  B32  1  0.500000  0.892894  0.529154  1
  Ru  Ru33  1  0.000000  0.361449  0.679569  1
  Ru  Ru34  1  0.000000  0.138181  0.178752  1
  Ru  Ru35  1  0.000000  0.862118  0.821012  1
