# generated using pymatgen
data_LaEr4Tm(SbO7)2
_symmetry_space_group_name_H-M   'P 1'
_cell_length_a   6.46526201
_cell_length_b   6.46526145
_cell_length_c   7.53794600
_cell_angle_alpha   89.92865123
_cell_angle_beta   90.07134876
_cell_angle_gamma   108.94156334
_symmetry_Int_Tables_number   1
_chemical_formula_structural   LaEr4Tm(SbO7)2
_chemical_formula_sum   'La1 Er4 Tm1 Sb2 O14'
_cell_volume   298.02113601
_cell_formula_units_Z   1
loop_
 _symmetry_equiv_pos_site_id
 _symmetry_equiv_pos_as_xyz
  1  'x, y, z'
loop_
 _atom_site_type_symbol
 _atom_site_label
 _atom_site_symmetry_multiplicity
 _atom_site_fract_x
 _atom_site_fract_y
 _atom_site_fract_z
 _atom_site_occupancy
  La  La0  1  0.501244  0.501244  0.500000  1
  Er  Er1  1  0.998275  0.469533  0.752706  1
  Er  Er2  1  0.000505  0.531957  0.244037  1
  Er  Er3  1  0.531957  0.000505  0.755963  1
  Er  Er4  1  0.469533  0.998275  0.247294  1
  Tm  Tm5  1  0.486657  0.486657  0.000000  1
  Sb  Sb6  1  0.000179  0.000179  0.500000  1
  Sb  Sb7  1  0.000152  0.000152  0.000000  1
  O  O8  1  0.640583  0.358941  0.762594  1
  O  O9  1  0.358941  0.640583  0.237406  1
  O  O10  1  0.929164  0.071622  0.749775  1
  O  O11  1  0.071622  0.929164  0.250225  1
  O  O12  1  0.933440  0.677528  0.529676  1
  O  O13  1  0.076639  0.323970  0.028769  1
  O  O14  1  0.323970  0.076639  0.971231  1
  O  O15  1  0.677528  0.933440  0.470324  1
  O  O16  1  0.365310  0.633931  0.764173  1
  O  O17  1  0.633931  0.365310  0.235827  1
  O  O18  1  0.933699  0.680547  0.968314  1
  O  O19  1  0.064598  0.321524  0.467624  1
  O  O20  1  0.321524  0.064598  0.532376  1
  O  O21  1  0.680547  0.933699  0.031686  1
