# generated using pymatgen
data_V9Ga2Tc9Ge4
_symmetry_space_group_name_H-M   'P 1'
_cell_length_a   4.80303703
_cell_length_b   4.80584885
_cell_length_c   14.38749511
_cell_angle_alpha   90.11883495
_cell_angle_beta   89.87815491
_cell_angle_gamma   90.15334353
_symmetry_Int_Tables_number   1
_chemical_formula_structural   V9Ga2Tc9Ge4
_chemical_formula_sum   'V9 Ga2 Tc9 Ge4'
_cell_volume   332.09915074
_cell_formula_units_Z   1
loop_
 _symmetry_equiv_pos_site_id
 _symmetry_equiv_pos_as_xyz
  1  'x, y, z'
loop_
 _atom_site_type_symbol
 _atom_site_label
 _atom_site_symmetry_multiplicity
 _atom_site_fract_x
 _atom_site_fract_y
 _atom_site_fract_z
 _atom_site_occupancy
  V  V0  1  0.000232  0.500847  0.749964  1
  V  V1  1  0.000082  0.500903  0.083105  1
  V  V2  1  0.000585  0.500696  0.416401  1
  V  V3  1  0.498874  0.751077  0.666719  1
  V  V4  1  0.498826  0.750721  0.000152  1
  V  V5  1  0.498618  0.751839  0.334001  1
  V  V6  1  0.251736  0.999877  0.832739  1
  V  V7  1  0.251698  0.999761  0.166595  1
  V  V8  1  0.251445  0.998397  0.499387  1
  Ga  Ga9  1  0.497229  0.502765  0.832494  1
  Ga  Ga10  1  0.497259  0.502840  0.165716  1
  Tc  Tc11  1  0.000534  0.501232  0.916930  1
  Tc  Tc12  1  0.000951  0.501072  0.250278  1
  Tc  Tc13  1  0.001071  0.500983  0.583460  1
  Tc  Tc14  1  0.497965  0.250027  0.666783  1
  Tc  Tc15  1  0.498046  0.249551  0.000335  1
  Tc  Tc16  1  0.497636  0.249715  0.334020  1
  Tc  Tc17  1  0.751249  0.998701  0.832807  1
  Tc  Tc18  1  0.751345  0.998561  0.166546  1
  Tc  Tc19  1  0.750318  0.997351  0.499459  1
  Ge  Ge20  1  0.496696  0.502154  0.498809  1
  Ge  Ge21  1  0.002575  0.996984  0.667936  1
  Ge  Ge22  1  0.002623  0.997148  0.001234  1
  Ge  Ge23  1  0.002403  0.996801  0.334128  1
