# generated using pymatgen
data_Hf3MgScRe24
_symmetry_space_group_name_H-M   'P 1'
_cell_length_a   8.46112802
_cell_length_b   8.45637333
_cell_length_c   8.45637417
_cell_angle_alpha   109.45983139
_cell_angle_beta   109.48261013
_cell_angle_gamma   109.48261354
_symmetry_Int_Tables_number   1
_chemical_formula_structural   Hf3MgScRe24
_chemical_formula_sum   'Hf3 Mg1 Sc1 Re24'
_cell_volume   465.70791300
_cell_formula_units_Z   1
loop_
 _symmetry_equiv_pos_site_id
 _symmetry_equiv_pos_as_xyz
  1  'x, y, z'
loop_
 _atom_site_type_symbol
 _atom_site_label
 _atom_site_symmetry_multiplicity
 _atom_site_fract_x
 _atom_site_fract_y
 _atom_site_fract_z
 _atom_site_occupancy
  Hf  Hf0  1  0.000029  0.634436  0.000000  1
  Hf  Hf1  1  0.000029  0.000000  0.634436  1
  Hf  Hf2  1  0.365593  0.365564  0.365564  1
  Mg  Mg3  1  0.998619  0.000000  0.000000  1
  Sc  Sc4  1  0.634074  0.000000  0.000000  1
  Re  Re5  1  0.396365  0.676163  0.000000  1
  Re  Re6  1  0.720203  0.323837  0.323837  1
  Re  Re7  1  0.396365  0.000000  0.676163  1
  Re  Re8  1  0.676600  0.395933  0.000000  1
  Re  Re9  1  0.999300  0.396256  0.675957  1
  Re  Re10  1  0.323343  0.720300  0.324043  1
  Re  Re11  1  0.323343  0.324043  0.720300  1
  Re  Re12  1  0.999300  0.675957  0.396256  1
  Re  Re13  1  0.676600  0.000000  0.395933  1
  Re  Re14  1  0.603043  0.603744  0.279700  1
  Re  Re15  1  0.280667  0.604067  0.604067  1
  Re  Re16  1  0.603043  0.279700  0.603744  1
  Re  Re17  1  0.376490  0.192390  0.000000  1
  Re  Re18  1  0.184099  0.807610  0.807610  1
  Re  Re19  1  0.376490  0.000000  0.192390  1
  Re  Re20  1  0.193508  0.376524  0.000000  1
  Re  Re21  1  0.999740  0.375923  0.192095  1
  Re  Re22  1  0.807645  0.183828  0.807905  1
  Re  Re23  1  0.807645  0.807905  0.183828  1
  Re  Re24  1  0.999740  0.192095  0.375923  1
  Re  Re25  1  0.193508  0.000000  0.376524  1
  Re  Re26  1  0.623817  0.624077  0.816172  1
  Re  Re27  1  0.816984  0.623476  0.623476  1
  Re  Re28  1  0.623817  0.816172  0.624077  1
