# generated using pymatgen
data_Cs7TaTlIn2P5
_symmetry_space_group_name_H-M   'P 1'
_cell_length_a   8.87785206
_cell_length_b   9.70095224
_cell_length_c   14.86578534
_cell_angle_alpha   85.38202762
_cell_angle_beta   85.21130255
_cell_angle_gamma   85.03557867
_symmetry_Int_Tables_number   1
_chemical_formula_structural   Cs7TaTlIn2P5
_chemical_formula_sum   'Cs14 Ta2 Tl2 In4 P10'
_cell_volume   1267.57203933
_cell_formula_units_Z   2
loop_
 _symmetry_equiv_pos_site_id
 _symmetry_equiv_pos_as_xyz
  1  'x, y, z'
loop_
 _atom_site_type_symbol
 _atom_site_label
 _atom_site_symmetry_multiplicity
 _atom_site_fract_x
 _atom_site_fract_y
 _atom_site_fract_z
 _atom_site_occupancy
  Cs  Cs0  1  0.232498  0.007231  0.468608  1
  Cs  Cs1  1  0.767507  0.992762  0.531385  1
  Cs  Cs2  1  0.182651  0.193373  0.867076  1
  Cs  Cs3  1  0.817353  0.806626  0.132924  1
  Cs  Cs4  1  0.740637  0.498719  0.974190  1
  Cs  Cs5  1  0.259359  0.501284  0.025805  1
  Cs  Cs6  1  0.323714  0.348274  0.596357  1
  Cs  Cs7  1  0.676282  0.651717  0.403646  1
  Cs  Cs8  1  0.687315  0.085151  0.890896  1
  Cs  Cs9  1  0.312680  0.914841  0.109109  1
  Cs  Cs10  1  0.834618  0.367674  0.647992  1
  Cs  Cs11  1  0.165394  0.632311  0.352011  1
  Cs  Cs12  1  0.730800  0.746631  0.749088  1
  Cs  Cs13  1  0.269191  0.253358  0.250908  1
  Ta  Ta14  1  0.355829  0.606692  0.771806  1
  Ta  Ta15  1  0.644175  0.393299  0.228190  1
  Tl  Tl16  1  0.368560  0.956363  0.703102  1
  Tl  Tl17  1  0.631449  0.043641  0.296892  1
  In  In18  1  0.098848  0.724845  0.627413  1
  In  In19  1  0.901119  0.275225  0.372617  1
  In  In20  1  0.067827  0.813200  0.865025  1
  In  In21  1  0.932187  0.186773  0.134984  1
  P  P22  1  0.377493  0.789930  0.872711  1
  P  P23  1  0.622511  0.210067  0.127283  1
  P  P24  1  0.409844  0.699426  0.615906  1
  P  P25  1  0.590154  0.300573  0.384093  1
  P  P26  1  0.092295  0.556130  0.786324  1
  P  P27  1  0.907703  0.443867  0.213680  1
  P  P28  1  0.510809  0.404427  0.806457  1
  P  P29  1  0.489199  0.595559  0.193543  1
  P  P30  1  0.036929  0.986937  0.703623  1
  P  P31  1  0.963074  0.013097  0.296355  1
