# generated using pymatgen
data_LiNd2AlPd2
_symmetry_space_group_name_H-M   'P 1'
_cell_length_a   4.42701400
_cell_length_b   7.11739400
_cell_length_c   8.17464300
_cell_angle_alpha   90.00000000
_cell_angle_beta   90.00000000
_cell_angle_gamma   90.00000000
_symmetry_Int_Tables_number   1
_chemical_formula_structural   LiNd2AlPd2
_chemical_formula_sum   'Li2 Nd4 Al2 Pd4'
_cell_volume   257.57321491
_cell_formula_units_Z   2
loop_
 _symmetry_equiv_pos_site_id
 _symmetry_equiv_pos_as_xyz
  1  'x, y, z'
loop_
 _atom_site_type_symbol
 _atom_site_label
 _atom_site_symmetry_multiplicity
 _atom_site_fract_x
 _atom_site_fract_y
 _atom_site_fract_z
 _atom_site_occupancy
  Li  Li0  1  0.250000  0.133993  0.064557  1
  Li  Li1  1  0.250000  0.633993  0.435443  1
  Nd  Nd2  1  0.250000  0.037842  0.688016  1
  Nd  Nd3  1  0.250000  0.537842  0.811984  1
  Nd  Nd4  1  0.750000  0.966854  0.315028  1
  Nd  Nd5  1  0.750000  0.466854  0.184972  1
  Al  Al6  1  0.750000  0.862995  0.938213  1
  Al  Al7  1  0.750000  0.362995  0.561787  1
  Pd  Pd8  1  0.250000  0.267511  0.398136  1
  Pd  Pd9  1  0.250000  0.767511  0.101864  1
  Pd  Pd10  1  0.750000  0.730805  0.620156  1
  Pd  Pd11  1  0.750000  0.230805  0.879844  1
