# generated using pymatgen
data_Tb4Al3(Ga5Ir2)3
_symmetry_space_group_name_H-M   'P 1'
_cell_length_a   7.58513430
_cell_length_b   7.58513346
_cell_length_c   9.53211490
_cell_angle_alpha   89.97484711
_cell_angle_beta   89.97484615
_cell_angle_gamma   119.71043448
_symmetry_Int_Tables_number   1
_chemical_formula_structural   Tb4Al3(Ga5Ir2)3
_chemical_formula_sum   'Tb4 Al3 Ga15 Ir6'
_cell_volume   476.32794698
_cell_formula_units_Z   1
loop_
 _symmetry_equiv_pos_site_id
 _symmetry_equiv_pos_as_xyz
  1  'x, y, z'
loop_
 _atom_site_type_symbol
 _atom_site_label
 _atom_site_symmetry_multiplicity
 _atom_site_fract_x
 _atom_site_fract_y
 _atom_site_fract_z
 _atom_site_occupancy
  Tb  Tb0  1  0.000182  0.669945  0.249882  1
  Tb  Tb1  1  0.000612  0.330558  0.749118  1
  Tb  Tb2  1  0.669945  0.000182  0.249882  1
  Tb  Tb3  1  0.330558  0.000612  0.749118  1
  Al  Al4  1  0.664693  0.664693  0.447964  1
  Al  Al5  1  0.668038  0.668038  0.052155  1
  Al  Al6  1  0.332347  0.332347  0.948432  1
  Ga  Ga7  1  0.127436  0.127436  0.249473  1
  Ga  Ga8  1  0.872612  0.872612  0.749546  1
  Ga  Ga9  1  0.000135  0.335174  0.078644  1
  Ga  Ga10  1  0.000042  0.665005  0.921121  1
  Ga  Ga11  1  0.999386  0.664893  0.578931  1
  Ga  Ga12  1  0.335506  0.001291  0.419396  1
  Ga  Ga13  1  0.001291  0.335506  0.419396  1
  Ga  Ga14  1  0.664893  0.999386  0.578931  1
  Ga  Ga15  1  0.665005  0.000042  0.921121  1
  Ga  Ga16  1  0.335174  0.000135  0.078644  1
  Ga  Ga17  1  0.329704  0.329704  0.563094  1
  Ga  Ga18  1  0.345963  0.549271  0.249882  1
  Ga  Ga19  1  0.657477  0.452007  0.750191  1
  Ga  Ga20  1  0.549271  0.345963  0.249882  1
  Ga  Ga21  1  0.452007  0.657477  0.750191  1
  Ir  Ir22  1  0.669005  0.330412  0.999676  1
  Ir  Ir23  1  0.330412  0.669005  0.999676  1
  Ir  Ir24  1  0.330343  0.671842  0.499230  1
  Ir  Ir25  1  0.671842  0.330343  0.499230  1
  Ir  Ir26  1  0.000187  0.000187  0.999337  1
  Ir  Ir27  1  0.995934  0.995934  0.497854  1
