# generated using pymatgen
data_Er3ZnPt8
_symmetry_space_group_name_H-M   'P 1'
_cell_length_a   17.25903200
_cell_length_b   4.18450500
_cell_length_c   5.78445900
_cell_angle_alpha   90.00000000
_cell_angle_beta   90.00000000
_cell_angle_gamma   90.00000000
_symmetry_Int_Tables_number   1
_chemical_formula_structural   Er3ZnPt8
_chemical_formula_sum   'Er6 Zn2 Pt16'
_cell_volume   417.75655418
_cell_formula_units_Z   2
loop_
 _symmetry_equiv_pos_site_id
 _symmetry_equiv_pos_as_xyz
  1  'x, y, z'
loop_
 _atom_site_type_symbol
 _atom_site_label
 _atom_site_symmetry_multiplicity
 _atom_site_fract_x
 _atom_site_fract_y
 _atom_site_fract_z
 _atom_site_occupancy
  Er  Er0  1  0.087654  0.000000  0.292671  1
  Er  Er1  1  0.412346  0.000000  0.292671  1
  Er  Er2  1  0.587654  0.000000  0.707329  1
  Er  Er3  1  0.912345  0.000000  0.707329  1
  Er  Er4  1  0.250000  0.000000  0.792721  1
  Er  Er5  1  0.750000  0.000000  0.207280  1
  Zn  Zn6  1  0.000000  0.499999  0.000000  1
  Zn  Zn7  1  0.500000  0.499999  0.000000  1
  Pt  Pt8  1  0.250000  0.000000  0.289788  1
  Pt  Pt9  1  0.750000  0.000000  0.710213  1
  Pt  Pt10  1  0.165969  0.499999  0.543778  1
  Pt  Pt11  1  0.334031  0.499999  0.543778  1
  Pt  Pt12  1  0.665968  0.499999  0.456221  1
  Pt  Pt13  1  0.834032  0.499999  0.456221  1
  Pt  Pt14  1  0.163836  0.499999  0.040872  1
  Pt  Pt15  1  0.336165  0.499999  0.040872  1
  Pt  Pt16  1  0.663836  0.499999  0.959127  1
  Pt  Pt17  1  0.836165  0.499999  0.959127  1
  Pt  Pt18  1  0.000000  0.499999  0.499999  1
  Pt  Pt19  1  0.500000  0.499999  0.499999  1
  Pt  Pt20  1  0.077770  0.000000  0.792228  1
  Pt  Pt21  1  0.422230  0.000000  0.792228  1
  Pt  Pt22  1  0.577769  0.000000  0.207772  1
  Pt  Pt23  1  0.922230  0.000000  0.207772  1
