# generated using pymatgen
data_Y12CdCo6
_symmetry_space_group_name_H-M   'P 1'
_cell_length_a   8.42850759
_cell_length_b   8.42850872
_cell_length_c   8.42850800
_cell_angle_alpha   109.47122131
_cell_angle_beta   109.47122402
_cell_angle_gamma   109.47122475
_symmetry_Int_Tables_number   1
_chemical_formula_structural   Y12CdCo6
_chemical_formula_sum   'Y12 Cd1 Co6'
_cell_volume   460.92492275
_cell_formula_units_Z   1
loop_
 _symmetry_equiv_pos_site_id
 _symmetry_equiv_pos_as_xyz
  1  'x, y, z'
loop_
 _atom_site_type_symbol
 _atom_site_label
 _atom_site_symmetry_multiplicity
 _atom_site_fract_x
 _atom_site_fract_y
 _atom_site_fract_z
 _atom_site_occupancy
  Y  Y0  1  0.303829  0.497098  0.193270  1
  Y  Y1  1  0.806730  0.696171  0.502902  1
  Y  Y2  1  0.110559  0.806730  0.303829  1
  Y  Y3  1  0.806730  0.303829  0.110559  1
  Y  Y4  1  0.889441  0.193270  0.696171  1
  Y  Y5  1  0.193270  0.303829  0.497098  1
  Y  Y6  1  0.497098  0.193270  0.303829  1
  Y  Y7  1  0.502902  0.806730  0.696171  1
  Y  Y8  1  0.193270  0.696171  0.889441  1
  Y  Y9  1  0.303829  0.110559  0.806730  1
  Y  Y10  1  0.696171  0.889441  0.193270  1
  Y  Y11  1  0.696171  0.502902  0.806730  1
  Cd  Cd12  1  0.000000  0.000000  0.000000  1
  Co  Co13  1  0.612459  0.500000  0.112459  1
  Co  Co14  1  0.112459  0.612459  0.500000  1
  Co  Co15  1  0.500000  0.887541  0.387541  1
  Co  Co16  1  0.887541  0.387541  0.500000  1
  Co  Co17  1  0.500000  0.112459  0.612459  1
  Co  Co18  1  0.387541  0.500000  0.887541  1
