# generated using pymatgen
data_MnNi2BO5
_symmetry_space_group_name_H-M   'P 1'
_cell_length_a   2.99382500
_cell_length_b   9.21288400
_cell_length_c   12.67664100
_cell_angle_alpha   90.00000000
_cell_angle_beta   90.00000000
_cell_angle_gamma   90.00000000
_symmetry_Int_Tables_number   1
_chemical_formula_structural   MnNi2BO5
_chemical_formula_sum   'Mn4 Ni8 B4 O20'
_cell_volume   349.64410062
_cell_formula_units_Z   4
loop_
 _symmetry_equiv_pos_site_id
 _symmetry_equiv_pos_as_xyz
  1  'x, y, z'
loop_
 _atom_site_type_symbol
 _atom_site_label
 _atom_site_symmetry_multiplicity
 _atom_site_fract_x
 _atom_site_fract_y
 _atom_site_fract_z
 _atom_site_occupancy
  Mn  Mn0  1  0.000000  0.241352  0.385046  1
  Mn  Mn1  1  0.000000  0.758648  0.614954  1
  Mn  Mn2  1  0.000000  0.258648  0.885046  1
  Mn  Mn3  1  0.000000  0.741352  0.114954  1
  Ni  Ni4  1  0.500000  0.000000  0.500000  1
  Ni  Ni5  1  0.500000  0.500000  0.000000  1
  Ni  Ni6  1  0.000000  0.000000  0.000000  1
  Ni  Ni7  1  0.000000  0.500000  0.500000  1
  Ni  Ni8  1  0.500000  0.002621  0.219355  1
  Ni  Ni9  1  0.500000  0.997379  0.780645  1
  Ni  Ni10  1  0.500000  0.497379  0.719355  1
  Ni  Ni11  1  0.500000  0.502621  0.280645  1
  B  B12  1  0.000000  0.278907  0.138992  1
  B  B13  1  0.000000  0.721093  0.861008  1
  B  B14  1  0.000000  0.221093  0.638992  1
  B  B15  1  0.000000  0.778907  0.361008  1
  O  O16  1  0.000000  0.353644  0.044186  1
  O  O17  1  0.000000  0.646356  0.955814  1
  O  O18  1  0.000000  0.146356  0.544186  1
  O  O19  1  0.000000  0.853644  0.455814  1
  O  O20  1  0.500000  0.110416  0.356967  1
  O  O21  1  0.500000  0.889584  0.643033  1
  O  O22  1  0.500000  0.389584  0.856967  1
  O  O23  1  0.500000  0.610416  0.143033  1
  O  O24  1  0.000000  0.355018  0.233631  1
  O  O25  1  0.000000  0.644982  0.766369  1
  O  O26  1  0.000000  0.144982  0.733631  1
  O  O27  1  0.000000  0.855018  0.266369  1
  O  O28  1  0.500000  0.383242  0.420355  1
  O  O29  1  0.500000  0.616758  0.579645  1
  O  O30  1  0.500000  0.116758  0.920355  1
  O  O31  1  0.500000  0.883242  0.079645  1
  O  O32  1  0.000000  0.126968  0.139804  1
  O  O33  1  0.000000  0.873032  0.860196  1
  O  O34  1  0.000000  0.373032  0.639804  1
  O  O35  1  0.000000  0.626968  0.360196  1
