# generated using pymatgen
data_Tb2Er3P7Rh9
_symmetry_space_group_name_H-M   'P 1'
_cell_length_a   3.94773100
_cell_length_b   9.96787937
_cell_length_c   9.96239477
_cell_angle_alpha   120.00008949
_cell_angle_beta   90.00196229
_cell_angle_gamma   89.99720064
_symmetry_Int_Tables_number   1
_chemical_formula_structural   Tb2Er3P7Rh9
_chemical_formula_sum   'Tb2 Er3 P7 Rh9'
_cell_volume   339.50354437
_cell_formula_units_Z   1
loop_
 _symmetry_equiv_pos_site_id
 _symmetry_equiv_pos_as_xyz
  1  'x, y, z'
loop_
 _atom_site_type_symbol
 _atom_site_label
 _atom_site_symmetry_multiplicity
 _atom_site_fract_x
 _atom_site_fract_y
 _atom_site_fract_z
 _atom_site_occupancy
  Tb  Tb0  1  0.261779  0.666394  0.332833  1
  Tb  Tb1  1  0.761977  0.333480  0.666749  1
  Er  Er2  1  0.761985  0.110130  0.875916  1
  Er  Er3  1  0.761970  0.123898  0.234252  1
  Er  Er4  1  0.761952  0.765984  0.889627  1
  P  P5  1  0.261880  0.000040  0.000040  1
  P  P6  1  0.761606  0.853746  0.578259  1
  P  P7  1  0.761771  0.421339  0.275681  1
  P  P8  1  0.761820  0.724145  0.145270  1
  P  P9  1  0.261935  0.113045  0.431734  1
  P  P10  1  0.261888  0.568388  0.681469  1
  P  P11  1  0.261940  0.318829  0.887233  1
  Rh  Rh12  1  0.261812  0.873992  0.172023  1
  Rh  Rh13  1  0.261649  0.828028  0.701724  1
  Rh  Rh14  1  0.261809  0.298382  0.126325  1
  Rh  Rh15  1  0.761880  0.595362  0.543509  1
  Rh  Rh16  1  0.761934  0.456202  0.051723  1
  Rh  Rh17  1  0.762005  0.947732  0.404519  1
  Rh  Rh18  1  0.262060  0.355910  0.435166  1
  Rh  Rh19  1  0.262069  0.565380  0.921426  1
  Rh  Rh20  1  0.262278  0.079593  0.644521  1
