# generated using pymatgen
data_TaNb3Ga3BMo
_symmetry_space_group_name_H-M   'P 1'
_cell_length_a   7.78942700
_cell_length_b   7.78942531
_cell_length_c   5.30911300
_cell_angle_alpha   90.00000000
_cell_angle_beta   90.00000000
_cell_angle_gamma   120.00000293
_symmetry_Int_Tables_number   1
_chemical_formula_structural   TaNb3Ga3BMo
_chemical_formula_sum   'Ta2 Nb6 Ga6 B2 Mo2'
_cell_volume   278.97386342
_cell_formula_units_Z   2
loop_
 _symmetry_equiv_pos_site_id
 _symmetry_equiv_pos_as_xyz
  1  'x, y, z'
loop_
 _atom_site_type_symbol
 _atom_site_label
 _atom_site_symmetry_multiplicity
 _atom_site_fract_x
 _atom_site_fract_y
 _atom_site_fract_z
 _atom_site_occupancy
  Ta  Ta0  1  0.666667  0.333333  0.500000  1
  Ta  Ta1  1  0.333333  0.666667  0.500000  1
  Nb  Nb2  1  0.243025  0.000000  0.254817  1
  Nb  Nb3  1  0.756975  0.000000  0.745183  1
  Nb  Nb4  1  0.000000  0.243025  0.254817  1
  Nb  Nb5  1  0.000000  0.756975  0.745183  1
  Nb  Nb6  1  0.756975  0.756975  0.254817  1
  Nb  Nb7  1  0.243025  0.243025  0.745183  1
  Ga  Ga8  1  0.597318  0.000000  0.241107  1
  Ga  Ga9  1  0.402682  0.000000  0.758893  1
  Ga  Ga10  1  0.000000  0.597318  0.241107  1
  Ga  Ga11  1  0.000000  0.402682  0.758893  1
  Ga  Ga12  1  0.402682  0.402682  0.241107  1
  Ga  Ga13  1  0.597318  0.597318  0.758893  1
  B  B14  1  0.000000  0.000000  0.000000  1
  B  B15  1  0.000000  0.000000  0.500000  1
  Mo  Mo16  1  0.333333  0.666667  0.000000  1
  Mo  Mo17  1  0.666667  0.333333  0.000000  1
