# generated using pymatgen
data_TbY2MoO7
_symmetry_space_group_name_H-M   'P 1'
_cell_length_a   6.49330234
_cell_length_b   6.49330202
_cell_length_c   7.49073104
_cell_angle_alpha   89.99327460
_cell_angle_beta   89.99327877
_cell_angle_gamma   108.78451093
_symmetry_Int_Tables_number   1
_chemical_formula_structural   TbY2MoO7
_chemical_formula_sum   'Tb2 Y4 Mo2 O14'
_cell_volume   299.00914638
_cell_formula_units_Z   2
loop_
 _symmetry_equiv_pos_site_id
 _symmetry_equiv_pos_as_xyz
  1  'x, y, z'
loop_
 _atom_site_type_symbol
 _atom_site_label
 _atom_site_symmetry_multiplicity
 _atom_site_fract_x
 _atom_site_fract_y
 _atom_site_fract_z
 _atom_site_occupancy
  Tb  Tb0  1  0.535879  0.000264  0.755321  1
  Tb  Tb1  1  0.999736  0.464121  0.744679  1
  Y  Y2  1  0.464317  0.999540  0.255436  1
  Y  Y3  1  0.000460  0.535683  0.244564  1
  Y  Y4  1  0.470039  0.470087  0.999956  1
  Y  Y5  1  0.529913  0.529961  0.500044  1
  Mo  Mo6  1  0.001336  0.001584  0.499925  1
  Mo  Mo7  1  0.998416  0.998664  0.000075  1
  O  O8  1  0.926981  0.073019  0.750000  1
  O  O9  1  0.636974  0.363026  0.750000  1
  O  O10  1  0.311733  0.059000  0.536288  1
  O  O11  1  0.941000  0.688267  0.963712  1
  O  O12  1  0.630423  0.369577  0.250000  1
  O  O13  1  0.917768  0.674224  0.525840  1
  O  O14  1  0.325776  0.082232  0.974160  1
  O  O15  1  0.082250  0.326061  0.026078  1
  O  O16  1  0.673939  0.917750  0.473922  1
  O  O17  1  0.369829  0.630171  0.750000  1
  O  O18  1  0.688611  0.941096  0.036514  1
  O  O19  1  0.058904  0.311389  0.463486  1
  O  O20  1  0.362653  0.637347  0.250000  1
  O  O21  1  0.073063  0.926937  0.250000  1
