# generated using pymatgen
data_NaSm3Hg4
_symmetry_space_group_name_H-M   'P 1'
_cell_length_a   6.53648924
_cell_length_b   6.53648935
_cell_length_c   5.31804800
_cell_angle_alpha   90.00000000
_cell_angle_beta   90.00000000
_cell_angle_gamma   109.53237400
_symmetry_Int_Tables_number   1
_chemical_formula_structural   NaSm3Hg4
_chemical_formula_sum   'Na1 Sm3 Hg4'
_cell_volume   214.14154774
_cell_formula_units_Z   1
loop_
 _symmetry_equiv_pos_site_id
 _symmetry_equiv_pos_as_xyz
  1  'x, y, z'
loop_
 _atom_site_type_symbol
 _atom_site_label
 _atom_site_symmetry_multiplicity
 _atom_site_fract_x
 _atom_site_fract_y
 _atom_site_fract_z
 _atom_site_occupancy
  Na  Na0  1  0.626158  0.373842  0.250000  1
  Sm  Sm1  1  0.853995  0.146005  0.750000  1
  Sm  Sm2  1  0.134498  0.865502  0.250000  1
  Sm  Sm3  1  0.383963  0.616037  0.750000  1
  Hg  Hg4  1  0.641951  0.873232  0.250000  1
  Hg  Hg5  1  0.349664  0.116996  0.750000  1
  Hg  Hg6  1  0.883004  0.650336  0.750000  1
  Hg  Hg7  1  0.126768  0.358049  0.250000  1
