# generated using pymatgen
data_Dy4Tc3RuF28
_symmetry_space_group_name_H-M   'P 1'
_cell_length_a   5.60106895
_cell_length_b   8.92807156
_cell_length_c   12.00102114
_cell_angle_alpha   62.80168450
_cell_angle_beta   90.06583064
_cell_angle_gamma   90.03644012
_symmetry_Int_Tables_number   1
_chemical_formula_structural   Dy4Tc3RuF28
_chemical_formula_sum   'Dy4 Tc3 Ru1 F28'
_cell_volume   533.77493262
_cell_formula_units_Z   1
loop_
 _symmetry_equiv_pos_site_id
 _symmetry_equiv_pos_as_xyz
  1  'x, y, z'
loop_
 _atom_site_type_symbol
 _atom_site_label
 _atom_site_symmetry_multiplicity
 _atom_site_fract_x
 _atom_site_fract_y
 _atom_site_fract_z
 _atom_site_occupancy
  Dy  Dy0  1  0.758933  0.810947  0.767389  1
  Dy  Dy1  1  0.258080  0.187336  0.732216  1
  Dy  Dy2  1  0.241133  0.188289  0.236304  1
  Dy  Dy3  1  0.741030  0.816460  0.264468  1
  Tc  Tc4  1  0.756835  0.272848  0.956406  1
  Tc  Tc5  1  0.256415  0.727076  0.542876  1
  Tc  Tc6  1  0.243349  0.726743  0.044213  1
  Ru  Ru7  1  0.743765  0.273644  0.456019  1
  F  F8  1  0.449031  0.705152  0.920346  1
  F  F9  1  0.945373  0.292204  0.583496  1
  F  F10  1  0.548648  0.293763  0.079388  1
  F  F11  1  0.048289  0.706708  0.419228  1
  F  F12  1  0.451256  0.279630  0.546499  1
  F  F13  1  0.951556  0.719228  0.954458  1
  F  F14  1  0.545948  0.717928  0.452277  1
  F  F15  1  0.045818  0.280124  0.047863  1
  F  F16  1  0.770664  0.519574  0.858180  1
  F  F17  1  0.268127  0.481120  0.641407  1
  F  F18  1  0.229669  0.480528  0.141809  1
  F  F19  1  0.732010  0.513785  0.360903  1
  F  F20  1  0.756288  0.026896  0.053043  1
  F  F21  1  0.257787  0.972617  0.447236  1
  F  F22  1  0.244484  0.971794  0.947493  1
  F  F23  1  0.745017  0.034292  0.548205  1
  F  F24  1  0.976641  0.733170  0.639385  1
  F  F25  1  0.478926  0.269088  0.857819  1
  F  F26  1  0.028191  0.271480  0.360848  1
  F  F27  1  0.523293  0.728785  0.142421  1
  F  F28  1  0.042098  0.746297  0.172004  1
  F  F29  1  0.546794  0.254012  0.326478  1
  F  F30  1  0.960001  0.252319  0.829968  1
  F  F31  1  0.460174  0.748776  0.669227  1
  F  F32  1  0.420350  0.972890  0.232565  1
  F  F33  1  0.920407  0.028584  0.268379  1
  F  F34  1  0.576554  0.025502  0.766566  1
  F  F35  1  0.077068  0.970409  0.732619  1
