# generated using pymatgen
data_Gd(Ho2Co)2
_symmetry_space_group_name_H-M   'P 1'
_cell_length_a   8.65635121
_cell_length_b   8.65635179
_cell_length_c   6.86610400
_cell_angle_alpha   84.28917535
_cell_angle_beta   84.28918162
_cell_angle_gamma   42.48435089
_symmetry_Int_Tables_number   1
_chemical_formula_structural   Gd(Ho2Co)2
_chemical_formula_sum   'Gd2 Ho8 Co4'
_cell_volume   345.49737454
_cell_formula_units_Z   2
loop_
 _symmetry_equiv_pos_site_id
 _symmetry_equiv_pos_as_xyz
  1  'x, y, z'
loop_
 _atom_site_type_symbol
 _atom_site_label
 _atom_site_symmetry_multiplicity
 _atom_site_fract_x
 _atom_site_fract_y
 _atom_site_fract_z
 _atom_site_occupancy
  Gd  Gd0  1  0.009517  0.799231  0.411604  1
  Gd  Gd1  1  0.200769  0.990483  0.088396  1
  Ho  Ho2  1  0.987416  0.202054  0.587993  1
  Ho  Ho3  1  0.797946  0.012584  0.912007  1
  Ho  Ho4  1  0.355346  0.215468  0.317441  1
  Ho  Ho5  1  0.784532  0.644654  0.182559  1
  Ho  Ho6  1  0.644353  0.782223  0.682803  1
  Ho  Ho7  1  0.217777  0.355647  0.817197  1
  Ho  Ho8  1  0.568239  0.431761  0.250000  1
  Ho  Ho9  1  0.429686  0.570314  0.750000  1
  Co  Co10  1  0.176701  0.600410  0.073359  1
  Co  Co11  1  0.399590  0.823299  0.426641  1
  Co  Co12  1  0.826800  0.398672  0.925992  1
  Co  Co13  1  0.601328  0.173200  0.574008  1
