# generated using pymatgen
data_Sc2P7IrRu11
_symmetry_space_group_name_H-M   'P 1'
_cell_length_a   9.33809508
_cell_length_b   9.37334691
_cell_length_c   3.91959300
_cell_angle_alpha   90.00000000
_cell_angle_beta   90.00000000
_cell_angle_gamma   119.74525700
_symmetry_Int_Tables_number   1
_chemical_formula_structural   Sc2P7IrRu11
_chemical_formula_sum   'Sc2 P7 Ir1 Ru11'
_cell_volume   297.87474926
_cell_formula_units_Z   1
loop_
 _symmetry_equiv_pos_site_id
 _symmetry_equiv_pos_as_xyz
  1  'x, y, z'
loop_
 _atom_site_type_symbol
 _atom_site_label
 _atom_site_symmetry_multiplicity
 _atom_site_fract_x
 _atom_site_fract_y
 _atom_site_fract_z
 _atom_site_occupancy
  Sc  Sc0  1  0.667275  0.334790  0.500000  1
  Sc  Sc1  1  0.331417  0.663656  0.000000  1
  P  P2  1  0.597363  0.714281  0.500000  1
  P  P3  1  0.999563  0.000360  0.000000  1
  P  P4  1  0.277823  0.877098  0.500000  1
  P  P5  1  0.120769  0.402693  0.500000  1
  P  P6  1  0.882962  0.573789  0.000000  1
  P  P7  1  0.428523  0.310037  0.000000  1
  P  P8  1  0.694795  0.122524  0.000000  1
  Ir  Ir9  1  0.548670  0.940773  0.500000  1
  Ru  Ru10  1  0.392327  0.445614  0.500000  1
  Ru  Ru11  1  0.913815  0.124472  0.500000  1
  Ru  Ru12  1  0.210376  0.086193  0.500000  1
  Ru  Ru13  1  0.876239  0.791804  0.500000  1
  Ru  Ru14  1  0.725145  0.892679  0.000000  1
  Ru  Ru15  1  0.109702  0.835644  0.000000  1
  Ru  Ru16  1  0.165408  0.273136  0.000000  1
  Ru  Ru17  1  0.430590  0.069982  0.000000  1
  Ru  Ru18  1  0.932875  0.360422  0.000000  1
  Ru  Ru19  1  0.641007  0.573184  0.000000  1
  Ru  Ru20  1  0.053356  0.606869  0.500000  1
