# generated using pymatgen
data_Sr4Si4GeIr9
_symmetry_space_group_name_H-M   'P 1'
_cell_length_a   5.72468400
_cell_length_b   5.72468283
_cell_length_c   22.93520900
_cell_angle_alpha   90.00000000
_cell_angle_beta   90.00000000
_cell_angle_gamma   119.99999520
_symmetry_Int_Tables_number   1
_chemical_formula_structural   Sr4Si4GeIr9
_chemical_formula_sum   'Sr8 Si8 Ge2 Ir18'
_cell_volume   650.93302157
_cell_formula_units_Z   2
loop_
 _symmetry_equiv_pos_site_id
 _symmetry_equiv_pos_as_xyz
  1  'x, y, z'
loop_
 _atom_site_type_symbol
 _atom_site_label
 _atom_site_symmetry_multiplicity
 _atom_site_fract_x
 _atom_site_fract_y
 _atom_site_fract_z
 _atom_site_occupancy
  Sr  Sr0  1  0.333333  0.666667  0.529148  1
  Sr  Sr1  1  0.666667  0.333333  0.470852  1
  Sr  Sr2  1  0.666667  0.333333  0.029148  1
  Sr  Sr3  1  0.333333  0.666667  0.970852  1
  Sr  Sr4  1  0.333333  0.666667  0.674205  1
  Sr  Sr5  1  0.666667  0.333333  0.325795  1
  Sr  Sr6  1  0.666667  0.333333  0.174205  1
  Sr  Sr7  1  0.333333  0.666667  0.825795  1
  Si  Si8  1  0.333333  0.666667  0.169946  1
  Si  Si9  1  0.666667  0.333333  0.830054  1
  Si  Si10  1  0.666667  0.333333  0.669946  1
  Si  Si11  1  0.333333  0.666667  0.330054  1
  Si  Si12  1  0.000000  0.000000  0.170358  1
  Si  Si13  1  0.000000  0.000000  0.829642  1
  Si  Si14  1  0.000000  0.000000  0.670358  1
  Si  Si15  1  0.000000  0.000000  0.329642  1
  Ge  Ge16  1  0.000000  0.000000  0.000000  1
  Ge  Ge17  1  0.000000  0.000000  0.500000  1
  Ir  Ir18  1  0.165969  0.331938  0.093892  1
  Ir  Ir19  1  0.834031  0.668062  0.906108  1
  Ir  Ir20  1  0.668062  0.834031  0.093892  1
  Ir  Ir21  1  0.834031  0.668062  0.593892  1
  Ir  Ir22  1  0.331938  0.165969  0.906108  1
  Ir  Ir23  1  0.165969  0.331938  0.406108  1
  Ir  Ir24  1  0.165969  0.834031  0.093892  1
  Ir  Ir25  1  0.331938  0.165969  0.593892  1
  Ir  Ir26  1  0.834031  0.165969  0.906108  1
  Ir  Ir27  1  0.668062  0.834031  0.406108  1
  Ir  Ir28  1  0.834031  0.165969  0.593892  1
  Ir  Ir29  1  0.165969  0.834031  0.406108  1
  Ir  Ir30  1  0.166184  0.332367  0.250000  1
  Ir  Ir31  1  0.833816  0.667633  0.750000  1
  Ir  Ir32  1  0.667633  0.833816  0.250000  1
  Ir  Ir33  1  0.332367  0.166184  0.750000  1
  Ir  Ir34  1  0.166184  0.833816  0.250000  1
  Ir  Ir35  1  0.833816  0.166184  0.750000  1
