# generated using pymatgen
data_DyHo5C3Cl5
_symmetry_space_group_name_H-M   'P 1'
_cell_length_a   3.64175705
_cell_length_b   8.27452432
_cell_length_c   10.26524293
_cell_angle_alpha   85.49027766
_cell_angle_beta   79.71815294
_cell_angle_gamma   77.31868918
_symmetry_Int_Tables_number   1
_chemical_formula_structural   DyHo5C3Cl5
_chemical_formula_sum   'Dy1 Ho5 C3 Cl5'
_cell_volume   296.68813518
_cell_formula_units_Z   1
loop_
 _symmetry_equiv_pos_site_id
 _symmetry_equiv_pos_as_xyz
  1  'x, y, z'
loop_
 _atom_site_type_symbol
 _atom_site_label
 _atom_site_symmetry_multiplicity
 _atom_site_fract_x
 _atom_site_fract_y
 _atom_site_fract_z
 _atom_site_occupancy
  Dy  Dy0  1  0.431813  0.923609  0.218439  1
  Ho  Ho1  1  0.574744  0.073955  0.777819  1
  Ho  Ho2  1  0.958982  0.428569  0.656486  1
  Ho  Ho3  1  0.683370  0.179676  0.456335  1
  Ho  Ho4  1  0.045062  0.569523  0.343955  1
  Ho  Ho5  1  0.321151  0.818878  0.542605  1
  C  C6  1  0.128000  0.122447  0.624718  1
  C  C7  1  0.877396  0.875884  0.373324  1
  C  C8  1  0.501908  0.499120  0.500392  1
  Cl  Cl9  1  0.753962  0.744977  0.753230  1
  Cl  Cl10  1  0.379709  0.379051  0.865273  1
  Cl  Cl11  1  0.249948  0.253881  0.246916  1
  Cl  Cl12  1  0.626975  0.614308  0.134613  1
  Cl  Cl13  1  0.004203  0.999709  0.995212  1
