# generated using pymatgen
data_Tb3Dy(CuTc3)2
_symmetry_space_group_name_H-M   'P 1'
_cell_length_a   9.23454417
_cell_length_b   9.23454478
_cell_length_c   9.08747682
_cell_angle_alpha   34.97364605
_cell_angle_beta   34.97364061
_cell_angle_gamma   32.87374851
_symmetry_Int_Tables_number   1
_chemical_formula_structural   Tb3Dy(CuTc3)2
_chemical_formula_sum   'Tb3 Dy1 Cu2 Tc6'
_cell_volume   218.61688950
_cell_formula_units_Z   1
loop_
 _symmetry_equiv_pos_site_id
 _symmetry_equiv_pos_as_xyz
  1  'x, y, z'
loop_
 _atom_site_type_symbol
 _atom_site_label
 _atom_site_symmetry_multiplicity
 _atom_site_fract_x
 _atom_site_fract_y
 _atom_site_fract_z
 _atom_site_occupancy
  Tb  Tb0  1  0.182193  0.182193  0.196723  1
  Tb  Tb1  1  0.817766  0.817766  0.803477  1
  Tb  Tb2  1  0.317838  0.317838  0.303228  1
  Dy  Dy3  1  0.681846  0.681846  0.697145  1
  Cu  Cu4  1  0.249881  0.249881  0.749816  1
  Cu  Cu5  1  0.750111  0.750111  0.250209  1
  Tc  Tc6  1  0.000108  0.000108  0.999785  1
  Tc  Tc7  1  0.500022  0.500022  0.500013  1
  Tc  Tc8  1  0.749742  0.249989  0.249979  1
  Tc  Tc9  1  0.250328  0.750175  0.749823  1
  Tc  Tc10  1  0.249989  0.749742  0.249979  1
  Tc  Tc11  1  0.750175  0.250328  0.749823  1
