# generated using pymatgen
data_Sm8Zr11Si16Ag
_symmetry_space_group_name_H-M   'P 1'
_cell_length_a   7.16413339
_cell_length_b   7.38741161
_cell_length_c   14.08752900
_cell_angle_alpha   90.00000000
_cell_angle_beta   90.00000000
_cell_angle_gamma   89.71318990
_symmetry_Int_Tables_number   1
_chemical_formula_structural   Sm8Zr11Si16Ag
_chemical_formula_sum   'Sm8 Zr11 Si16 Ag1'
_cell_volume   745.56470963
_cell_formula_units_Z   1
loop_
 _symmetry_equiv_pos_site_id
 _symmetry_equiv_pos_as_xyz
  1  'x, y, z'
loop_
 _atom_site_type_symbol
 _atom_site_label
 _atom_site_symmetry_multiplicity
 _atom_site_fract_x
 _atom_site_fract_y
 _atom_site_fract_z
 _atom_site_occupancy
  Sm  Sm0  1  0.012630  0.173850  0.099327  1
  Sm  Sm1  1  0.986517  0.820423  0.901302  1
  Sm  Sm2  1  0.480512  0.673410  0.900163  1
  Sm  Sm3  1  0.986517  0.820423  0.598698  1
  Sm  Sm4  1  0.514059  0.325356  0.096302  1
  Sm  Sm5  1  0.012630  0.173850  0.400673  1
  Sm  Sm6  1  0.514059  0.325356  0.403698  1
  Sm  Sm7  1  0.480512  0.673410  0.599837  1
  Zr  Zr8  1  0.841917  0.505687  0.250000  1
  Zr  Zr9  1  0.341399  0.997116  0.250000  1
  Zr  Zr10  1  0.657661  0.001524  0.750000  1
  Zr  Zr11  1  0.323728  0.183255  0.625992  1
  Zr  Zr12  1  0.670067  0.821950  0.376121  1
  Zr  Zr13  1  0.171083  0.680448  0.374752  1
  Zr  Zr14  1  0.670067  0.821950  0.123879  1
  Zr  Zr15  1  0.840583  0.323005  0.625878  1
  Zr  Zr16  1  0.323728  0.183255  0.874008  1
  Zr  Zr17  1  0.840583  0.323005  0.874122  1
  Zr  Zr18  1  0.171083  0.680448  0.125248  1
  Si  Si19  1  0.031342  0.104925  0.750000  1
  Si  Si20  1  0.963942  0.879109  0.250000  1
  Si  Si21  1  0.466752  0.621128  0.250000  1
  Si  Si22  1  0.541818  0.374206  0.750000  1
  Si  Si23  1  0.287249  0.888389  0.750000  1
  Si  Si24  1  0.715024  0.120728  0.250000  1
  Si  Si25  1  0.218203  0.378865  0.250000  1
  Si  Si26  1  0.774807  0.619868  0.750000  1
  Si  Si27  1  0.157951  0.460869  0.530806  1
  Si  Si28  1  0.845325  0.533424  0.459752  1
  Si  Si29  1  0.346011  0.967857  0.460087  1
  Si  Si30  1  0.845325  0.533424  0.040248  1
  Si  Si31  1  0.652612  0.034235  0.543602  1
  Si  Si32  1  0.157951  0.460869  0.969194  1
  Si  Si33  1  0.652612  0.034235  0.956398  1
  Si  Si34  1  0.346011  0.967857  0.039913  1
  Ag  Ag35  1  0.157725  0.512294  0.750000  1
