# generated using pymatgen
data_TbY11CoTc3
_symmetry_space_group_name_H-M   'P 1'
_cell_length_a   6.32409596
_cell_length_b   7.36443124
_cell_length_c   9.23673700
_cell_angle_alpha   90.00000000
_cell_angle_beta   90.00000000
_cell_angle_gamma   90.25151551
_symmetry_Int_Tables_number   1
_chemical_formula_structural   TbY11CoTc3
_chemical_formula_sum   'Tb1 Y11 Co1 Tc3'
_cell_volume   430.18182373
_cell_formula_units_Z   1
loop_
 _symmetry_equiv_pos_site_id
 _symmetry_equiv_pos_as_xyz
  1  'x, y, z'
loop_
 _atom_site_type_symbol
 _atom_site_label
 _atom_site_symmetry_multiplicity
 _atom_site_fract_x
 _atom_site_fract_y
 _atom_site_fract_z
 _atom_site_occupancy
  Tb  Tb0  1  0.871422  0.542889  0.250000  1
  Y  Y1  1  0.332528  0.677159  0.065182  1
  Y  Y2  1  0.162346  0.176758  0.437318  1
  Y  Y3  1  0.664671  0.326730  0.564561  1
  Y  Y4  1  0.834128  0.821818  0.936512  1
  Y  Y5  1  0.664671  0.326730  0.935439  1
  Y  Y6  1  0.834128  0.821818  0.563488  1
  Y  Y7  1  0.332528  0.677159  0.434818  1
  Y  Y8  1  0.162346  0.176758  0.062682  1
  Y  Y9  1  0.626278  0.041756  0.250000  1
  Y  Y10  1  0.141921  0.456195  0.750000  1
  Y  Y11  1  0.372503  0.951512  0.750000  1
  Co  Co12  1  0.538466  0.616266  0.750000  1
  Tc  Tc13  1  0.036443  0.884259  0.250000  1
  Tc  Tc14  1  0.462832  0.388547  0.250000  1
  Tc  Tc15  1  0.962787  0.113644  0.750000  1
