# generated using pymatgen
data_TbGd4HoTa2O14
_symmetry_space_group_name_H-M   'P 1'
_cell_length_a   6.52923895
_cell_length_b   6.56587631
_cell_length_c   7.54612904
_cell_angle_alpha   89.96175618
_cell_angle_beta   89.98893519
_cell_angle_gamma   108.68051996
_symmetry_Int_Tables_number   1
_chemical_formula_structural   TbGd4HoTa2O14
_chemical_formula_sum   'Tb1 Gd4 Ho1 Ta2 O14'
_cell_volume   306.46134461
_cell_formula_units_Z   1
loop_
 _symmetry_equiv_pos_site_id
 _symmetry_equiv_pos_as_xyz
  1  'x, y, z'
loop_
 _atom_site_type_symbol
 _atom_site_label
 _atom_site_symmetry_multiplicity
 _atom_site_fract_x
 _atom_site_fract_y
 _atom_site_fract_z
 _atom_site_occupancy
  Tb  Tb0  1  0.536166  0.999279  0.758386  1
  Gd  Gd1  1  0.530488  0.535571  0.497749  1
  Gd  Gd2  1  0.468214  0.461729  0.998503  1
  Gd  Gd3  1  0.999553  0.533622  0.242163  1
  Gd  Gd4  1  0.000511  0.467374  0.741989  1
  Ho  Ho5  1  0.464132  0.999804  0.258640  1
  Ta  Ta6  1  0.002449  0.001837  0.499078  1
  Ta  Ta7  1  0.997302  0.998523  0.000208  1
  O  O8  1  0.931791  0.061126  0.749750  1
  O  O9  1  0.069208  0.937573  0.249793  1
  O  O10  1  0.362548  0.644810  0.247329  1
  O  O11  1  0.637192  0.357470  0.747679  1
  O  O12  1  0.374258  0.632743  0.751636  1
  O  O13  1  0.623960  0.364084  0.252461  1
  O  O14  1  0.326195  0.076915  0.975826  1
  O  O15  1  0.674742  0.923937  0.472171  1
  O  O16  1  0.304380  0.039230  0.543920  1
  O  O17  1  0.697377  0.963320  0.048105  1
  O  O18  1  0.060347  0.308637  0.459651  1
  O  O19  1  0.939433  0.691993  0.959662  1
  O  O20  1  0.915420  0.674007  0.522777  1
  O  O21  1  0.084336  0.326419  0.022521  1
