# generated using pymatgen
data_Ca5Pr(RuO6)2
_symmetry_space_group_name_H-M   'P 1'
_cell_length_a   5.87640837
_cell_length_b   5.60217432
_cell_length_c   9.80516693
_cell_angle_alpha   55.50876770
_cell_angle_beta   89.62081436
_cell_angle_gamma   89.80942078
_symmetry_Int_Tables_number   1
_chemical_formula_structural   Ca5Pr(RuO6)2
_chemical_formula_sum   'Ca5 Pr1 Ru2 O12'
_cell_volume   266.04395438
_cell_formula_units_Z   1
loop_
 _symmetry_equiv_pos_site_id
 _symmetry_equiv_pos_as_xyz
  1  'x, y, z'
loop_
 _atom_site_type_symbol
 _atom_site_label
 _atom_site_symmetry_multiplicity
 _atom_site_fract_x
 _atom_site_fract_y
 _atom_site_fract_z
 _atom_site_occupancy
  Ca  Ca0  1  0.560772  0.764686  0.252258  1
  Ca  Ca1  1  0.939524  0.767147  0.753467  1
  Ca  Ca2  1  0.060689  0.234537  0.246399  1
  Ca  Ca3  1  0.997505  0.504372  0.495525  1
  Ca  Ca4  1  0.502065  0.494471  0.005107  1
  Pr  Pr5  1  0.436347  0.234041  0.747925  1
  Ru  Ru6  1  0.998885  0.997986  0.002620  1
  Ru  Ru7  1  0.501009  0.001953  0.496830  1
  O  O8  1  0.718898  0.894502  0.933287  1
  O  O9  1  0.282532  0.103428  0.063727  1
  O  O10  1  0.224639  0.103758  0.571918  1
  O  O11  1  0.777705  0.901564  0.428894  1
  O  O12  1  0.042526  0.345495  0.771320  1
  O  O13  1  0.950235  0.655094  0.224960  1
  O  O14  1  0.550024  0.658759  0.729191  1
  O  O15  1  0.446227  0.340735  0.275096  1
  O  O16  1  0.184273  0.780580  0.939986  1
  O  O17  1  0.821418  0.223530  0.058309  1
  O  O18  1  0.681017  0.231325  0.553497  1
  O  O19  1  0.323709  0.762036  0.449681  1
