# generated using pymatgen
data_LiSm2Zr(B6Os)2
_symmetry_space_group_name_H-M   'P 1'
_cell_length_a   3.59948800
_cell_length_b   8.98240967
_cell_length_c   11.40589824
_cell_angle_alpha   89.70381587
_cell_angle_beta   90.00000000
_cell_angle_gamma   90.00000000
_symmetry_Int_Tables_number   1
_chemical_formula_structural   LiSm2Zr(B6Os)2
_chemical_formula_sum   'Li2 Sm4 Zr2 B24 Os4'
_cell_volume   368.77143943
_cell_formula_units_Z   2
loop_
 _symmetry_equiv_pos_site_id
 _symmetry_equiv_pos_as_xyz
  1  'x, y, z'
loop_
 _atom_site_type_symbol
 _atom_site_label
 _atom_site_symmetry_multiplicity
 _atom_site_fract_x
 _atom_site_fract_y
 _atom_site_fract_z
 _atom_site_occupancy
  Li  Li0  1  0.000000  0.945541  0.376301  1
  Li  Li1  1  0.000000  0.054459  0.623699  1
  Sm  Sm2  1  0.000000  0.315515  0.416029  1
  Sm  Sm3  1  0.000000  0.684485  0.583971  1
  Sm  Sm4  1  0.000000  0.823390  0.087313  1
  Sm  Sm5  1  0.000000  0.176610  0.912687  1
  Zr  Zr6  1  0.000000  0.443629  0.128388  1
  Zr  Zr7  1  0.000000  0.556371  0.871612  1
  B  B8  1  0.500000  0.556341  0.431372  1
  B  B9  1  0.500000  0.443659  0.568628  1
  B  B10  1  0.500000  0.054669  0.069514  1
  B  B11  1  0.500000  0.945331  0.930486  1
  B  B12  1  0.500000  0.758201  0.416288  1
  B  B13  1  0.500000  0.241799  0.583712  1
  B  B14  1  0.500000  0.251508  0.083209  1
  B  B15  1  0.500000  0.748492  0.916791  1
  B  B16  1  0.500000  0.796012  0.265910  1
  B  B17  1  0.500000  0.203988  0.734090  1
  B  B18  1  0.500000  0.289669  0.236586  1
  B  B19  1  0.500000  0.710331  0.763414  1
  B  B20  1  0.500000  0.629675  0.185438  1
  B  B21  1  0.500000  0.370325  0.814562  1
  B  B22  1  0.500000  0.122236  0.319665  1
  B  B23  1  0.500000  0.877764  0.680335  1
  B  B24  1  0.500000  0.981124  0.215573  1
  B  B25  1  0.500000  0.018876  0.784427  1
  B  B26  1  0.500000  0.481602  0.288164  1
  B  B27  1  0.500000  0.518398  0.711836  1
  B  B28  1  0.500000  0.600582  0.026923  1
  B  B29  1  0.500000  0.399418  0.973077  1
  B  B30  1  0.500000  0.090393  0.475833  1
  B  B31  1  0.500000  0.909607  0.524167  1
  Os  Os32  1  0.000000  0.641193  0.317635  1
  Os  Os33  1  0.000000  0.358807  0.682365  1
  Os  Os34  1  0.000000  0.139581  0.182863  1
  Os  Os35  1  0.000000  0.860419  0.817137  1
