# generated using pymatgen
data_Ho16MgIn3(CoIr)2
_symmetry_space_group_name_H-M   'P 1'
_cell_length_a   9.53800971
_cell_length_b   9.55845616
_cell_length_c   9.55845748
_cell_angle_alpha   60.23594963
_cell_angle_beta   60.02781040
_cell_angle_gamma   60.02780370
_symmetry_Int_Tables_number   1
_chemical_formula_structural   Ho16MgIn3(CoIr)2
_chemical_formula_sum   'Ho16 Mg1 In3 Co2 Ir2'
_cell_volume   617.54674661
_cell_formula_units_Z   1
loop_
 _symmetry_equiv_pos_site_id
 _symmetry_equiv_pos_as_xyz
  1  'x, y, z'
loop_
 _atom_site_type_symbol
 _atom_site_label
 _atom_site_symmetry_multiplicity
 _atom_site_fract_x
 _atom_site_fract_y
 _atom_site_fract_z
 _atom_site_occupancy
  Ho  Ho0  1  0.438740  0.437041  0.061775  1
  Ho  Ho1  1  0.650219  0.656879  0.040508  1
  Ho  Ho2  1  0.192137  0.812362  0.183271  1
  Ho  Ho3  1  0.059770  0.439282  0.060490  1
  Ho  Ho4  1  0.189573  0.810842  0.810842  1
  Ho  Ho5  1  0.060560  0.439237  0.439237  1
  Ho  Ho6  1  0.812567  0.188277  0.188277  1
  Ho  Ho7  1  0.647597  0.654768  0.654768  1
  Ho  Ho8  1  0.810940  0.186279  0.809240  1
  Ho  Ho9  1  0.192137  0.183271  0.812362  1
  Ho  Ho10  1  0.043836  0.653976  0.653976  1
  Ho  Ho11  1  0.438445  0.061633  0.061633  1
  Ho  Ho12  1  0.059770  0.060490  0.439282  1
  Ho  Ho13  1  0.650219  0.040508  0.656879  1
  Ho  Ho14  1  0.810940  0.809240  0.186279  1
  Ho  Ho15  1  0.438740  0.061775  0.437041  1
  Mg  Mg16  1  0.423411  0.422423  0.422423  1
  In  In17  1  0.417977  0.416809  0.747179  1
  In  In18  1  0.417977  0.747179  0.416809  1
  In  In19  1  0.746824  0.417522  0.417522  1
  Co  Co20  1  0.422109  0.859251  0.859251  1
  Co  Co21  1  0.858171  0.858945  0.858945  1
  Ir  Ir22  1  0.858670  0.423490  0.858520  1
  Ir  Ir23  1  0.858670  0.858520  0.423490  1
