# generated using pymatgen
data_Hf5Zr13Ta2(ReO)6
_symmetry_space_group_name_H-M   'P 1'
_cell_length_a   8.64371700
_cell_length_b   8.63565883
_cell_length_c   8.52247500
_cell_angle_alpha   90.00000000
_cell_angle_beta   90.00000000
_cell_angle_gamma   120.03087623
_symmetry_Int_Tables_number   1
_chemical_formula_structural   Hf5Zr13Ta2(ReO)6
_chemical_formula_sum   'Hf5 Zr13 Ta2 Re6 O6'
_cell_volume   550.75338831
_cell_formula_units_Z   1
loop_
 _symmetry_equiv_pos_site_id
 _symmetry_equiv_pos_as_xyz
  1  'x, y, z'
loop_
 _atom_site_type_symbol
 _atom_site_label
 _atom_site_symmetry_multiplicity
 _atom_site_fract_x
 _atom_site_fract_y
 _atom_site_fract_z
 _atom_site_occupancy
  Hf  Hf0  1  0.546756  0.093514  0.750000  1
  Hf  Hf1  1  0.092531  0.545894  0.250000  1
  Hf  Hf2  1  0.906694  0.453316  0.750000  1
  Hf  Hf3  1  0.453364  0.545894  0.250000  1
  Hf  Hf4  1  0.546621  0.453316  0.750000  1
  Zr  Zr5  1  0.452631  0.905261  0.250000  1
  Zr  Zr6  1  0.203715  0.407430  0.563493  1
  Zr  Zr7  1  0.796277  0.592552  0.436602  1
  Zr  Zr8  1  0.592880  0.796360  0.563857  1
  Zr  Zr9  1  0.796277  0.592552  0.063398  1
  Zr  Zr10  1  0.407338  0.203732  0.437076  1
  Zr  Zr11  1  0.203715  0.407430  0.936507  1
  Zr  Zr12  1  0.203479  0.796360  0.563857  1
  Zr  Zr13  1  0.407338  0.203732  0.062924  1
  Zr  Zr14  1  0.796396  0.203732  0.437076  1
  Zr  Zr15  1  0.592880  0.796360  0.936143  1
  Zr  Zr16  1  0.796396  0.203732  0.062924  1
  Zr  Zr17  1  0.203479  0.796360  0.936143  1
  Ta  Ta18  1  0.000045  0.000090  0.999816  1
  Ta  Ta19  1  0.000045  0.000090  0.500184  1
  Re  Re20  1  0.112217  0.224434  0.250000  1
  Re  Re21  1  0.887965  0.775931  0.750000  1
  Re  Re22  1  0.776920  0.887632  0.250000  1
  Re  Re23  1  0.223940  0.112192  0.750000  1
  Re  Re24  1  0.110712  0.887632  0.250000  1
  Re  Re25  1  0.888251  0.112192  0.750000  1
  O  O26  1  0.500504  0.001008  0.997160  1
  O  O27  1  0.000018  0.500065  0.999997  1
  O  O28  1  0.500504  0.001008  0.502840  1
  O  O29  1  0.500047  0.500065  0.999997  1
  O  O30  1  0.000018  0.500065  0.500003  1
  O  O31  1  0.500047  0.500065  0.500003  1
