# generated using pymatgen
data_TaV2(BOs)3
_symmetry_space_group_name_H-M   'P 1'
_cell_length_a   3.01742400
_cell_length_b   8.85991200
_cell_length_c   15.36825400
_cell_angle_alpha   90.00000000
_cell_angle_beta   90.00000000
_cell_angle_gamma   90.00000000
_symmetry_Int_Tables_number   1
_chemical_formula_structural   TaV2(BOs)3
_chemical_formula_sum   'Ta4 V8 B12 Os12'
_cell_volume   410.85660995
_cell_formula_units_Z   4
loop_
 _symmetry_equiv_pos_site_id
 _symmetry_equiv_pos_as_xyz
  1  'x, y, z'
loop_
 _atom_site_type_symbol
 _atom_site_label
 _atom_site_symmetry_multiplicity
 _atom_site_fract_x
 _atom_site_fract_y
 _atom_site_fract_z
 _atom_site_occupancy
  Ta  Ta0  1  0.000000  0.686387  0.201498  1
  Ta  Ta1  1  0.000000  0.313613  0.798502  1
  Ta  Ta2  1  0.000000  0.186387  0.298502  1
  Ta  Ta3  1  0.000000  0.813613  0.701498  1
  V  V4  1  0.000000  0.789165  0.497425  1
  V  V5  1  0.000000  0.210835  0.502575  1
  V  V6  1  0.000000  0.289165  0.002575  1
  V  V7  1  0.000000  0.710835  0.997425  1
  V  V8  1  0.000000  0.519074  0.588532  1
  V  V9  1  0.000000  0.480926  0.411468  1
  V  V10  1  0.000000  0.019074  0.911468  1
  V  V11  1  0.000000  0.980926  0.088532  1
  B  B12  1  0.500000  0.602850  0.495187  1
  B  B13  1  0.500000  0.397150  0.504813  1
  B  B14  1  0.500000  0.102850  0.004813  1
  B  B15  1  0.500000  0.897150  0.995187  1
  B  B16  1  0.000000  0.610016  0.834305  1
  B  B17  1  0.000000  0.389984  0.165695  1
  B  B18  1  0.000000  0.110016  0.665695  1
  B  B19  1  0.000000  0.889984  0.334305  1
  B  B20  1  0.500000  0.709630  0.594936  1
  B  B21  1  0.500000  0.290370  0.405064  1
  B  B22  1  0.500000  0.209630  0.905064  1
  B  B23  1  0.500000  0.790370  0.094936  1
  Os  Os24  1  0.500000  0.714183  0.359381  1
  Os  Os25  1  0.500000  0.285817  0.640619  1
  Os  Os26  1  0.500000  0.214183  0.140619  1
  Os  Os27  1  0.500000  0.785817  0.859381  1
  Os  Os28  1  0.500000  0.517921  0.089225  1
  Os  Os29  1  0.500000  0.482079  0.910775  1
  Os  Os30  1  0.500000  0.017921  0.410775  1
  Os  Os31  1  0.500000  0.982079  0.589225  1
  Os  Os32  1  0.500000  0.560674  0.730717  1
  Os  Os33  1  0.500000  0.439326  0.269283  1
  Os  Os34  1  0.500000  0.060674  0.769283  1
  Os  Os35  1  0.500000  0.939326  0.230717  1
