# generated using pymatgen
data_ErTm7Ti11Si16Ru
_symmetry_space_group_name_H-M   'P 1'
_cell_length_a   6.98458884
_cell_length_b   6.98469505
_cell_length_c   12.80254701
_cell_angle_alpha   90.02295699
_cell_angle_beta   89.97203919
_cell_angle_gamma   89.88510419
_symmetry_Int_Tables_number   1
_chemical_formula_structural   ErTm7Ti11Si16Ru
_chemical_formula_sum   'Er1 Tm7 Ti11 Si16 Ru1'
_cell_volume   624.57373197
_cell_formula_units_Z   1
loop_
 _symmetry_equiv_pos_site_id
 _symmetry_equiv_pos_as_xyz
  1  'x, y, z'
loop_
 _atom_site_type_symbol
 _atom_site_label
 _atom_site_symmetry_multiplicity
 _atom_site_fract_x
 _atom_site_fract_y
 _atom_site_fract_z
 _atom_site_occupancy
  Er  Er0  1  0.998475  0.657996  0.031405  1
  Tm  Tm1  1  0.341107  0.003631  0.467419  1
  Tm  Tm2  1  0.496814  0.841286  0.717896  1
  Tm  Tm3  1  0.500244  0.158842  0.215072  1
  Tm  Tm4  1  0.841277  0.496789  0.282135  1
  Tm  Tm5  1  0.158861  0.500236  0.784892  1
  Tm  Tm6  1  0.657794  0.998654  0.968533  1
  Tm  Tm7  1  0.003636  0.341107  0.532559  1
  Ti  Ti8  1  0.174772  0.827414  0.248497  1
  Ti  Ti9  1  0.827368  0.174734  0.751554  1
  Ti  Ti10  1  0.674027  0.674039  0.499995  1
  Ti  Ti11  1  0.149853  0.002643  0.875017  1
  Ti  Ti12  1  0.493098  0.655208  0.125037  1
  Ti  Ti13  1  0.506572  0.349662  0.627922  1
  Ti  Ti14  1  0.655148  0.493067  0.874948  1
  Ti  Ti15  1  0.349685  0.506587  0.372085  1
  Ti  Ti16  1  0.849221  0.994670  0.375001  1
  Ti  Ti17  1  0.002611  0.149895  0.124978  1
  Ti  Ti18  1  0.994649  0.849220  0.624984  1
  Si  Si19  1  0.203188  0.133172  0.684332  1
  Si  Si20  1  0.372020  0.700880  0.932957  1
  Si  Si21  1  0.631841  0.296354  0.433831  1
  Si  Si22  1  0.700667  0.371635  0.067004  1
  Si  Si23  1  0.296341  0.631844  0.566171  1
  Si  Si24  1  0.795889  0.867296  0.183378  1
  Si  Si25  1  0.133190  0.203205  0.315661  1
  Si  Si26  1  0.867114  0.796085  0.816666  1
  Si  Si27  1  0.287916  0.954180  0.064383  1
  Si  Si28  1  0.546994  0.793111  0.315636  1
  Si  Si29  1  0.450059  0.208502  0.818152  1
  Si  Si30  1  0.793117  0.547035  0.684356  1
  Si  Si31  1  0.208662  0.449881  0.181974  1
  Si  Si32  1  0.707770  0.048006  0.565631  1
  Si  Si33  1  0.953974  0.287503  0.935574  1
  Si  Si34  1  0.048019  0.707768  0.434366  1
  Ru  Ru35  1  0.328029  0.327864  0.000001  1
