# generated using pymatgen
data_Ta2BeSiPt2
_symmetry_space_group_name_H-M   'P 1'
_cell_length_a   3.71350700
_cell_length_b   6.38623893
_cell_length_c   7.35648491
_cell_angle_alpha   90.27932856
_cell_angle_beta   90.00000000
_cell_angle_gamma   90.00000000
_symmetry_Int_Tables_number   1
_chemical_formula_structural   Ta2BeSiPt2
_chemical_formula_sum   'Ta4 Be2 Si2 Pt4'
_cell_volume   174.45948933
_cell_formula_units_Z   2
loop_
 _symmetry_equiv_pos_site_id
 _symmetry_equiv_pos_as_xyz
  1  'x, y, z'
loop_
 _atom_site_type_symbol
 _atom_site_label
 _atom_site_symmetry_multiplicity
 _atom_site_fract_x
 _atom_site_fract_y
 _atom_site_fract_z
 _atom_site_occupancy
  Ta  Ta0  1  0.250000  0.520989  0.161361  1
  Ta  Ta1  1  0.750000  0.479011  0.838639  1
  Ta  Ta2  1  0.750000  0.970543  0.679107  1
  Ta  Ta3  1  0.250000  0.029457  0.320893  1
  Be  Be4  1  0.250000  0.768798  0.877161  1
  Be  Be5  1  0.750000  0.231202  0.122839  1
  Si  Si6  1  0.750000  0.737892  0.369509  1
  Si  Si7  1  0.250000  0.262108  0.630491  1
  Pt  Pt8  1  0.250000  0.649358  0.573510  1
  Pt  Pt9  1  0.750000  0.350642  0.426490  1
  Pt  Pt10  1  0.750000  0.851051  0.055099  1
  Pt  Pt11  1  0.250000  0.148949  0.944901  1
