# generated using pymatgen
data_Dy2Hf3Sc3(P3Ir4)4
_symmetry_space_group_name_H-M   'P 1'
_cell_length_a   12.83128300
_cell_length_b   12.83128271
_cell_length_c   3.93293200
_cell_angle_alpha   90.00000000
_cell_angle_beta   90.00000000
_cell_angle_gamma   119.99999816
_symmetry_Int_Tables_number   1
_chemical_formula_structural   Dy2Hf3Sc3(P3Ir4)4
_chemical_formula_sum   'Dy2 Hf3 Sc3 P12 Ir16'
_cell_volume   560.77318055
_cell_formula_units_Z   1
loop_
 _symmetry_equiv_pos_site_id
 _symmetry_equiv_pos_as_xyz
  1  'x, y, z'
loop_
 _atom_site_type_symbol
 _atom_site_label
 _atom_site_symmetry_multiplicity
 _atom_site_fract_x
 _atom_site_fract_y
 _atom_site_fract_z
 _atom_site_occupancy
  Dy  Dy0  1  0.333333  0.666667  0.000000  1
  Dy  Dy1  1  0.666667  0.333333  0.000000  1
  Hf  Hf2  1  0.450298  0.000000  0.000000  1
  Hf  Hf3  1  0.000000  0.450298  0.000000  1
  Hf  Hf4  1  0.549702  0.549702  0.000000  1
  Sc  Sc5  1  0.816883  0.000000  0.500000  1
  Sc  Sc6  1  0.000000  0.816883  0.500000  1
  Sc  Sc7  1  0.183117  0.183117  0.500000  1
  P  P8  1  0.172956  0.000000  0.000000  1
  P  P9  1  0.000000  0.172956  0.000000  1
  P  P10  1  0.827044  0.827044  0.000000  1
  P  P11  1  0.169615  0.481880  0.500000  1
  P  P12  1  0.518120  0.687734  0.500000  1
  P  P13  1  0.312266  0.830385  0.500000  1
  P  P14  1  0.687734  0.518120  0.500000  1
  P  P15  1  0.830385  0.312266  0.500000  1
  P  P16  1  0.481880  0.169615  0.500000  1
  P  P17  1  0.653626  0.000000  0.000000  1
  P  P18  1  0.000000  0.653626  0.000000  1
  P  P19  1  0.346374  0.346374  0.000000  1
  Ir  Ir20  1  0.358729  0.493183  0.500000  1
  Ir  Ir21  1  0.506817  0.865546  0.500000  1
  Ir  Ir22  1  0.134454  0.641271  0.500000  1
  Ir  Ir23  1  0.865546  0.506817  0.500000  1
  Ir  Ir24  1  0.641271  0.134454  0.500000  1
  Ir  Ir25  1  0.493183  0.358729  0.500000  1
  Ir  Ir26  1  0.177275  0.367795  0.000000  1
  Ir  Ir27  1  0.632205  0.809481  0.000000  1
  Ir  Ir28  1  0.190519  0.822725  0.000000  1
  Ir  Ir29  1  0.809481  0.632205  0.000000  1
  Ir  Ir30  1  0.822725  0.190519  0.000000  1
  Ir  Ir31  1  0.367795  0.177275  0.000000  1
  Ir  Ir32  1  0.279182  0.000000  0.500000  1
  Ir  Ir33  1  0.000000  0.279182  0.500000  1
  Ir  Ir34  1  0.720818  0.720818  0.500000  1
  Ir  Ir35  1  0.000000  0.000000  0.000000  1
