# generated using pymatgen
data_Tb8Mg2Sc10Si15Sn
_symmetry_space_group_name_H-M   'P 1'
_cell_length_a   7.07875570
_cell_length_b   7.44028553
_cell_length_c   14.08424454
_cell_angle_alpha   89.93270005
_cell_angle_beta   89.55931721
_cell_angle_gamma   89.85753974
_symmetry_Int_Tables_number   1
_chemical_formula_structural   Tb8Mg2Sc10Si15Sn
_chemical_formula_sum   'Tb8 Mg2 Sc10 Si15 Sn1'
_cell_volume   741.76374969
_cell_formula_units_Z   1
loop_
 _symmetry_equiv_pos_site_id
 _symmetry_equiv_pos_as_xyz
  1  'x, y, z'
loop_
 _atom_site_type_symbol
 _atom_site_label
 _atom_site_symmetry_multiplicity
 _atom_site_fract_x
 _atom_site_fract_y
 _atom_site_fract_z
 _atom_site_occupancy
  Tb  Tb0  1  0.009828  0.179621  0.097280  1
  Tb  Tb1  1  0.990007  0.821208  0.903502  1
  Tb  Tb2  1  0.487021  0.673688  0.903933  1
  Tb  Tb3  1  0.990140  0.828452  0.598667  1
  Tb  Tb4  1  0.512264  0.326074  0.096737  1
  Tb  Tb5  1  0.004340  0.172130  0.398676  1
  Tb  Tb6  1  0.516133  0.322235  0.398910  1
  Tb  Tb7  1  0.498683  0.683623  0.600177  1
  Mg  Mg8  1  0.161065  0.504107  0.753058  1
  Mg  Mg9  1  0.839444  0.495310  0.249127  1
  Sc  Sc10  1  0.338305  0.002466  0.249721  1
  Sc  Sc11  1  0.662844  0.997268  0.751687  1
  Sc  Sc12  1  0.340812  0.166478  0.629571  1
  Sc  Sc13  1  0.666559  0.821306  0.373492  1
  Sc  Sc14  1  0.160782  0.685276  0.369527  1
  Sc  Sc15  1  0.670954  0.819283  0.123379  1
  Sc  Sc16  1  0.825619  0.320609  0.626398  1
  Sc  Sc17  1  0.327343  0.179733  0.876618  1
  Sc  Sc18  1  0.835028  0.321164  0.875809  1
  Sc  Sc19  1  0.165061  0.678406  0.124667  1
  Si  Si20  1  0.034417  0.105923  0.752108  1
  Si  Si21  1  0.964177  0.896018  0.246419  1
  Si  Si22  1  0.458531  0.618674  0.248572  1
  Si  Si23  1  0.539720  0.381844  0.752396  1
  Si  Si24  1  0.291120  0.882024  0.752672  1
  Si  Si25  1  0.707360  0.114993  0.247626  1
  Si  Si26  1  0.219490  0.375078  0.249224  1
  Si  Si27  1  0.781721  0.625542  0.751701  1
  Si  Si28  1  0.829279  0.542719  0.464852  1
  Si  Si29  1  0.338415  0.966111  0.459851  1
  Si  Si30  1  0.840656  0.537807  0.033598  1
  Si  Si31  1  0.662081  0.036058  0.537735  1
  Si  Si32  1  0.159082  0.461567  0.967170  1
  Si  Si33  1  0.655513  0.033093  0.960358  1
  Si  Si34  1  0.343371  0.967312  0.040143  1
  Sn  Sn35  1  0.172837  0.456799  0.534639  1
