# generated using pymatgen
data_Yb5DyAl16(SiOs)8
_symmetry_space_group_name_H-M   'P 1'
_cell_length_a   8.65484912
_cell_length_b   8.65484812
_cell_length_c   9.52015500
_cell_angle_alpha   90.00000000
_cell_angle_beta   90.00000000
_cell_angle_gamma   120.23459542
_symmetry_Int_Tables_number   1
_chemical_formula_structural   Yb5DyAl16(SiOs)8
_chemical_formula_sum   'Yb5 Dy1 Al16 Si8 Os8'
_cell_volume   616.11544497
_cell_formula_units_Z   1
loop_
 _symmetry_equiv_pos_site_id
 _symmetry_equiv_pos_as_xyz
  1  'x, y, z'
loop_
 _atom_site_type_symbol
 _atom_site_label
 _atom_site_symmetry_multiplicity
 _atom_site_fract_x
 _atom_site_fract_y
 _atom_site_fract_z
 _atom_site_occupancy
  Yb  Yb0  1  0.192329  0.389376  0.250000  1
  Yb  Yb1  1  0.807379  0.611617  0.750000  1
  Yb  Yb2  1  0.610624  0.807671  0.250000  1
  Yb  Yb3  1  0.388383  0.192621  0.750000  1
  Yb  Yb4  1  0.195620  0.804380  0.250000  1
  Dy  Dy5  1  0.805238  0.194762  0.750000  1
  Al  Al6  1  0.166925  0.331902  0.577882  1
  Al  Al7  1  0.833618  0.667683  0.422785  1
  Al  Al8  1  0.668098  0.833075  0.577882  1
  Al  Al9  1  0.833618  0.667683  0.077215  1
  Al  Al10  1  0.332317  0.166382  0.422785  1
  Al  Al11  1  0.166925  0.331902  0.922118  1
  Al  Al12  1  0.165833  0.834167  0.576288  1
  Al  Al13  1  0.332317  0.166382  0.077215  1
  Al  Al14  1  0.833961  0.166039  0.422296  1
  Al  Al15  1  0.668098  0.833075  0.922118  1
  Al  Al16  1  0.833961  0.166039  0.077704  1
  Al  Al17  1  0.165833  0.834167  0.923712  1
  Al  Al18  1  0.565122  0.434878  0.250000  1
  Al  Al19  1  0.435275  0.564725  0.750000  1
  Al  Al20  1  0.000483  0.999517  0.250000  1
  Al  Al21  1  0.000012  0.999988  0.750000  1
  Si  Si22  1  0.334648  0.665352  0.037869  1
  Si  Si23  1  0.664730  0.335270  0.960353  1
  Si  Si24  1  0.664730  0.335270  0.539647  1
  Si  Si25  1  0.334648  0.665352  0.462131  1
  Si  Si26  1  0.565209  0.125501  0.250000  1
  Si  Si27  1  0.433539  0.874456  0.750000  1
  Si  Si28  1  0.874499  0.434791  0.250000  1
  Si  Si29  1  0.125544  0.566461  0.750000  1
  Os  Os30  1  0.500937  0.000347  0.998533  1
  Os  Os31  1  0.999653  0.499063  0.998533  1
  Os  Os32  1  0.500937  0.000347  0.501467  1
  Os  Os33  1  0.499865  0.500135  0.999549  1
  Os  Os34  1  0.999653  0.499063  0.501467  1
  Os  Os35  1  0.499865  0.500135  0.500451  1
  Os  Os36  1  0.999787  0.000213  0.000695  1
  Os  Os37  1  0.999787  0.000213  0.499305  1
