# generated using pymatgen
data_NdHf2BiF14
_symmetry_space_group_name_H-M   'P 1'
_cell_length_a   5.83885180
_cell_length_b   6.25032492
_cell_length_c   8.45250537
_cell_angle_alpha   101.71418379
_cell_angle_beta   89.82517577
_cell_angle_gamma   90.02366675
_symmetry_Int_Tables_number   1
_chemical_formula_structural   NdHf2BiF14
_chemical_formula_sum   'Nd1 Hf2 Bi1 F14'
_cell_volume   302.04573906
_cell_formula_units_Z   1
loop_
 _symmetry_equiv_pos_site_id
 _symmetry_equiv_pos_as_xyz
  1  'x, y, z'
loop_
 _atom_site_type_symbol
 _atom_site_label
 _atom_site_symmetry_multiplicity
 _atom_site_fract_x
 _atom_site_fract_y
 _atom_site_fract_z
 _atom_site_occupancy
  Nd  Nd0  1  0.200307  0.340448  0.310950  1
  Hf  Hf1  1  0.709529  0.810623  0.223302  1
  Hf  Hf2  1  0.209026  0.188785  0.775726  1
  Bi  Bi3  1  0.695516  0.656353  0.682853  1
  F  F4  1  0.881303  0.447721  0.474569  1
  F  F5  1  0.388862  0.552885  0.526504  1
  F  F6  1  0.422642  0.933793  0.769684  1
  F  F7  1  0.922243  0.065794  0.230858  1
  F  F8  1  0.951840  0.973109  0.760869  1
  F  F9  1  0.451520  0.029809  0.240012  1
  F  F10  1  0.001235  0.445588  0.787600  1
  F  F11  1  0.499240  0.553321  0.214112  1
  F  F12  1  0.702770  0.758181  0.984419  1
  F  F13  1  0.204698  0.242778  0.018289  1
  F  F14  1  0.711633  0.857953  0.467448  1
  F  F15  1  0.213294  0.142957  0.532900  1
  F  F16  1  0.494311  0.376775  0.783097  1
  F  F17  1  0.992751  0.623126  0.216809  1
