# generated using pymatgen
data_La5Sm3Sc11Si16W
_symmetry_space_group_name_H-M   'P 1'
_cell_length_a   7.25173430
_cell_length_b   7.49729443
_cell_length_c   14.13890144
_cell_angle_alpha   90.15349989
_cell_angle_beta   89.74700499
_cell_angle_gamma   89.57314107
_symmetry_Int_Tables_number   1
_chemical_formula_structural   La5Sm3Sc11Si16W
_chemical_formula_sum   'La5 Sm3 Sc11 Si16 W1'
_cell_volume   768.67761416
_cell_formula_units_Z   1
loop_
 _symmetry_equiv_pos_site_id
 _symmetry_equiv_pos_as_xyz
  1  'x, y, z'
loop_
 _atom_site_type_symbol
 _atom_site_label
 _atom_site_symmetry_multiplicity
 _atom_site_fract_x
 _atom_site_fract_y
 _atom_site_fract_z
 _atom_site_occupancy
  La  La0  1  0.011039  0.168315  0.098558  1
  La  La1  1  0.991413  0.829714  0.897969  1
  La  La2  1  0.486518  0.673635  0.896811  1
  La  La3  1  0.991351  0.831752  0.592877  1
  La  La4  1  0.513212  0.329140  0.098524  1
  Sm  Sm5  1  0.011507  0.174875  0.403302  1
  Sm  Sm6  1  0.506162  0.325196  0.408743  1
  Sm  Sm7  1  0.487644  0.674550  0.596221  1
  Sc  Sc8  1  0.164692  0.487279  0.741914  1
  Sc  Sc9  1  0.837413  0.500377  0.254704  1
  Sc  Sc10  1  0.337229  0.999079  0.255333  1
  Sc  Sc11  1  0.657127  0.006270  0.745260  1
  Sc  Sc12  1  0.663396  0.827179  0.380252  1
  Sc  Sc13  1  0.168819  0.674070  0.379992  1
  Sc  Sc14  1  0.669898  0.825290  0.127428  1
  Sc  Sc15  1  0.832919  0.325226  0.621026  1
  Sc  Sc16  1  0.333640  0.176659  0.874170  1
  Sc  Sc17  1  0.830008  0.324531  0.869141  1
  Sc  Sc18  1  0.170163  0.675372  0.128626  1
  Si  Si19  1  0.046538  0.129446  0.742515  1
  Si  Si20  1  0.962823  0.876293  0.255358  1
  Si  Si21  1  0.465587  0.626407  0.254160  1
  Si  Si22  1  0.529534  0.365584  0.742342  1
  Si  Si23  1  0.292823  0.896035  0.743232  1
  Si  Si24  1  0.709030  0.117811  0.254865  1
  Si  Si25  1  0.211028  0.380437  0.254582  1
  Si  Si26  1  0.786203  0.614753  0.743614  1
  Si  Si27  1  0.177266  0.446366  0.541874  1
  Si  Si28  1  0.840870  0.530287  0.458216  1
  Si  Si29  1  0.339535  0.971622  0.469167  1
  Si  Si30  1  0.851600  0.538172  0.039297  1
  Si  Si31  1  0.638455  0.039389  0.545960  1
  Si  Si32  1  0.147225  0.462794  0.959556  1
  Si  Si33  1  0.654433  0.039050  0.958112  1
  Si  Si34  1  0.350284  0.960400  0.040057  1
  W  W35  1  0.332618  0.176644  0.626241  1
