# generated using pymatgen
data_Th3Sn3Os2Ru
_symmetry_space_group_name_H-M   'P 1'
_cell_length_a   7.54028000
_cell_length_b   7.54027861
_cell_length_c   4.15547800
_cell_angle_alpha   90.00000000
_cell_angle_beta   90.00000000
_cell_angle_gamma   119.99999734
_symmetry_Int_Tables_number   1
_chemical_formula_structural   Th3Sn3Os2Ru
_chemical_formula_sum   'Th3 Sn3 Os2 Ru1'
_cell_volume   204.60983112
_cell_formula_units_Z   1
loop_
 _symmetry_equiv_pos_site_id
 _symmetry_equiv_pos_as_xyz
  1  'x, y, z'
loop_
 _atom_site_type_symbol
 _atom_site_label
 _atom_site_symmetry_multiplicity
 _atom_site_fract_x
 _atom_site_fract_y
 _atom_site_fract_z
 _atom_site_occupancy
  Th  Th0  1  0.000000  0.414387  0.500000  1
  Th  Th1  1  0.585613  0.585613  0.500000  1
  Th  Th2  1  0.414387  0.000000  0.500000  1
  Sn  Sn3  1  0.000000  0.752721  0.000000  1
  Sn  Sn4  1  0.247279  0.247279  0.000000  1
  Sn  Sn5  1  0.752721  0.000000  0.000000  1
  Os  Os6  1  0.333333  0.666667  0.000000  1
  Os  Os7  1  0.666667  0.333333  0.000000  1
  Ru  Ru8  1  0.000000  0.000000  0.500000  1
