# generated using pymatgen
data_Tb3YGaSb5Rh7
_symmetry_space_group_name_H-M   'P 1'
_cell_length_a   7.58012963
_cell_length_b   7.58219412
_cell_length_c   7.58219437
_cell_angle_alpha   109.05546047
_cell_angle_beta   109.67327350
_cell_angle_gamma   109.67327307
_symmetry_Int_Tables_number   1
_chemical_formula_structural   Tb3YGaSb5Rh7
_chemical_formula_sum   'Tb3 Y1 Ga1 Sb5 Rh7'
_cell_volume   335.50145126
_cell_formula_units_Z   1
loop_
 _symmetry_equiv_pos_site_id
 _symmetry_equiv_pos_as_xyz
  1  'x, y, z'
loop_
 _atom_site_type_symbol
 _atom_site_label
 _atom_site_symmetry_multiplicity
 _atom_site_fract_x
 _atom_site_fract_y
 _atom_site_fract_z
 _atom_site_occupancy
  Tb  Tb0  1  0.999999  0.490470  0.007694  1
  Tb  Tb1  1  0.999999  0.007694  0.490470  1
  Tb  Tb2  1  0.482798  0.490481  0.490481  1
  Y  Y3  1  0.517219  0.007560  0.007560  1
  Ga  Ga4  1  0.999920  0.328011  0.328011  1
  Sb  Sb5  1  0.683682  0.998032  0.681988  1
  Sb  Sb6  1  0.683682  0.681988  0.998032  1
  Sb  Sb7  1  0.000052  0.679930  0.679930  1
  Sb  Sb8  1  0.316353  0.998134  0.314219  1
  Sb  Sb9  1  0.316353  0.314219  0.998134  1
  Rh  Rh10  1  0.000019  0.018110  0.018110  1
  Rh  Rh11  1  0.499983  0.749161  0.249082  1
  Rh  Rh12  1  0.751536  0.496811  0.248315  1
  Rh  Rh13  1  0.248444  0.745212  0.496790  1
  Rh  Rh14  1  0.248444  0.496790  0.745212  1
  Rh  Rh15  1  0.499983  0.249082  0.749161  1
  Rh  Rh16  1  0.751536  0.248315  0.496811  1
