# generated using pymatgen
data_Ho16Cd4IrRu2Pt
_symmetry_space_group_name_H-M   'P 1'
_cell_length_a   9.61632406
_cell_length_b   9.60980130
_cell_length_c   9.60980087
_cell_angle_alpha   59.84649403
_cell_angle_beta   59.84181863
_cell_angle_gamma   59.84182314
_symmetry_Int_Tables_number   1
_chemical_formula_structural   Ho16Cd4IrRu2Pt
_chemical_formula_sum   'Ho16 Cd4 Ir1 Ru2 Pt1'
_cell_volume   625.71482602
_cell_formula_units_Z   1
loop_
 _symmetry_equiv_pos_site_id
 _symmetry_equiv_pos_as_xyz
  1  'x, y, z'
loop_
 _atom_site_type_symbol
 _atom_site_label
 _atom_site_symmetry_multiplicity
 _atom_site_fract_x
 _atom_site_fract_y
 _atom_site_fract_z
 _atom_site_occupancy
  Ho  Ho0  1  0.596830  0.597753  0.597753  1
  Ho  Ho1  1  0.601799  0.602983  0.200766  1
  Ho  Ho2  1  0.601799  0.200766  0.602983  1
  Ho  Ho3  1  0.201587  0.601638  0.601638  1
  Ho  Ho4  1  0.055812  0.440207  0.440207  1
  Ho  Ho5  1  0.436988  0.061301  0.061301  1
  Ho  Ho6  1  0.439857  0.055093  0.439257  1
  Ho  Ho7  1  0.061703  0.437754  0.059701  1
  Ho  Ho8  1  0.439857  0.439257  0.055093  1
  Ho  Ho9  1  0.061703  0.059701  0.437754  1
  Ho  Ho10  1  0.188566  0.812053  0.812053  1
  Ho  Ho11  1  0.814319  0.187366  0.187366  1
  Ho  Ho12  1  0.811234  0.188574  0.813349  1
  Ho  Ho13  1  0.187836  0.814961  0.188029  1
  Ho  Ho14  1  0.811234  0.813349  0.188574  1
  Ho  Ho15  1  0.187836  0.188029  0.814961  1
  Cd  Cd16  1  0.830706  0.830898  0.830898  1
  Cd  Cd17  1  0.830547  0.830657  0.507003  1
  Cd  Cd18  1  0.830547  0.507003  0.830657  1
  Cd  Cd19  1  0.506592  0.830648  0.830648  1
  Ir  Ir20  1  0.825843  0.391163  0.391163  1
  Ru  Ru21  1  0.391867  0.390596  0.826655  1
  Ru  Ru22  1  0.391867  0.826655  0.390596  1
  Pt  Pt23  1  0.393073  0.391600  0.391600  1
