# generated using pymatgen
data_Yb3DyReTc3B16
_symmetry_space_group_name_H-M   'P 1'
_cell_length_a   3.56882000
_cell_length_b   5.97943400
_cell_length_c   11.56124304
_cell_angle_alpha   89.94845707
_cell_angle_beta   90.00000000
_cell_angle_gamma   90.00000000
_symmetry_Int_Tables_number   1
_chemical_formula_structural   Yb3DyReTc3B16
_chemical_formula_sum   'Yb3 Dy1 Re1 Tc3 B16'
_cell_volume   246.71131956
_cell_formula_units_Z   1
loop_
 _symmetry_equiv_pos_site_id
 _symmetry_equiv_pos_as_xyz
  1  'x, y, z'
loop_
 _atom_site_type_symbol
 _atom_site_label
 _atom_site_symmetry_multiplicity
 _atom_site_fract_x
 _atom_site_fract_y
 _atom_site_fract_z
 _atom_site_occupancy
  Yb  Yb0  1  0.000000  0.628113  0.349541  1
  Yb  Yb1  1  0.000000  0.371750  0.649169  1
  Yb  Yb2  1  0.000000  0.128576  0.151438  1
  Dy  Dy3  1  0.000000  0.871814  0.849660  1
  Re  Re4  1  0.000000  0.869842  0.583848  1
  Tc  Tc5  1  0.000000  0.631139  0.083178  1
  Tc  Tc6  1  0.000000  0.370428  0.915807  1
  Tc  Tc7  1  0.000000  0.130864  0.416654  1
  B  B8  1  0.500000  0.784163  0.185411  1
  B  B9  1  0.500000  0.215490  0.815187  1
  B  B10  1  0.500000  0.284980  0.315106  1
  B  B11  1  0.500000  0.713358  0.684778  1
  B  B12  1  0.500000  0.864593  0.032454  1
  B  B13  1  0.500000  0.135435  0.968593  1
  B  B14  1  0.500000  0.365156  0.467451  1
  B  B15  1  0.500000  0.634027  0.531615  1
  B  B16  1  0.500000  0.885712  0.452395  1
  B  B17  1  0.500000  0.114732  0.547495  1
  B  B18  1  0.500000  0.385644  0.047813  1
  B  B19  1  0.500000  0.612316  0.952695  1
  B  B20  1  0.500000  0.977136  0.307313  1
  B  B21  1  0.500000  0.024644  0.692488  1
  B  B22  1  0.500000  0.477093  0.192620  1
  B  B23  1  0.500000  0.522994  0.807288  1
