# generated using pymatgen
data_Yb4ScAl3O10
_symmetry_space_group_name_H-M   'P 1'
_cell_length_a   5.27745300
_cell_length_b   5.52218064
_cell_length_c   15.22804300
_cell_angle_alpha   68.87476834
_cell_angle_beta   90.00000000
_cell_angle_gamma   90.00000000
_symmetry_Int_Tables_number   1
_chemical_formula_structural   Yb4ScAl3O10
_chemical_formula_sum   'Yb8 Sc2 Al6 O20'
_cell_volume   413.96654618
_cell_formula_units_Z   2
loop_
 _symmetry_equiv_pos_site_id
 _symmetry_equiv_pos_as_xyz
  1  'x, y, z'
loop_
 _atom_site_type_symbol
 _atom_site_label
 _atom_site_symmetry_multiplicity
 _atom_site_fract_x
 _atom_site_fract_y
 _atom_site_fract_z
 _atom_site_occupancy
  Yb  Yb0  1  0.009126  0.632538  0.892699  1
  Yb  Yb1  1  0.509126  0.367462  0.607301  1
  Yb  Yb2  1  0.990345  0.077028  0.391399  1
  Yb  Yb3  1  0.490345  0.922972  0.108601  1
  Yb  Yb4  1  0.990874  0.367462  0.107301  1
  Yb  Yb5  1  0.490874  0.632538  0.392699  1
  Yb  Yb6  1  0.009655  0.922972  0.608601  1
  Yb  Yb7  1  0.509655  0.077028  0.891399  1
  Sc  Sc8  1  0.500000  0.000000  0.500000  1
  Sc  Sc9  1  0.000000  0.000000  0.000000  1
  Al  Al10  1  0.548562  0.673486  0.752747  1
  Al  Al11  1  0.048562  0.326514  0.747253  1
  Al  Al12  1  0.451438  0.326514  0.247253  1
  Al  Al13  1  0.951438  0.673486  0.252747  1
  Al  Al14  1  0.500000  0.500000  0.000000  1
  Al  Al15  1  0.000000  0.500000  0.500000  1
  O  O16  1  0.258191  0.721425  0.014894  1
  O  O17  1  0.758191  0.278575  0.485106  1
  O  O18  1  0.760649  0.725075  0.513938  1
  O  O19  1  0.260649  0.274925  0.986062  1
  O  O20  1  0.741809  0.278575  0.985106  1
  O  O21  1  0.241809  0.721425  0.514894  1
  O  O22  1  0.239351  0.274925  0.486062  1
  O  O23  1  0.739351  0.725075  0.013938  1
  O  O24  1  0.884466  0.609853  0.749711  1
  O  O25  1  0.384466  0.390147  0.750289  1
  O  O26  1  0.115534  0.390147  0.250289  1
  O  O27  1  0.615534  0.609853  0.249711  1
  O  O28  1  0.481742  0.708838  0.859482  1
  O  O29  1  0.981742  0.291162  0.640518  1
  O  O30  1  0.524604  0.071674  0.351444  1
  O  O31  1  0.024604  0.928326  0.148556  1
  O  O32  1  0.518258  0.291162  0.140518  1
  O  O33  1  0.018258  0.708838  0.359482  1
  O  O34  1  0.475396  0.928326  0.648556  1
  O  O35  1  0.975396  0.071674  0.851444  1
