# generated using pymatgen
data_Ho4Er5Lu11Bi12
_symmetry_space_group_name_H-M   'P 1'
_cell_length_a   8.15963355
_cell_length_b   9.40408605
_cell_length_c   11.89088673
_cell_angle_alpha   89.99629297
_cell_angle_beta   89.95985446
_cell_angle_gamma   89.98837896
_symmetry_Int_Tables_number   1
_chemical_formula_structural   Ho4Er5Lu11Bi12
_chemical_formula_sum   'Ho4 Er5 Lu11 Bi12'
_cell_volume   912.43382148
_cell_formula_units_Z   1
loop_
 _symmetry_equiv_pos_site_id
 _symmetry_equiv_pos_as_xyz
  1  'x, y, z'
loop_
 _atom_site_type_symbol
 _atom_site_label
 _atom_site_symmetry_multiplicity
 _atom_site_fract_x
 _atom_site_fract_y
 _atom_site_fract_z
 _atom_site_occupancy
  Ho  Ho0  1  0.313850  0.249982  0.217631  1
  Ho  Ho1  1  0.813796  0.250018  0.282381  1
  Ho  Ho2  1  0.686215  0.750176  0.782220  1
  Ho  Ho3  1  0.186260  0.750019  0.717561  1
  Er  Er4  1  0.353146  0.750193  0.217892  1
  Er  Er5  1  0.853598  0.750272  0.282385  1
  Er  Er6  1  0.646803  0.250089  0.782212  1
  Er  Er7  1  0.146727  0.250063  0.717805  1
  Er  Er8  1  0.691901  0.565888  0.059410  1
  Lu  Lu9  1  0.192187  0.933106  0.440561  1
  Lu  Lu10  1  0.307726  0.066843  0.940498  1
  Lu  Lu11  1  0.807867  0.433099  0.559476  1
  Lu  Lu12  1  0.307967  0.433095  0.940575  1
  Lu  Lu13  1  0.807797  0.066884  0.559423  1
  Lu  Lu14  1  0.692115  0.933241  0.059513  1
  Lu  Lu15  1  0.192185  0.566929  0.440585  1
  Lu  Lu16  1  0.477537  0.250090  0.489476  1
  Lu  Lu17  1  0.977644  0.249998  0.010537  1
  Lu  Lu18  1  0.522485  0.750018  0.510570  1
  Lu  Lu19  1  0.022842  0.750206  0.989413  1
  Bi  Bi20  1  0.402813  0.750382  0.957731  1
  Bi  Bi21  1  0.903005  0.749962  0.542165  1
  Bi  Bi22  1  0.596611  0.248634  0.041914  1
  Bi  Bi23  1  0.097011  0.250024  0.457862  1
  Bi  Bi24  1  0.565959  0.995960  0.326534  1
  Bi  Bi25  1  0.066130  0.504194  0.173666  1
  Bi  Bi26  1  0.433908  0.495920  0.673498  1
  Bi  Bi27  1  0.934140  0.004212  0.826368  1
  Bi  Bi28  1  0.433992  0.004203  0.673567  1
  Bi  Bi29  1  0.933918  0.496039  0.826328  1
  Bi  Bi30  1  0.565885  0.504234  0.326575  1
  Bi  Bi31  1  0.065976  0.996026  0.173666  1
