# generated using pymatgen
data_Er4Ga4PdRu2Pt
_symmetry_space_group_name_H-M   'P 1'
_cell_length_a   4.31383000
_cell_length_b   6.85427768
_cell_length_c   7.76984378
_cell_angle_alpha   89.94871488
_cell_angle_beta   90.00000000
_cell_angle_gamma   90.00000000
_symmetry_Int_Tables_number   1
_chemical_formula_structural   Er4Ga4PdRu2Pt
_chemical_formula_sum   'Er4 Ga4 Pd1 Ru2 Pt1'
_cell_volume   229.74011506
_cell_formula_units_Z   1
loop_
 _symmetry_equiv_pos_site_id
 _symmetry_equiv_pos_as_xyz
  1  'x, y, z'
loop_
 _atom_site_type_symbol
 _atom_site_label
 _atom_site_symmetry_multiplicity
 _atom_site_fract_x
 _atom_site_fract_y
 _atom_site_fract_z
 _atom_site_occupancy
  Er  Er0  1  0.250000  0.976124  0.316521  1
  Er  Er1  1  0.250000  0.471770  0.185593  1
  Er  Er2  1  0.750000  0.018026  0.694689  1
  Er  Er3  1  0.750000  0.516800  0.802622  1
  Ga  Ga4  1  0.250000  0.343179  0.573952  1
  Ga  Ga5  1  0.250000  0.841617  0.927363  1
  Ga  Ga6  1  0.750000  0.663340  0.432771  1
  Ga  Ga7  1  0.750000  0.166035  0.066468  1
  Pd  Pd8  1  0.750000  0.774080  0.106826  1
  Ru  Ru9  1  0.250000  0.228820  0.893346  1
  Ru  Ru10  1  0.250000  0.730344  0.608283  1
  Pt  Pt11  1  0.750000  0.269863  0.391564  1
