# generated using pymatgen
data_LiDy16Cd3Co3Ir
_symmetry_space_group_name_H-M   'P 1'
_cell_length_a   9.60235926
_cell_length_b   9.56087127
_cell_length_c   9.56087147
_cell_angle_alpha   59.75664571
_cell_angle_beta   59.96852104
_cell_angle_gamma   59.96852617
_symmetry_Int_Tables_number   1
_chemical_formula_structural   LiDy16Cd3Co3Ir
_chemical_formula_sum   'Li1 Dy16 Cd3 Co3 Ir1'
_cell_volume   619.22256094
_cell_formula_units_Z   1
loop_
 _symmetry_equiv_pos_site_id
 _symmetry_equiv_pos_as_xyz
  1  'x, y, z'
loop_
 _atom_site_type_symbol
 _atom_site_label
 _atom_site_symmetry_multiplicity
 _atom_site_fract_x
 _atom_site_fract_y
 _atom_site_fract_z
 _atom_site_occupancy
  Li  Li0  1  0.821248  0.820902  0.820902  1
  Dy  Dy1  1  0.591357  0.601317  0.601317  1
  Dy  Dy2  1  0.589661  0.599737  0.212052  1
  Dy  Dy3  1  0.589661  0.212052  0.599737  1
  Dy  Dy4  1  0.216618  0.595265  0.595265  1
  Dy  Dy5  1  0.066641  0.439245  0.439245  1
  Dy  Dy6  1  0.435494  0.063348  0.063348  1
  Dy  Dy7  1  0.439637  0.061284  0.437842  1
  Dy  Dy8  1  0.068578  0.434187  0.058050  1
  Dy  Dy9  1  0.439637  0.437842  0.061284  1
  Dy  Dy10  1  0.068578  0.058050  0.434187  1
  Dy  Dy11  1  0.187666  0.812156  0.812156  1
  Dy  Dy12  1  0.813021  0.187613  0.187613  1
  Dy  Dy13  1  0.812321  0.189748  0.808082  1
  Dy  Dy14  1  0.185239  0.813073  0.186332  1
  Dy  Dy15  1  0.812321  0.808082  0.189748  1
  Dy  Dy16  1  0.185239  0.186332  0.813073  1
  Cd  Cd17  1  0.832960  0.832092  0.507413  1
  Cd  Cd18  1  0.832960  0.507413  0.832092  1
  Cd  Cd19  1  0.506327  0.832622  0.832622  1
  Co  Co20  1  0.391172  0.391706  0.391706  1
  Co  Co21  1  0.393378  0.394174  0.828107  1
  Co  Co22  1  0.393378  0.828107  0.394174  1
  Ir  Ir23  1  0.826909  0.393655  0.393655  1
