# generated using pymatgen
data_Dy2Ho2Al3ZnPt4
_symmetry_space_group_name_H-M   'P 1'
_cell_length_a   4.42583300
_cell_length_b   6.82104317
_cell_length_c   7.81422509
_cell_angle_alpha   89.80022155
_cell_angle_beta   90.00000000
_cell_angle_gamma   90.00000000
_symmetry_Int_Tables_number   1
_chemical_formula_structural   Dy2Ho2Al3ZnPt4
_chemical_formula_sum   'Dy2 Ho2 Al3 Zn1 Pt4'
_cell_volume   235.90062849
_cell_formula_units_Z   1
loop_
 _symmetry_equiv_pos_site_id
 _symmetry_equiv_pos_as_xyz
  1  'x, y, z'
loop_
 _atom_site_type_symbol
 _atom_site_label
 _atom_site_symmetry_multiplicity
 _atom_site_fract_x
 _atom_site_fract_y
 _atom_site_fract_z
 _atom_site_occupancy
  Dy  Dy0  1  0.750000  0.970607  0.317433  1
  Dy  Dy1  1  0.750000  0.466840  0.178714  1
  Ho  Ho2  1  0.250000  0.029399  0.684982  1
  Ho  Ho3  1  0.250000  0.528891  0.819068  1
  Al  Al4  1  0.250000  0.647718  0.438716  1
  Al  Al5  1  0.750000  0.855309  0.937155  1
  Al  Al6  1  0.750000  0.356414  0.560246  1
  Zn  Zn7  1  0.250000  0.149304  0.064680  1
  Pt  Pt8  1  0.250000  0.273376  0.389914  1
  Pt  Pt9  1  0.250000  0.763627  0.117350  1
  Pt  Pt10  1  0.750000  0.728390  0.618270  1
  Pt  Pt11  1  0.750000  0.230124  0.873469  1
