# generated using pymatgen
data_Tb3Sn3PdRh2
_symmetry_space_group_name_H-M   'P 1'
_cell_length_a   7.62518600
_cell_length_b   7.62518482
_cell_length_c   3.88191900
_cell_angle_alpha   90.00000000
_cell_angle_beta   90.00000000
_cell_angle_gamma   119.99999644
_symmetry_Int_Tables_number   1
_chemical_formula_structural   Tb3Sn3PdRh2
_chemical_formula_sum   'Tb3 Sn3 Pd1 Rh2'
_cell_volume   195.46901880
_cell_formula_units_Z   1
loop_
 _symmetry_equiv_pos_site_id
 _symmetry_equiv_pos_as_xyz
  1  'x, y, z'
loop_
 _atom_site_type_symbol
 _atom_site_label
 _atom_site_symmetry_multiplicity
 _atom_site_fract_x
 _atom_site_fract_y
 _atom_site_fract_z
 _atom_site_occupancy
  Tb  Tb0  1  0.409875  0.008561  0.500000  1
  Tb  Tb1  1  0.991439  0.401314  0.500000  1
  Tb  Tb2  1  0.598686  0.590125  0.500000  1
  Sn  Sn3  1  0.741983  0.001945  0.000000  1
  Sn  Sn4  1  0.998055  0.740038  0.000000  1
  Sn  Sn5  1  0.259962  0.258017  0.000000  1
  Pd  Pd6  1  0.333333  0.666667  0.000000  1
  Rh  Rh7  1  0.666667  0.333333  0.000000  1
  Rh  Rh8  1  0.000000  0.000000  0.500000  1
