# generated using pymatgen
data_SmGaCoNi2B
_symmetry_space_group_name_H-M   'P 1'
_cell_length_a   5.19205904
_cell_length_b   5.19800917
_cell_length_c   6.76400900
_cell_angle_alpha   90.00000000
_cell_angle_beta   90.00000000
_cell_angle_gamma   119.96154054
_symmetry_Int_Tables_number   1
_chemical_formula_structural   SmGaCoNi2B
_chemical_formula_sum   'Sm2 Ga2 Co2 Ni4 B2'
_cell_volume   158.15380643
_cell_formula_units_Z   2
loop_
 _symmetry_equiv_pos_site_id
 _symmetry_equiv_pos_as_xyz
  1  'x, y, z'
loop_
 _atom_site_type_symbol
 _atom_site_label
 _atom_site_symmetry_multiplicity
 _atom_site_fract_x
 _atom_site_fract_y
 _atom_site_fract_z
 _atom_site_occupancy
  Sm  Sm0  1  0.999974  0.000001  0.000000  1
  Sm  Sm1  1  0.999992  0.000000  0.500000  1
  Ga  Ga2  1  0.335031  0.670066  0.000000  1
  Ga  Ga3  1  0.664921  0.329937  0.000000  1
  Co  Co4  1  0.499988  0.000000  0.298592  1
  Co  Co5  1  0.499988  0.000000  0.701408  1
  Ni  Ni6  1  0.499987  0.500003  0.295093  1
  Ni  Ni7  1  0.999982  0.499996  0.295075  1
  Ni  Ni8  1  0.499987  0.500003  0.704906  1
  Ni  Ni9  1  0.999982  0.499996  0.704924  1
  B  B10  1  0.336991  0.674025  0.500000  1
  B  B11  1  0.662976  0.325974  0.500000  1
