# generated using pymatgen
data_Y4Ga3Si9Ni20
_symmetry_space_group_name_H-M   'P 1'
_cell_length_a   3.81537100
_cell_length_b   6.59808162
_cell_length_c   19.06968254
_cell_angle_alpha   90.10199362
_cell_angle_beta   90.00000000
_cell_angle_gamma   90.00000000
_symmetry_Int_Tables_number   1
_chemical_formula_structural   Y4Ga3Si9Ni20
_chemical_formula_sum   'Y4 Ga3 Si9 Ni20'
_cell_volume   480.06189262
_cell_formula_units_Z   1
loop_
 _symmetry_equiv_pos_site_id
 _symmetry_equiv_pos_as_xyz
  1  'x, y, z'
loop_
 _atom_site_type_symbol
 _atom_site_label
 _atom_site_symmetry_multiplicity
 _atom_site_fract_x
 _atom_site_fract_y
 _atom_site_fract_z
 _atom_site_occupancy
  Y  Y0  1  0.250000  0.626858  0.643637  1
  Y  Y1  1  0.750000  0.377104  0.357354  1
  Y  Y2  1  0.750000  0.125683  0.855207  1
  Y  Y3  1  0.250000  0.874219  0.145710  1
  Ga  Ga4  1  0.250000  0.839831  0.923867  1
  Ga  Ga5  1  0.750000  0.159127  0.076765  1
  Ga  Ga6  1  0.750000  0.343215  0.575124  1
  Si  Si7  1  0.250000  0.660090  0.425090  1
  Si  Si8  1  0.750000  0.626315  0.759895  1
  Si  Si9  1  0.250000  0.376866  0.240994  1
  Si  Si10  1  0.250000  0.422614  0.914555  1
  Si  Si11  1  0.750000  0.576474  0.086773  1
  Si  Si12  1  0.750000  0.920798  0.583882  1
  Si  Si13  1  0.250000  0.076859  0.413777  1
  Si  Si14  1  0.250000  0.125930  0.738089  1
  Si  Si15  1  0.750000  0.876090  0.262580  1
  Ni  Ni16  1  0.250000  0.144020  0.993976  1
  Ni  Ni17  1  0.750000  0.394311  0.981559  1
  Ni  Ni18  1  0.750000  0.108783  0.481237  1
  Ni  Ni19  1  0.250000  0.605711  0.019501  1
  Ni  Ni20  1  0.250000  0.372324  0.122996  1
  Ni  Ni21  1  0.750000  0.626873  0.877757  1
  Ni  Ni22  1  0.750000  0.857975  0.381905  1
  Ni  Ni23  1  0.250000  0.126436  0.619308  1
  Ni  Ni24  1  0.250000  0.065687  0.295103  1
  Ni  Ni25  1  0.750000  0.935640  0.703900  1
  Ni  Ni26  1  0.750000  0.567031  0.207122  1
  Ni  Ni27  1  0.250000  0.435456  0.794205  1
  Ni  Ni28  1  0.750000  0.641950  0.500367  1
  Ni  Ni29  1  0.250000  0.364995  0.490104  1
  Ni  Ni30  1  0.250000  0.816369  0.793981  1
  Ni  Ni31  1  0.750000  0.185906  0.206284  1
  Ni  Ni32  1  0.750000  0.316562  0.704071  1
  Ni  Ni33  1  0.250000  0.683891  0.301058  1
  Ni  Ni34  1  0.250000  0.887336  0.515497  1
  Ni  Ni35  1  0.750000  0.854670  0.006769  1
