# generated using pymatgen
data_Dy8ErTm7(Ga3Co)2
_symmetry_space_group_name_H-M   'P 1'
_cell_length_a   9.93402400
_cell_length_b   9.93402424
_cell_length_c   6.93995100
_cell_angle_alpha   90.00000000
_cell_angle_beta   90.00000000
_cell_angle_gamma   119.99999254
_symmetry_Int_Tables_number   1
_chemical_formula_structural   Dy8ErTm7(Ga3Co)2
_chemical_formula_sum   'Dy8 Er1 Tm7 Ga6 Co2'
_cell_volume   593.11306225
_cell_formula_units_Z   1
loop_
 _symmetry_equiv_pos_site_id
 _symmetry_equiv_pos_as_xyz
  1  'x, y, z'
loop_
 _atom_site_type_symbol
 _atom_site_label
 _atom_site_symmetry_multiplicity
 _atom_site_fract_x
 _atom_site_fract_y
 _atom_site_fract_z
 _atom_site_occupancy
  Dy  Dy0  1  0.463356  0.536644  0.207602  1
  Dy  Dy1  1  0.073287  0.536644  0.207602  1
  Dy  Dy2  1  0.463356  0.926713  0.207602  1
  Dy  Dy3  1  0.536248  0.463752  0.708242  1
  Dy  Dy4  1  0.927505  0.463752  0.708242  1
  Dy  Dy5  1  0.536248  0.072495  0.708242  1
  Dy  Dy6  1  0.000000  0.000000  0.232047  1
  Dy  Dy7  1  0.000000  0.000000  0.731205  1
  Er  Er8  1  0.666667  0.333333  0.326879  1
  Tm  Tm9  1  0.173545  0.826455  0.512270  1
  Tm  Tm10  1  0.652909  0.826455  0.512270  1
  Tm  Tm11  1  0.173545  0.347091  0.512270  1
  Tm  Tm12  1  0.826942  0.173058  0.011256  1
  Tm  Tm13  1  0.346117  0.173058  0.011256  1
  Tm  Tm14  1  0.826942  0.653883  0.011256  1
  Tm  Tm15  1  0.333333  0.666667  0.825127  1
  Ga  Ga16  1  0.163622  0.836378  0.957771  1
  Ga  Ga17  1  0.672758  0.836378  0.957771  1
  Ga  Ga18  1  0.163622  0.327242  0.957771  1
  Ga  Ga19  1  0.837081  0.162919  0.458610  1
  Ga  Ga20  1  0.325836  0.162919  0.458610  1
  Ga  Ga21  1  0.837081  0.674164  0.458610  1
  Co  Co22  1  0.333333  0.666667  0.445756  1
  Co  Co23  1  0.666667  0.333333  0.946569  1
