# generated using pymatgen
data_Dy10In5Hg3Pd4
_symmetry_space_group_name_H-M   'P 1'
_cell_length_a   3.60440600
_cell_length_b   8.06152649
_cell_length_c   18.26614700
_cell_angle_alpha   89.96516706
_cell_angle_beta   90.00000000
_cell_angle_gamma   90.00000000
_symmetry_Int_Tables_number   1
_chemical_formula_structural   Dy10In5Hg3Pd4
_chemical_formula_sum   'Dy10 In5 Hg3 Pd4'
_cell_volume   530.75959922
_cell_formula_units_Z   1
loop_
 _symmetry_equiv_pos_site_id
 _symmetry_equiv_pos_as_xyz
  1  'x, y, z'
loop_
 _atom_site_type_symbol
 _atom_site_label
 _atom_site_symmetry_multiplicity
 _atom_site_fract_x
 _atom_site_fract_y
 _atom_site_fract_z
 _atom_site_occupancy
  Dy  Dy0  1  0.000000  0.503207  0.497794  1
  Dy  Dy1  1  0.000000  0.000071  0.000445  1
  Dy  Dy2  1  0.000000  0.743918  0.284717  1
  Dy  Dy3  1  0.000000  0.256641  0.719162  1
  Dy  Dy4  1  0.000000  0.756222  0.783717  1
  Dy  Dy5  1  0.000000  0.243735  0.215246  1
  Dy  Dy6  1  0.000000  0.610507  0.083793  1
  Dy  Dy7  1  0.000000  0.391409  0.917426  1
  Dy  Dy8  1  0.000000  0.883055  0.583428  1
  Dy  Dy9  1  0.000000  0.110185  0.415877  1
  In  In10  1  0.500000  0.210165  0.567318  1
  In  In11  1  0.500000  0.577178  0.649148  1
  In  In12  1  0.500000  0.417627  0.350058  1
  In  In13  1  0.500000  0.919451  0.149038  1
  In  In14  1  0.500000  0.080891  0.851617  1
  Hg  Hg15  1  0.500000  0.713411  0.933487  1
  Hg  Hg16  1  0.500000  0.288774  0.065865  1
  Hg  Hg17  1  0.500000  0.789320  0.433244  1
  Pd  Pd18  1  0.500000  0.530518  0.198091  1
  Pd  Pd19  1  0.500000  0.471262  0.802624  1
  Pd  Pd20  1  0.500000  0.972146  0.696608  1
  Pd  Pd21  1  0.500000  0.030306  0.301294  1
