# generated using pymatgen
data_Ta3Nb(BOs)4
_symmetry_space_group_name_H-M   'P 1'
_cell_length_a   3.10597200
_cell_length_b   9.10431976
_cell_length_c   15.85744953
_cell_angle_alpha   90.10405946
_cell_angle_beta   90.00000000
_cell_angle_gamma   90.00000000
_symmetry_Int_Tables_number   1
_chemical_formula_structural   Ta3Nb(BOs)4
_chemical_formula_sum   'Ta9 Nb3 B12 Os12'
_cell_volume   448.41244814
_cell_formula_units_Z   3
loop_
 _symmetry_equiv_pos_site_id
 _symmetry_equiv_pos_as_xyz
  1  'x, y, z'
loop_
 _atom_site_type_symbol
 _atom_site_label
 _atom_site_symmetry_multiplicity
 _atom_site_fract_x
 _atom_site_fract_y
 _atom_site_fract_z
 _atom_site_occupancy
  Ta  Ta0  1  0.000000  0.799333  0.495372  1
  Ta  Ta1  1  0.000000  0.200217  0.504499  1
  Ta  Ta2  1  0.000000  0.299678  0.004462  1
  Ta  Ta3  1  0.000000  0.701228  0.995495  1
  Ta  Ta4  1  0.000000  0.516021  0.593860  1
  Ta  Ta5  1  0.000000  0.483589  0.406287  1
  Ta  Ta6  1  0.000000  0.016124  0.905991  1
  Ta  Ta7  1  0.000000  0.984430  0.093547  1
  Ta  Ta8  1  0.000000  0.687607  0.202293  1
  Nb  Nb9  1  0.000000  0.311864  0.798258  1
  Nb  Nb10  1  0.000000  0.188566  0.298224  1
  Nb  Nb11  1  0.000000  0.811617  0.701620  1
  B  B12  1  0.500000  0.604553  0.497134  1
  B  B13  1  0.500000  0.395119  0.502904  1
  B  B14  1  0.500000  0.104942  0.002859  1
  B  B15  1  0.500000  0.895476  0.996918  1
  B  B16  1  0.000000  0.608771  0.832295  1
  B  B17  1  0.000000  0.390902  0.167947  1
  B  B18  1  0.000000  0.109020  0.667708  1
  B  B19  1  0.000000  0.891136  0.332499  1
  B  B20  1  0.500000  0.715102  0.597114  1
  B  B21  1  0.500000  0.284532  0.402788  1
  B  B22  1  0.500000  0.215550  0.902533  1
  B  B23  1  0.500000  0.784964  0.098002  1
  Os  Os24  1  0.500000  0.719082  0.355413  1
  Os  Os25  1  0.500000  0.280462  0.644189  1
  Os  Os26  1  0.500000  0.219772  0.144216  1
  Os  Os27  1  0.500000  0.780659  0.855907  1
  Os  Os28  1  0.500000  0.516609  0.093720  1
  Os  Os29  1  0.500000  0.485085  0.907295  1
  Os  Os30  1  0.500000  0.014833  0.406515  1
  Os  Os31  1  0.500000  0.984579  0.592994  1
  Os  Os32  1  0.500000  0.559439  0.735079  1
  Os  Os33  1  0.500000  0.441519  0.264904  1
  Os  Os34  1  0.500000  0.059548  0.765120  1
  Os  Os35  1  0.500000  0.938074  0.234041  1
