# generated using pymatgen
data_Y17Ho3(Bi2Sb)4
_symmetry_space_group_name_H-M   'P 1'
_cell_length_a   8.19066201
_cell_length_b   9.46533600
_cell_length_c   12.02450701
_cell_angle_alpha   90.00000000
_cell_angle_beta   90.00527698
_cell_angle_gamma   90.00000000
_symmetry_Int_Tables_number   1
_chemical_formula_structural   Y17Ho3(Bi2Sb)4
_chemical_formula_sum   'Y17 Ho3 Bi8 Sb4'
_cell_volume   932.22837594
_cell_formula_units_Z   1
loop_
 _symmetry_equiv_pos_site_id
 _symmetry_equiv_pos_as_xyz
  1  'x, y, z'
loop_
 _atom_site_type_symbol
 _atom_site_label
 _atom_site_symmetry_multiplicity
 _atom_site_fract_x
 _atom_site_fract_y
 _atom_site_fract_z
 _atom_site_occupancy
  Y  Y0  1  0.470310  0.250000  0.488424  1
  Y  Y1  1  0.183434  0.750000  0.718341  1
  Y  Y2  1  0.683408  0.750000  0.781676  1
  Y  Y3  1  0.816754  0.250000  0.281520  1
  Y  Y4  1  0.316456  0.250000  0.218106  1
  Y  Y5  1  0.309453  0.438930  0.941321  1
  Y  Y6  1  0.809802  0.060863  0.558756  1
  Y  Y7  1  0.690549  0.938949  0.058697  1
  Y  Y8  1  0.190444  0.561142  0.441293  1
  Y  Y9  1  0.690549  0.561051  0.058697  1
  Y  Y10  1  0.190444  0.938858  0.441293  1
  Y  Y11  1  0.309453  0.061070  0.941321  1
  Y  Y12  1  0.809802  0.439137  0.558756  1
  Y  Y13  1  0.354017  0.750000  0.212777  1
  Y  Y14  1  0.854033  0.750000  0.287194  1
  Y  Y15  1  0.646067  0.250000  0.787384  1
  Y  Y16  1  0.145867  0.250000  0.712828  1
  Ho  Ho17  1  0.029279  0.750000  0.988432  1
  Ho  Ho18  1  0.529236  0.750000  0.511567  1
  Ho  Ho19  1  0.970780  0.250000  0.011605  1
  Bi  Bi20  1  0.433701  0.003582  0.673623  1
  Bi  Bi21  1  0.933680  0.496238  0.826584  1
  Bi  Bi22  1  0.566484  0.504074  0.326385  1
  Bi  Bi23  1  0.066287  0.996238  0.173420  1
  Bi  Bi24  1  0.566484  0.995926  0.326385  1
  Bi  Bi25  1  0.066287  0.503762  0.173420  1
  Bi  Bi26  1  0.433701  0.496418  0.673623  1
  Bi  Bi27  1  0.933680  0.003762  0.826584  1
  Sb  Sb28  1  0.409997  0.750000  0.959282  1
  Sb  Sb29  1  0.909990  0.750000  0.540725  1
  Sb  Sb30  1  0.589982  0.250000  0.040728  1
  Sb  Sb31  1  0.089590  0.250000  0.459255  1
