# generated using pymatgen
data_NdY3(Ga2Ag)4
_symmetry_space_group_name_H-M   'P 1'
_cell_length_a   4.39909100
_cell_length_b   7.00314600
_cell_length_c   10.31820927
_cell_angle_alpha   90.16185963
_cell_angle_beta   90.00000000
_cell_angle_gamma   90.00000000
_symmetry_Int_Tables_number   1
_chemical_formula_structural   NdY3(Ga2Ag)4
_chemical_formula_sum   'Nd1 Y3 Ga8 Ag4'
_cell_volume   317.87672169
_cell_formula_units_Z   1
loop_
 _symmetry_equiv_pos_site_id
 _symmetry_equiv_pos_as_xyz
  1  'x, y, z'
loop_
 _atom_site_type_symbol
 _atom_site_label
 _atom_site_symmetry_multiplicity
 _atom_site_fract_x
 _atom_site_fract_y
 _atom_site_fract_z
 _atom_site_occupancy
  Nd  Nd0  1  0.250000  0.279621  0.676200  1
  Y  Y1  1  0.250000  0.779582  0.824722  1
  Y  Y2  1  0.750000  0.219866  0.176282  1
  Y  Y3  1  0.750000  0.720054  0.323601  1
  Ga  Ga4  1  0.250000  0.927356  0.154685  1
  Ga  Ga5  1  0.750000  0.070013  0.847128  1
  Ga  Ga6  1  0.750000  0.576251  0.654025  1
  Ga  Ga7  1  0.250000  0.428419  0.345039  1
  Ga  Ga8  1  0.250000  0.703265  0.534731  1
  Ga  Ga9  1  0.750000  0.300163  0.463130  1
  Ga  Ga10  1  0.750000  0.799758  0.035489  1
  Ga  Ga11  1  0.250000  0.198041  0.967205  1
  Ag  Ag12  1  0.250000  0.544860  0.095161  1
  Ag  Ag13  1  0.750000  0.455340  0.905912  1
  Ag  Ag14  1  0.750000  0.953408  0.593978  1
  Ag  Ag15  1  0.250000  0.044004  0.402711  1
