# generated using pymatgen
data_LaBi3(SeO5)2
_symmetry_space_group_name_H-M   'P 1'
_cell_length_a   8.87744402
_cell_length_b   8.87744469
_cell_length_c   11.59531400
_cell_angle_alpha   90.00000000
_cell_angle_beta   90.00000000
_cell_angle_gamma   143.18543072
_symmetry_Int_Tables_number   1
_chemical_formula_structural   LaBi3(SeO5)2
_chemical_formula_sum   'La2 Bi6 Se4 O20'
_cell_volume   547.58298296
_cell_formula_units_Z   2
loop_
 _symmetry_equiv_pos_site_id
 _symmetry_equiv_pos_as_xyz
  1  'x, y, z'
loop_
 _atom_site_type_symbol
 _atom_site_label
 _atom_site_symmetry_multiplicity
 _atom_site_fract_x
 _atom_site_fract_y
 _atom_site_fract_z
 _atom_site_occupancy
  La  La0  1  0.739420  0.239420  0.618852  1
  La  La1  1  0.239420  0.739420  0.381148  1
  Bi  Bi2  1  0.238917  0.738917  0.870220  1
  Bi  Bi3  1  0.738917  0.238917  0.129780  1
  Bi  Bi4  1  0.896988  0.067309  0.394966  1
  Bi  Bi5  1  0.067309  0.896988  0.605034  1
  Bi  Bi6  1  0.396988  0.567309  0.605034  1
  Bi  Bi7  1  0.567309  0.396988  0.394966  1
  Se  Se8  1  0.391384  0.575956  0.144806  1
  Se  Se9  1  0.575956  0.391384  0.855194  1
  Se  Se10  1  0.891384  0.075956  0.855194  1
  Se  Se11  1  0.075956  0.891384  0.144806  1
  O  O12  1  0.133994  0.458618  0.213280  1
  O  O13  1  0.458618  0.133994  0.786720  1
  O  O14  1  0.633994  0.958618  0.786720  1
  O  O15  1  0.958618  0.633994  0.213280  1
  O  O16  1  0.577210  0.900612  0.501484  1
  O  O17  1  0.900612  0.577210  0.498516  1
  O  O18  1  0.077210  0.400612  0.498516  1
  O  O19  1  0.400612  0.077210  0.501484  1
  O  O20  1  0.129834  0.629834  0.700322  1
  O  O21  1  0.629834  0.129834  0.299678  1
  O  O22  1  0.549278  0.851306  0.079927  1
  O  O23  1  0.851306  0.549278  0.920073  1
  O  O24  1  0.172753  0.065050  0.264563  1
  O  O25  1  0.065050  0.172753  0.735437  1
  O  O26  1  0.672753  0.565050  0.735437  1
  O  O27  1  0.565050  0.672753  0.264563  1
  O  O28  1  0.253893  0.253893  0.500000  1
  O  O29  1  0.753893  0.753893  0.500000  1
  O  O30  1  0.351306  0.049278  0.079927  1
  O  O31  1  0.049278  0.351306  0.920073  1
