# generated using pymatgen
data_K4Th6GeI18
_symmetry_space_group_name_H-M   'P 1'
_cell_length_a   11.81113516
_cell_length_b   11.90477183
_cell_length_c   11.99537254
_cell_angle_alpha   118.56817242
_cell_angle_beta   100.31802252
_cell_angle_gamma   103.61120808
_symmetry_Int_Tables_number   1
_chemical_formula_structural   K4Th6GeI18
_chemical_formula_sum   'K4 Th6 Ge1 I18'
_cell_volume   1353.05674644
_cell_formula_units_Z   1
loop_
 _symmetry_equiv_pos_site_id
 _symmetry_equiv_pos_as_xyz
  1  'x, y, z'
loop_
 _atom_site_type_symbol
 _atom_site_label
 _atom_site_symmetry_multiplicity
 _atom_site_fract_x
 _atom_site_fract_y
 _atom_site_fract_z
 _atom_site_occupancy
  K  K0  1  0.644544  0.535585  0.224764  1
  K  K1  1  0.355456  0.464415  0.775236  1
  K  K2  1  0.681504  0.225647  0.563712  1
  K  K3  1  0.318496  0.774353  0.436288  1
  Th  Th4  1  0.160886  0.059648  0.246168  1
  Th  Th5  1  0.839114  0.940352  0.753832  1
  Th  Th6  1  0.855057  0.137590  0.144073  1
  Th  Th7  1  0.144943  0.862410  0.855927  1
  Th  Th8  1  0.154314  0.254106  0.047272  1
  Th  Th9  1  0.845686  0.745894  0.952728  1
  Ge  Ge10  1  0.000000  0.000000  0.000000  1
  I  I11  1  0.011192  0.431996  0.209595  1
  I  I12  1  0.988808  0.568004  0.790405  1
  I  I13  1  0.342870  0.349108  0.326316  1
  I  I14  1  0.657130  0.650892  0.673684  1
  I  I15  1  0.339913  0.539713  0.104208  1
  I  I16  1  0.660087  0.460287  0.895792  1
  I  I17  1  0.006577  0.786127  0.220355  1
  I  I18  1  0.993423  0.213873  0.779645  1
  I  I19  1  0.695841  0.293906  0.305957  1
  I  I20  1  0.304159  0.706094  0.694043  1
  I  I21  1  0.328559  0.129870  0.895249  1
  I  I22  1  0.671441  0.870130  0.104751  1
  I  I23  1  0.018272  0.216521  0.431100  1
  I  I24  1  0.981728  0.783479  0.568900  1
  I  I25  1  0.333901  0.915045  0.113235  1
  I  I26  1  0.666099  0.084955  0.886765  1
  I  I27  1  0.351002  0.124713  0.521304  1
  I  I28  1  0.648998  0.875287  0.478696  1
