# generated using pymatgen
data_Tb3Pa(Al8Pt3)3
_symmetry_space_group_name_H-M   'P 1'
_cell_length_a   7.54850361
_cell_length_b   7.56078224
_cell_length_c   13.14969451
_cell_angle_alpha   84.51341574
_cell_angle_beta   78.96908741
_cell_angle_gamma   59.92075067
_symmetry_Int_Tables_number   1
_chemical_formula_structural   Tb3Pa(Al8Pt3)3
_chemical_formula_sum   'Tb3 Pa1 Al24 Pt9'
_cell_volume   637.42261040
_cell_formula_units_Z   1
loop_
 _symmetry_equiv_pos_site_id
 _symmetry_equiv_pos_as_xyz
  1  'x, y, z'
loop_
 _atom_site_type_symbol
 _atom_site_label
 _atom_site_symmetry_multiplicity
 _atom_site_fract_x
 _atom_site_fract_y
 _atom_site_fract_z
 _atom_site_occupancy
  Tb  Tb0  1  0.606439  0.831526  0.191957  1
  Tb  Tb1  1  0.733776  0.498669  0.807960  1
  Tb  Tb2  1  0.266347  0.501407  0.192148  1
  Pa  Pa3  1  0.395008  0.168293  0.804958  1
  Al  Al4  1  0.684604  0.833371  0.944515  1
  Al  Al5  1  0.315124  0.166295  0.055326  1
  Al  Al6  1  0.146773  0.832701  0.561001  1
  Al  Al7  1  0.854233  0.167290  0.438079  1
  Al  Al8  1  0.480530  0.166674  0.558251  1
  Al  Al9  1  0.519909  0.832469  0.440880  1
  Al  Al10  1  0.217221  0.165305  0.330960  1
  Al  Al11  1  0.784710  0.832856  0.669344  1
  Al  Al12  1  0.437853  0.508373  0.669552  1
  Al  Al13  1  0.561995  0.493709  0.330435  1
  Al  Al14  1  0.108181  0.159725  0.668254  1
  Al  Al15  1  0.889912  0.839860  0.331530  1
  Al  Al16  1  0.352545  0.499908  0.944523  1
  Al  Al17  1  0.647362  0.500396  0.055755  1
  Al  Al18  1  0.014817  0.167623  0.953609  1
  Al  Al19  1  0.984617  0.832739  0.047051  1
  Al  Al20  1  0.185886  0.500150  0.440957  1
  Al  Al21  1  0.813599  0.500627  0.558511  1
  Al  Al22  1  0.734676  0.163818  0.183668  1
  Al  Al23  1  0.263592  0.837767  0.817064  1
  Al  Al24  1  0.063211  0.631491  0.815779  1
  Al  Al25  1  0.938332  0.368621  0.184862  1
  Al  Al26  1  0.855737  0.039642  0.816495  1
  Al  Al27  1  0.144430  0.958651  0.184137  1
  Pt  Pt28  1  0.120243  0.491635  0.639801  1
  Pt  Pt29  1  0.879564  0.507683  0.361652  1
  Pt  Pt30  1  0.657072  0.171544  0.999187  1
  Pt  Pt31  1  0.343208  0.828414  0.999391  1
  Pt  Pt32  1  0.537650  0.166670  0.362065  1
  Pt  Pt33  1  0.461935  0.833531  0.639582  1
  Pt  Pt34  1  0.778591  0.175042  0.638492  1
  Pt  Pt35  1  0.220494  0.825296  0.362958  1
  Pt  Pt36  1  0.999825  0.500231  0.999314  1
