# generated using pymatgen
data_Dy11In8Ru4Pb
_symmetry_space_group_name_H-M   'P 1'
_cell_length_a   3.80233200
_cell_length_b   12.96867123
_cell_length_c   12.96155338
_cell_angle_alpha   112.66759626
_cell_angle_beta   90.00000000
_cell_angle_gamma   90.00000000
_symmetry_Int_Tables_number   1
_chemical_formula_structural   Dy11In8Ru4Pb
_chemical_formula_sum   'Dy11 In8 Ru4 Pb1'
_cell_volume   589.77931387
_cell_formula_units_Z   1
loop_
 _symmetry_equiv_pos_site_id
 _symmetry_equiv_pos_as_xyz
  1  'x, y, z'
loop_
 _atom_site_type_symbol
 _atom_site_label
 _atom_site_symmetry_multiplicity
 _atom_site_fract_x
 _atom_site_fract_y
 _atom_site_fract_z
 _atom_site_occupancy
  Dy  Dy0  1  0.000000  0.912221  0.581504  1
  Dy  Dy1  1  0.000000  0.084531  0.414986  1
  Dy  Dy2  1  0.000000  0.583596  0.915905  1
  Dy  Dy3  1  0.000000  0.417792  0.084799  1
  Dy  Dy4  1  0.000000  0.163726  0.839440  1
  Dy  Dy5  1  0.000000  0.837177  0.163156  1
  Dy  Dy6  1  0.000000  0.372171  0.630276  1
  Dy  Dy7  1  0.000000  0.629221  0.369539  1
  Dy  Dy8  1  0.000000  0.692330  0.692770  1
  Dy  Dy9  1  0.000000  0.307895  0.307162  1
  Dy  Dy10  1  0.000000  0.000165  0.999655  1
  In  In11  1  0.500000  0.846125  0.368786  1
  In  In12  1  0.500000  0.629680  0.151820  1
  In  In13  1  0.500000  0.374445  0.851474  1
  In  In14  1  0.500000  0.926720  0.782568  1
  In  In15  1  0.500000  0.072505  0.217421  1
  In  In16  1  0.500000  0.782439  0.928238  1
  In  In17  1  0.500000  0.218276  0.072111  1
  In  In18  1  0.500000  0.500023  0.499948  1
  Ru  Ru19  1  0.500000  0.743505  0.548730  1
  Ru  Ru20  1  0.500000  0.256372  0.449932  1
  Ru  Ru21  1  0.500000  0.548691  0.743826  1
  Ru  Ru22  1  0.500000  0.451013  0.256246  1
  Pb  Pb23  1  0.500000  0.149380  0.629708  1
