# generated using pymatgen
data_Pr5Dy(SiPt5)2
_symmetry_space_group_name_H-M   'P 1'
_cell_length_a   8.39660864
_cell_length_b   8.41684952
_cell_length_c   8.41685037
_cell_angle_alpha   127.29002825
_cell_angle_beta   126.35377888
_cell_angle_gamma   78.59930729
_symmetry_Int_Tables_number   1
_chemical_formula_structural   Pr5Dy(SiPt5)2
_chemical_formula_sum   'Pr5 Dy1 Si2 Pt10'
_cell_volume   368.83915389
_cell_formula_units_Z   1
loop_
 _symmetry_equiv_pos_site_id
 _symmetry_equiv_pos_as_xyz
  1  'x, y, z'
loop_
 _atom_site_type_symbol
 _atom_site_label
 _atom_site_symmetry_multiplicity
 _atom_site_fract_x
 _atom_site_fract_y
 _atom_site_fract_z
 _atom_site_occupancy
  Pr  Pr0  1  0.828994  0.550439  0.278553  1
  Pr  Pr1  1  0.614542  0.249815  0.364727  1
  Pr  Pr2  1  0.171817  0.450436  0.721381  1
  Pr  Pr3  1  0.387712  0.749762  0.637951  1
  Pr  Pr4  1  0.231456  0.950171  0.281285  1
  Dy  Dy5  1  0.776733  0.049893  0.726841  1
  Si  Si6  1  0.214513  0.250382  0.964130  1
  Si  Si7  1  0.787130  0.750423  0.036707  1
  Pt  Pt8  1  0.167880  0.908571  0.862608  1
  Pt  Pt9  1  0.827663  0.090825  0.130533  1
  Pt  Pt10  1  0.457036  0.191376  0.861730  1
  Pt  Pt11  1  0.547074  0.404300  0.737164  1
  Pt  Pt12  1  0.827663  0.697130  0.736839  1
  Pt  Pt13  1  0.457036  0.595308  0.265660  1
  Pt  Pt14  1  0.547074  0.809909  0.142774  1
  Pt  Pt15  1  0.167880  0.305272  0.259308  1
  Pt  Pt16  1  0.993899  0.003907  0.501817  1
  Pt  Pt17  1  0.993899  0.492082  0.989992  1
