# generated using pymatgen
data_Zr3Sc(FeSi2)2
_symmetry_space_group_name_H-M   'P 1'
_cell_length_a   5.32595283
_cell_length_b   5.32595244
_cell_length_c   9.49632675
_cell_angle_alpha   63.47140041
_cell_angle_beta   63.47140020
_cell_angle_gamma   43.23183029
_symmetry_Int_Tables_number   1
_chemical_formula_structural   Zr3Sc(FeSi2)2
_chemical_formula_sum   'Zr3 Sc1 Fe2 Si4'
_cell_volume   161.81769942
_cell_formula_units_Z   1
loop_
 _symmetry_equiv_pos_site_id
 _symmetry_equiv_pos_as_xyz
  1  'x, y, z'
loop_
 _atom_site_type_symbol
 _atom_site_label
 _atom_site_symmetry_multiplicity
 _atom_site_fract_x
 _atom_site_fract_y
 _atom_site_fract_z
 _atom_site_occupancy
  Zr  Zr0  1  0.813241  0.813241  0.102308  1
  Zr  Zr1  1  0.002870  0.002870  0.326908  1
  Zr  Zr2  1  0.186379  0.186379  0.898421  1
  Sc  Sc3  1  0.998326  0.998326  0.673499  1
  Fe  Fe4  1  0.724712  0.724712  0.624998  1
  Fe  Fe5  1  0.273965  0.273965  0.374753  1
  Si  Si6  1  0.489991  0.489991  0.873682  1
  Si  Si7  1  0.351584  0.351584  0.569047  1
  Si  Si8  1  0.511550  0.511550  0.125141  1
  Si  Si9  1  0.647382  0.647382  0.431244  1
