# generated using pymatgen
data_Na2MnH9
_symmetry_space_group_name_H-M   'P 1'
_cell_length_a   8.32349619
_cell_length_b   8.32349516
_cell_length_c   4.88917400
_cell_angle_alpha   90.00000000
_cell_angle_beta   90.00000000
_cell_angle_gamma   120.09908020
_symmetry_Int_Tables_number   1
_chemical_formula_structural   Na2MnH9
_chemical_formula_sum   'Na6 Mn3 H27'
_cell_volume   293.05097913
_cell_formula_units_Z   3
loop_
 _symmetry_equiv_pos_site_id
 _symmetry_equiv_pos_as_xyz
  1  'x, y, z'
loop_
 _atom_site_type_symbol
 _atom_site_label
 _atom_site_symmetry_multiplicity
 _atom_site_fract_x
 _atom_site_fract_y
 _atom_site_fract_z
 _atom_site_occupancy
  Na  Na0  1  0.406015  0.406015  0.000000  1
  Na  Na1  1  0.263465  0.000303  0.500000  1
  Na  Na2  1  0.000303  0.263465  0.500000  1
  Na  Na3  1  0.734989  0.734989  0.500000  1
  Na  Na4  1  0.595095  0.000613  0.000000  1
  Na  Na5  1  0.000613  0.595095  0.000000  1
  Mn  Mn6  1  0.998151  0.998151  0.000000  1
  Mn  Mn7  1  0.333074  0.668296  0.500000  1
  Mn  Mn8  1  0.668296  0.333074  0.500000  1
  H  H9  1  0.863581  0.998234  0.218674  1
  H  H10  1  0.998234  0.863581  0.218674  1
  H  H11  1  0.863581  0.998234  0.781326  1
  H  H12  1  0.998234  0.863581  0.781326  1
  H  H13  1  0.131812  0.131812  0.221065  1
  H  H14  1  0.131812  0.131812  0.778935  1
  H  H15  1  0.183382  0.000352  0.000000  1
  H  H16  1  0.000352  0.183382  0.000000  1
  H  H17  1  0.814232  0.814232  0.000000  1
  H  H18  1  0.216136  0.527265  0.271750  1
  H  H19  1  0.474212  0.693711  0.271607  1
  H  H20  1  0.216136  0.527265  0.728250  1
  H  H21  1  0.527265  0.216136  0.728250  1
  H  H22  1  0.309006  0.784163  0.270978  1
  H  H23  1  0.474212  0.693711  0.728393  1
  H  H24  1  0.693711  0.474212  0.728393  1
  H  H25  1  0.527265  0.216136  0.271750  1
  H  H26  1  0.309006  0.784163  0.729022  1
  H  H27  1  0.693711  0.474212  0.271607  1
  H  H28  1  0.784163  0.309006  0.729022  1
  H  H29  1  0.784163  0.309006  0.270978  1
  H  H30  1  0.366184  0.503318  0.500000  1
  H  H31  1  0.497263  0.866856  0.500000  1
  H  H32  1  0.503318  0.366184  0.500000  1
  H  H33  1  0.135558  0.636618  0.500000  1
  H  H34  1  0.866856  0.497263  0.500000  1
  H  H35  1  0.636618  0.135558  0.500000  1
