# generated using pymatgen
data_SrBSbS4
_symmetry_space_group_name_H-M   'P 1'
_cell_length_a   6.20473000
_cell_length_b   9.60007800
_cell_length_c   11.51481100
_cell_angle_alpha   90.00000000
_cell_angle_beta   90.00000000
_cell_angle_gamma   90.00000000
_symmetry_Int_Tables_number   1
_chemical_formula_structural   SrBSbS4
_chemical_formula_sum   'Sr4 B4 Sb4 S16'
_cell_volume   685.88998807
_cell_formula_units_Z   4
loop_
 _symmetry_equiv_pos_site_id
 _symmetry_equiv_pos_as_xyz
  1  'x, y, z'
loop_
 _atom_site_type_symbol
 _atom_site_label
 _atom_site_symmetry_multiplicity
 _atom_site_fract_x
 _atom_site_fract_y
 _atom_site_fract_z
 _atom_site_occupancy
  Sr  Sr0  1  0.250000  0.483636  0.661846  1
  Sr  Sr1  1  0.750000  0.016364  0.161846  1
  Sr  Sr2  1  0.250000  0.983636  0.838154  1
  Sr  Sr3  1  0.750000  0.516364  0.338154  1
  B  B4  1  0.250000  0.192435  0.448753  1
  B  B5  1  0.750000  0.307565  0.948753  1
  B  B6  1  0.250000  0.692435  0.051247  1
  B  B7  1  0.750000  0.807565  0.551247  1
  Sb  Sb8  1  0.250000  0.809818  0.456936  1
  Sb  Sb9  1  0.750000  0.690182  0.956936  1
  Sb  Sb10  1  0.250000  0.309818  0.043064  1
  Sb  Sb11  1  0.750000  0.190182  0.543064  1
  S  S12  1  0.250000  0.174359  0.604506  1
  S  S13  1  0.750000  0.325641  0.104506  1
  S  S14  1  0.250000  0.674359  0.895494  1
  S  S15  1  0.750000  0.825641  0.395494  1
  S  S16  1  0.250000  0.564735  0.408844  1
  S  S17  1  0.750000  0.935265  0.908844  1
  S  S18  1  0.250000  0.064735  0.091156  1
  S  S19  1  0.750000  0.435265  0.591156  1
  S  S20  1  0.999781  0.793246  0.632507  1
  S  S21  1  0.000219  0.706754  0.132507  1
  S  S22  1  0.500219  0.293246  0.867493  1
  S  S23  1  0.499781  0.206754  0.367493  1
  S  S24  1  0.000219  0.206754  0.367493  1
  S  S25  1  0.999781  0.293246  0.867493  1
  S  S26  1  0.499781  0.706754  0.132507  1
  S  S27  1  0.500219  0.793246  0.632507  1
