# generated using pymatgen
data_SrYbOsO6
_symmetry_space_group_name_H-M   'P 1'
_cell_length_a   5.56301800
_cell_length_b   5.56301671
_cell_length_c   5.14367600
_cell_angle_alpha   90.00000000
_cell_angle_beta   90.00000000
_cell_angle_gamma   119.99999577
_symmetry_Int_Tables_number   1
_chemical_formula_structural   SrYbOsO6
_chemical_formula_sum   'Sr1 Yb1 Os1 O6'
_cell_volume   137.85581325
_cell_formula_units_Z   1
loop_
 _symmetry_equiv_pos_site_id
 _symmetry_equiv_pos_as_xyz
  1  'x, y, z'
loop_
 _atom_site_type_symbol
 _atom_site_label
 _atom_site_symmetry_multiplicity
 _atom_site_fract_x
 _atom_site_fract_y
 _atom_site_fract_z
 _atom_site_occupancy
  Sr  Sr0  1  0.000000  0.000000  0.000000  1
  Yb  Yb1  1  0.333334  0.666667  0.500001  1
  Os  Os2  1  0.666666  0.333334  0.500001  1
  O  O3  1  0.659521  0.052858  0.291677  1
  O  O4  1  0.393336  0.340479  0.291677  1
  O  O5  1  0.947142  0.606663  0.291677  1
  O  O6  1  0.393335  0.052858  0.708322  1
  O  O7  1  0.947143  0.340479  0.708322  1
  O  O8  1  0.659521  0.606663  0.708322  1
