# generated using pymatgen
data_Tm6ScCo16MoP12
_symmetry_space_group_name_H-M   'P 1'
_cell_length_a   3.68883100
_cell_length_b   10.56378200
_cell_length_c   12.22686900
_cell_angle_alpha   90.00000000
_cell_angle_beta   90.00000000
_cell_angle_gamma   90.00000000
_symmetry_Int_Tables_number   1
_chemical_formula_structural   Tm6ScCo16MoP12
_chemical_formula_sum   'Tm6 Sc1 Co16 Mo1 P12'
_cell_volume   476.45671090
_cell_formula_units_Z   1
loop_
 _symmetry_equiv_pos_site_id
 _symmetry_equiv_pos_as_xyz
  1  'x, y, z'
loop_
 _atom_site_type_symbol
 _atom_site_label
 _atom_site_symmetry_multiplicity
 _atom_site_fract_x
 _atom_site_fract_y
 _atom_site_fract_z
 _atom_site_occupancy
  Tm  Tm0  1  0.000000  0.500000  0.524853  1
  Tm  Tm1  1  0.500000  0.000000  0.472638  1
  Tm  Tm2  1  0.500000  0.819129  0.204668  1
  Tm  Tm3  1  0.500000  0.180871  0.204668  1
  Tm  Tm4  1  0.000000  0.678174  0.794479  1
  Tm  Tm5  1  0.000000  0.321826  0.794479  1
  Sc  Sc6  1  0.000000  0.000000  0.845599  1
  Co  Co7  1  0.500000  0.500000  0.701768  1
  Co  Co8  1  0.000000  0.000000  0.297823  1
  Co  Co9  1  0.000000  0.500000  0.987947  1
  Co  Co10  1  0.500000  0.000000  0.015911  1
  Co  Co11  1  0.500000  0.335355  0.993638  1
  Co  Co12  1  0.500000  0.664645  0.993638  1
  Co  Co13  1  0.000000  0.171670  0.009586  1
  Co  Co14  1  0.000000  0.828330  0.009586  1
  Co  Co15  1  0.500000  0.296464  0.430886  1
  Co  Co16  1  0.500000  0.703536  0.430886  1
  Co  Co17  1  0.000000  0.205299  0.566215  1
  Co  Co18  1  0.000000  0.794701  0.566215  1
  Co  Co19  1  0.500000  0.876329  0.703566  1
  Co  Co20  1  0.500000  0.123671  0.703566  1
  Co  Co21  1  0.000000  0.621803  0.294697  1
  Co  Co22  1  0.000000  0.378197  0.294697  1
  Mo  Mo23  1  0.500000  0.500000  0.158936  1
  P  P24  1  0.500000  0.500000  0.881092  1
  P  P25  1  0.000000  0.000000  0.118045  1
  P  P26  1  0.500000  0.500000  0.352405  1
  P  P27  1  0.000000  0.000000  0.640518  1
  P  P28  1  0.500000  0.312110  0.615365  1
  P  P29  1  0.500000  0.687890  0.615365  1
  P  P30  1  0.000000  0.188641  0.382795  1
  P  P31  1  0.000000  0.811359  0.382795  1
  P  P32  1  0.500000  0.837920  0.894660  1
  P  P33  1  0.500000  0.162080  0.894660  1
  P  P34  1  0.000000  0.655307  0.110676  1
  P  P35  1  0.000000  0.344693  0.110676  1
