# generated using pymatgen
data_Y8Tm12Cd6TcRu
_symmetry_space_group_name_H-M   'P 1'
_cell_length_a   9.51498785
_cell_length_b   9.51498721
_cell_length_c   9.81363608
_cell_angle_alpha   89.89906416
_cell_angle_beta   90.10093468
_cell_angle_gamma   119.97920059
_symmetry_Int_Tables_number   1
_chemical_formula_structural   Y8Tm12Cd6TcRu
_chemical_formula_sum   'Y8 Tm12 Cd6 Tc1 Ru1'
_cell_volume   769.60364136
_cell_formula_units_Z   1
loop_
 _symmetry_equiv_pos_site_id
 _symmetry_equiv_pos_as_xyz
  1  'x, y, z'
loop_
 _atom_site_type_symbol
 _atom_site_label
 _atom_site_symmetry_multiplicity
 _atom_site_fract_x
 _atom_site_fract_y
 _atom_site_fract_z
 _atom_site_occupancy
  Y  Y0  1  0.208478  0.418164  0.058440  1
  Y  Y1  1  0.581836  0.791522  0.058440  1
  Y  Y2  1  0.539809  0.460191  0.251803  1
  Y  Y3  1  0.538367  0.077879  0.250941  1
  Y  Y4  1  0.922121  0.461633  0.250941  1
  Y  Y5  1  0.460681  0.539319  0.748079  1
  Y  Y6  1  0.459633  0.920412  0.748896  1
  Y  Y7  1  0.079588  0.540367  0.748896  1
  Tm  Tm8  1  0.000096  0.999904  0.499769  1
  Tm  Tm9  1  0.000821  0.999179  0.999133  1
  Tm  Tm10  1  0.209760  0.790240  0.441964  1
  Tm  Tm11  1  0.209874  0.420111  0.442680  1
  Tm  Tm12  1  0.579889  0.790126  0.442680  1
  Tm  Tm13  1  0.789672  0.210328  0.559005  1
  Tm  Tm14  1  0.789925  0.579448  0.558897  1
  Tm  Tm15  1  0.420552  0.210075  0.558897  1
  Tm  Tm16  1  0.789503  0.210497  0.940327  1
  Tm  Tm17  1  0.790122  0.578807  0.940695  1
  Tm  Tm18  1  0.421193  0.209878  0.940695  1
  Tm  Tm19  1  0.209345  0.790655  0.058980  1
  Cd  Cd20  1  0.886261  0.113739  0.249739  1
  Cd  Cd21  1  0.886335  0.772630  0.250304  1
  Cd  Cd22  1  0.227370  0.113665  0.250304  1
  Cd  Cd23  1  0.113453  0.886547  0.749582  1
  Cd  Cd24  1  0.113432  0.226683  0.749237  1
  Cd  Cd25  1  0.773317  0.886568  0.749237  1
  Tc  Tc26  1  0.332054  0.667946  0.251848  1
  Ru  Ru27  1  0.666515  0.333485  0.749593  1
