# generated using pymatgen
data_Yb2AlNiRh
_symmetry_space_group_name_H-M   'P 1'
_cell_length_a   3.99582755
_cell_length_b   5.54195562
_cell_length_c   5.54195568
_cell_angle_alpha   60.01636496
_cell_angle_beta   68.86863887
_cell_angle_gamma   68.86864928
_symmetry_Int_Tables_number   1
_chemical_formula_structural   Yb2AlNiRh
_chemical_formula_sum   'Yb2 Al1 Ni1 Rh1'
_cell_volume   96.65066145
_cell_formula_units_Z   1
loop_
 _symmetry_equiv_pos_site_id
 _symmetry_equiv_pos_as_xyz
  1  'x, y, z'
loop_
 _atom_site_type_symbol
 _atom_site_label
 _atom_site_symmetry_multiplicity
 _atom_site_fract_x
 _atom_site_fract_y
 _atom_site_fract_z
 _atom_site_occupancy
  Yb  Yb0  1  0.198210  0.301166  0.302415  1
  Yb  Yb1  1  0.801790  0.697585  0.698834  1
  Al  Al2  1  0.000000  0.997227  0.002773  1
  Ni  Ni3  1  0.500000  0.740417  0.259583  1
  Rh  Rh4  1  0.500000  0.263605  0.736395  1
