# generated using pymatgen
data_Ca4Ga17SiIr6
_symmetry_space_group_name_H-M   'P 1'
_cell_length_a   7.55296380
_cell_length_b   7.53987338
_cell_length_c   9.71755162
_cell_angle_alpha   89.94940698
_cell_angle_beta   90.03198660
_cell_angle_gamma   119.52787958
_symmetry_Int_Tables_number   1
_chemical_formula_structural   Ca4Ga17SiIr6
_chemical_formula_sum   'Ca4 Ga17 Si1 Ir6'
_cell_volume   481.52105881
_cell_formula_units_Z   1
loop_
 _symmetry_equiv_pos_site_id
 _symmetry_equiv_pos_as_xyz
  1  'x, y, z'
loop_
 _atom_site_type_symbol
 _atom_site_label
 _atom_site_symmetry_multiplicity
 _atom_site_fract_x
 _atom_site_fract_y
 _atom_site_fract_z
 _atom_site_occupancy
  Ca  Ca0  1  0.997261  0.666096  0.248716  1
  Ca  Ca1  1  0.002478  0.329872  0.749694  1
  Ca  Ca2  1  0.673700  0.002121  0.249076  1
  Ca  Ca3  1  0.329144  0.001921  0.748708  1
  Ga  Ga4  1  0.129752  0.130828  0.250620  1
  Ga  Ga5  1  0.871002  0.871836  0.750561  1
  Ga  Ga6  1  0.997431  0.670893  0.924436  1
  Ga  Ga7  1  0.998231  0.665337  0.574273  1
  Ga  Ga8  1  0.334095  0.000390  0.424356  1
  Ga  Ga9  1  0.001125  0.334801  0.426310  1
  Ga  Ga10  1  0.664349  0.997750  0.574743  1
  Ga  Ga11  1  0.658523  0.992650  0.924401  1
  Ga  Ga12  1  0.334167  0.999808  0.075391  1
  Ga  Ga13  1  0.334428  0.333735  0.561667  1
  Ga  Ga14  1  0.666719  0.667020  0.437317  1
  Ga  Ga15  1  0.666752  0.667709  0.063516  1
  Ga  Ga16  1  0.340855  0.334241  0.938103  1
  Ga  Ga17  1  0.335308  0.543213  0.251004  1
  Ga  Ga18  1  0.664280  0.454573  0.751697  1
  Ga  Ga19  1  0.544811  0.336441  0.251105  1
  Ga  Ga20  1  0.454324  0.662587  0.750432  1
  Si  Si21  1  0.003064  0.335180  0.065535  1
  Ir  Ir22  1  0.684482  0.329662  0.004759  1
  Ir  Ir23  1  0.314904  0.657157  0.001031  1
  Ir  Ir24  1  0.328308  0.670463  0.500219  1
  Ir  Ir25  1  0.670944  0.328624  0.501286  1
  Ir  Ir26  1  0.999955  0.014800  0.000899  1
  Ir  Ir27  1  0.999607  0.000296  0.500144  1
