# generated using pymatgen
data_Tb(HfSe2)8
_symmetry_space_group_name_H-M   'P 1'
_cell_length_a   7.51652900
_cell_length_b   7.51652683
_cell_length_c   13.84716500
_cell_angle_alpha   90.00000000
_cell_angle_beta   90.00000000
_cell_angle_gamma   119.99998755
_symmetry_Int_Tables_number   1
_chemical_formula_structural   Tb(HfSe2)8
_chemical_formula_sum   'Tb1 Hf8 Se16'
_cell_volume   677.52621358
_cell_formula_units_Z   1
loop_
 _symmetry_equiv_pos_site_id
 _symmetry_equiv_pos_as_xyz
  1  'x, y, z'
loop_
 _atom_site_type_symbol
 _atom_site_label
 _atom_site_symmetry_multiplicity
 _atom_site_fract_x
 _atom_site_fract_y
 _atom_site_fract_z
 _atom_site_occupancy
  Tb  Tb0  1  0.000000  0.000000  0.000000  1
  Hf  Hf1  1  0.503873  0.496127  0.745446  1
  Hf  Hf2  1  0.496127  0.503873  0.254554  1
  Hf  Hf3  1  0.503873  0.007744  0.745446  1
  Hf  Hf4  1  0.496127  0.992256  0.254554  1
  Hf  Hf5  1  0.992256  0.496127  0.745446  1
  Hf  Hf6  1  0.007744  0.503873  0.254554  1
  Hf  Hf7  1  0.000000  0.000000  0.741127  1
  Hf  Hf8  1  0.000000  0.000000  0.258873  1
  Se  Se9  1  0.832960  0.665921  0.136522  1
  Se  Se10  1  0.832606  0.665213  0.630234  1
  Se  Se11  1  0.832960  0.167040  0.136522  1
  Se  Se12  1  0.832606  0.167394  0.630234  1
  Se  Se13  1  0.333333  0.666667  0.136824  1
  Se  Se14  1  0.333333  0.666667  0.637541  1
  Se  Se15  1  0.334079  0.167040  0.136522  1
  Se  Se16  1  0.334787  0.167394  0.630234  1
  Se  Se17  1  0.665921  0.832960  0.863478  1
  Se  Se18  1  0.665213  0.832606  0.369766  1
  Se  Se19  1  0.666667  0.333333  0.863176  1
  Se  Se20  1  0.666667  0.333333  0.362459  1
  Se  Se21  1  0.167040  0.832960  0.863478  1
  Se  Se22  1  0.167394  0.832606  0.369766  1
  Se  Se23  1  0.167040  0.334079  0.863478  1
  Se  Se24  1  0.167394  0.334787  0.369766  1
