# generated using pymatgen
data_PrNdSi2RuRh
_symmetry_space_group_name_H-M   'P 1'
_cell_length_a   4.17604100
_cell_length_b   4.17426900
_cell_length_c   7.12092800
_cell_angle_alpha   90.00000000
_cell_angle_beta   90.00000000
_cell_angle_gamma   90.00000000
_symmetry_Int_Tables_number   1
_chemical_formula_structural   PrNdSi2RuRh
_chemical_formula_sum   'Pr1 Nd1 Si2 Ru1 Rh1'
_cell_volume   124.13143646
_cell_formula_units_Z   1
loop_
 _symmetry_equiv_pos_site_id
 _symmetry_equiv_pos_as_xyz
  1  'x, y, z'
loop_
 _atom_site_type_symbol
 _atom_site_label
 _atom_site_symmetry_multiplicity
 _atom_site_fract_x
 _atom_site_fract_y
 _atom_site_fract_z
 _atom_site_occupancy
  Pr  Pr0  1  0.000000  0.500000  0.326764  1
  Nd  Nd1  1  0.500000  0.000000  0.677629  1
  Si  Si2  1  0.000000  0.500000  0.820250  1
  Si  Si3  1  0.500000  0.000000  0.177980  1
  Ru  Ru4  1  0.500000  0.500000  0.998613  1
  Rh  Rh5  1  0.000000  0.000000  0.998765  1
