# generated using pymatgen
data_Tb3Y4Tm13Pt16
_symmetry_space_group_name_H-M   'P 1'
_cell_length_a   7.43969604
_cell_length_b   7.51109252
_cell_length_c   14.61732709
_cell_angle_alpha   90.00000998
_cell_angle_beta   89.99033514
_cell_angle_gamma   89.96793519
_symmetry_Int_Tables_number   1
_chemical_formula_structural   Tb3Y4Tm13Pt16
_chemical_formula_sum   'Tb3 Y4 Tm13 Pt16'
_cell_volume   816.81968344
_cell_formula_units_Z   1
loop_
 _symmetry_equiv_pos_site_id
 _symmetry_equiv_pos_as_xyz
  1  'x, y, z'
loop_
 _atom_site_type_symbol
 _atom_site_label
 _atom_site_symmetry_multiplicity
 _atom_site_fract_x
 _atom_site_fract_y
 _atom_site_fract_z
 _atom_site_occupancy
  Tb  Tb0  1  0.498748  0.679370  0.093096  1
  Tb  Tb1  1  0.501477  0.320520  0.592904  1
  Tb  Tb2  1  0.001286  0.179410  0.907064  1
  Y  Y3  1  0.000928  0.178575  0.592601  1
  Y  Y4  1  0.501283  0.320688  0.907032  1
  Y  Y5  1  0.498728  0.679700  0.407079  1
  Y  Y6  1  0.998942  0.820495  0.092914  1
  Tm  Tm7  1  0.681203  0.989881  0.250386  1
  Tm  Tm8  1  0.180872  0.510328  0.250355  1
  Tm  Tm9  1  0.819021  0.489880  0.749871  1
  Tm  Tm10  1  0.319032  0.010014  0.749949  1
  Tm  Tm11  1  0.656214  0.832674  0.622421  1
  Tm  Tm12  1  0.156084  0.667497  0.877383  1
  Tm  Tm13  1  0.844040  0.332391  0.377542  1
  Tm  Tm14  1  0.343823  0.167491  0.122694  1
  Tm  Tm15  1  0.343154  0.167074  0.377668  1
  Tm  Tm16  1  0.843954  0.332379  0.122762  1
  Tm  Tm17  1  0.155468  0.668026  0.622225  1
  Tm  Tm18  1  0.656107  0.832412  0.877424  1
  Tm  Tm19  1  0.997585  0.819609  0.406785  1
  Pt  Pt20  1  0.817706  0.642521  0.251259  1
  Pt  Pt21  1  0.315718  0.858422  0.250424  1
  Pt  Pt22  1  0.683593  0.141579  0.749805  1
  Pt  Pt23  1  0.183615  0.358514  0.749931  1
  Pt  Pt24  1  0.546601  0.384490  0.250084  1
  Pt  Pt25  1  0.045942  0.114930  0.250609  1
  Pt  Pt26  1  0.953761  0.884156  0.749999  1
  Pt  Pt27  1  0.453693  0.615849  0.749872  1
  Pt  Pt28  1  0.818173  0.535218  0.541535  1
  Pt  Pt29  1  0.317881  0.965868  0.958006  1
  Pt  Pt30  1  0.684614  0.032419  0.457505  1
  Pt  Pt31  1  0.181980  0.466046  0.042064  1
  Pt  Pt32  1  0.181303  0.468015  0.457253  1
  Pt  Pt33  1  0.682054  0.034184  0.042052  1
  Pt  Pt34  1  0.317559  0.965312  0.541472  1
  Pt  Pt35  1  0.817862  0.534059  0.957974  1
