# generated using pymatgen
data_HoTh2U(NiB4)4
_symmetry_space_group_name_H-M   'P 1'
_cell_length_a   6.87790576
_cell_length_b   6.87790415
_cell_length_c   6.87790491
_cell_angle_alpha   112.89502614
_cell_angle_beta   112.87563951
_cell_angle_gamma   102.83967514
_symmetry_Int_Tables_number   1
_chemical_formula_structural   HoTh2U(NiB4)4
_chemical_formula_sum   'Ho1 Th2 U1 Ni4 B16'
_cell_volume   247.98851776
_cell_formula_units_Z   1
loop_
 _symmetry_equiv_pos_site_id
 _symmetry_equiv_pos_as_xyz
  1  'x, y, z'
loop_
 _atom_site_type_symbol
 _atom_site_label
 _atom_site_symmetry_multiplicity
 _atom_site_fract_x
 _atom_site_fract_y
 _atom_site_fract_z
 _atom_site_occupancy
  Ho  Ho0  1  0.251337  0.751337  0.500000  1
  Th  Th1  1  0.203604  0.203604  0.000000  1
  Th  Th2  1  0.751246  0.251246  0.500000  1
  U  U3  1  0.802611  0.802611  0.000000  1
  Ni  Ni4  1  0.274997  0.502115  0.772882  1
  Ni  Ni5  1  0.729232  0.502115  0.227118  1
  Ni  Ni6  1  0.499776  0.728477  0.228701  1
  Ni  Ni7  1  0.499776  0.271075  0.771299  1
  B  B8  1  0.273178  0.111197  0.383254  1
  B  B9  1  0.727944  0.889924  0.616746  1
  B  B10  1  0.273178  0.889924  0.161981  1
  B  B11  1  0.727944  0.111197  0.838019  1
  B  B12  1  0.109191  0.725673  0.838114  1
  B  B13  1  0.887559  0.271076  0.161886  1
  B  B14  1  0.109191  0.271076  0.383518  1
  B  B15  1  0.887559  0.725673  0.616482  1
  B  B16  1  0.110730  0.106359  0.525438  1
  B  B17  1  0.580922  0.585292  0.474562  1
  B  B18  1  0.110730  0.585292  0.004370  1
  B  B19  1  0.580922  0.106359  0.995630  1
  B  B20  1  0.883888  0.880028  0.459728  1
  B  B21  1  0.420301  0.424160  0.540272  1
  B  B22  1  0.883888  0.424160  0.003859  1
  B  B23  1  0.420301  0.880028  0.996141  1
