# generated using pymatgen
data_Pr2DyCu7(Ni3B)2
_symmetry_space_group_name_H-M   'P 1'
_cell_length_a   5.10085629
_cell_length_b   5.10359170
_cell_length_c   11.04679901
_cell_angle_alpha   89.99142946
_cell_angle_beta   90.01712781
_cell_angle_gamma   119.98225865
_symmetry_Int_Tables_number   1
_chemical_formula_structural   Pr2DyCu7(Ni3B)2
_chemical_formula_sum   'Pr2 Dy1 Cu7 Ni6 B2'
_cell_volume   249.09424142
_cell_formula_units_Z   1
loop_
 _symmetry_equiv_pos_site_id
 _symmetry_equiv_pos_as_xyz
  1  'x, y, z'
loop_
 _atom_site_type_symbol
 _atom_site_label
 _atom_site_symmetry_multiplicity
 _atom_site_fract_x
 _atom_site_fract_y
 _atom_site_fract_z
 _atom_site_occupancy
  Pr  Pr0  1  0.000089  0.000000  0.314753  1
  Pr  Pr1  1  0.999727  0.000000  0.685282  1
  Dy  Dy2  1  0.000093  0.000000  0.000058  1
  Cu  Cu3  1  0.499912  0.000000  0.499946  1
  Cu  Cu4  1  0.499896  0.499986  0.499955  1
  Cu  Cu5  1  0.999910  0.500014  0.499955  1
  Cu  Cu6  1  0.333402  0.666590  0.312887  1
  Cu  Cu7  1  0.666811  0.333410  0.312887  1
  Cu  Cu8  1  0.666477  0.333439  0.687044  1
  Cu  Cu9  1  0.333037  0.666561  0.687044  1
  Ni  Ni10  1  0.500217  0.000000  0.125657  1
  Ni  Ni11  1  0.500199  0.500017  0.125572  1
  Ni  Ni12  1  0.000182  0.499983  0.125572  1
  Ni  Ni13  1  0.499919  0.000000  0.874512  1
  Ni  Ni14  1  0.499931  0.499993  0.874410  1
  Ni  Ni15  1  0.999938  0.500007  0.874410  1
  B  B16  1  0.333435  0.666711  0.000026  1
  B  B17  1  0.666723  0.333289  0.000026  1
