# generated using pymatgen
data_Dy4Co5P12Ir4Rh11
_symmetry_space_group_name_H-M   'P 1'
_cell_length_a   3.86395700
_cell_length_b   10.73408116
_cell_length_c   12.38206171
_cell_angle_alpha   90.02780027
_cell_angle_beta   90.00000000
_cell_angle_gamma   90.00000000
_symmetry_Int_Tables_number   1
_chemical_formula_structural   Dy4Co5P12Ir4Rh11
_chemical_formula_sum   'Dy4 Co5 P12 Ir4 Rh11'
_cell_volume   513.55867805
_cell_formula_units_Z   1
loop_
 _symmetry_equiv_pos_site_id
 _symmetry_equiv_pos_as_xyz
  1  'x, y, z'
loop_
 _atom_site_type_symbol
 _atom_site_label
 _atom_site_symmetry_multiplicity
 _atom_site_fract_x
 _atom_site_fract_y
 _atom_site_fract_z
 _atom_site_occupancy
  Dy  Dy0  1  0.250000  0.581875  0.709841  1
  Dy  Dy1  1  0.250000  0.916025  0.208445  1
  Dy  Dy2  1  0.750000  0.416731  0.291048  1
  Dy  Dy3  1  0.750000  0.086595  0.792132  1
  Co  Co4  1  0.750000  0.383606  0.802990  1
  Co  Co5  1  0.250000  0.462633  0.930669  1
  Co  Co6  1  0.250000  0.038232  0.435082  1
  Co  Co7  1  0.750000  0.538056  0.063164  1
  Co  Co8  1  0.750000  0.962798  0.566566  1
  P  P9  1  0.250000  0.425196  0.103710  1
  P  P10  1  0.250000  0.077765  0.607427  1
  P  P11  1  0.750000  0.566688  0.887905  1
  P  P12  1  0.750000  0.924649  0.394369  1
  P  P13  1  0.250000  0.273912  0.871233  1
  P  P14  1  0.250000  0.229556  0.371054  1
  P  P15  1  0.750000  0.728923  0.126842  1
  P  P16  1  0.750000  0.770254  0.628498  1
  P  P17  1  0.250000  0.597421  0.387939  1
  P  P18  1  0.250000  0.900983  0.887337  1
  P  P19  1  0.750000  0.401403  0.621233  1
  P  P20  1  0.750000  0.100445  0.111983  1
  Ir  Ir21  1  0.250000  0.277104  0.682352  1
  Ir  Ir22  1  0.250000  0.886163  0.698766  1
  Ir  Ir23  1  0.250000  0.614501  0.197640  1
  Ir  Ir24  1  0.750000  0.116402  0.303039  1
  Rh  Rh25  1  0.250000  0.715929  0.985181  1
  Rh  Rh26  1  0.250000  0.783908  0.484608  1
  Rh  Rh27  1  0.750000  0.284261  0.009328  1
  Rh  Rh28  1  0.750000  0.216297  0.519893  1
  Rh  Rh29  1  0.250000  0.406282  0.479053  1
  Rh  Rh30  1  0.250000  0.092281  0.978455  1
  Rh  Rh31  1  0.750000  0.589608  0.522397  1
  Rh  Rh32  1  0.750000  0.908441  0.019898  1
  Rh  Rh33  1  0.250000  0.228669  0.176270  1
  Rh  Rh34  1  0.750000  0.768401  0.821808  1
  Rh  Rh35  1  0.750000  0.728006  0.321844  1
