# generated using pymatgen
data_Sc4Sn2CN
_symmetry_space_group_name_H-M   'P 1'
_cell_length_a   3.33948900
_cell_length_b   3.33948985
_cell_length_c   14.77891800
_cell_angle_alpha   90.00000000
_cell_angle_beta   90.00000000
_cell_angle_gamma   120.00000151
_symmetry_Int_Tables_number   1
_chemical_formula_structural   Sc4Sn2CN
_chemical_formula_sum   'Sc4 Sn2 C1 N1'
_cell_volume   142.73596298
_cell_formula_units_Z   1
loop_
 _symmetry_equiv_pos_site_id
 _symmetry_equiv_pos_as_xyz
  1  'x, y, z'
loop_
 _atom_site_type_symbol
 _atom_site_label
 _atom_site_symmetry_multiplicity
 _atom_site_fract_x
 _atom_site_fract_y
 _atom_site_fract_z
 _atom_site_occupancy
  Sc  Sc0  1  0.333334  0.666667  0.081901  1
  Sc  Sc1  1  0.333334  0.666667  0.419987  1
  Sc  Sc2  1  0.666667  0.333334  0.580013  1
  Sc  Sc3  1  0.666667  0.333334  0.918099  1
  Sn  Sn4  1  0.666667  0.333334  0.253017  1
  Sn  Sn5  1  0.333334  0.666667  0.746983  1
  C  C6  1  0.000000  0.000000  0.000000  1
  N  N7  1  0.000000  0.000000  0.500000  1
