# generated using pymatgen
data_BaNaH9W
_symmetry_space_group_name_H-M   'P 1'
_cell_length_a   9.17084700
_cell_length_b   9.17084597
_cell_length_c   5.35128300
_cell_angle_alpha   90.00000000
_cell_angle_beta   90.00000000
_cell_angle_gamma   120.00000732
_symmetry_Int_Tables_number   1
_chemical_formula_structural   BaNaH9W
_chemical_formula_sum   'Ba3 Na3 H27 W3'
_cell_volume   389.76906393
_cell_formula_units_Z   3
loop_
 _symmetry_equiv_pos_site_id
 _symmetry_equiv_pos_as_xyz
  1  'x, y, z'
loop_
 _atom_site_type_symbol
 _atom_site_label
 _atom_site_symmetry_multiplicity
 _atom_site_fract_x
 _atom_site_fract_y
 _atom_site_fract_z
 _atom_site_occupancy
  Ba  Ba0  1  0.000000  0.596582  0.000000  1
  Ba  Ba1  1  0.403418  0.403418  0.000000  1
  Ba  Ba2  1  0.596582  0.000000  0.000000  1
  Na  Na3  1  0.000000  0.252070  0.500000  1
  Na  Na4  1  0.747930  0.747930  0.500000  1
  Na  Na5  1  0.252070  0.000000  0.500000  1
  H  H6  1  0.789006  0.306782  0.737552  1
  H  H7  1  0.693218  0.482223  0.737552  1
  H  H8  1  0.517777  0.210994  0.737552  1
  H  H9  1  0.210994  0.517777  0.262448  1
  H  H10  1  0.517777  0.210994  0.262448  1
  H  H11  1  0.789006  0.306782  0.262448  1
  H  H12  1  0.693218  0.482223  0.262448  1
  H  H13  1  0.306782  0.789006  0.737552  1
  H  H14  1  0.482223  0.693218  0.737552  1
  H  H15  1  0.192304  0.000000  0.000000  1
  H  H16  1  0.807696  0.807696  0.000000  1
  H  H17  1  0.000000  0.192304  0.000000  1
  H  H18  1  0.863515  0.000000  0.237579  1
  H  H19  1  0.136485  0.136485  0.762421  1
  H  H20  1  0.000000  0.863515  0.762421  1
  H  H21  1  0.000000  0.863515  0.237579  1
  H  H22  1  0.136485  0.136485  0.237579  1
  H  H23  1  0.863515  0.000000  0.762421  1
  H  H24  1  0.128526  0.631435  0.500000  1
  H  H25  1  0.502909  0.871474  0.500000  1
  H  H26  1  0.368565  0.497091  0.500000  1
  H  H27  1  0.497091  0.368565  0.500000  1
  H  H28  1  0.871474  0.502909  0.500000  1
  H  H29  1  0.631435  0.128526  0.500000  1
  H  H30  1  0.210994  0.517777  0.737552  1
  H  H31  1  0.306782  0.789006  0.262448  1
  H  H32  1  0.482223  0.693218  0.262448  1
  W  W33  1  0.666667  0.333333  0.500000  1
  W  W34  1  0.333333  0.666667  0.500000  1
  W  W35  1  0.000000  0.000000  0.000000  1
