# generated using pymatgen
data_La2YIn3Rh2Au
_symmetry_space_group_name_H-M   'P 1'
_cell_length_a   7.93087514
_cell_length_b   7.92663028
_cell_length_c   3.94580900
_cell_angle_alpha   90.00000000
_cell_angle_beta   90.00000000
_cell_angle_gamma   120.35497997
_symmetry_Int_Tables_number   1
_chemical_formula_structural   La2YIn3Rh2Au
_chemical_formula_sum   'La2 Y1 In3 Rh2 Au1'
_cell_volume   214.04830242
_cell_formula_units_Z   1
loop_
 _symmetry_equiv_pos_site_id
 _symmetry_equiv_pos_as_xyz
  1  'x, y, z'
loop_
 _atom_site_type_symbol
 _atom_site_label
 _atom_site_symmetry_multiplicity
 _atom_site_fract_x
 _atom_site_fract_y
 _atom_site_fract_z
 _atom_site_occupancy
  La  La0  1  0.979153  0.579961  0.500000  1
  La  La1  1  0.414493  0.397176  0.500000  1
  Y  Y2  1  0.603115  0.016897  0.500000  1
  In  In3  1  0.991239  0.244409  0.000000  1
  In  In4  1  0.256340  0.999186  0.000000  1
  In  In5  1  0.750225  0.754615  0.000000  1
  Rh  Rh6  1  0.000480  0.002502  0.500000  1
  Rh  Rh7  1  0.665394  0.329991  0.000000  1
  Au  Au8  1  0.339561  0.675264  0.000000  1
