# generated using pymatgen
data_Yb2GeAsPd4
_symmetry_space_group_name_H-M   'P 1'
_cell_length_a   5.57600400
_cell_length_b   7.04310100
_cell_length_c   7.38404000
_cell_angle_alpha   90.00000000
_cell_angle_beta   90.00000000
_cell_angle_gamma   90.00000000
_symmetry_Int_Tables_number   1
_chemical_formula_structural   Yb2GeAsPd4
_chemical_formula_sum   'Yb4 Ge2 As2 Pd8'
_cell_volume   289.98867232
_cell_formula_units_Z   2
loop_
 _symmetry_equiv_pos_site_id
 _symmetry_equiv_pos_as_xyz
  1  'x, y, z'
loop_
 _atom_site_type_symbol
 _atom_site_label
 _atom_site_symmetry_multiplicity
 _atom_site_fract_x
 _atom_site_fract_y
 _atom_site_fract_z
 _atom_site_occupancy
  Yb  Yb0  1  0.366021  0.750000  0.019966  1
  Yb  Yb1  1  0.133979  0.750000  0.519966  1
  Yb  Yb2  1  0.635276  0.250000  0.978275  1
  Yb  Yb3  1  0.864724  0.250000  0.478275  1
  Ge  Ge4  1  0.368371  0.250000  0.624178  1
  Ge  Ge5  1  0.131629  0.250000  0.124178  1
  As  As6  1  0.632172  0.750000  0.375248  1
  As  As7  1  0.867828  0.750000  0.875248  1
  Pd  Pd8  1  0.902578  0.550522  0.176245  1
  Pd  Pd9  1  0.597422  0.949478  0.676245  1
  Pd  Pd10  1  0.099515  0.052531  0.824922  1
  Pd  Pd11  1  0.400485  0.447469  0.324922  1
  Pd  Pd12  1  0.099515  0.447469  0.824922  1
  Pd  Pd13  1  0.400485  0.052531  0.324922  1
  Pd  Pd14  1  0.902578  0.949478  0.176245  1
  Pd  Pd15  1  0.597422  0.550522  0.676245  1
