# generated using pymatgen
data_LiLa8HgIr2
_symmetry_space_group_name_H-M   'P 1'
_cell_length_a   10.13413861
_cell_length_b   10.13413894
_cell_length_c   10.11775400
_cell_angle_alpha   60.05346912
_cell_angle_beta   60.05346805
_cell_angle_gamma   59.99741467
_symmetry_Int_Tables_number   1
_chemical_formula_structural   LiLa8HgIr2
_chemical_formula_sum   'Li2 La16 Hg2 Ir4'
_cell_volume   735.33430458
_cell_formula_units_Z   2
loop_
 _symmetry_equiv_pos_site_id
 _symmetry_equiv_pos_as_xyz
  1  'x, y, z'
loop_
 _atom_site_type_symbol
 _atom_site_label
 _atom_site_symmetry_multiplicity
 _atom_site_fract_x
 _atom_site_fract_y
 _atom_site_fract_z
 _atom_site_occupancy
  Li  Li0  1  0.566873  0.566873  0.575655  1
  Li  Li1  1  0.566873  0.566873  0.290597  1
  La  La2  1  0.347513  0.347513  0.347405  1
  La  La3  1  0.347513  0.347513  0.957569  1
  La  La4  1  0.347210  0.961829  0.345480  1
  La  La5  1  0.961829  0.347210  0.345480  1
  La  La6  1  0.811562  0.190094  0.189770  1
  La  La7  1  0.190094  0.811562  0.808574  1
  La  La8  1  0.190094  0.811562  0.189770  1
  La  La9  1  0.811562  0.190094  0.808574  1
  La  La10  1  0.195140  0.195140  0.804860  1
  La  La11  1  0.816462  0.816462  0.183538  1
  La  La12  1  0.939690  0.560250  0.560861  1
  La  La13  1  0.560250  0.939690  0.939199  1
  La  La14  1  0.560250  0.939690  0.560861  1
  La  La15  1  0.939690  0.560250  0.939199  1
  La  La16  1  0.562544  0.562544  0.937456  1
  La  La17  1  0.941055  0.941055  0.558945  1
  Hg  Hg18  1  0.589722  0.248711  0.580783  1
  Hg  Hg19  1  0.248711  0.589722  0.580783  1
  Ir  Ir20  1  0.142161  0.142161  0.140063  1
  Ir  Ir21  1  0.142161  0.142161  0.575613  1
  Ir  Ir22  1  0.142807  0.578231  0.139481  1
  Ir  Ir23  1  0.578231  0.142807  0.139481  1
