# generated using pymatgen
data_Ba4Nd7SnSe16
_symmetry_space_group_name_H-M   'P 1'
_cell_length_a   4.33835900
_cell_length_b   13.03648281
_cell_length_c   15.52921268
_cell_angle_alpha   89.88843255
_cell_angle_beta   90.00000000
_cell_angle_gamma   90.00000000
_symmetry_Int_Tables_number   1
_chemical_formula_structural   Ba4Nd7SnSe16
_chemical_formula_sum   'Ba4 Nd7 Sn1 Se16'
_cell_volume   878.28312421
_cell_formula_units_Z   1
loop_
 _symmetry_equiv_pos_site_id
 _symmetry_equiv_pos_as_xyz
  1  'x, y, z'
loop_
 _atom_site_type_symbol
 _atom_site_label
 _atom_site_symmetry_multiplicity
 _atom_site_fract_x
 _atom_site_fract_y
 _atom_site_fract_z
 _atom_site_occupancy
  Ba  Ba0  1  0.250000  0.756515  0.338213  1
  Ba  Ba1  1  0.250000  0.257730  0.164978  1
  Ba  Ba2  1  0.750000  0.241104  0.660267  1
  Ba  Ba3  1  0.750000  0.742497  0.836555  1
  Nd  Nd4  1  0.250000  0.428156  0.392676  1
  Nd  Nd5  1  0.250000  0.932586  0.110637  1
  Nd  Nd6  1  0.750000  0.568945  0.608120  1
  Nd  Nd7  1  0.750000  0.069313  0.891755  1
  Nd  Nd8  1  0.250000  0.419897  0.899360  1
  Nd  Nd9  1  0.250000  0.922379  0.598743  1
  Nd  Nd10  1  0.750000  0.579224  0.101124  1
  Sn  Sn11  1  0.750000  0.077687  0.398544  1
  Se  Se12  1  0.250000  0.206913  0.826472  1
  Se  Se13  1  0.250000  0.708483  0.670865  1
  Se  Se14  1  0.750000  0.793676  0.173410  1
  Se  Se15  1  0.750000  0.288831  0.331478  1
  Se  Se16  1  0.250000  0.128847  0.518686  1
  Se  Se17  1  0.250000  0.629803  0.974155  1
  Se  Se18  1  0.750000  0.874560  0.469637  1
  Se  Se19  1  0.750000  0.369714  0.026421  1
  Se  Se20  1  0.250000  0.521599  0.217477  1
  Se  Se21  1  0.250000  0.026872  0.287380  1
  Se  Se22  1  0.750000  0.476293  0.783061  1
  Se  Se23  1  0.750000  0.977613  0.716049  1
  Se  Se24  1  0.250000  0.415541  0.580418  1
  Se  Se25  1  0.250000  0.915904  0.922164  1
  Se  Se26  1  0.750000  0.584042  0.420309  1
  Se  Se27  1  0.750000  0.085280  0.081047  1
