# generated using pymatgen
data_Dy4Zn5Ni9
_symmetry_space_group_name_H-M   'P 1'
_cell_length_a   5.17007540
_cell_length_b   5.17007594
_cell_length_c   12.20453200
_cell_angle_alpha   77.77156492
_cell_angle_beta   77.77156362
_cell_angle_gamma   60.00000895
_symmetry_Int_Tables_number   1
_chemical_formula_structural   Dy4Zn5Ni9
_chemical_formula_sum   'Dy4 Zn5 Ni9'
_cell_volume   273.93756521
_cell_formula_units_Z   1
loop_
 _symmetry_equiv_pos_site_id
 _symmetry_equiv_pos_as_xyz
  1  'x, y, z'
loop_
 _atom_site_type_symbol
 _atom_site_label
 _atom_site_symmetry_multiplicity
 _atom_site_fract_x
 _atom_site_fract_y
 _atom_site_fract_z
 _atom_site_occupancy
  Dy  Dy0  1  0.952341  0.952341  0.142975  1
  Dy  Dy1  1  0.047659  0.047659  0.857025  1
  Dy  Dy2  1  0.855020  0.855020  0.434939  1
  Dy  Dy3  1  0.144980  0.144980  0.565061  1
  Zn  Zn4  1  0.500000  0.500000  0.500000  1
  Zn  Zn5  1  0.722487  0.722487  0.832540  1
  Zn  Zn6  1  0.277513  0.277513  0.167460  1
  Zn  Zn7  1  0.610657  0.610657  0.168028  1
  Zn  Zn8  1  0.389343  0.389343  0.831972  1
  Ni  Ni9  1  0.000000  0.500000  0.000000  1
  Ni  Ni10  1  0.500000  0.000000  0.000000  1
  Ni  Ni11  1  0.500000  0.500000  0.000000  1
  Ni  Ni12  1  0.385785  0.385785  0.334218  1
  Ni  Ni13  1  0.894212  0.385785  0.334218  1
  Ni  Ni14  1  0.385785  0.894212  0.334218  1
  Ni  Ni15  1  0.614215  0.614215  0.665782  1
  Ni  Ni16  1  0.105788  0.614215  0.665782  1
  Ni  Ni17  1  0.614215  0.105788  0.665782  1
