# generated using pymatgen
data_Tb2Dy2GeBr6
_symmetry_space_group_name_H-M   'P 1'
_cell_length_a   4.09978800
_cell_length_b   13.31412400
_cell_length_c   14.13917800
_cell_angle_alpha   90.00000000
_cell_angle_beta   90.00000000
_cell_angle_gamma   90.00000000
_symmetry_Int_Tables_number   1
_chemical_formula_structural   Tb2Dy2GeBr6
_chemical_formula_sum   'Tb4 Dy4 Ge2 Br12'
_cell_volume   771.78824435
_cell_formula_units_Z   2
loop_
 _symmetry_equiv_pos_site_id
 _symmetry_equiv_pos_as_xyz
  1  'x, y, z'
loop_
 _atom_site_type_symbol
 _atom_site_label
 _atom_site_symmetry_multiplicity
 _atom_site_fract_x
 _atom_site_fract_y
 _atom_site_fract_z
 _atom_site_occupancy
  Tb  Tb0  1  0.000000  0.118759  0.578590  1
  Tb  Tb1  1  0.000000  0.881241  0.421410  1
  Tb  Tb2  1  0.000000  0.618759  0.921410  1
  Tb  Tb3  1  0.000000  0.381241  0.078590  1
  Dy  Dy4  1  0.500000  0.118638  0.340829  1
  Dy  Dy5  1  0.500000  0.881362  0.659171  1
  Dy  Dy6  1  0.500000  0.618638  0.159171  1
  Dy  Dy7  1  0.500000  0.381362  0.840829  1
  Ge  Ge8  1  0.500000  0.000000  0.500000  1
  Ge  Ge9  1  0.500000  0.500000  0.000000  1
  Br  Br10  1  0.500000  0.244559  0.163578  1
  Br  Br11  1  0.500000  0.755441  0.836422  1
  Br  Br12  1  0.500000  0.744559  0.336422  1
  Br  Br13  1  0.500000  0.255441  0.663578  1
  Br  Br14  1  0.000000  0.253338  0.410400  1
  Br  Br15  1  0.000000  0.746662  0.589600  1
  Br  Br16  1  0.000000  0.753338  0.089600  1
  Br  Br17  1  0.000000  0.246662  0.910400  1
  Br  Br18  1  0.000000  0.003668  0.245265  1
  Br  Br19  1  0.000000  0.996332  0.754735  1
  Br  Br20  1  0.000000  0.503668  0.254735  1
  Br  Br21  1  0.000000  0.496332  0.745265  1
