# generated using pymatgen
data_Ta10Ga2Si3Ge
_symmetry_space_group_name_H-M   'P 1'
_cell_length_a   7.62977592
_cell_length_b   7.62977509
_cell_length_c   7.62279803
_cell_angle_alpha   128.43805578
_cell_angle_beta   128.43805213
_cell_angle_gamma   75.98361294
_symmetry_Int_Tables_number   1
_chemical_formula_structural   Ta10Ga2Si3Ge
_chemical_formula_sum   'Ta10 Ga2 Si3 Ge1'
_cell_volume   264.61880636
_cell_formula_units_Z   1
loop_
 _symmetry_equiv_pos_site_id
 _symmetry_equiv_pos_as_xyz
  1  'x, y, z'
loop_
 _atom_site_type_symbol
 _atom_site_label
 _atom_site_symmetry_multiplicity
 _atom_site_fract_x
 _atom_site_fract_y
 _atom_site_fract_z
 _atom_site_occupancy
  Ta  Ta0  1  0.008250  0.188854  0.500000  1
  Ta  Ta1  1  0.687595  0.514223  0.500000  1
  Ta  Ta2  1  0.516079  0.012159  0.828854  1
  Ta  Ta3  1  0.187226  0.683306  0.171146  1
  Ta  Ta4  1  0.985777  0.812405  0.500000  1
  Ta  Ta5  1  0.311146  0.491750  0.500000  1
  Ta  Ta6  1  0.487841  0.983921  0.171146  1
  Ta  Ta7  1  0.816694  0.312774  0.828854  1
  Ta  Ta8  1  0.997350  0.999119  0.996469  1
  Ta  Ta9  1  0.500881  0.502650  0.003531  1
  Ga  Ga10  1  0.751166  0.748834  0.000000  1
  Ga  Ga11  1  0.251166  0.248834  0.000000  1
  Si  Si12  1  0.631904  0.868096  0.500000  1
  Si  Si13  1  0.869175  0.369087  0.238261  1
  Si  Si14  1  0.130913  0.630825  0.761739  1
  Ge  Ge15  1  0.366837  0.133163  0.500000  1
