# generated using pymatgen
data_Dy4HoIn2(NiHg)2
_symmetry_space_group_name_H-M   'P 1'
_cell_length_a   7.88548404
_cell_length_b   18.08707810
_cell_length_c   3.58492900
_cell_angle_alpha   90.00000000
_cell_angle_beta   90.00000000
_cell_angle_gamma   89.98780140
_symmetry_Int_Tables_number   1
_chemical_formula_structural   Dy4HoIn2(NiHg)2
_chemical_formula_sum   'Dy8 Ho2 In4 Ni4 Hg4'
_cell_volume   511.30179838
_cell_formula_units_Z   2
loop_
 _symmetry_equiv_pos_site_id
 _symmetry_equiv_pos_as_xyz
  1  'x, y, z'
loop_
 _atom_site_type_symbol
 _atom_site_label
 _atom_site_symmetry_multiplicity
 _atom_site_fract_x
 _atom_site_fract_y
 _atom_site_fract_z
 _atom_site_occupancy
  Dy  Dy0  1  0.500000  0.500000  0.000000  1
  Dy  Dy1  1  0.000000  0.000000  0.000000  1
  Dy  Dy2  1  0.756974  0.282030  0.000000  1
  Dy  Dy3  1  0.243026  0.717970  0.000000  1
  Dy  Dy4  1  0.743354  0.781582  0.000000  1
  Dy  Dy5  1  0.256646  0.218418  0.000000  1
  Dy  Dy6  1  0.613092  0.088059  0.000000  1
  Dy  Dy7  1  0.386908  0.911941  0.000000  1
  Ho  Ho8  1  0.887249  0.588029  0.000000  1
  Ho  Ho9  1  0.112751  0.411971  0.000000  1
  In  In10  1  0.570316  0.651909  0.500000  1
  In  In11  1  0.429684  0.348091  0.500000  1
  In  In12  1  0.930459  0.152237  0.500000  1
  In  In13  1  0.069541  0.847763  0.500000  1
  Ni  Ni14  1  0.540805  0.198258  0.500000  1
  Ni  Ni15  1  0.459195  0.801742  0.500000  1
  Ni  Ni16  1  0.959097  0.697821  0.500000  1
  Ni  Ni17  1  0.040903  0.302179  0.500000  1
  Hg  Hg18  1  0.708198  0.931601  0.500000  1
  Hg  Hg19  1  0.291802  0.068399  0.500000  1
  Hg  Hg20  1  0.792919  0.432091  0.500000  1
  Hg  Hg21  1  0.207081  0.567909  0.500000  1
