# generated using pymatgen
data_Nd20Ru5Au7
_symmetry_space_group_name_H-M   'P 1'
_cell_length_a   11.57855863
_cell_length_b   11.57855848
_cell_length_c   6.62210438
_cell_angle_alpha   89.87882059
_cell_angle_beta   89.87881860
_cell_angle_gamma   90.35839693
_symmetry_Int_Tables_number   1
_chemical_formula_structural   Nd20Ru5Au7
_chemical_formula_sum   'Nd20 Ru5 Au7'
_cell_volume   887.75793595
_cell_formula_units_Z   1
loop_
 _symmetry_equiv_pos_site_id
 _symmetry_equiv_pos_as_xyz
  1  'x, y, z'
loop_
 _atom_site_type_symbol
 _atom_site_label
 _atom_site_symmetry_multiplicity
 _atom_site_fract_x
 _atom_site_fract_y
 _atom_site_fract_z
 _atom_site_occupancy
  Nd  Nd0  1  0.085229  0.304470  0.135402  1
  Nd  Nd1  1  0.802601  0.417619  0.140519  1
  Nd  Nd2  1  0.199436  0.595655  0.137018  1
  Nd  Nd3  1  0.922768  0.706409  0.140565  1
  Nd  Nd4  1  0.404345  0.800564  0.362982  1
  Nd  Nd5  1  0.582381  0.197399  0.359481  1
  Nd  Nd6  1  0.293591  0.077232  0.359435  1
  Nd  Nd7  1  0.695530  0.914771  0.364598  1
  Nd  Nd8  1  0.415763  0.196179  0.857522  1
  Nd  Nd9  1  0.702328  0.083852  0.863774  1
  Nd  Nd10  1  0.292729  0.910615  0.875269  1
  Nd  Nd11  1  0.580631  0.802227  0.861982  1
  Nd  Nd12  1  0.089385  0.707271  0.624731  1
  Nd  Nd13  1  0.916148  0.297672  0.636226  1
  Nd  Nd14  1  0.197773  0.419369  0.638018  1
  Nd  Nd15  1  0.803821  0.584237  0.642478  1
  Nd  Nd16  1  0.008407  0.997129  0.001544  1
  Nd  Nd17  1  0.499817  0.498075  0.000078  1
  Nd  Nd18  1  0.501925  0.500183  0.499922  1
  Nd  Nd19  1  0.002871  0.991593  0.498456  1
  Ru  Ru20  1  0.149235  0.850765  0.250000  1
  Ru  Ru21  1  0.000429  0.498720  0.391001  1
  Ru  Ru22  1  0.501280  0.999571  0.108999  1
  Ru  Ru23  1  0.500541  0.999924  0.612363  1
  Ru  Ru24  1  0.000076  0.499459  0.887637  1
  Au  Au25  1  0.345480  0.342993  0.251936  1
  Au  Au26  1  0.657007  0.654520  0.248064  1
  Au  Au27  1  0.847133  0.152867  0.250000  1
  Au  Au28  1  0.345830  0.654170  0.750000  1
  Au  Au29  1  0.156511  0.156956  0.746716  1
  Au  Au30  1  0.843044  0.843489  0.753284  1
  Au  Au31  1  0.655958  0.344042  0.750000  1
