# generated using pymatgen
data_Hf2ScSiTc3As2
_symmetry_space_group_name_H-M   'P 1'
_cell_length_a   7.77735452
_cell_length_b   7.77735471
_cell_length_c   7.77735571
_cell_angle_alpha   126.72509787
_cell_angle_beta   127.05870933
_cell_angle_gamma   78.42740745
_symmetry_Int_Tables_number   1
_chemical_formula_structural   Hf2ScSiTc3As2
_chemical_formula_sum   'Hf4 Sc2 Si2 Tc6 As4'
_cell_volume   291.36227553
_cell_formula_units_Z   2
loop_
 _symmetry_equiv_pos_site_id
 _symmetry_equiv_pos_as_xyz
  1  'x, y, z'
loop_
 _atom_site_type_symbol
 _atom_site_label
 _atom_site_symmetry_multiplicity
 _atom_site_fract_x
 _atom_site_fract_y
 _atom_site_fract_z
 _atom_site_occupancy
  Hf  Hf0  1  0.751235  0.855957  0.604721  1
  Hf  Hf1  1  0.248765  0.853488  0.104721  1
  Hf  Hf2  1  0.051322  0.254171  0.702849  1
  Hf  Hf3  1  0.948678  0.651526  0.202849  1
  Sc  Sc4  1  0.449942  0.654075  0.704133  1
  Sc  Sc5  1  0.550058  0.254191  0.204133  1
  Si  Si6  1  0.252506  0.256717  0.504212  1
  Si  Si7  1  0.747494  0.251706  0.004212  1
  Tc  Tc8  1  0.500000  0.503905  0.003905  1
  Tc  Tc9  1  0.000000  0.503905  0.503905  1
  Tc  Tc10  1  0.119213  0.251425  0.121993  1
  Tc  Tc11  1  0.880787  0.002780  0.132213  1
  Tc  Tc12  1  0.370567  0.002780  0.621993  1
  Tc  Tc13  1  0.629433  0.251425  0.632213  1
  As  As14  1  0.334572  0.585234  0.255114  1
  As  As15  1  0.665428  0.920542  0.250661  1
  As  As16  1  0.169881  0.920542  0.755114  1
  As  As17  1  0.830119  0.585234  0.750661  1
