# generated using pymatgen
data_CsSrBO3
_symmetry_space_group_name_H-M   'P 1'
_cell_length_a   7.98889500
_cell_length_b   7.98889500
_cell_length_c   7.98889500
_cell_angle_alpha   90.00000000
_cell_angle_beta   90.00000000
_cell_angle_gamma   90.00000000
_symmetry_Int_Tables_number   1
_chemical_formula_structural   CsSrBO3
_chemical_formula_sum   'Cs4 Sr4 B4 O12'
_cell_volume   509.87079834
_cell_formula_units_Z   4
loop_
 _symmetry_equiv_pos_site_id
 _symmetry_equiv_pos_as_xyz
  1  'x, y, z'
loop_
 _atom_site_type_symbol
 _atom_site_label
 _atom_site_symmetry_multiplicity
 _atom_site_fract_x
 _atom_site_fract_y
 _atom_site_fract_z
 _atom_site_occupancy
  Cs  Cs0  1  0.644190  0.144190  0.355810  1
  Cs  Cs1  1  0.144190  0.355810  0.644190  1
  Cs  Cs2  1  0.355810  0.644190  0.144190  1
  Cs  Cs3  1  0.855810  0.855810  0.855810  1
  Sr  Sr4  1  0.648287  0.351713  0.851713  1
  Sr  Sr5  1  0.148287  0.148287  0.148287  1
  Sr  Sr6  1  0.851713  0.648287  0.351713  1
  Sr  Sr7  1  0.351713  0.851713  0.648287  1
  B  B8  1  0.578458  0.578458  0.578458  1
  B  B9  1  0.421542  0.078458  0.921542  1
  B  B10  1  0.078458  0.921542  0.421542  1
  B  B11  1  0.921542  0.421542  0.078458  1
  O  O12  1  0.536350  0.065370  0.789276  1
  O  O13  1  0.210724  0.036350  0.434630  1
  O  O14  1  0.565370  0.710724  0.463650  1
  O  O15  1  0.036350  0.434630  0.210724  1
  O  O16  1  0.710724  0.463650  0.565370  1
  O  O17  1  0.065370  0.789276  0.536350  1
  O  O18  1  0.463650  0.565370  0.710724  1
  O  O19  1  0.789276  0.536350  0.065370  1
  O  O20  1  0.434630  0.210724  0.036350  1
  O  O21  1  0.963650  0.934630  0.289276  1
  O  O22  1  0.289276  0.963650  0.934630  1
  O  O23  1  0.934630  0.289276  0.963650  1
