# generated using pymatgen
data_Rb2Na2OsO4
_symmetry_space_group_name_H-M   'P 1'
_cell_length_a   11.25016700
_cell_length_b   6.32635596
_cell_length_c   9.86998370
_cell_angle_alpha   64.51265311
_cell_angle_beta   90.00000000
_cell_angle_gamma   90.00000000
_symmetry_Int_Tables_number   1
_chemical_formula_structural   Rb2Na2OsO4
_chemical_formula_sum   'Rb8 Na8 Os4 O16'
_cell_volume   634.10767668
_cell_formula_units_Z   4
loop_
 _symmetry_equiv_pos_site_id
 _symmetry_equiv_pos_as_xyz
  1  'x, y, z'
loop_
 _atom_site_type_symbol
 _atom_site_label
 _atom_site_symmetry_multiplicity
 _atom_site_fract_x
 _atom_site_fract_y
 _atom_site_fract_z
 _atom_site_occupancy
  Rb  Rb0  1  0.868945  0.337978  0.782256  1
  Rb  Rb1  1  0.133702  0.325426  0.001206  1
  Rb  Rb2  1  0.633702  0.674574  0.498794  1
  Rb  Rb3  1  0.366298  0.325426  0.501206  1
  Rb  Rb4  1  0.368945  0.662022  0.717744  1
  Rb  Rb5  1  0.131055  0.662022  0.217744  1
  Rb  Rb6  1  0.631055  0.337978  0.282256  1
  Rb  Rb7  1  0.866298  0.674574  0.998794  1
  Na  Na8  1  0.613666  0.936049  0.095435  1
  Na  Na9  1  0.609133  0.437193  0.911917  1
  Na  Na10  1  0.890867  0.437193  0.411917  1
  Na  Na11  1  0.886334  0.936049  0.595435  1
  Na  Na12  1  0.109133  0.562807  0.588083  1
  Na  Na13  1  0.113666  0.063951  0.404565  1
  Na  Na14  1  0.390867  0.562807  0.088083  1
  Na  Na15  1  0.386334  0.063951  0.904565  1
  Os  Os16  1  0.867066  0.011733  0.239185  1
  Os  Os17  1  0.632934  0.011733  0.739185  1
  Os  Os18  1  0.367066  0.988267  0.260815  1
  Os  Os19  1  0.132934  0.988267  0.760815  1
  O  O20  1  0.956905  0.795965  0.410532  1
  O  O21  1  0.453774  0.732602  0.255557  1
  O  O22  1  0.279781  0.251254  0.257564  1
  O  O23  1  0.729351  0.214796  0.576137  1
  O  O24  1  0.270649  0.785204  0.423863  1
  O  O25  1  0.543095  0.795965  0.910532  1
  O  O26  1  0.779781  0.748746  0.242436  1
  O  O27  1  0.770649  0.214796  0.076137  1
  O  O28  1  0.953774  0.267398  0.244443  1
  O  O29  1  0.229351  0.785204  0.923863  1
  O  O30  1  0.043095  0.204035  0.589468  1
  O  O31  1  0.220219  0.251254  0.757564  1
  O  O32  1  0.546226  0.267398  0.744443  1
  O  O33  1  0.046226  0.732602  0.755557  1
  O  O34  1  0.720219  0.748746  0.742436  1
  O  O35  1  0.456905  0.204035  0.089468  1
