# generated using pymatgen
data_ScTi2SiTc3As2
_symmetry_space_group_name_H-M   'P 1'
_cell_length_a   3.37011500
_cell_length_b   6.87643201
_cell_length_c   6.87643217
_cell_angle_alpha   59.49425493
_cell_angle_beta   90.00000000
_cell_angle_gamma   90.00000000
_symmetry_Int_Tables_number   1
_chemical_formula_structural   ScTi2SiTc3As2
_chemical_formula_sum   'Sc1 Ti2 Si1 Tc3 As2'
_cell_volume   137.29849353
_cell_formula_units_Z   1
loop_
 _symmetry_equiv_pos_site_id
 _symmetry_equiv_pos_as_xyz
  1  'x, y, z'
loop_
 _atom_site_type_symbol
 _atom_site_label
 _atom_site_symmetry_multiplicity
 _atom_site_fract_x
 _atom_site_fract_y
 _atom_site_fract_z
 _atom_site_occupancy
  Sc  Sc0  1  0.500000  0.599747  0.400253  1
  Ti  Ti1  1  0.500000  0.396406  0.002294  1
  Ti  Ti2  1  0.500000  0.997706  0.603594  1
  Si  Si3  1  0.500000  0.002157  0.997843  1
  Tc  Tc4  1  0.000000  0.252637  0.747363  1
  Tc  Tc5  1  0.000000  0.749122  0.994661  1
  Tc  Tc6  1  0.000000  0.005339  0.250878  1
  As  As7  1  0.000000  0.328973  0.332186  1
  As  As8  1  0.000000  0.667814  0.671027  1
