# generated using pymatgen
data_Tb11SmCo4SnRh
_symmetry_space_group_name_H-M   'P 1'
_cell_length_a   8.35598036
_cell_length_b   8.34294000
_cell_length_c   8.34294072
_cell_angle_alpha   110.98629397
_cell_angle_beta   110.35651447
_cell_angle_gamma   107.03723648
_symmetry_Int_Tables_number   1
_chemical_formula_structural   Tb11SmCo4SnRh
_chemical_formula_sum   'Tb11 Sm1 Co4 Sn1 Rh1'
_cell_volume   447.45663492
_cell_formula_units_Z   1
loop_
 _symmetry_equiv_pos_site_id
 _symmetry_equiv_pos_as_xyz
  1  'x, y, z'
loop_
 _atom_site_type_symbol
 _atom_site_label
 _atom_site_symmetry_multiplicity
 _atom_site_fract_x
 _atom_site_fract_y
 _atom_site_fract_z
 _atom_site_occupancy
  Tb  Tb0  1  0.592815  0.788679  0.804135  1
  Tb  Tb1  1  0.014555  0.210697  0.803858  1
  Tb  Tb2  1  0.985179  0.790567  0.194612  1
  Tb  Tb3  1  0.185847  0.294194  0.480786  1
  Tb  Tb4  1  0.814544  0.707620  0.521574  1
  Tb  Tb5  1  0.185847  0.705061  0.891652  1
  Tb  Tb6  1  0.814544  0.292970  0.106925  1
  Tb  Tb7  1  0.313741  0.621033  0.305361  1
  Tb  Tb8  1  0.686564  0.380210  0.694891  1
  Tb  Tb9  1  0.313741  0.008380  0.692707  1
  Tb  Tb10  1  0.686564  0.991673  0.306355  1
  Sm  Sm11  1  0.402672  0.208597  0.194076  1
  Co  Co12  1  0.380403  0.999144  0.381259  1
  Co  Co13  1  0.623161  0.000579  0.622582  1
  Co  Co14  1  0.111972  0.612289  0.499684  1
  Co  Co15  1  0.891609  0.388638  0.502971  1
  Sn  Sn16  1  0.502761  0.502070  0.000692  1
  Rh  Rh17  1  0.993481  0.997600  0.995881  1
