# generated using pymatgen
data_Dy3TmNbOs7
_symmetry_space_group_name_H-M   'P 1'
_cell_length_a   5.44599800
_cell_length_b   5.44593826
_cell_length_c   8.65286000
_cell_angle_alpha   90.00069951
_cell_angle_beta   89.99997029
_cell_angle_gamma   120.00213306
_symmetry_Int_Tables_number   1
_chemical_formula_structural   Dy3TmNbOs7
_chemical_formula_sum   'Dy3 Tm1 Nb1 Os7'
_cell_volume   222.24457284
_cell_formula_units_Z   1
loop_
 _symmetry_equiv_pos_site_id
 _symmetry_equiv_pos_as_xyz
  1  'x, y, z'
loop_
 _atom_site_type_symbol
 _atom_site_label
 _atom_site_symmetry_multiplicity
 _atom_site_fract_x
 _atom_site_fract_y
 _atom_site_fract_z
 _atom_site_occupancy
  Dy  Dy0  1  0.666670  0.333335  0.573208  1
  Dy  Dy1  1  0.333328  0.666669  0.427345  1
  Dy  Dy2  1  0.333329  0.666664  0.060976  1
  Tm  Tm3  1  0.666657  0.333331  0.938756  1
  Nb  Nb4  1  0.000008  0.000003  0.500031  1
  Os  Os5  1  0.000001  0.999999  0.999675  1
  Os  Os6  1  0.173537  0.347063  0.752662  1
  Os  Os7  1  0.173533  0.826480  0.752663  1
  Os  Os8  1  0.652925  0.826463  0.752662  1
  Os  Os9  1  0.826214  0.652422  0.247340  1
  Os  Os10  1  0.826227  0.173786  0.247340  1
  Os  Os11  1  0.347569  0.173784  0.247343  1
