# generated using pymatgen
data_La5Tc2
_symmetry_space_group_name_H-M   'P 1'
_cell_length_a   9.09660728
_cell_length_b   9.09660733
_cell_length_c   7.39046492
_cell_angle_alpha   84.65391548
_cell_angle_beta   84.65391697
_cell_angle_gamma   43.36221960
_symmetry_Int_Tables_number   1
_chemical_formula_structural   La5Tc2
_chemical_formula_sum   'La10 Tc4'
_cell_volume   417.77807933
_cell_formula_units_Z   2
loop_
 _symmetry_equiv_pos_site_id
 _symmetry_equiv_pos_as_xyz
  1  'x, y, z'
loop_
 _atom_site_type_symbol
 _atom_site_label
 _atom_site_symmetry_multiplicity
 _atom_site_fract_x
 _atom_site_fract_y
 _atom_site_fract_z
 _atom_site_occupancy
  La  La0  1  0.025488  0.787923  0.903750  1
  La  La1  1  0.212077  0.974512  0.596250  1
  La  La2  1  0.974512  0.212077  0.096250  1
  La  La3  1  0.787923  0.025488  0.403750  1
  La  La4  1  0.358703  0.212371  0.816082  1
  La  La5  1  0.787629  0.641297  0.683918  1
  La  La6  1  0.641297  0.787629  0.183918  1
  La  La7  1  0.212371  0.358703  0.316082  1
  La  La8  1  0.579999  0.420001  0.750000  1
  La  La9  1  0.420001  0.579999  0.250000  1
  Tc  Tc10  1  0.169622  0.609974  0.577541  1
  Tc  Tc11  1  0.390026  0.830378  0.922459  1
  Tc  Tc12  1  0.830378  0.390026  0.422459  1
  Tc  Tc13  1  0.609974  0.169622  0.077541  1
