# generated using pymatgen
data_Lu2Mg3PaIr3
_symmetry_space_group_name_H-M   'P 1'
_cell_length_a   7.17677459
_cell_length_b   7.42101894
_cell_length_c   3.98295500
_cell_angle_alpha   90.00000000
_cell_angle_beta   90.00000000
_cell_angle_gamma   121.13232899
_symmetry_Int_Tables_number   1
_chemical_formula_structural   Lu2Mg3PaIr3
_chemical_formula_sum   'Lu2 Mg3 Pa1 Ir3'
_cell_volume   181.57647379
_cell_formula_units_Z   1
loop_
 _symmetry_equiv_pos_site_id
 _symmetry_equiv_pos_as_xyz
  1  'x, y, z'
loop_
 _atom_site_type_symbol
 _atom_site_label
 _atom_site_symmetry_multiplicity
 _atom_site_fract_x
 _atom_site_fract_y
 _atom_site_fract_z
 _atom_site_occupancy
  Lu  Lu0  1  0.596726  0.593827  0.500000  1
  Lu  Lu1  1  0.403274  0.997102  0.500000  1
  Mg  Mg2  1  0.000000  0.766770  0.000000  1
  Mg  Mg3  1  0.257110  0.247705  0.000000  1
  Mg  Mg4  1  0.742890  0.990595  0.000000  1
  Pa  Pa5  1  0.000000  0.415148  0.500000  1
  Ir  Ir6  1  0.310153  0.644538  0.000000  1
  Ir  Ir7  1  0.689847  0.334384  0.000000  1
  Ir  Ir8  1  0.000000  0.009930  0.500000  1
