# generated using pymatgen
data_Ho3Tm13Cd4Co3Ni
_symmetry_space_group_name_H-M   'P 1'
_cell_length_a   9.41383213
_cell_length_b   9.39991470
_cell_length_c   9.39991500
_cell_angle_alpha   60.00000247
_cell_angle_beta   60.04889556
_cell_angle_gamma   60.04889520
_symmetry_Int_Tables_number   1
_chemical_formula_structural   Ho3Tm13Cd4Co3Ni
_chemical_formula_sum   'Ho3 Tm13 Cd4 Co3 Ni1'
_cell_volume   588.59947548
_cell_formula_units_Z   1
loop_
 _symmetry_equiv_pos_site_id
 _symmetry_equiv_pos_as_xyz
  1  'x, y, z'
loop_
 _atom_site_type_symbol
 _atom_site_label
 _atom_site_symmetry_multiplicity
 _atom_site_fract_x
 _atom_site_fract_y
 _atom_site_fract_z
 _atom_site_occupancy
  Ho  Ho0  1  0.344394  0.348509  0.348509  1
  Ho  Ho1  1  0.344394  0.348509  0.958588  1
  Ho  Ho2  1  0.344394  0.958588  0.348509  1
  Tm  Tm3  1  0.960596  0.346468  0.346468  1
  Tm  Tm4  1  0.815965  0.187854  0.187854  1
  Tm  Tm5  1  0.187167  0.812689  0.812689  1
  Tm  Tm6  1  0.187167  0.812689  0.187455  1
  Tm  Tm7  1  0.815965  0.187854  0.808325  1
  Tm  Tm8  1  0.187167  0.187455  0.812689  1
  Tm  Tm9  1  0.815965  0.808325  0.187854  1
  Tm  Tm10  1  0.936878  0.562458  0.562458  1
  Tm  Tm11  1  0.561483  0.937258  0.937258  1
  Tm  Tm12  1  0.561483  0.937258  0.564001  1
  Tm  Tm13  1  0.936878  0.562458  0.938205  1
  Tm  Tm14  1  0.561483  0.564001  0.937258  1
  Tm  Tm15  1  0.936878  0.938205  0.562458  1
  Cd  Cd16  1  0.581162  0.580569  0.580569  1
  Cd  Cd17  1  0.581162  0.580569  0.257701  1
  Cd  Cd18  1  0.581162  0.257701  0.580569  1
  Cd  Cd19  1  0.256552  0.581150  0.581150  1
  Co  Co20  1  0.140930  0.141586  0.141586  1
  Co  Co21  1  0.140930  0.141586  0.575899  1
  Co  Co22  1  0.140930  0.575899  0.141586  1
  Ni  Ni23  1  0.578910  0.140364  0.140364  1
