# generated using pymatgen
data_Dy2Ho3Sc(Si3Ru)8
_symmetry_space_group_name_H-M   'P 1'
_cell_length_a   10.08787077
_cell_length_b   10.08787135
_cell_length_c   8.12169103
_cell_angle_alpha   90.00156899
_cell_angle_beta   90.00157739
_cell_angle_gamma   132.57746789
_symmetry_Int_Tables_number   1
_chemical_formula_structural   Dy2Ho3Sc(Si3Ru)8
_chemical_formula_sum   'Dy2 Ho3 Sc1 Si24 Ru8'
_cell_volume   608.60791298
_cell_formula_units_Z   1
loop_
 _symmetry_equiv_pos_site_id
 _symmetry_equiv_pos_as_xyz
  1  'x, y, z'
loop_
 _atom_site_type_symbol
 _atom_site_label
 _atom_site_symmetry_multiplicity
 _atom_site_fract_x
 _atom_site_fract_y
 _atom_site_fract_z
 _atom_site_occupancy
  Dy  Dy0  1  0.502427  0.002291  0.749762  1
  Dy  Dy1  1  0.997709  0.497573  0.250238  1
  Ho  Ho2  1  0.000025  0.999975  0.000000  1
  Ho  Ho3  1  0.497426  0.997564  0.250205  1
  Ho  Ho4  1  0.002436  0.502574  0.749795  1
  Sc  Sc5  1  0.499957  0.500043  0.500000  1
  Si  Si6  1  0.794545  0.205455  0.500000  1
  Si  Si7  1  0.295047  0.704953  0.000000  1
  Si  Si8  1  0.205440  0.794560  0.500000  1
  Si  Si9  1  0.704956  0.295044  0.000000  1
  Si  Si10  1  0.333865  0.333801  0.830693  1
  Si  Si11  1  0.666199  0.666135  0.169307  1
  Si  Si12  1  0.170032  0.170072  0.334640  1
  Si  Si13  1  0.829928  0.829968  0.665360  1
  Si  Si14  1  0.121386  0.886700  0.727943  1
  Si  Si15  1  0.113300  0.878614  0.272057  1
  Si  Si16  1  0.610851  0.378521  0.230464  1
  Si  Si17  1  0.621479  0.389149  0.769536  1
  Si  Si18  1  0.877856  0.112580  0.271953  1
  Si  Si19  1  0.887420  0.122144  0.728047  1
  Si  Si20  1  0.388489  0.620812  0.769635  1
  Si  Si21  1  0.379188  0.611511  0.230365  1
  Si  Si22  1  0.345966  0.114375  0.504173  1
  Si  Si23  1  0.885625  0.654034  0.495827  1
  Si  Si24  1  0.388557  0.154990  0.005246  1
  Si  Si25  1  0.845010  0.611443  0.994754  1
  Si  Si26  1  0.653922  0.885568  0.495130  1
  Si  Si27  1  0.114432  0.346078  0.504870  1
  Si  Si28  1  0.611380  0.844860  0.995496  1
  Si  Si29  1  0.155140  0.388620  0.004504  1
  Ru  Ru30  1  0.668323  0.331677  0.500000  1
  Ru  Ru31  1  0.169082  0.830918  0.000000  1
  Ru  Ru32  1  0.331820  0.668180  0.500000  1
  Ru  Ru33  1  0.830767  0.169233  0.000000  1
  Ru  Ru34  1  0.125930  0.125851  0.627861  1
  Ru  Ru35  1  0.874149  0.874070  0.372139  1
  Ru  Ru36  1  0.373022  0.373087  0.127199  1
  Ru  Ru37  1  0.626913  0.626978  0.872801  1
