# generated using pymatgen
data_Th2Cu15Si8Ni3
_symmetry_space_group_name_H-M   'P 1'
_cell_length_a   8.11416315
_cell_length_b   8.11416234
_cell_length_c   8.09420491
_cell_angle_alpha   120.63109488
_cell_angle_beta   120.16261995
_cell_angle_gamma   89.45707902
_symmetry_Int_Tables_number   1
_chemical_formula_structural   Th2Cu15Si8Ni3
_chemical_formula_sum   'Th2 Cu15 Si8 Ni3'
_cell_volume   374.07037651
_cell_formula_units_Z   1
loop_
 _symmetry_equiv_pos_site_id
 _symmetry_equiv_pos_as_xyz
  1  'x, y, z'
loop_
 _atom_site_type_symbol
 _atom_site_label
 _atom_site_symmetry_multiplicity
 _atom_site_fract_x
 _atom_site_fract_y
 _atom_site_fract_z
 _atom_site_occupancy
  Th  Th0  1  0.749490  0.746515  0.999665  1
  Th  Th1  1  0.253150  0.250175  0.999665  1
  Cu  Cu2  1  0.566641  0.698088  0.264730  1
  Cu  Cu3  1  0.798653  0.930538  0.729191  1
  Cu  Cu4  1  0.313171  0.814637  0.758624  1
  Cu  Cu5  1  0.812006  0.055416  0.502251  1
  Cu  Cu6  1  0.430131  0.301632  0.731762  1
  Cu  Cu7  1  0.188156  0.945158  0.500647  1
  Cu  Cu8  1  0.446837  0.690246  0.502251  1
  Cu  Cu9  1  0.943988  0.445454  0.758624  1
  Cu  Cu10  1  0.690047  0.186721  0.244654  1
  Cu  Cu11  1  0.057933  0.554605  0.244654  1
  Cu  Cu12  1  0.297985  0.570074  0.868059  1
  Cu  Cu13  1  0.933004  0.199596  0.132600  1
  Cu  Cu14  1  0.066701  0.800148  0.866850  1
  Cu  Cu15  1  0.200922  0.069221  0.270144  1
  Cu  Cu16  1  0.555489  0.312490  0.500647  1
  Si  Si17  1  0.446733  0.947736  0.162028  1
  Si  Si18  1  0.214293  0.715295  0.162028  1
  Si  Si19  1  0.712100  0.548536  0.489119  1
  Si  Si20  1  0.940583  0.777020  0.489119  1
  Si  Si21  1  0.286971  0.448173  0.501427  1
  Si  Si22  1  0.781609  0.289482  0.843743  1
  Si  Si23  1  0.554261  0.062134  0.843743  1
  Si  Si24  1  0.053254  0.214457  0.501427  1
  Ni  Ni25  1  0.500532  0.999248  0.499780  1
  Ni  Ni26  1  0.001956  0.498065  0.500021  1
  Ni  Ni27  1  0.703406  0.429139  0.132544  1
