# generated using pymatgen
data_Nd(Co3Si2)2
_symmetry_space_group_name_H-M   'P 1'
_cell_length_a   6.62284200
_cell_length_b   6.62284164
_cell_length_c   3.65172100
_cell_angle_alpha   90.00000000
_cell_angle_beta   90.00000000
_cell_angle_gamma   120.00000180
_symmetry_Int_Tables_number   1
_chemical_formula_structural   Nd(Co3Si2)2
_chemical_formula_sum   'Nd1 Co6 Si4'
_cell_volume   138.71294033
_cell_formula_units_Z   1
loop_
 _symmetry_equiv_pos_site_id
 _symmetry_equiv_pos_as_xyz
  1  'x, y, z'
loop_
 _atom_site_type_symbol
 _atom_site_label
 _atom_site_symmetry_multiplicity
 _atom_site_fract_x
 _atom_site_fract_y
 _atom_site_fract_z
 _atom_site_occupancy
  Nd  Nd0  1  0.000000  0.000000  0.000000  1
  Co  Co1  1  0.465900  0.534100  0.000000  1
  Co  Co2  1  0.465900  0.931800  0.000000  1
  Co  Co3  1  0.068200  0.534100  0.000000  1
  Co  Co4  1  0.793608  0.206392  0.500000  1
  Co  Co5  1  0.793608  0.587217  0.500000  1
  Co  Co6  1  0.412783  0.206392  0.500000  1
  Si  Si7  1  0.666667  0.333333  0.000000  1
  Si  Si8  1  0.201498  0.798502  0.500000  1
  Si  Si9  1  0.201498  0.402995  0.500000  1
  Si  Si10  1  0.597005  0.798502  0.500000  1
