# generated using pymatgen
data_DyErP2(Ru2C)2
_symmetry_space_group_name_H-M   'P 1'
_cell_length_a   5.84828765
_cell_length_b   5.84828670
_cell_length_c   7.04978100
_cell_angle_alpha   90.00000000
_cell_angle_beta   90.00000000
_cell_angle_gamma   142.38134799
_symmetry_Int_Tables_number   1
_chemical_formula_structural   DyErP2(Ru2C)2
_chemical_formula_sum   'Dy1 Er1 P2 Ru4 C2'
_cell_volume   147.18030671
_cell_formula_units_Z   1
loop_
 _symmetry_equiv_pos_site_id
 _symmetry_equiv_pos_as_xyz
  1  'x, y, z'
loop_
 _atom_site_type_symbol
 _atom_site_label
 _atom_site_symmetry_multiplicity
 _atom_site_fract_x
 _atom_site_fract_y
 _atom_site_fract_z
 _atom_site_occupancy
  Dy  Dy0  1  0.455900  0.544100  0.750000  1
  Er  Er1  1  0.543793  0.456207  0.250000  1
  P  P2  1  0.268483  0.731517  0.250000  1
  P  P3  1  0.731499  0.268501  0.750000  1
  Ru  Ru4  1  0.834811  0.165189  0.053782  1
  Ru  Ru5  1  0.165186  0.834814  0.947112  1
  Ru  Ru6  1  0.165186  0.834814  0.552888  1
  Ru  Ru7  1  0.834811  0.165189  0.446218  1
  C  C8  1  0.000165  0.999835  0.001549  1
  C  C9  1  0.000165  0.999835  0.498451  1
