# generated using pymatgen
data_MnGa2NiAg4F14
_symmetry_space_group_name_H-M   'P 1'
_cell_length_a   7.50730247
_cell_length_b   7.50730418
_cell_length_c   7.61317884
_cell_angle_alpha   120.86788104
_cell_angle_beta   117.25635497
_cell_angle_gamma   90.87510855
_symmetry_Int_Tables_number   1
_chemical_formula_structural   MnGa2NiAg4F14
_chemical_formula_sum   'Mn1 Ga2 Ni1 Ag4 F14'
_cell_volume   309.29781195
_cell_formula_units_Z   1
loop_
 _symmetry_equiv_pos_site_id
 _symmetry_equiv_pos_as_xyz
  1  'x, y, z'
loop_
 _atom_site_type_symbol
 _atom_site_label
 _atom_site_symmetry_multiplicity
 _atom_site_fract_x
 _atom_site_fract_y
 _atom_site_fract_z
 _atom_site_occupancy
  Mn  Mn0  1  0.500000  0.000000  0.000000  1
  Ga  Ga1  1  0.000000  0.500000  0.500000  1
  Ga  Ga2  1  0.500000  0.000000  0.500000  1
  Ni  Ni3  1  0.500000  0.500000  0.500000  1
  Ag  Ag4  1  0.000000  0.000000  0.500000  1
  Ag  Ag5  1  0.000000  0.000000  0.000000  1
  Ag  Ag6  1  0.000000  0.500000  0.000000  1
  Ag  Ag7  1  0.500000  0.500000  0.000000  1
  F  F8  1  0.394045  0.259871  0.153917  1
  F  F9  1  0.127628  0.411038  0.717874  1
  F  F10  1  0.189595  0.431159  0.391040  1
  F  F11  1  0.540119  0.298555  0.608960  1
  F  F12  1  0.806837  0.090246  0.717874  1
  F  F13  1  0.453778  0.080310  0.754574  1
  F  F14  1  0.174265  0.800796  0.754574  1
  F  F15  1  0.546222  0.919690  0.245426  1
  F  F16  1  0.605955  0.740129  0.846083  1
  F  F17  1  0.825735  0.199204  0.245426  1
  F  F18  1  0.872372  0.588962  0.282126  1
  F  F19  1  0.810405  0.568841  0.608960  1
  F  F20  1  0.459881  0.701445  0.391040  1
  F  F21  1  0.193163  0.909754  0.282126  1
