# generated using pymatgen
data_Pr3Nd7Rh8
_symmetry_space_group_name_H-M   'P 1'
_cell_length_a   7.59040200
_cell_length_b   7.69556000
_cell_length_c   15.04301000
_cell_angle_alpha   89.99736434
_cell_angle_beta   90.00042082
_cell_angle_gamma   89.99842576
_symmetry_Int_Tables_number   1
_chemical_formula_structural   Pr3Nd7Rh8
_chemical_formula_sum   'Pr6 Nd14 Rh16'
_cell_volume   878.69822665
_cell_formula_units_Z   2
loop_
 _symmetry_equiv_pos_site_id
 _symmetry_equiv_pos_as_xyz
  1  'x, y, z'
loop_
 _atom_site_type_symbol
 _atom_site_label
 _atom_site_symmetry_multiplicity
 _atom_site_fract_x
 _atom_site_fract_y
 _atom_site_fract_z
 _atom_site_occupancy
  Pr  Pr0  1  0.486904  0.319373  0.092909  1
  Pr  Pr1  1  0.986906  0.180621  0.407095  1
  Pr  Pr2  1  0.487104  0.319654  0.407352  1
  Pr  Pr3  1  0.987108  0.180339  0.092648  1
  Pr  Pr4  1  0.513108  0.680910  0.907084  1
  Pr  Pr5  1  0.013103  0.819094  0.592911  1
  Nd  Nd6  1  0.661736  0.168947  0.622374  1
  Nd  Nd7  1  0.161739  0.331055  0.877625  1
  Nd  Nd8  1  0.338023  0.831124  0.122208  1
  Nd  Nd9  1  0.838023  0.668877  0.377789  1
  Nd  Nd10  1  0.338412  0.830869  0.377969  1
  Nd  Nd11  1  0.838412  0.669131  0.122033  1
  Nd  Nd12  1  0.662292  0.168643  0.877799  1
  Nd  Nd13  1  0.162293  0.331354  0.622204  1
  Nd  Nd14  1  0.513546  0.681132  0.593295  1
  Nd  Nd15  1  0.013543  0.818871  0.906706  1
  Nd  Nd16  1  0.823238  0.513129  0.749992  1
  Nd  Nd17  1  0.323241  0.986873  0.750008  1
  Nd  Nd18  1  0.176654  0.487201  0.250000  1
  Nd  Nd19  1  0.676654  0.012797  0.250002  1
  Rh  Rh20  1  0.675638  0.968048  0.459538  1
  Rh  Rh21  1  0.175638  0.531954  0.040465  1
  Rh  Rh22  1  0.323008  0.030583  0.959112  1
  Rh  Rh23  1  0.823015  0.469418  0.540886  1
  Rh  Rh24  1  0.324381  0.030616  0.540864  1
  Rh  Rh25  1  0.824383  0.469376  0.959134  1
  Rh  Rh26  1  0.676137  0.968433  0.040585  1
  Rh  Rh27  1  0.176144  0.531565  0.459406  1
  Rh  Rh28  1  0.457385  0.396837  0.749769  1
  Rh  Rh29  1  0.957384  0.103163  0.750227  1
  Rh  Rh30  1  0.542631  0.603793  0.250005  1
  Rh  Rh31  1  0.042634  0.896214  0.250002  1
  Rh  Rh32  1  0.698748  0.859187  0.749842  1
  Rh  Rh33  1  0.198751  0.640832  0.750149  1
  Rh  Rh34  1  0.301031  0.140371  0.250022  1
  Rh  Rh35  1  0.801053  0.359615  0.249990  1
