# generated using pymatgen
data_Dy4Tm4Sc11Si16Hg
_symmetry_space_group_name_H-M   'P 1'
_cell_length_a   7.02950174
_cell_length_b   7.38154611
_cell_length_c   13.98563964
_cell_angle_alpha   90.01748082
_cell_angle_beta   90.05264468
_cell_angle_gamma   89.90458462
_symmetry_Int_Tables_number   1
_chemical_formula_structural   Dy4Tm4Sc11Si16Hg
_chemical_formula_sum   'Dy4 Tm4 Sc11 Si16 Hg1'
_cell_volume   725.69379239
_cell_formula_units_Z   1
loop_
 _symmetry_equiv_pos_site_id
 _symmetry_equiv_pos_as_xyz
  1  'x, y, z'
loop_
 _atom_site_type_symbol
 _atom_site_label
 _atom_site_symmetry_multiplicity
 _atom_site_fract_x
 _atom_site_fract_y
 _atom_site_fract_z
 _atom_site_occupancy
  Dy  Dy0  1  0.009784  0.175051  0.096528  1
  Dy  Dy1  1  0.990608  0.816526  0.902516  1
  Dy  Dy2  1  0.485809  0.673177  0.903026  1
  Dy  Dy3  1  0.990705  0.816379  0.597144  1
  Tm  Tm4  1  0.510517  0.323326  0.097082  1
  Tm  Tm5  1  0.010436  0.175610  0.403155  1
  Tm  Tm6  1  0.510460  0.323158  0.403277  1
  Tm  Tm7  1  0.485804  0.673809  0.597175  1
  Sc  Sc8  1  0.837936  0.496941  0.250175  1
  Sc  Sc9  1  0.340037  0.004343  0.250183  1
  Sc  Sc10  1  0.656727  0.997213  0.749833  1
  Sc  Sc11  1  0.325283  0.183059  0.626034  1
  Sc  Sc12  1  0.671205  0.824002  0.374951  1
  Sc  Sc13  1  0.169637  0.680247  0.373171  1
  Sc  Sc14  1  0.671189  0.823874  0.125446  1
  Sc  Sc15  1  0.838466  0.325565  0.625876  1
  Sc  Sc16  1  0.325195  0.182862  0.873715  1
  Sc  Sc17  1  0.838743  0.325603  0.873743  1
  Sc  Sc18  1  0.169713  0.679968  0.127107  1
  Si  Si19  1  0.026439  0.092454  0.749830  1
  Si  Si20  1  0.968651  0.890186  0.250323  1
  Si  Si21  1  0.467625  0.614752  0.250178  1
  Si  Si22  1  0.543414  0.380886  0.749701  1
  Si  Si23  1  0.291199  0.884681  0.749566  1
  Si  Si24  1  0.712918  0.130963  0.250540  1
  Si  Si25  1  0.213377  0.371397  0.250433  1
  Si  Si26  1  0.768511  0.632289  0.749397  1
  Si  Si27  1  0.164731  0.458871  0.528110  1
  Si  Si28  1  0.840705  0.534770  0.461448  1
  Si  Si29  1  0.343324  0.966945  0.462019  1
  Si  Si30  1  0.840397  0.535491  0.038375  1
  Si  Si31  1  0.657308  0.033513  0.540139  1
  Si  Si32  1  0.163807  0.459140  0.971928  1
  Si  Si33  1  0.657590  0.034300  0.959978  1
  Si  Si34  1  0.344295  0.967121  0.038019  1
  Hg  Hg35  1  0.157458  0.511529  0.749878  1
