# generated using pymatgen
data_Nd8Ag2RuPt
_symmetry_space_group_name_H-M   'P 1'
_cell_length_a   9.89833502
_cell_length_b   9.89833439
_cell_length_c   9.97037800
_cell_angle_alpha   59.75893372
_cell_angle_beta   59.75893582
_cell_angle_gamma   59.43983388
_symmetry_Int_Tables_number   1
_chemical_formula_structural   Nd8Ag2RuPt
_chemical_formula_sum   'Nd16 Ag4 Ru2 Pt2'
_cell_volume   685.28280355
_cell_formula_units_Z   2
loop_
 _symmetry_equiv_pos_site_id
 _symmetry_equiv_pos_as_xyz
  1  'x, y, z'
loop_
 _atom_site_type_symbol
 _atom_site_label
 _atom_site_symmetry_multiplicity
 _atom_site_fract_x
 _atom_site_fract_y
 _atom_site_fract_z
 _atom_site_occupancy
  Nd  Nd0  1  0.351241  0.351241  0.356636  1
  Nd  Nd1  1  0.351241  0.351241  0.940883  1
  Nd  Nd2  1  0.346490  0.949082  0.352214  1
  Nd  Nd3  1  0.949082  0.346490  0.352214  1
  Nd  Nd4  1  0.815432  0.188336  0.189874  1
  Nd  Nd5  1  0.188336  0.815432  0.806358  1
  Nd  Nd6  1  0.188336  0.815432  0.189874  1
  Nd  Nd7  1  0.815432  0.188336  0.806358  1
  Nd  Nd8  1  0.187703  0.187703  0.812297  1
  Nd  Nd9  1  0.807441  0.807441  0.192559  1
  Nd  Nd10  1  0.936732  0.560024  0.564979  1
  Nd  Nd11  1  0.560024  0.936732  0.938265  1
  Nd  Nd12  1  0.560024  0.936732  0.564979  1
  Nd  Nd13  1  0.936732  0.560024  0.938265  1
  Nd  Nd14  1  0.561848  0.561848  0.938152  1
  Nd  Nd15  1  0.937085  0.937085  0.562915  1
  Ag  Ag16  1  0.581429  0.581429  0.581412  1
  Ag  Ag17  1  0.581429  0.581429  0.255731  1
  Ag  Ag18  1  0.581378  0.255989  0.581317  1
  Ag  Ag19  1  0.255989  0.581378  0.581317  1
  Ru  Ru20  1  0.144218  0.144218  0.137383  1
  Ru  Ru21  1  0.144218  0.144218  0.574182  1
  Pt  Pt22  1  0.147432  0.570730  0.140919  1
  Pt  Pt23  1  0.570730  0.147432  0.140919  1
