# generated using pymatgen
data_Tb2TmMg3Pb2Au
_symmetry_space_group_name_H-M   'P 1'
_cell_length_a   7.56725418
_cell_length_b   7.56725513
_cell_length_c   4.50054800
_cell_angle_alpha   90.00000000
_cell_angle_beta   90.00000000
_cell_angle_gamma   119.91308315
_symmetry_Int_Tables_number   1
_chemical_formula_structural   Tb2TmMg3Pb2Au
_chemical_formula_sum   'Tb2 Tm1 Mg3 Pb2 Au1'
_cell_volume   223.38418905
_cell_formula_units_Z   1
loop_
 _symmetry_equiv_pos_site_id
 _symmetry_equiv_pos_as_xyz
  1  'x, y, z'
loop_
 _atom_site_type_symbol
 _atom_site_label
 _atom_site_symmetry_multiplicity
 _atom_site_fract_x
 _atom_site_fract_y
 _atom_site_fract_z
 _atom_site_occupancy
  Tb  Tb0  1  0.596051  0.999640  0.000000  1
  Tb  Tb1  1  0.999640  0.596051  0.000000  1
  Tm  Tm2  1  0.402633  0.402633  0.000000  1
  Mg  Mg3  1  0.233532  0.000452  0.500000  1
  Mg  Mg4  1  0.000452  0.233532  0.500000  1
  Mg  Mg5  1  0.766436  0.766436  0.500000  1
  Pb  Pb6  1  0.333979  0.665520  0.500000  1
  Pb  Pb7  1  0.665520  0.333979  0.500000  1
  Au  Au8  1  0.001757  0.001757  0.000000  1
