# generated using pymatgen
data_PrSm2Th5Se12
_symmetry_space_group_name_H-M   'P 1'
_cell_length_a   4.10592900
_cell_length_b   11.31134394
_cell_length_c   11.38441422
_cell_angle_alpha   91.07205091
_cell_angle_beta   90.00000000
_cell_angle_gamma   90.00000000
_symmetry_Int_Tables_number   1
_chemical_formula_structural   PrSm2Th5Se12
_chemical_formula_sum   'Pr1 Sm2 Th5 Se12'
_cell_volume   528.64034655
_cell_formula_units_Z   1
loop_
 _symmetry_equiv_pos_site_id
 _symmetry_equiv_pos_as_xyz
  1  'x, y, z'
loop_
 _atom_site_type_symbol
 _atom_site_label
 _atom_site_symmetry_multiplicity
 _atom_site_fract_x
 _atom_site_fract_y
 _atom_site_fract_z
 _atom_site_occupancy
  Pr  Pr0  1  0.250000  0.997572  0.697960  1
  Sm  Sm1  1  0.750000  0.813326  0.979564  1
  Sm  Sm2  1  0.250000  0.186999  0.019368  1
  Th  Th3  1  0.750000  0.000532  0.304467  1
  Th  Th4  1  0.750000  0.488403  0.803695  1
  Th  Th5  1  0.250000  0.513476  0.196265  1
  Th  Th6  1  0.250000  0.316021  0.517576  1
  Th  Th7  1  0.750000  0.686110  0.483239  1
  Se  Se8  1  0.750000  0.054082  0.884907  1
  Se  Se9  1  0.250000  0.945526  0.118444  1
  Se  Se10  1  0.250000  0.557175  0.624311  1
  Se  Se11  1  0.750000  0.442804  0.374890  1
  Se  Se12  1  0.250000  0.874682  0.447968  1
  Se  Se13  1  0.750000  0.125529  0.545470  1
  Se  Se14  1  0.750000  0.376368  0.050583  1
  Se  Se15  1  0.250000  0.623459  0.950122  1
  Se  Se16  1  0.250000  0.295812  0.778729  1
  Se  Se17  1  0.750000  0.706626  0.221593  1
  Se  Se18  1  0.750000  0.798055  0.721745  1
  Se  Se19  1  0.250000  0.197442  0.279107  1
