# generated using pymatgen
data_LiV3Co4(SbAs)2
_symmetry_space_group_name_H-M   'P 1'
_cell_length_a   5.64343163
_cell_length_b   5.64343188
_cell_length_c   6.95827203
_cell_angle_alpha   113.92369275
_cell_angle_beta   113.92368832
_cell_angle_gamma   90.00000500
_symmetry_Int_Tables_number   1
_chemical_formula_structural   LiV3Co4(SbAs)2
_chemical_formula_sum   'Li1 V3 Co4 Sb2 As2'
_cell_volume   181.54490951
_cell_formula_units_Z   1
loop_
 _symmetry_equiv_pos_site_id
 _symmetry_equiv_pos_as_xyz
  1  'x, y, z'
loop_
 _atom_site_type_symbol
 _atom_site_label
 _atom_site_symmetry_multiplicity
 _atom_site_fract_x
 _atom_site_fract_y
 _atom_site_fract_z
 _atom_site_occupancy
  Li  Li0  1  0.500000  0.500000  0.000000  1
  V  V1  1  0.000000  0.000000  0.000000  1
  V  V2  1  0.749999  0.250000  0.500000  1
  V  V3  1  0.250000  0.749999  0.500000  1
  Co  Co4  1  0.901827  0.371982  0.273810  1
  Co  Co5  1  0.371982  0.901827  0.273810  1
  Co  Co6  1  0.098174  0.098174  0.726191  1
  Co  Co7  1  0.628018  0.628018  0.726191  1
  Sb  Sb8  1  0.499999  0.000000  0.000000  1
  Sb  Sb9  1  0.000000  0.499999  0.000000  1
  As  As10  1  0.741116  0.741116  0.482231  1
  As  As11  1  0.258883  0.258883  0.517767  1
