# generated using pymatgen
data_Y3Pa3(Sb4Pt3)2
_symmetry_space_group_name_H-M   'P 1'
_cell_length_a   8.47048232
_cell_length_b   8.45686167
_cell_length_c   8.45686324
_cell_angle_alpha   109.47501882
_cell_angle_beta   109.06264993
_cell_angle_gamma   109.81173046
_symmetry_Int_Tables_number   1
_chemical_formula_structural   Y3Pa3(Sb4Pt3)2
_chemical_formula_sum   'Y3 Pa3 Sb8 Pt6'
_cell_volume   466.69674834
_cell_formula_units_Z   1
loop_
 _symmetry_equiv_pos_site_id
 _symmetry_equiv_pos_as_xyz
  1  'x, y, z'
loop_
 _atom_site_type_symbol
 _atom_site_label
 _atom_site_symmetry_multiplicity
 _atom_site_fract_x
 _atom_site_fract_y
 _atom_site_fract_z
 _atom_site_occupancy
  Y  Y0  1  0.874975  0.249928  0.125439  1
  Y  Y1  1  0.625025  0.750464  0.374954  1
  Y  Y2  1  0.250000  0.125664  0.875664  1
  Pa  Pa3  1  0.750000  0.373820  0.623820  1
  Pa  Pa4  1  0.123308  0.874363  0.250119  1
  Pa  Pa5  1  0.376692  0.626811  0.751055  1
  Sb  Sb6  1  0.672222  0.498090  0.001515  1
  Sb  Sb7  1  0.498921  0.997064  0.674836  1
  Sb  Sb8  1  0.001079  0.675916  0.498143  1
  Sb  Sb9  1  0.827778  0.829293  0.825868  1
  Sb  Sb10  1  0.498666  0.000491  0.171618  1
  Sb  Sb11  1  0.176854  0.499323  0.001647  1
  Sb  Sb12  1  0.001334  0.172952  0.501825  1
  Sb  Sb13  1  0.323146  0.324793  0.322469  1
  Pt  Pt14  1  0.381754  0.252800  0.620922  1
  Pt  Pt15  1  0.118246  0.739168  0.871046  1
  Pt  Pt16  1  0.250000  0.626172  0.376172  1
  Pt  Pt17  1  0.750000  0.872792  0.122792  1
  Pt  Pt18  1  0.631204  0.378536  0.262763  1
  Pt  Pt19  1  0.868796  0.131559  0.747332  1
