# generated using pymatgen
data_Tb3Dy5In3Pt
_symmetry_space_group_name_H-M   'P 1'
_cell_length_a   10.51364600
_cell_length_b   10.51364082
_cell_length_c   7.02662200
_cell_angle_alpha   90.00000000
_cell_angle_beta   90.00000000
_cell_angle_gamma   119.99997856
_symmetry_Int_Tables_number   1
_chemical_formula_structural   Tb3Dy5In3Pt
_chemical_formula_sum   'Tb6 Dy10 In6 Pt2'
_cell_volume   672.64172305
_cell_formula_units_Z   2
loop_
 _symmetry_equiv_pos_site_id
 _symmetry_equiv_pos_as_xyz
  1  'x, y, z'
loop_
 _atom_site_type_symbol
 _atom_site_label
 _atom_site_symmetry_multiplicity
 _atom_site_fract_x
 _atom_site_fract_y
 _atom_site_fract_z
 _atom_site_occupancy
  Tb  Tb0  1  0.531265  0.062529  0.515801  1
  Tb  Tb1  1  0.937471  0.468734  0.515801  1
  Tb  Tb2  1  0.531266  0.468735  0.515801  1
  Tb  Tb3  1  0.468735  0.937471  0.015801  1
  Tb  Tb4  1  0.062529  0.531266  0.015801  1
  Tb  Tb5  1  0.468734  0.531265  0.015801  1
  Dy  Dy6  1  0.174983  0.349966  0.722994  1
  Dy  Dy7  1  0.650034  0.825017  0.722994  1
  Dy  Dy8  1  0.174983  0.825017  0.722994  1
  Dy  Dy9  1  0.825017  0.650034  0.222994  1
  Dy  Dy10  1  0.349966  0.174983  0.222994  1
  Dy  Dy11  1  0.825017  0.174983  0.222994  1
  Dy  Dy12  1  0.666667  0.333333  0.890993  1
  Dy  Dy13  1  0.333333  0.666667  0.390993  1
  Dy  Dy14  1  0.000000  0.000000  0.497776  1
  Dy  Dy15  1  0.000000  0.000000  0.997776  1
  In  In16  1  0.837060  0.674120  0.759559  1
  In  In17  1  0.325879  0.162939  0.759559  1
  In  In18  1  0.837060  0.162939  0.759559  1
  In  In19  1  0.162940  0.325880  0.259559  1
  In  In20  1  0.674121  0.837061  0.259559  1
  In  In21  1  0.162940  0.837061  0.259559  1
  Pt  Pt22  1  0.666667  0.333333  0.288269  1
  Pt  Pt23  1  0.333333  0.666667  0.788269  1
