# generated using pymatgen
data_Er4VFe3B16
_symmetry_space_group_name_H-M   'P 1'
_cell_length_a   3.37024100
_cell_length_b   5.89135847
_cell_length_c   11.39779017
_cell_angle_alpha   90.12779499
_cell_angle_beta   90.00000000
_cell_angle_gamma   90.00000000
_symmetry_Int_Tables_number   1
_chemical_formula_structural   Er4VFe3B16
_chemical_formula_sum   'Er4 V1 Fe3 B16'
_cell_volume   226.30595576
_cell_formula_units_Z   1
loop_
 _symmetry_equiv_pos_site_id
 _symmetry_equiv_pos_as_xyz
  1  'x, y, z'
loop_
 _atom_site_type_symbol
 _atom_site_label
 _atom_site_symmetry_multiplicity
 _atom_site_fract_x
 _atom_site_fract_y
 _atom_site_fract_z
 _atom_site_occupancy
  Er  Er0  1  0.000000  0.626699  0.352699  1
  Er  Er1  1  0.000000  0.372542  0.648307  1
  Er  Er2  1  0.000000  0.126305  0.154152  1
  Er  Er3  1  0.000000  0.876521  0.846674  1
  V  V4  1  0.000000  0.627465  0.083035  1
  Fe  Fe5  1  0.000000  0.375138  0.915164  1
  Fe  Fe6  1  0.000000  0.133428  0.414048  1
  Fe  Fe7  1  0.000000  0.864133  0.589388  1
  B  B8  1  0.500000  0.786669  0.187126  1
  B  B9  1  0.500000  0.218377  0.815301  1
  B  B10  1  0.500000  0.281165  0.317137  1
  B  B11  1  0.500000  0.716850  0.683550  1
  B  B12  1  0.500000  0.866730  0.030119  1
  B  B13  1  0.500000  0.138118  0.965737  1
  B  B14  1  0.500000  0.360952  0.468673  1
  B  B15  1  0.500000  0.638186  0.532088  1
  B  B16  1  0.500000  0.887891  0.454740  1
  B  B17  1  0.500000  0.111495  0.546602  1
  B  B18  1  0.500000  0.383039  0.044214  1
  B  B19  1  0.500000  0.610569  0.950032  1
  B  B20  1  0.500000  0.976761  0.310840  1
  B  B21  1  0.500000  0.025333  0.690337  1
  B  B22  1  0.500000  0.472880  0.193199  1
  B  B23  1  0.500000  0.522752  0.806839  1
