# generated using pymatgen
data_YTm7In3Pt
_symmetry_space_group_name_H-M   'P 1'
_cell_length_a   10.28138100
_cell_length_b   10.28138250
_cell_length_c   6.93016900
_cell_angle_alpha   90.00000000
_cell_angle_beta   90.00000000
_cell_angle_gamma   120.00000482
_symmetry_Int_Tables_number   1
_chemical_formula_structural   YTm7In3Pt
_chemical_formula_sum   'Y2 Tm14 In6 Pt2'
_cell_volume   634.42078939
_cell_formula_units_Z   2
loop_
 _symmetry_equiv_pos_site_id
 _symmetry_equiv_pos_as_xyz
  1  'x, y, z'
loop_
 _atom_site_type_symbol
 _atom_site_label
 _atom_site_symmetry_multiplicity
 _atom_site_fract_x
 _atom_site_fract_y
 _atom_site_fract_z
 _atom_site_occupancy
  Y  Y0  1  0.000000  0.000000  0.499540  1
  Y  Y1  1  0.000000  0.000000  0.999540  1
  Tm  Tm2  1  0.468897  0.531103  0.478425  1
  Tm  Tm3  1  0.062207  0.531103  0.478425  1
  Tm  Tm4  1  0.468897  0.937793  0.478425  1
  Tm  Tm5  1  0.531103  0.468897  0.978425  1
  Tm  Tm6  1  0.937793  0.468897  0.978425  1
  Tm  Tm7  1  0.531103  0.062207  0.978425  1
  Tm  Tm8  1  0.824186  0.175814  0.274110  1
  Tm  Tm9  1  0.351627  0.175814  0.274110  1
  Tm  Tm10  1  0.824186  0.648373  0.274110  1
  Tm  Tm11  1  0.175814  0.824186  0.774110  1
  Tm  Tm12  1  0.648373  0.824186  0.774110  1
  Tm  Tm13  1  0.175814  0.351627  0.774110  1
  Tm  Tm14  1  0.333333  0.666667  0.103903  1
  Tm  Tm15  1  0.666667  0.333333  0.603903  1
  In  In16  1  0.163566  0.836434  0.235018  1
  In  In17  1  0.672868  0.836434  0.235018  1
  In  In18  1  0.163566  0.327132  0.235018  1
  In  In19  1  0.836434  0.163566  0.735018  1
  In  In20  1  0.327132  0.163566  0.735018  1
  In  In21  1  0.836434  0.672868  0.735018  1
  Pt  Pt22  1  0.333333  0.666667  0.706176  1
  Pt  Pt23  1  0.666667  0.333333  0.206176  1
