# generated using pymatgen
data_YNiHgPt3
_symmetry_space_group_name_H-M   'P 1'
_cell_length_a   5.21023859
_cell_length_b   5.21023787
_cell_length_c   5.21023862
_cell_angle_alpha   62.74324586
_cell_angle_beta   62.74324843
_cell_angle_gamma   62.74323818
_symmetry_Int_Tables_number   1
_chemical_formula_structural   YNiHgPt3
_chemical_formula_sum   'Y1 Ni1 Hg1 Pt3'
_cell_volume   106.11628382
_cell_formula_units_Z   1
loop_
 _symmetry_equiv_pos_site_id
 _symmetry_equiv_pos_as_xyz
  1  'x, y, z'
loop_
 _atom_site_type_symbol
 _atom_site_label
 _atom_site_symmetry_multiplicity
 _atom_site_fract_x
 _atom_site_fract_y
 _atom_site_fract_z
 _atom_site_occupancy
  Y  Y0  1  0.000832  0.000832  0.000832  1
  Ni  Ni1  1  0.623408  0.623408  0.623408  1
  Hg  Hg2  1  0.252546  0.252546  0.252546  1
  Pt  Pt3  1  0.623980  0.623980  0.125255  1
  Pt  Pt4  1  0.623980  0.125255  0.623980  1
  Pt  Pt5  1  0.125255  0.623980  0.623980  1
