# generated using pymatgen
data_Gd2Dy2Hf3O12
_symmetry_space_group_name_H-M   'P 1'
_cell_length_a   6.32869382
_cell_length_b   6.37882272
_cell_length_c   6.59496700
_cell_angle_alpha   99.94911984
_cell_angle_beta   98.14795918
_cell_angle_gamma   99.76796644
_symmetry_Int_Tables_number   1
_chemical_formula_structural   Gd2Dy2Hf3O12
_chemical_formula_sum   'Gd2 Dy2 Hf3 O12'
_cell_volume   254.38720246
_cell_formula_units_Z   1
loop_
 _symmetry_equiv_pos_site_id
 _symmetry_equiv_pos_as_xyz
  1  'x, y, z'
loop_
 _atom_site_type_symbol
 _atom_site_label
 _atom_site_symmetry_multiplicity
 _atom_site_fract_x
 _atom_site_fract_y
 _atom_site_fract_z
 _atom_site_occupancy
  Gd  Gd0  1  0.300919  0.134067  0.609452  1
  Gd  Gd1  1  0.615109  0.301579  0.132869  1
  Dy  Dy2  1  0.697118  0.864996  0.389195  1
  Dy  Dy3  1  0.384401  0.700103  0.867025  1
  Hf  Hf4  1  0.998379  0.998383  0.999002  1
  Hf  Hf5  1  0.848448  0.399246  0.667167  1
  Hf  Hf6  1  0.152250  0.602231  0.332970  1
  O  O7  1  0.588128  0.420929  0.817751  1
  O  O8  1  0.831812  0.572888  0.428075  1
  O  O9  1  0.410095  0.806694  0.563461  1
  O  O10  1  0.411661  0.587398  0.180349  1
  O  O11  1  0.167662  0.431720  0.574602  1
  O  O12  1  0.595067  0.189882  0.437172  1
  O  O13  1  0.017410  0.679598  0.876605  1
  O  O14  1  0.918174  0.090664  0.701748  1
  O  O15  1  0.686804  0.931545  0.058581  1
  O  O16  1  0.987200  0.319538  0.124633  1
  O  O17  1  0.077527  0.906734  0.297501  1
  O  O18  1  0.311834  0.061808  0.941843  1
