# generated using pymatgen
data_Sr5CaSn8HgBi
_symmetry_space_group_name_H-M   'P 1'
_cell_length_a   8.95974779
_cell_length_b   8.95974610
_cell_length_c   8.95974715
_cell_angle_alpha   120.14058967
_cell_angle_beta   120.14059117
_cell_angle_gamma   89.75666347
_symmetry_Int_Tables_number   1
_chemical_formula_structural   Sr5CaSn8HgBi
_chemical_formula_sum   'Sr5 Ca1 Sn8 Hg1 Bi1'
_cell_volume   507.50944291
_cell_formula_units_Z   1
loop_
 _symmetry_equiv_pos_site_id
 _symmetry_equiv_pos_as_xyz
  1  'x, y, z'
loop_
 _atom_site_type_symbol
 _atom_site_label
 _atom_site_symmetry_multiplicity
 _atom_site_fract_x
 _atom_site_fract_y
 _atom_site_fract_z
 _atom_site_occupancy
  Sr  Sr0  1  0.752988  0.752988  0.000000  1
  Sr  Sr1  1  0.157012  0.661838  0.819026  1
  Sr  Sr2  1  0.842813  0.337987  0.180974  1
  Sr  Sr3  1  0.661838  0.842813  0.504826  1
  Sr  Sr4  1  0.337987  0.157012  0.495174  1
  Ca  Ca5  1  0.247293  0.247293  0.000000  1
  Sn  Sn6  1  0.830910  0.335738  0.789475  1
  Sn  Sn7  1  0.172088  0.659569  0.209076  1
  Sn  Sn8  1  0.546263  0.041434  0.210525  1
  Sn  Sn9  1  0.335738  0.546263  0.504828  1
  Sn  Sn10  1  0.963013  0.172088  0.512520  1
  Sn  Sn11  1  0.450492  0.963013  0.790924  1
  Sn  Sn12  1  0.659569  0.450492  0.487480  1
  Sn  Sn13  1  0.041434  0.830910  0.495172  1
  Hg  Hg14  1  0.494467  0.494467  0.000000  1
  Bi  Bi15  1  0.006096  0.006096  0.000000  1
