# generated using pymatgen
data_Rb2NaYAs2
_symmetry_space_group_name_H-M   'P 1'
_cell_length_a   9.44013378
_cell_length_b   9.44013313
_cell_length_c   9.44013298
_cell_angle_alpha   135.00034223
_cell_angle_beta   134.98215715
_cell_angle_gamma   65.54379705
_symmetry_Int_Tables_number   1
_chemical_formula_structural   Rb2NaYAs2
_chemical_formula_sum   'Rb4 Na2 Y2 As4'
_cell_volume   414.51773077
_cell_formula_units_Z   2
loop_
 _symmetry_equiv_pos_site_id
 _symmetry_equiv_pos_as_xyz
  1  'x, y, z'
loop_
 _atom_site_type_symbol
 _atom_site_label
 _atom_site_symmetry_multiplicity
 _atom_site_fract_x
 _atom_site_fract_y
 _atom_site_fract_z
 _atom_site_occupancy
  Rb  Rb0  1  0.683406  0.392541  0.709135  1
  Rb  Rb1  1  0.816594  0.025729  0.209135  1
  Rb  Rb2  1  0.183406  0.974271  0.790865  1
  Rb  Rb3  1  0.316594  0.607459  0.290865  1
  Na  Na4  1  0.750000  0.000000  0.750000  1
  Na  Na5  1  0.250000  0.000000  0.250000  1
  Y  Y6  1  0.250000  0.500000  0.750000  1
  Y  Y7  1  0.750000  0.500000  0.250000  1
  As  As8  1  0.406073  0.182387  0.776314  1
  As  As9  1  0.593927  0.817613  0.223686  1
  As  As10  1  0.093927  0.370241  0.276314  1
  As  As11  1  0.906073  0.629759  0.723686  1
