# generated using pymatgen
data_MnAlCrS4
_symmetry_space_group_name_H-M   'P 1'
_cell_length_a   7.13442307
_cell_length_b   7.17583834
_cell_length_c   7.17702981
_cell_angle_alpha   60.02286592
_cell_angle_beta   60.19060094
_cell_angle_gamma   60.19601535
_symmetry_Int_Tables_number   1
_chemical_formula_structural   MnAlCrS4
_chemical_formula_sum   'Mn2 Al2 Cr2 S8'
_cell_volume   260.61503598
_cell_formula_units_Z   2
loop_
 _symmetry_equiv_pos_site_id
 _symmetry_equiv_pos_as_xyz
  1  'x, y, z'
loop_
 _atom_site_type_symbol
 _atom_site_label
 _atom_site_symmetry_multiplicity
 _atom_site_fract_x
 _atom_site_fract_y
 _atom_site_fract_z
 _atom_site_occupancy
  Mn  Mn0  1  0.874811  0.875179  0.875203  1
  Mn  Mn1  1  0.125188  0.124823  0.124801  1
  Al  Al2  1  0.499998  0.500010  0.499990  1
  Al  Al3  1  0.000005  0.499995  0.500004  1
  Cr  Cr4  1  0.500010  0.499983  0.000003  1
  Cr  Cr5  1  0.499964  0.000010  0.500005  1
  S  S6  1  0.741682  0.737890  0.737823  1
  S  S7  1  0.261296  0.259216  0.718107  1
  S  S8  1  0.261364  0.718148  0.259200  1
  S  S9  1  0.717385  0.262174  0.262126  1
  S  S10  1  0.738640  0.281857  0.740785  1
  S  S11  1  0.282619  0.737808  0.737891  1
  S  S12  1  0.258328  0.262114  0.262175  1
  S  S13  1  0.738714  0.740791  0.281887  1
