# generated using pymatgen
data_LuMg3(GaPt3)3
_symmetry_space_group_name_H-M   'P 1'
_cell_length_a   4.08611400
_cell_length_b   4.08611400
_cell_length_c   14.95782700
_cell_angle_alpha   90.00000000
_cell_angle_beta   90.00000000
_cell_angle_gamma   90.00000000
_symmetry_Int_Tables_number   1
_chemical_formula_structural   LuMg3(GaPt3)3
_chemical_formula_sum   'Lu1 Mg3 Ga3 Pt9'
_cell_volume   249.74078009
_cell_formula_units_Z   1
loop_
 _symmetry_equiv_pos_site_id
 _symmetry_equiv_pos_as_xyz
  1  'x, y, z'
loop_
 _atom_site_type_symbol
 _atom_site_label
 _atom_site_symmetry_multiplicity
 _atom_site_fract_x
 _atom_site_fract_y
 _atom_site_fract_z
 _atom_site_occupancy
  Lu  Lu0  1  0.000000  0.000000  0.000000  1
  Mg  Mg1  1  0.500000  0.500000  0.255906  1
  Mg  Mg2  1  0.500000  0.500000  0.500000  1
  Mg  Mg3  1  0.500000  0.500000  0.744094  1
  Ga  Ga4  1  0.000000  0.000000  0.255720  1
  Ga  Ga5  1  0.000000  0.000000  0.500000  1
  Ga  Ga6  1  0.000000  0.000000  0.744280  1
  Pt  Pt7  1  0.500000  0.500000  0.000000  1
  Pt  Pt8  1  0.500000  0.000000  0.138312  1
  Pt  Pt9  1  0.500000  0.000000  0.379147  1
  Pt  Pt10  1  0.500000  0.000000  0.620853  1
  Pt  Pt11  1  0.500000  0.000000  0.861688  1
  Pt  Pt12  1  0.000000  0.500000  0.138312  1
  Pt  Pt13  1  0.000000  0.500000  0.379147  1
  Pt  Pt14  1  0.000000  0.500000  0.620853  1
  Pt  Pt15  1  0.000000  0.500000  0.861688  1
