# generated using pymatgen
data_Er2Co9P7Ru3
_symmetry_space_group_name_H-M   'P 1'
_cell_length_a   9.02969600
_cell_length_b   9.02969639
_cell_length_c   3.67719900
_cell_angle_alpha   90.00000000
_cell_angle_beta   90.00000000
_cell_angle_gamma   120.00000589
_symmetry_Int_Tables_number   1
_chemical_formula_structural   Er2Co9P7Ru3
_chemical_formula_sum   'Er2 Co9 P7 Ru3'
_cell_volume   259.65340176
_cell_formula_units_Z   1
loop_
 _symmetry_equiv_pos_site_id
 _symmetry_equiv_pos_as_xyz
  1  'x, y, z'
loop_
 _atom_site_type_symbol
 _atom_site_label
 _atom_site_symmetry_multiplicity
 _atom_site_fract_x
 _atom_site_fract_y
 _atom_site_fract_z
 _atom_site_occupancy
  Er  Er0  1  0.333333  0.666667  0.000000  1
  Er  Er1  1  0.000000  0.000000  0.500000  1
  Co  Co2  1  0.040806  0.271393  0.000000  1
  Co  Co3  1  0.728607  0.769413  0.000000  1
  Co  Co4  1  0.230587  0.959194  0.000000  1
  Co  Co5  1  0.542863  0.050679  0.000000  1
  Co  Co6  1  0.949321  0.492185  0.000000  1
  Co  Co7  1  0.507815  0.457137  0.000000  1
  Co  Co8  1  0.610315  0.893931  0.500000  1
  Co  Co9  1  0.106069  0.716384  0.500000  1
  Co  Co10  1  0.283616  0.389685  0.500000  1
  P  P11  1  0.778603  0.035090  0.000000  1
  P  P12  1  0.964910  0.743514  0.000000  1
  P  P13  1  0.256486  0.221397  0.000000  1
  P  P14  1  0.374202  0.924956  0.500000  1
  P  P15  1  0.075044  0.449248  0.500000  1
  P  P16  1  0.550752  0.625798  0.500000  1
  P  P17  1  0.666667  0.333333  0.000000  1
  Ru  Ru18  1  0.791987  0.232804  0.500000  1
  Ru  Ru19  1  0.767196  0.559183  0.500000  1
  Ru  Ru20  1  0.440817  0.208013  0.500000  1
