# generated using pymatgen
data_Sc10ZnPPb6
_symmetry_space_group_name_H-M   'P 1'
_cell_length_a   8.74126600
_cell_length_b   8.74126564
_cell_length_c   6.25833100
_cell_angle_alpha   90.00000000
_cell_angle_beta   90.00000000
_cell_angle_gamma   120.00000137
_symmetry_Int_Tables_number   1
_chemical_formula_structural   Sc10ZnPPb6
_chemical_formula_sum   'Sc10 Zn1 P1 Pb6'
_cell_volume   414.13106493
_cell_formula_units_Z   1
loop_
 _symmetry_equiv_pos_site_id
 _symmetry_equiv_pos_as_xyz
  1  'x, y, z'
loop_
 _atom_site_type_symbol
 _atom_site_label
 _atom_site_symmetry_multiplicity
 _atom_site_fract_x
 _atom_site_fract_y
 _atom_site_fract_z
 _atom_site_occupancy
  Sc  Sc0  1  0.333333  0.666667  0.000000  1
  Sc  Sc1  1  0.666667  0.333333  0.500000  1
  Sc  Sc2  1  0.666667  0.333333  0.000000  1
  Sc  Sc3  1  0.333333  0.666667  0.500000  1
  Sc  Sc4  1  0.249437  0.000000  0.231308  1
  Sc  Sc5  1  0.249437  0.249437  0.768692  1
  Sc  Sc6  1  0.000000  0.750563  0.768692  1
  Sc  Sc7  1  0.000000  0.249437  0.231308  1
  Sc  Sc8  1  0.750563  0.750563  0.231308  1
  Sc  Sc9  1  0.750563  0.000000  0.768692  1
  Zn  Zn10  1  0.000000  0.000000  0.500000  1
  P  P11  1  0.000000  0.000000  0.000000  1
  Pb  Pb12  1  0.608906  0.000000  0.252753  1
  Pb  Pb13  1  0.608906  0.608906  0.747247  1
  Pb  Pb14  1  0.000000  0.391094  0.747247  1
  Pb  Pb15  1  0.000000  0.608906  0.252753  1
  Pb  Pb16  1  0.391094  0.391094  0.252753  1
  Pb  Pb17  1  0.391094  0.000000  0.747247  1
