# generated using pymatgen
data_TbNdCo2Br
_symmetry_space_group_name_H-M   'P 1'
_cell_length_a   3.93951800
_cell_length_b   3.93951779
_cell_length_c   16.76524100
_cell_angle_alpha   90.00000000
_cell_angle_beta   90.00000000
_cell_angle_gamma   119.99998498
_symmetry_Int_Tables_number   1
_chemical_formula_structural   TbNdCo2Br
_chemical_formula_sum   'Tb2 Nd2 Co4 Br2'
_cell_volume   225.33396217
_cell_formula_units_Z   2
loop_
 _symmetry_equiv_pos_site_id
 _symmetry_equiv_pos_as_xyz
  1  'x, y, z'
loop_
 _atom_site_type_symbol
 _atom_site_label
 _atom_site_symmetry_multiplicity
 _atom_site_fract_x
 _atom_site_fract_y
 _atom_site_fract_z
 _atom_site_occupancy
  Tb  Tb0  1  0.000000  0.000000  0.605622  1
  Tb  Tb1  1  0.000000  0.000000  0.394378  1
  Nd  Nd2  1  0.000000  0.000000  0.111768  1
  Nd  Nd3  1  0.000000  0.000000  0.888232  1
  Co  Co4  1  0.333333  0.666667  0.502275  1
  Co  Co5  1  0.666667  0.333333  0.497725  1
  Co  Co6  1  0.666667  0.333333  0.000026  1
  Co  Co7  1  0.333333  0.666667  0.999974  1
  Br  Br8  1  0.333333  0.666667  0.257458  1
  Br  Br9  1  0.666667  0.333333  0.742542  1
