# generated using pymatgen
data_Cs2KInBi2
_symmetry_space_group_name_H-M   'P 1'
_cell_length_a   11.88869022
_cell_length_b   11.88869104
_cell_length_c   7.91394473
_cell_angle_alpha   90.01345887
_cell_angle_beta   89.98654094
_cell_angle_gamma   99.14678907
_symmetry_Int_Tables_number   1
_chemical_formula_structural   Cs2KInBi2
_chemical_formula_sum   'Cs8 K4 In4 Bi8'
_cell_volume   1104.34122392
_cell_formula_units_Z   4
loop_
 _symmetry_equiv_pos_site_id
 _symmetry_equiv_pos_as_xyz
  1  'x, y, z'
loop_
 _atom_site_type_symbol
 _atom_site_label
 _atom_site_symmetry_multiplicity
 _atom_site_fract_x
 _atom_site_fract_y
 _atom_site_fract_z
 _atom_site_occupancy
  Cs  Cs0  1  0.080758  0.419164  0.249531  1
  Cs  Cs1  1  0.419164  0.080758  0.750469  1
  Cs  Cs2  1  0.920046  0.580657  0.750443  1
  Cs  Cs3  1  0.580657  0.920046  0.249557  1
  Cs  Cs4  1  0.672735  0.326904  0.222467  1
  Cs  Cs5  1  0.826754  0.172816  0.723352  1
  Cs  Cs6  1  0.326904  0.672735  0.777533  1
  Cs  Cs7  1  0.172816  0.826754  0.276648  1
  K  K8  1  0.117021  0.117021  0.500000  1
  K  K9  1  0.617428  0.617428  0.000000  1
  K  K10  1  0.882648  0.882648  0.500000  1
  K  K11  1  0.382823  0.382823  0.000000  1
  In  In12  1  0.131186  0.131186  0.000000  1
  In  In13  1  0.368902  0.368902  0.500000  1
  In  In14  1  0.867611  0.867611  0.000000  1
  In  In15  1  0.632460  0.632460  0.500000  1
  Bi  Bi16  1  0.850064  0.649926  0.250049  1
  Bi  Bi17  1  0.649926  0.850064  0.749951  1
  Bi  Bi18  1  0.150141  0.349637  0.749981  1
  Bi  Bi19  1  0.349637  0.150141  0.250019  1
  Bi  Bi20  1  0.900276  0.098877  0.181940  1
  Bi  Bi21  1  0.599960  0.401205  0.681499  1
  Bi  Bi22  1  0.098877  0.900276  0.818060  1
  Bi  Bi23  1  0.401205  0.599960  0.318501  1
