# generated using pymatgen
data_Hf3TiBi4F28
_symmetry_space_group_name_H-M   'P 1'
_cell_length_a   5.76342320
_cell_length_b   9.29709835
_cell_length_c   12.39236600
_cell_angle_alpha   61.87884903
_cell_angle_beta   89.98493897
_cell_angle_gamma   89.89582533
_symmetry_Int_Tables_number   1
_chemical_formula_structural   Hf3TiBi4F28
_chemical_formula_sum   'Hf3 Ti1 Bi4 F28'
_cell_volume   585.63464123
_cell_formula_units_Z   1
loop_
 _symmetry_equiv_pos_site_id
 _symmetry_equiv_pos_as_xyz
  1  'x, y, z'
loop_
 _atom_site_type_symbol
 _atom_site_label
 _atom_site_symmetry_multiplicity
 _atom_site_fract_x
 _atom_site_fract_y
 _atom_site_fract_z
 _atom_site_occupancy
  Hf  Hf0  1  0.756862  0.275912  0.956741  1
  Hf  Hf1  1  0.256509  0.724396  0.542776  1
  Hf  Hf2  1  0.243966  0.726062  0.042209  1
  Ti  Ti3  1  0.741567  0.274359  0.456855  1
  Bi  Bi4  1  0.758922  0.821331  0.759316  1
  Bi  Bi5  1  0.261060  0.183878  0.733975  1
  Bi  Bi6  1  0.242688  0.184715  0.242102  1
  Bi  Bi7  1  0.743014  0.817495  0.262830  1
  F  F8  1  0.452353  0.712026  0.918777  1
  F  F9  1  0.934782  0.286537  0.574157  1
  F  F10  1  0.544280  0.288436  0.079864  1
  F  F11  1  0.050011  0.711332  0.418230  1
  F  F12  1  0.465585  0.277451  0.542015  1
  F  F13  1  0.954203  0.723620  0.951281  1
  F  F14  1  0.547670  0.719213  0.454412  1
  F  F15  1  0.042758  0.277362  0.050215  1
  F  F16  1  0.771642  0.517269  0.860596  1
  F  F17  1  0.268857  0.482268  0.637965  1
  F  F18  1  0.226002  0.484540  0.140597  1
  F  F19  1  0.729652  0.500461  0.365725  1
  F  F20  1  0.759822  0.029388  0.058705  1
  F  F21  1  0.261924  0.970406  0.444882  1
  F  F22  1  0.238598  0.972154  0.939610  1
  F  F23  1  0.737405  0.039593  0.553492  1
  F  F24  1  0.979722  0.734712  0.637309  1
  F  F25  1  0.485917  0.264921  0.858509  1
  F  F26  1  0.002951  0.262404  0.368277  1
  F  F27  1  0.517304  0.734725  0.139169  1
  F  F28  1  0.045191  0.750580  0.167114  1
  F  F29  1  0.551113  0.251688  0.337895  1
  F  F30  1  0.960626  0.252533  0.832949  1
  F  F31  1  0.454808  0.745907  0.668723  1
  F  F32  1  0.413665  0.972213  0.232975  1
  F  F33  1  0.913920  0.028292  0.271662  1
  F  F34  1  0.591036  0.032704  0.771283  1
  F  F35  1  0.093614  0.969119  0.726812  1
