# generated using pymatgen
data_YU(ZnRu)2
_symmetry_space_group_name_H-M   'P 1'
_cell_length_a   3.65598800
_cell_length_b   7.18940747
_cell_length_c   8.51848639
_cell_angle_alpha   93.40713387
_cell_angle_beta   90.00000000
_cell_angle_gamma   90.00000000
_symmetry_Int_Tables_number   1
_chemical_formula_structural   YU(ZnRu)2
_chemical_formula_sum   'Y2 U2 Zn4 Ru4'
_cell_volume   223.50743338
_cell_formula_units_Z   2
loop_
 _symmetry_equiv_pos_site_id
 _symmetry_equiv_pos_as_xyz
  1  'x, y, z'
loop_
 _atom_site_type_symbol
 _atom_site_label
 _atom_site_symmetry_multiplicity
 _atom_site_fract_x
 _atom_site_fract_y
 _atom_site_fract_z
 _atom_site_occupancy
  Y  Y0  1  0.750000  0.942113  0.682337  1
  Y  Y1  1  0.250000  0.057887  0.317663  1
  U  U2  1  0.250000  0.546023  0.188193  1
  U  U3  1  0.750000  0.453977  0.811807  1
  Zn  Zn4  1  0.250000  0.626125  0.554296  1
  Zn  Zn5  1  0.750000  0.373875  0.445704  1
  Zn  Zn6  1  0.750000  0.883383  0.061935  1
  Zn  Zn7  1  0.250000  0.116617  0.938065  1
  Ru  Ru8  1  0.250000  0.704151  0.874806  1
  Ru  Ru9  1  0.750000  0.295849  0.125194  1
  Ru  Ru10  1  0.750000  0.735607  0.343323  1
  Ru  Ru11  1  0.250000  0.264393  0.656677  1
