# generated using pymatgen
data_YbThOsC2
_symmetry_space_group_name_H-M   'P 1'
_cell_length_a   5.17814300
_cell_length_b   6.36610000
_cell_length_c   10.54569800
_cell_angle_alpha   90.00000000
_cell_angle_beta   90.00000000
_cell_angle_gamma   90.00000000
_symmetry_Int_Tables_number   1
_chemical_formula_structural   YbThOsC2
_chemical_formula_sum   'Yb4 Th4 Os4 C8'
_cell_volume   347.63446480
_cell_formula_units_Z   4
loop_
 _symmetry_equiv_pos_site_id
 _symmetry_equiv_pos_as_xyz
  1  'x, y, z'
loop_
 _atom_site_type_symbol
 _atom_site_label
 _atom_site_symmetry_multiplicity
 _atom_site_fract_x
 _atom_site_fract_y
 _atom_site_fract_z
 _atom_site_occupancy
  Yb  Yb0  1  0.250000  0.525557  0.236126  1
  Yb  Yb1  1  0.750000  0.474443  0.763874  1
  Yb  Yb2  1  0.750000  0.974443  0.736126  1
  Yb  Yb3  1  0.250000  0.025557  0.263874  1
  Th  Th4  1  0.250000  0.709740  0.552313  1
  Th  Th5  1  0.750000  0.290260  0.447687  1
  Th  Th6  1  0.750000  0.790260  0.052313  1
  Th  Th7  1  0.250000  0.209740  0.947687  1
  Os  Os8  1  0.250000  0.734044  0.856289  1
  Os  Os9  1  0.750000  0.265956  0.143711  1
  Os  Os10  1  0.750000  0.765956  0.356289  1
  Os  Os11  1  0.250000  0.234044  0.643711  1
  C  C12  1  0.250000  0.479565  0.753500  1
  C  C13  1  0.750000  0.520435  0.246500  1
  C  C14  1  0.750000  0.020435  0.253500  1
  C  C15  1  0.250000  0.979565  0.746500  1
  C  C16  1  0.250000  0.811951  0.039338  1
  C  C17  1  0.750000  0.188049  0.960662  1
  C  C18  1  0.750000  0.688049  0.539338  1
  C  C19  1  0.250000  0.311951  0.460662  1
