# generated using pymatgen
data_Ho20MnCd6Rh
_symmetry_space_group_name_H-M   'P 1'
_cell_length_a   9.57878500
_cell_length_b   9.57878462
_cell_length_c   9.77586500
_cell_angle_alpha   90.00000000
_cell_angle_beta   90.00000000
_cell_angle_gamma   119.99999785
_symmetry_Int_Tables_number   1
_chemical_formula_structural   Ho20MnCd6Rh
_chemical_formula_sum   'Ho20 Mn1 Cd6 Rh1'
_cell_volume   776.79544522
_cell_formula_units_Z   1
loop_
 _symmetry_equiv_pos_site_id
 _symmetry_equiv_pos_as_xyz
  1  'x, y, z'
loop_
 _atom_site_type_symbol
 _atom_site_label
 _atom_site_symmetry_multiplicity
 _atom_site_fract_x
 _atom_site_fract_y
 _atom_site_fract_z
 _atom_site_occupancy
  Ho  Ho0  1  0.000000  0.000000  0.500278  1
  Ho  Ho1  1  0.000000  0.000000  0.999722  1
  Ho  Ho2  1  0.209365  0.790635  0.441139  1
  Ho  Ho3  1  0.209365  0.418731  0.441139  1
  Ho  Ho4  1  0.581269  0.790635  0.441139  1
  Ho  Ho5  1  0.788202  0.211798  0.562941  1
  Ho  Ho6  1  0.788202  0.576402  0.562941  1
  Ho  Ho7  1  0.423598  0.211798  0.562941  1
  Ho  Ho8  1  0.788202  0.211798  0.937059  1
  Ho  Ho9  1  0.788202  0.576402  0.937059  1
  Ho  Ho10  1  0.423598  0.211798  0.937059  1
  Ho  Ho11  1  0.209365  0.790635  0.058861  1
  Ho  Ho12  1  0.209365  0.418731  0.058861  1
  Ho  Ho13  1  0.581269  0.790635  0.058861  1
  Ho  Ho14  1  0.542372  0.457628  0.250000  1
  Ho  Ho15  1  0.542372  0.084745  0.250000  1
  Ho  Ho16  1  0.915255  0.457628  0.250000  1
  Ho  Ho17  1  0.460571  0.539429  0.750000  1
  Ho  Ho18  1  0.460571  0.921142  0.750000  1
  Ho  Ho19  1  0.078858  0.539429  0.750000  1
  Mn  Mn20  1  0.666667  0.333333  0.750000  1
  Cd  Cd21  1  0.885515  0.114485  0.250000  1
  Cd  Cd22  1  0.885515  0.771033  0.250000  1
  Cd  Cd23  1  0.228967  0.114485  0.250000  1
  Cd  Cd24  1  0.114575  0.885425  0.750000  1
  Cd  Cd25  1  0.114575  0.229149  0.750000  1
  Cd  Cd26  1  0.770851  0.885425  0.750000  1
  Rh  Rh27  1  0.333333  0.666667  0.250000  1
