# generated using pymatgen
data_Yb3ErNi13C4
_symmetry_space_group_name_H-M   'P 1'
_cell_length_a   8.27824705
_cell_length_b   8.27824814
_cell_length_c   3.84856600
_cell_angle_alpha   90.00000000
_cell_angle_beta   90.00000000
_cell_angle_gamma   90.71230686
_symmetry_Int_Tables_number   1
_chemical_formula_structural   Yb3ErNi13C4
_chemical_formula_sum   'Yb3 Er1 Ni13 C4'
_cell_volume   263.71947310
_cell_formula_units_Z   1
loop_
 _symmetry_equiv_pos_site_id
 _symmetry_equiv_pos_as_xyz
  1  'x, y, z'
loop_
 _atom_site_type_symbol
 _atom_site_label
 _atom_site_symmetry_multiplicity
 _atom_site_fract_x
 _atom_site_fract_y
 _atom_site_fract_z
 _atom_site_occupancy
  Yb  Yb0  1  0.191926  0.808074  0.500000  1
  Yb  Yb1  1  0.347259  0.350072  0.500000  1
  Yb  Yb2  1  0.649928  0.652741  0.500000  1
  Er  Er3  1  0.812529  0.187471  0.500000  1
  Ni  Ni4  1  0.000187  0.999813  0.000000  1
  Ni  Ni5  1  0.215884  0.572961  0.000000  1
  Ni  Ni6  1  0.784379  0.428497  0.000000  1
  Ni  Ni7  1  0.427039  0.784116  0.000000  1
  Ni  Ni8  1  0.571503  0.215621  0.000000  1
  Ni  Ni9  1  0.998641  0.499353  0.500000  1
  Ni  Ni10  1  0.500647  0.001359  0.500000  1
  Ni  Ni11  1  0.072038  0.289557  0.000000  1
  Ni  Ni12  1  0.925495  0.711392  0.000000  1
  Ni  Ni13  1  0.710443  0.927962  0.000000  1
  Ni  Ni14  1  0.288608  0.074505  0.000000  1
  Ni  Ni15  1  0.125474  0.119962  0.500000  1
  Ni  Ni16  1  0.880038  0.874526  0.500000  1
  C  C17  1  0.000539  0.502028  0.000000  1
  C  C18  1  0.497972  0.999461  0.000000  1
  C  C19  1  0.443083  0.556917  0.000000  1
  C  C20  1  0.556390  0.443610  0.000000  1
