# generated using pymatgen
data_Lu4InPd6Pt5
_symmetry_space_group_name_H-M   'P 1'
_cell_length_a   4.11390600
_cell_length_b   5.71344870
_cell_length_c   11.38612900
_cell_angle_alpha   87.06066001
_cell_angle_beta   90.00000000
_cell_angle_gamma   90.00000000
_symmetry_Int_Tables_number   1
_chemical_formula_structural   Lu4InPd6Pt5
_chemical_formula_sum   'Lu4 In1 Pd6 Pt5'
_cell_volume   267.27421070
_cell_formula_units_Z   1
loop_
 _symmetry_equiv_pos_site_id
 _symmetry_equiv_pos_as_xyz
  1  'x, y, z'
loop_
 _atom_site_type_symbol
 _atom_site_label
 _atom_site_symmetry_multiplicity
 _atom_site_fract_x
 _atom_site_fract_y
 _atom_site_fract_z
 _atom_site_occupancy
  Lu  Lu0  1  0.500000  0.756157  0.375767  1
  Lu  Lu1  1  0.500000  0.715498  0.860417  1
  Lu  Lu2  1  0.500000  0.284502  0.139583  1
  Lu  Lu3  1  0.500000  0.243843  0.624233  1
  In  In4  1  0.000000  0.000000  0.000000  1
  Pd  Pd5  1  0.000000  0.500000  0.500000  1
  Pd  Pd6  1  0.500000  0.255535  0.377932  1
  Pd  Pd7  1  0.500000  0.225189  0.882002  1
  Pd  Pd8  1  0.500000  0.774811  0.117998  1
  Pd  Pd9  1  0.500000  0.744465  0.622068  1
  Pd  Pd10  1  0.000000  0.000000  0.500000  1
  Pt  Pt11  1  0.000000  0.015241  0.250485  1
  Pt  Pt12  1  0.000000  0.984759  0.749515  1
  Pt  Pt13  1  0.000000  0.500000  0.000000  1
  Pt  Pt14  1  0.000000  0.519711  0.250683  1
  Pt  Pt15  1  0.000000  0.480289  0.749317  1
