# generated using pymatgen
data_Y3Cd3IrPb2
_symmetry_space_group_name_H-M   'P 1'
_cell_length_a   8.16285400
_cell_length_b   8.16285456
_cell_length_c   3.96339100
_cell_angle_alpha   90.00000000
_cell_angle_beta   90.00000000
_cell_angle_gamma   120.00000584
_symmetry_Int_Tables_number   1
_chemical_formula_structural   Y3Cd3IrPb2
_chemical_formula_sum   'Y3 Cd3 Ir1 Pb2'
_cell_volume   228.70813498
_cell_formula_units_Z   1
loop_
 _symmetry_equiv_pos_site_id
 _symmetry_equiv_pos_as_xyz
  1  'x, y, z'
loop_
 _atom_site_type_symbol
 _atom_site_label
 _atom_site_symmetry_multiplicity
 _atom_site_fract_x
 _atom_site_fract_y
 _atom_site_fract_z
 _atom_site_occupancy
  Y  Y0  1  0.573864  0.956498  0.000000  1
  Y  Y1  1  0.043502  0.617366  0.000000  1
  Y  Y2  1  0.382634  0.426136  0.000000  1
  Cd  Cd3  1  0.276035  0.987017  0.500000  1
  Cd  Cd4  1  0.012983  0.289019  0.500000  1
  Cd  Cd5  1  0.710981  0.723965  0.500000  1
  Ir  Ir6  1  0.333333  0.666667  0.500000  1
  Pb  Pb7  1  0.666667  0.333333  0.500000  1
  Pb  Pb8  1  0.000000  0.000000  0.000000  1
