# generated using pymatgen
data_Sr3NdPt6O19
_symmetry_space_group_name_H-M   'P 1'
_cell_length_a   8.05378527
_cell_length_b   8.05378524
_cell_length_c   8.05378501
_cell_angle_alpha   109.43076238
_cell_angle_beta   109.43076102
_cell_angle_gamma   109.43075491
_symmetry_Int_Tables_number   1
_chemical_formula_structural   Sr3NdPt6O19
_chemical_formula_sum   'Sr3 Nd1 Pt6 O19'
_cell_volume   402.74218274
_cell_formula_units_Z   1
loop_
 _symmetry_equiv_pos_site_id
 _symmetry_equiv_pos_as_xyz
  1  'x, y, z'
loop_
 _atom_site_type_symbol
 _atom_site_label
 _atom_site_symmetry_multiplicity
 _atom_site_fract_x
 _atom_site_fract_y
 _atom_site_fract_z
 _atom_site_occupancy
  Sr  Sr0  1  0.303403  0.998606  0.997329  1
  Sr  Sr1  1  0.997329  0.303403  0.998606  1
  Sr  Sr2  1  0.998606  0.997329  0.303402  1
  Nd  Nd3  1  0.695974  0.695974  0.695974  1
  Pt  Pt4  1  0.660619  0.500091  0.161497  1
  Pt  Pt5  1  0.501254  0.842033  0.341846  1
  Pt  Pt6  1  0.842033  0.341847  0.501254  1
  Pt  Pt7  1  0.161497  0.660619  0.500092  1
  Pt  Pt8  1  0.500091  0.161497  0.660619  1
  Pt  Pt9  1  0.341846  0.501254  0.842033  1
  O  O10  1  0.969201  0.969201  0.969201  1
  O  O11  1  0.353890  0.354337  0.002165  1
  O  O12  1  0.648247  0.646521  0.997891  1
  O  O13  1  0.322447  0.703553  0.043462  1
  O  O14  1  0.958728  0.657691  0.277334  1
  O  O15  1  0.703553  0.043461  0.322447  1
  O  O16  1  0.618167  0.344739  0.304684  1
  O  O17  1  0.354338  0.002165  0.353890  1
  O  O18  1  0.002165  0.353891  0.354337  1
  O  O19  1  0.304684  0.618167  0.344738  1
  O  O20  1  0.682822  0.723107  0.388373  1
  O  O21  1  0.344739  0.304684  0.618167  1
  O  O22  1  0.277334  0.958728  0.657691  1
  O  O23  1  0.646520  0.997891  0.648247  1
  O  O24  1  0.997891  0.648246  0.646521  1
  O  O25  1  0.043461  0.322447  0.703553  1
  O  O26  1  0.723107  0.388373  0.682822  1
  O  O27  1  0.388373  0.682822  0.723107  1
  O  O28  1  0.657691  0.277334  0.958727  1
