# generated using pymatgen
data_YZn2Pt2Au
_symmetry_space_group_name_H-M   'P 1'
_cell_length_a   5.25514476
_cell_length_b   5.23591557
_cell_length_c   5.23591600
_cell_angle_alpha   63.96710229
_cell_angle_beta   59.87844192
_cell_angle_gamma   59.87843323
_symmetry_Int_Tables_number   1
_chemical_formula_structural   YZn2Pt2Au
_chemical_formula_sum   'Y1 Zn2 Pt2 Au1'
_cell_volume   104.36362737
_cell_formula_units_Z   1
loop_
 _symmetry_equiv_pos_site_id
 _symmetry_equiv_pos_as_xyz
  1  'x, y, z'
loop_
 _atom_site_type_symbol
 _atom_site_label
 _atom_site_symmetry_multiplicity
 _atom_site_fract_x
 _atom_site_fract_y
 _atom_site_fract_z
 _atom_site_occupancy
  Y  Y0  1  0.990427  0.009573  0.009573  1
  Zn  Zn1  1  0.132218  0.617144  0.617144  1
  Zn  Zn2  1  0.633494  0.617144  0.617144  1
  Pt  Pt3  1  0.628288  0.622967  0.120457  1
  Pt  Pt4  1  0.628288  0.120457  0.622967  1
  Au  Au5  1  0.237285  0.262715  0.262715  1
