# generated using pymatgen
data_Y5Tm7Tc3Ni
_symmetry_space_group_name_H-M   'P 1'
_cell_length_a   6.20453756
_cell_length_b   7.33802429
_cell_length_c   9.05436287
_cell_angle_alpha   89.93909404
_cell_angle_beta   89.83096036
_cell_angle_gamma   89.63918948
_symmetry_Int_Tables_number   1
_chemical_formula_structural   Y5Tm7Tc3Ni
_chemical_formula_sum   'Y5 Tm7 Tc3 Ni1'
_cell_volume   412.22632297
_cell_formula_units_Z   1
loop_
 _symmetry_equiv_pos_site_id
 _symmetry_equiv_pos_as_xyz
  1  'x, y, z'
loop_
 _atom_site_type_symbol
 _atom_site_label
 _atom_site_symmetry_multiplicity
 _atom_site_fract_x
 _atom_site_fract_y
 _atom_site_fract_z
 _atom_site_occupancy
  Y  Y0  1  0.637700  0.040047  0.251317  1
  Y  Y1  1  0.375010  0.960209  0.748769  1
  Y  Y2  1  0.120287  0.462478  0.748659  1
  Y  Y3  1  0.876032  0.542251  0.250251  1
  Y  Y4  1  0.164362  0.177485  0.062036  1
  Tm  Tm5  1  0.829925  0.822080  0.932726  1
  Tm  Tm6  1  0.662042  0.322839  0.937649  1
  Tm  Tm7  1  0.831223  0.821791  0.565107  1
  Tm  Tm8  1  0.337638  0.675830  0.061343  1
  Tm  Tm9  1  0.163228  0.177048  0.438196  1
  Tm  Tm10  1  0.337660  0.677498  0.438479  1
  Tm  Tm11  1  0.659639  0.322967  0.561976  1
  Tc  Tc12  1  0.455679  0.387884  0.251357  1
  Tc  Tc13  1  0.544394  0.613739  0.750584  1
  Tc  Tc14  1  0.952782  0.111435  0.747414  1
  Ni  Ni15  1  0.052399  0.884416  0.254136  1
