# generated using pymatgen
data_Dy3Sc3ReBi2
_symmetry_space_group_name_H-M   'P 1'
_cell_length_a   4.28301600
_cell_length_b   7.96719129
_cell_length_c   7.96719100
_cell_angle_alpha   119.99998635
_cell_angle_beta   90.00000000
_cell_angle_gamma   90.00000000
_symmetry_Int_Tables_number   1
_chemical_formula_structural   Dy3Sc3ReBi2
_chemical_formula_sum   'Dy3 Sc3 Re1 Bi2'
_cell_volume   235.44575321
_cell_formula_units_Z   1
loop_
 _symmetry_equiv_pos_site_id
 _symmetry_equiv_pos_as_xyz
  1  'x, y, z'
loop_
 _atom_site_type_symbol
 _atom_site_label
 _atom_site_symmetry_multiplicity
 _atom_site_fract_x
 _atom_site_fract_y
 _atom_site_fract_z
 _atom_site_occupancy
  Dy  Dy0  1  0.000000  0.390047  0.390047  1
  Dy  Dy1  1  0.000000  0.000000  0.609953  1
  Dy  Dy2  1  0.000000  0.609953  0.000000  1
  Sc  Sc3  1  0.500000  0.776831  0.776831  1
  Sc  Sc4  1  0.500000  0.000000  0.223169  1
  Sc  Sc5  1  0.500000  0.223169  0.000000  1
  Re  Re6  1  0.000000  0.000000  0.000000  1
  Bi  Bi7  1  0.500000  0.666667  0.333333  1
  Bi  Bi8  1  0.500000  0.333333  0.666667  1
