# generated using pymatgen
data_YbVSiO5
_symmetry_space_group_name_H-M   'P 1'
_cell_length_a   5.45609033
_cell_length_b   7.43752281
_cell_length_c   9.82384513
_cell_angle_alpha   75.88585625
_cell_angle_beta   91.03751400
_cell_angle_gamma   72.09975871
_symmetry_Int_Tables_number   1
_chemical_formula_structural   YbVSiO5
_chemical_formula_sum   'Yb4 V4 Si4 O20'
_cell_volume   366.02513049
_cell_formula_units_Z   4
loop_
 _symmetry_equiv_pos_site_id
 _symmetry_equiv_pos_as_xyz
  1  'x, y, z'
loop_
 _atom_site_type_symbol
 _atom_site_label
 _atom_site_symmetry_multiplicity
 _atom_site_fract_x
 _atom_site_fract_y
 _atom_site_fract_z
 _atom_site_occupancy
  Yb  Yb0  1  0.128067  0.540667  0.209403  1
  Yb  Yb1  1  0.628181  0.040566  0.709275  1
  Yb  Yb2  1  0.871968  0.459334  0.790617  1
  Yb  Yb3  1  0.371948  0.959349  0.290615  1
  V  V4  1  0.499939  0.499870  0.500077  1
  V  V5  1  0.249835  0.750123  0.750063  1
  V  V6  1  0.999908  0.000282  0.000127  1
  V  V7  1  0.749803  0.250130  0.250075  1
  Si  Si8  1  0.603846  0.715557  0.034719  1
  Si  Si9  1  0.103893  0.215437  0.534867  1
  Si  Si10  1  0.396140  0.284529  0.965110  1
  Si  Si11  1  0.896153  0.784447  0.465222  1
  O  O12  1  0.523337  0.408316  0.341333  1
  O  O13  1  0.023256  0.908390  0.841304  1
  O  O14  1  0.476861  0.591584  0.658675  1
  O  O15  1  0.976591  0.091617  0.158678  1
  O  O16  1  0.792489  0.828659  0.083360  1
  O  O17  1  0.292464  0.328604  0.583428  1
  O  O18  1  0.207482  0.171370  0.916617  1
  O  O19  1  0.707579  0.671309  0.416608  1
  O  O20  1  0.770649  0.483810  0.104833  1
  O  O21  1  0.270606  0.983904  0.604822  1
  O  O22  1  0.229498  0.516038  0.895148  1
  O  O23  1  0.729372  0.016227  0.395173  1
  O  O24  1  0.564469  0.754342  0.861641  1
  O  O25  1  0.064454  0.254384  0.361576  1
  O  O26  1  0.435559  0.245682  0.138388  1
  O  O27  1  0.935602  0.745611  0.638291  1
  O  O28  1  0.324429  0.782944  0.101623  1
  O  O29  1  0.824481  0.282967  0.601669  1
  O  O30  1  0.675559  0.216958  0.898303  1
  O  O31  1  0.175581  0.716993  0.398361  1
