# generated using pymatgen
data_Er2Tl2Pd3PtF28
_symmetry_space_group_name_H-M   'P 1'
_cell_length_a   5.48519857
_cell_length_b   8.79565825
_cell_length_c   11.90809550
_cell_angle_alpha   62.69050195
_cell_angle_beta   90.00670497
_cell_angle_gamma   90.00112299
_symmetry_Int_Tables_number   1
_chemical_formula_structural   Er2Tl2Pd3PtF28
_chemical_formula_sum   'Er2 Tl2 Pd3 Pt1 F28'
_cell_volume   510.48216254
_cell_formula_units_Z   1
loop_
 _symmetry_equiv_pos_site_id
 _symmetry_equiv_pos_as_xyz
  1  'x, y, z'
loop_
 _atom_site_type_symbol
 _atom_site_label
 _atom_site_symmetry_multiplicity
 _atom_site_fract_x
 _atom_site_fract_y
 _atom_site_fract_z
 _atom_site_occupancy
  Er  Er0  1  0.237533  0.186280  0.234295  1
  Er  Er1  1  0.737404  0.814828  0.263752  1
  Tl  Tl2  1  0.762637  0.812767  0.764159  1
  Tl  Tl3  1  0.262414  0.185742  0.737906  1
  Pd  Pd4  1  0.758996  0.272706  0.956983  1
  Pd  Pd5  1  0.259688  0.727011  0.543250  1
  Pd  Pd6  1  0.239991  0.726185  0.044537  1
  Pt  Pt7  1  0.740279  0.273688  0.455823  1
  F  F8  1  0.428945  0.695614  0.918590  1
  F  F9  1  0.928729  0.306203  0.582547  1
  F  F10  1  0.567014  0.298323  0.084506  1
  F  F11  1  0.066958  0.702055  0.415535  1
  F  F12  1  0.430880  0.281465  0.536650  1
  F  F13  1  0.933116  0.718883  0.963661  1
  F  F14  1  0.562809  0.724444  0.457334  1
  F  F15  1  0.063251  0.276152  0.041528  1
  F  F16  1  0.784705  0.521934  0.856492  1
  F  F17  1  0.286353  0.477503  0.644145  1
  F  F18  1  0.222488  0.477175  0.141991  1
  F  F19  1  0.724639  0.524295  0.357261  1
  F  F20  1  0.753361  0.024363  0.048962  1
  F  F21  1  0.253311  0.975746  0.450147  1
  F  F22  1  0.247839  0.973965  0.956056  1
  F  F23  1  0.747316  0.023674  0.544744  1
  F  F24  1  0.957875  0.717552  0.632885  1
  F  F25  1  0.456218  0.281178  0.868599  1
  F  F26  1  0.038913  0.275352  0.363924  1
  F  F27  1  0.536273  0.723683  0.135938  1
  F  F28  1  0.053004  0.745562  0.177426  1
  F  F29  1  0.552557  0.253897  0.321916  1
  F  F30  1  0.937758  0.258780  0.819019  1
  F  F31  1  0.438284  0.740880  0.681676  1
  F  F32  1  0.414529  0.970671  0.231460  1
  F  F33  1  0.914428  0.030527  0.266994  1
  F  F34  1  0.600476  0.035279  0.771391  1
  F  F35  1  0.099031  0.965640  0.727915  1
