# generated using pymatgen
data_DyTm5Co16(P6Ru)2
_symmetry_space_group_name_H-M   'P 1'
_cell_length_a   3.68846900
_cell_length_b   10.49565700
_cell_length_c   12.20688300
_cell_angle_alpha   90.00000000
_cell_angle_beta   90.00000000
_cell_angle_gamma   90.00000000
_symmetry_Int_Tables_number   1
_chemical_formula_structural   DyTm5Co16(P6Ru)2
_chemical_formula_sum   'Dy1 Tm5 Co16 P12 Ru2'
_cell_volume   472.56390777
_cell_formula_units_Z   1
loop_
 _symmetry_equiv_pos_site_id
 _symmetry_equiv_pos_as_xyz
  1  'x, y, z'
loop_
 _atom_site_type_symbol
 _atom_site_label
 _atom_site_symmetry_multiplicity
 _atom_site_fract_x
 _atom_site_fract_y
 _atom_site_fract_z
 _atom_site_occupancy
  Dy  Dy0  1  0.000000  0.500000  0.525086  1
  Tm  Tm1  1  0.500000  0.000000  0.475116  1
  Tm  Tm2  1  0.500000  0.817545  0.206939  1
  Tm  Tm3  1  0.500000  0.182455  0.206939  1
  Tm  Tm4  1  0.000000  0.682788  0.793230  1
  Tm  Tm5  1  0.000000  0.317212  0.793230  1
  Co  Co6  1  0.500000  0.500000  0.704561  1
  Co  Co7  1  0.000000  0.000000  0.296297  1
  Co  Co8  1  0.000000  0.500000  0.986157  1
  Co  Co9  1  0.500000  0.000000  0.013977  1
  Co  Co10  1  0.500000  0.332201  0.990215  1
  Co  Co11  1  0.500000  0.667799  0.990215  1
  Co  Co12  1  0.000000  0.167571  0.009792  1
  Co  Co13  1  0.000000  0.832429  0.009792  1
  Co  Co14  1  0.500000  0.296386  0.431101  1
  Co  Co15  1  0.500000  0.703614  0.431101  1
  Co  Co16  1  0.000000  0.202160  0.568729  1
  Co  Co17  1  0.000000  0.797840  0.568729  1
  Co  Co18  1  0.500000  0.878520  0.707488  1
  Co  Co19  1  0.500000  0.121480  0.707488  1
  Co  Co20  1  0.000000  0.621887  0.292227  1
  Co  Co21  1  0.000000  0.378113  0.292227  1
  P  P22  1  0.500000  0.500000  0.881226  1
  P  P23  1  0.000000  0.000000  0.119040  1
  P  P24  1  0.500000  0.500000  0.350490  1
  P  P25  1  0.000000  0.000000  0.648495  1
  P  P26  1  0.500000  0.311638  0.617051  1
  P  P27  1  0.500000  0.688362  0.617051  1
  P  P28  1  0.000000  0.187340  0.383349  1
  P  P29  1  0.000000  0.812660  0.383349  1
  P  P30  1  0.500000  0.846141  0.892639  1
  P  P31  1  0.500000  0.153859  0.892639  1
  P  P32  1  0.000000  0.654130  0.107279  1
  P  P33  1  0.000000  0.345870  0.107279  1
  Ru  Ru34  1  0.500000  0.500000  0.159380  1
  Ru  Ru35  1  0.000000  0.000000  0.840095  1
