# generated using pymatgen
data_Nb12V5Fe7N4
_symmetry_space_group_name_H-M   'P 1'
_cell_length_a   8.14410763
_cell_length_b   8.12911283
_cell_length_c   8.12911300
_cell_angle_alpha   60.00000340
_cell_angle_beta   60.06089057
_cell_angle_gamma   60.06088962
_symmetry_Int_Tables_number   1
_chemical_formula_structural   Nb12V5Fe7N4
_chemical_formula_sum   'Nb12 V5 Fe7 N4'
_cell_volume   380.90258681
_cell_formula_units_Z   1
loop_
 _symmetry_equiv_pos_site_id
 _symmetry_equiv_pos_as_xyz
  1  'x, y, z'
loop_
 _atom_site_type_symbol
 _atom_site_label
 _atom_site_symmetry_multiplicity
 _atom_site_fract_x
 _atom_site_fract_y
 _atom_site_fract_z
 _atom_site_occupancy
  Nb  Nb0  1  0.808330  0.805809  0.192931  1
  Nb  Nb1  1  0.191777  0.190603  0.808810  1
  Nb  Nb2  1  0.808330  0.192931  0.805809  1
  Nb  Nb3  1  0.191777  0.808810  0.190603  1
  Nb  Nb4  1  0.191777  0.808810  0.808810  1
  Nb  Nb5  1  0.808330  0.192931  0.192931  1
  Nb  Nb6  1  0.442176  0.441181  0.058321  1
  Nb  Nb7  1  0.058130  0.055094  0.443388  1
  Nb  Nb8  1  0.442176  0.058321  0.441181  1
  Nb  Nb9  1  0.058130  0.443388  0.055094  1
  Nb  Nb10  1  0.058130  0.443388  0.443388  1
  Nb  Nb11  1  0.442176  0.058321  0.058321  1
  V  V12  1  0.126297  0.624568  0.624568  1
  V  V13  1  0.619961  0.119081  0.630479  1
  V  V14  1  0.619961  0.630479  0.119081  1
  V  V15  1  0.619961  0.630479  0.630479  1
  V  V16  1  0.735130  0.421624  0.421624  1
  Fe  Fe17  1  0.421826  0.734165  0.422005  1
  Fe  Fe18  1  0.421826  0.422005  0.734165  1
  Fe  Fe19  1  0.421826  0.422005  0.422005  1
  Fe  Fe20  1  0.520640  0.826453  0.826453  1
  Fe  Fe21  1  0.829596  0.515394  0.827505  1
  Fe  Fe22  1  0.829596  0.827505  0.515394  1
  Fe  Fe23  1  0.829596  0.827505  0.827505  1
  N  N24  1  0.623918  0.125361  0.125361  1
  N  N25  1  0.126210  0.623771  0.125010  1
  N  N26  1  0.126210  0.125010  0.623771  1
  N  N27  1  0.126210  0.125010  0.125010  1
