# generated using pymatgen
data_Ho2Ga8Fe9
_symmetry_space_group_name_H-M   'P 1'
_cell_length_a   6.56289775
_cell_length_b   6.56289794
_cell_length_c   6.56289721
_cell_angle_alpha   83.70569702
_cell_angle_beta   96.29430654
_cell_angle_gamma   96.29430182
_symmetry_Int_Tables_number   1
_chemical_formula_structural   Ho2Ga8Fe9
_chemical_formula_sum   'Ho2 Ga8 Fe9'
_cell_volume   277.91043208
_cell_formula_units_Z   1
loop_
 _symmetry_equiv_pos_site_id
 _symmetry_equiv_pos_as_xyz
  1  'x, y, z'
loop_
 _atom_site_type_symbol
 _atom_site_label
 _atom_site_symmetry_multiplicity
 _atom_site_fract_x
 _atom_site_fract_y
 _atom_site_fract_z
 _atom_site_occupancy
  Ho  Ho0  1  0.635657  0.364344  0.364344  1
  Ho  Ho1  1  0.364344  0.635658  0.635657  1
  Ga  Ga2  1  0.319642  0.319642  0.000000  1
  Ga  Ga3  1  0.680358  0.680358  0.000000  1
  Ga  Ga4  1  0.870763  0.129238  0.129238  1
  Ga  Ga5  1  0.000000  0.680359  0.319641  1
  Ga  Ga6  1  0.319642  0.000000  0.319642  1
  Ga  Ga7  1  0.680358  0.000000  0.680358  1
  Ga  Ga8  1  0.000000  0.319641  0.680358  1
  Ga  Ga9  1  0.129238  0.870764  0.870763  1
  Fe  Fe10  1  0.500000  0.000000  0.000000  1
  Fe  Fe11  1  0.000000  0.500000  0.000000  1
  Fe  Fe12  1  0.336571  0.663430  0.164368  1
  Fe  Fe13  1  0.164368  0.336570  0.336570  1
  Fe  Fe14  1  0.663430  0.835631  0.336571  1
  Fe  Fe15  1  0.000000  0.000000  0.500000  1
  Fe  Fe16  1  0.835631  0.663430  0.663429  1
  Fe  Fe17  1  0.336571  0.164368  0.663430  1
  Fe  Fe18  1  0.663429  0.336570  0.835631  1
