# generated using pymatgen
data_Tb5CuRhO12
_symmetry_space_group_name_H-M   'P 1'
_cell_length_a   6.83925560
_cell_length_b   6.83925463
_cell_length_c   7.29384709
_cell_angle_alpha   74.43853986
_cell_angle_beta   74.43854154
_cell_angle_gamma   51.34122033
_symmetry_Int_Tables_number   1
_chemical_formula_structural   Tb5CuRhO12
_chemical_formula_sum   'Tb5 Cu1 Rh1 O12'
_cell_volume   254.33968827
_cell_formula_units_Z   1
loop_
 _symmetry_equiv_pos_site_id
 _symmetry_equiv_pos_as_xyz
  1  'x, y, z'
loop_
 _atom_site_type_symbol
 _atom_site_label
 _atom_site_symmetry_multiplicity
 _atom_site_fract_x
 _atom_site_fract_y
 _atom_site_fract_z
 _atom_site_occupancy
  Tb  Tb0  1  0.693924  0.689778  0.667327  1
  Tb  Tb1  1  0.701887  0.690278  0.141987  1
  Tb  Tb2  1  0.999968  0.000032  0.000000  1
  Tb  Tb3  1  0.309722  0.298113  0.858013  1
  Tb  Tb4  1  0.310222  0.306076  0.332673  1
  Cu  Cu5  1  0.749647  0.250353  0.500000  1
  Rh  Rh6  1  0.239314  0.760686  0.500000  1
  O  O7  1  0.403300  0.901481  0.923992  1
  O  O8  1  0.577690  0.100399  0.580923  1
  O  O9  1  0.899601  0.422310  0.419077  1
  O  O10  1  0.098519  0.596700  0.076008  1
  O  O11  1  0.999672  0.001600  0.319311  1
  O  O12  1  0.493150  0.506310  0.684733  1
  O  O13  1  0.905343  0.401006  0.924616  1
  O  O14  1  0.098210  0.571255  0.581810  1
  O  O15  1  0.428745  0.901790  0.418190  1
  O  O16  1  0.598994  0.094657  0.075384  1
  O  O17  1  0.493690  0.506850  0.315267  1
  O  O18  1  0.998400  0.000328  0.680689  1
