# generated using pymatgen
data_Tm12GaCo4Ru
_symmetry_space_group_name_H-M   'P 1'
_cell_length_a   8.11918340
_cell_length_b   8.11918270
_cell_length_c   8.11918247
_cell_angle_alpha   111.13019897
_cell_angle_beta   110.74630482
_cell_angle_gamma   106.57562886
_symmetry_Int_Tables_number   1
_chemical_formula_structural   Tm12GaCo4Ru
_chemical_formula_sum   'Tm12 Ga1 Co4 Ru1'
_cell_volume   411.22791370
_cell_formula_units_Z   1
loop_
 _symmetry_equiv_pos_site_id
 _symmetry_equiv_pos_as_xyz
  1  'x, y, z'
loop_
 _atom_site_type_symbol
 _atom_site_label
 _atom_site_symmetry_multiplicity
 _atom_site_fract_x
 _atom_site_fract_y
 _atom_site_fract_z
 _atom_site_occupancy
  Tm  Tm0  1  0.578749  0.271192  0.307558  1
  Tm  Tm1  1  0.181842  0.222156  0.403998  1
  Tm  Tm2  1  0.181842  0.777844  0.959687  1
  Tm  Tm3  1  0.682890  0.487539  0.804649  1
  Tm  Tm4  1  0.682890  0.878241  0.195351  1
  Tm  Tm5  1  0.963634  0.271192  0.692442  1
  Tm  Tm6  1  0.036366  0.728808  0.307558  1
  Tm  Tm7  1  0.317110  0.121759  0.804649  1
  Tm  Tm8  1  0.317110  0.512461  0.195351  1
  Tm  Tm9  1  0.818158  0.222156  0.040313  1
  Tm  Tm10  1  0.818158  0.777844  0.596002  1
  Tm  Tm11  1  0.421251  0.728808  0.692442  1
  Ga  Ga12  1  0.500000  0.000000  0.500000  1
  Co  Co13  1  0.886719  0.886719  0.000000  1
  Co  Co14  1  0.371185  0.500000  0.871185  1
  Co  Co15  1  0.628815  0.500000  0.128815  1
  Co  Co16  1  0.113281  0.113281  0.000000  1
  Ru  Ru17  1  0.000000  0.500000  0.500000  1
