# generated using pymatgen
data_CrMo3(PO4)4
_symmetry_space_group_name_H-M   'P 1'
_cell_length_a   4.83516836
_cell_length_b   6.79763715
_cell_length_c   8.94564922
_cell_angle_alpha   89.93719212
_cell_angle_beta   89.44981696
_cell_angle_gamma   90.26097544
_symmetry_Int_Tables_number   1
_chemical_formula_structural   CrMo3(PO4)4
_chemical_formula_sum   'Cr1 Mo3 P4 O16'
_cell_volume   294.00629764
_cell_formula_units_Z   1
loop_
 _symmetry_equiv_pos_site_id
 _symmetry_equiv_pos_as_xyz
  1  'x, y, z'
loop_
 _atom_site_type_symbol
 _atom_site_label
 _atom_site_symmetry_multiplicity
 _atom_site_fract_x
 _atom_site_fract_y
 _atom_site_fract_z
 _atom_site_occupancy
  Cr  Cr0  1  0.000000  0.000000  0.000000  1
  Mo  Mo1  1  0.500000  0.500000  0.500000  1
  Mo  Mo2  1  0.000000  0.500000  0.000000  1
  Mo  Mo3  1  0.500000  0.000000  0.500000  1
  P  P4  1  0.986536  0.753753  0.681116  1
  P  P5  1  0.485187  0.247103  0.827939  1
  P  P6  1  0.013464  0.246247  0.318884  1
  P  P7  1  0.514813  0.752897  0.172061  1
  O  O8  1  0.149631  0.438328  0.367548  1
  O  O9  1  0.639690  0.556727  0.125459  1
  O  O10  1  0.854617  0.942341  0.626366  1
  O  O11  1  0.331731  0.063576  0.882125  1
  O  O12  1  0.850369  0.561672  0.632452  1
  O  O13  1  0.360310  0.443273  0.874541  1
  O  O14  1  0.145383  0.057659  0.373634  1
  O  O15  1  0.668269  0.936424  0.117875  1
  O  O16  1  0.206182  0.762025  0.114272  1
  O  O17  1  0.702773  0.249961  0.377438  1
  O  O18  1  0.793818  0.237975  0.885728  1
  O  O19  1  0.297227  0.750039  0.622562  1
  O  O20  1  0.530328  0.752936  0.349098  1
  O  O21  1  0.035152  0.240044  0.141889  1
  O  O22  1  0.469672  0.247064  0.650902  1
  O  O23  1  0.964848  0.759956  0.858111  1
