# generated using pymatgen
data_La4CdCo2Hg
_symmetry_space_group_name_H-M   'P 1'
_cell_length_a   9.16361107
_cell_length_b   9.16361188
_cell_length_c   9.16442700
_cell_angle_alpha   130.81877020
_cell_angle_beta   130.81878284
_cell_angle_gamma   72.10111994
_symmetry_Int_Tables_number   1
_chemical_formula_structural   La4CdCo2Hg
_chemical_formula_sum   'La8 Cd2 Co4 Hg2'
_cell_volume   430.96242444
_cell_formula_units_Z   2
loop_
 _symmetry_equiv_pos_site_id
 _symmetry_equiv_pos_as_xyz
  1  'x, y, z'
loop_
 _atom_site_type_symbol
 _atom_site_label
 _atom_site_symmetry_multiplicity
 _atom_site_fract_x
 _atom_site_fract_y
 _atom_site_fract_z
 _atom_site_occupancy
  La  La0  1  0.699437  0.556112  0.499985  1
  La  La1  1  0.443917  0.943917  0.143406  1
  La  La2  1  0.800525  0.300525  0.856646  1
  La  La3  1  0.556083  0.056083  0.856594  1
  La  La4  1  0.056112  0.199437  0.499985  1
  La  La5  1  0.300563  0.443888  0.500015  1
  La  La6  1  0.199475  0.699475  0.143354  1
  La  La7  1  0.943888  0.800563  0.500015  1
  Cd  Cd8  1  0.000000  0.000000  0.000000  1
  Cd  Cd9  1  0.500000  0.500000  0.000000  1
  Co  Co10  1  0.114283  0.614283  0.728557  1
  Co  Co11  1  0.885717  0.385717  0.271443  1
  Co  Co12  1  0.614914  0.885086  0.500000  1
  Co  Co13  1  0.385086  0.114914  0.500000  1
  Hg  Hg14  1  0.249991  0.250009  0.000000  1
  Hg  Hg15  1  0.750009  0.749991  0.000000  1
