# generated using pymatgen
data_Dy2ZrSc(Al3Ir)6
_symmetry_space_group_name_H-M   'P 1'
_cell_length_a   7.52310957
_cell_length_b   7.52101489
_cell_length_c   9.39112700
_cell_angle_alpha   90.00000000
_cell_angle_beta   90.00000000
_cell_angle_gamma   119.64364930
_symmetry_Int_Tables_number   1
_chemical_formula_structural   Dy2ZrSc(Al3Ir)6
_chemical_formula_sum   'Dy2 Zr1 Sc1 Al18 Ir6'
_cell_volume   461.81760448
_cell_formula_units_Z   1
loop_
 _symmetry_equiv_pos_site_id
 _symmetry_equiv_pos_as_xyz
  1  'x, y, z'
loop_
 _atom_site_type_symbol
 _atom_site_label
 _atom_site_symmetry_multiplicity
 _atom_site_fract_x
 _atom_site_fract_y
 _atom_site_fract_z
 _atom_site_occupancy
  Dy  Dy0  1  0.005833  0.327474  0.250000  1
  Dy  Dy1  1  0.329317  0.006970  0.250000  1
  Zr  Zr2  1  0.996669  0.672019  0.750000  1
  Sc  Sc3  1  0.671365  0.996016  0.750000  1
  Al  Al4  1  0.122315  0.121272  0.750000  1
  Al  Al5  1  0.869372  0.869054  0.250000  1
  Al  Al6  1  0.997199  0.334694  0.581636  1
  Al  Al7  1  0.998867  0.664904  0.430010  1
  Al  Al8  1  0.998867  0.664904  0.069990  1
  Al  Al9  1  0.335484  0.998095  0.918229  1
  Al  Al10  1  0.997199  0.334694  0.918364  1
  Al  Al11  1  0.664815  0.998245  0.070415  1
  Al  Al12  1  0.664815  0.998245  0.429585  1
  Al  Al13  1  0.335484  0.998095  0.581771  1
  Al  Al14  1  0.334085  0.334276  0.049047  1
  Al  Al15  1  0.669125  0.669422  0.939886  1
  Al  Al16  1  0.669125  0.669422  0.560114  1
  Al  Al17  1  0.334085  0.334276  0.450953  1
  Al  Al18  1  0.338544  0.553787  0.750000  1
  Al  Al19  1  0.660402  0.452550  0.250000  1
  Al  Al20  1  0.556016  0.342373  0.750000  1
  Al  Al21  1  0.451744  0.660011  0.250000  1
  Ir  Ir22  1  0.672523  0.328258  0.501259  1
  Ir  Ir23  1  0.327601  0.672207  0.501923  1
  Ir  Ir24  1  0.327601  0.672207  0.998077  1
  Ir  Ir25  1  0.672523  0.328258  0.998741  1
  Ir  Ir26  1  0.999511  0.999135  0.501173  1
  Ir  Ir27  1  0.999511  0.999135  0.998827  1
