# generated using pymatgen
data_La10TcOs3
_symmetry_space_group_name_H-M   'P 1'
_cell_length_a   9.01139198
_cell_length_b   9.05662378
_cell_length_c   7.45728521
_cell_angle_alpha   84.64965274
_cell_angle_beta   84.80379457
_cell_angle_gamma   44.07886006
_symmetry_Int_Tables_number   1
_chemical_formula_structural   La10TcOs3
_chemical_formula_sum   'La10 Tc1 Os3'
_cell_volume   421.28911198
_cell_formula_units_Z   1
loop_
 _symmetry_equiv_pos_site_id
 _symmetry_equiv_pos_as_xyz
  1  'x, y, z'
loop_
 _atom_site_type_symbol
 _atom_site_label
 _atom_site_symmetry_multiplicity
 _atom_site_fract_x
 _atom_site_fract_y
 _atom_site_fract_z
 _atom_site_occupancy
  La  La0  1  0.017096  0.798680  0.906490  1
  La  La1  1  0.198470  0.985484  0.593332  1
  La  La2  1  0.982239  0.199976  0.091939  1
  La  La3  1  0.796130  0.018399  0.402899  1
  La  La4  1  0.360062  0.210314  0.821107  1
  La  La5  1  0.789685  0.641408  0.680281  1
  La  La6  1  0.639664  0.790330  0.181267  1
  La  La7  1  0.209035  0.359400  0.321355  1
  La  La8  1  0.573351  0.426119  0.748092  1
  La  La9  1  0.425414  0.576125  0.250487  1
  Tc  Tc10  1  0.614631  0.167160  0.078934  1
  Os  Os11  1  0.171606  0.604937  0.576461  1
  Os  Os12  1  0.396835  0.824174  0.922529  1
  Os  Os13  1  0.825784  0.397496  0.424826  1
