# generated using pymatgen
data_HfNbAl3Zn
_symmetry_space_group_name_H-M   'P 1'
_cell_length_a   5.12730839
_cell_length_b   5.12730847
_cell_length_c   5.12730855
_cell_angle_alpha   61.26025719
_cell_angle_beta   61.26025790
_cell_angle_gamma   61.26025494
_symmetry_Int_Tables_number   1
_chemical_formula_structural   HfNbAl3Zn
_chemical_formula_sum   'Hf1 Nb1 Al3 Zn1'
_cell_volume   98.01412767
_cell_formula_units_Z   1
loop_
 _symmetry_equiv_pos_site_id
 _symmetry_equiv_pos_as_xyz
  1  'x, y, z'
loop_
 _atom_site_type_symbol
 _atom_site_label
 _atom_site_symmetry_multiplicity
 _atom_site_fract_x
 _atom_site_fract_y
 _atom_site_fract_z
 _atom_site_occupancy
  Hf  Hf0  1  0.376526  0.376526  0.376526  1
  Nb  Nb1  1  0.622709  0.622709  0.622709  1
  Al  Al2  1  0.999451  0.501664  0.999451  1
  Al  Al3  1  0.501664  0.999451  0.999451  1
  Al  Al4  1  0.999451  0.999451  0.501664  1
  Zn  Zn5  1  0.000200  0.000200  0.000200  1
