# generated using pymatgen
data_Zr5Mn3(Ni4P3)4
_symmetry_space_group_name_H-M   'P 1'
_cell_length_a   11.93970600
_cell_length_b   11.93970575
_cell_length_c   3.62684600
_cell_angle_alpha   90.00000000
_cell_angle_beta   90.00000000
_cell_angle_gamma   119.99999515
_symmetry_Int_Tables_number   1
_chemical_formula_structural   Zr5Mn3(Ni4P3)4
_chemical_formula_sum   'Zr5 Mn3 Ni16 P12'
_cell_volume   447.76178496
_cell_formula_units_Z   1
loop_
 _symmetry_equiv_pos_site_id
 _symmetry_equiv_pos_as_xyz
  1  'x, y, z'
loop_
 _atom_site_type_symbol
 _atom_site_label
 _atom_site_symmetry_multiplicity
 _atom_site_fract_x
 _atom_site_fract_y
 _atom_site_fract_z
 _atom_site_occupancy
  Zr  Zr0  1  0.666667  0.333333  0.000000  1
  Zr  Zr1  1  0.333333  0.666667  0.000000  1
  Zr  Zr2  1  0.818388  0.818388  0.500000  1
  Zr  Zr3  1  0.181612  0.000000  0.500000  1
  Zr  Zr4  1  0.000000  0.181612  0.500000  1
  Mn  Mn5  1  0.448389  0.448389  0.000000  1
  Mn  Mn6  1  0.551611  0.000000  0.000000  1
  Mn  Mn7  1  0.000000  0.551611  0.000000  1
  Ni  Ni8  1  0.194389  0.376625  0.000000  1
  Ni  Ni9  1  0.182235  0.805611  0.000000  1
  Ni  Ni10  1  0.817765  0.623375  0.000000  1
  Ni  Ni11  1  0.805611  0.182235  0.000000  1
  Ni  Ni12  1  0.376625  0.194389  0.000000  1
  Ni  Ni13  1  0.126464  0.481861  0.500000  1
  Ni  Ni14  1  0.355397  0.873536  0.500000  1
  Ni  Ni15  1  0.518139  0.644603  0.500000  1
  Ni  Ni16  1  0.644603  0.518139  0.500000  1
  Ni  Ni17  1  0.873536  0.355397  0.500000  1
  Ni  Ni18  1  0.481861  0.126464  0.500000  1
  Ni  Ni19  1  0.000000  0.000000  0.000000  1
  Ni  Ni20  1  0.718539  0.000000  0.500000  1
  Ni  Ni21  1  0.000000  0.718539  0.500000  1
  Ni  Ni22  1  0.623375  0.817765  0.000000  1
  Ni  Ni23  1  0.281461  0.281461  0.500000  1
  P  P24  1  0.639189  0.639189  0.000000  1
  P  P25  1  0.360811  0.000000  0.000000  1
  P  P26  1  0.000000  0.360811  0.000000  1
  P  P27  1  0.483260  0.318094  0.500000  1
  P  P28  1  0.681906  0.165166  0.500000  1
  P  P29  1  0.834834  0.516740  0.500000  1
  P  P30  1  0.516740  0.834834  0.500000  1
  P  P31  1  0.165166  0.681906  0.500000  1
  P  P32  1  0.822830  0.000000  0.000000  1
  P  P33  1  0.000000  0.822830  0.000000  1
  P  P34  1  0.318094  0.483260  0.500000  1
  P  P35  1  0.177170  0.177170  0.000000  1
