# generated using pymatgen
data_Y6Ni2Ir5Rh11
_symmetry_space_group_name_H-M   'P 1'
_cell_length_a   5.29267363
_cell_length_b   5.28562643
_cell_length_c   17.22675432
_cell_angle_alpha   90.00008446
_cell_angle_beta   90.01914035
_cell_angle_gamma   119.95609711
_symmetry_Int_Tables_number   1
_chemical_formula_structural   Y6Ni2Ir5Rh11
_chemical_formula_sum   'Y6 Ni2 Ir5 Rh11'
_cell_volume   417.53953071
_cell_formula_units_Z   1
loop_
 _symmetry_equiv_pos_site_id
 _symmetry_equiv_pos_as_xyz
  1  'x, y, z'
loop_
 _atom_site_type_symbol
 _atom_site_label
 _atom_site_symmetry_multiplicity
 _atom_site_fract_x
 _atom_site_fract_y
 _atom_site_fract_z
 _atom_site_occupancy
  Y  Y0  1  0.332978  0.666488  0.957536  1
  Y  Y1  1  0.667093  0.333547  0.042782  1
  Y  Y2  1  0.666780  0.333391  0.458562  1
  Y  Y3  1  0.332979  0.666490  0.541582  1
  Y  Y4  1  0.333734  0.666867  0.748645  1
  Y  Y5  1  0.666413  0.333206  0.251929  1
  Ni  Ni6  1  0.333896  0.666947  0.249827  1
  Ni  Ni7  1  0.667826  0.333912  0.750257  1
  Ir  Ir8  1  0.168916  0.831245  0.371766  1
  Ir  Ir9  1  0.168916  0.337674  0.371766  1
  Ir  Ir10  1  0.662557  0.831279  0.372028  1
  Ir  Ir11  1  0.833541  0.170575  0.628103  1
  Ir  Ir12  1  0.833541  0.662964  0.628103  1
  Rh  Rh13  1  0.337918  0.168959  0.627937  1
  Rh  Rh14  1  0.830671  0.168407  0.873626  1
  Rh  Rh15  1  0.830668  0.662261  0.873626  1
  Rh  Rh16  1  0.336547  0.168271  0.872858  1
  Rh  Rh17  1  0.168867  0.831464  0.126410  1
  Rh  Rh18  1  0.168867  0.337405  0.126410  1
  Rh  Rh19  1  0.662565  0.831283  0.126385  1
  Rh  Rh20  1  0.999442  0.999723  0.249375  1
  Rh  Rh21  1  0.997494  0.998745  0.750515  1
  Rh  Rh22  1  0.996925  0.998464  0.500035  1
  Rh  Rh23  1  0.000868  0.000434  0.999936  1
