# generated using pymatgen
data_La4Pd3Pt3O19
_symmetry_space_group_name_H-M   'P 1'
_cell_length_a   7.76599399
_cell_length_b   7.97599234
_cell_length_c   7.97599100
_cell_angle_alpha   109.99840197
_cell_angle_beta   108.93873258
_cell_angle_gamma   108.93875452
_symmetry_Int_Tables_number   1
_chemical_formula_structural   La4Pd3Pt3O19
_chemical_formula_sum   'La4 Pd3 Pt3 O19'
_cell_volume   382.78633876
_cell_formula_units_Z   1
loop_
 _symmetry_equiv_pos_site_id
 _symmetry_equiv_pos_as_xyz
  1  'x, y, z'
loop_
 _atom_site_type_symbol
 _atom_site_label
 _atom_site_symmetry_multiplicity
 _atom_site_fract_x
 _atom_site_fract_y
 _atom_site_fract_z
 _atom_site_occupancy
  La  La0  1  0.990211  0.978327  0.303329  1
  La  La1  1  0.011884  0.325002  0.021673  1
  La  La2  1  0.686881  0.696671  0.674998  1
  La  La3  1  0.327205  0.000000  0.000000  1
  Pd  Pd4  1  0.162491  0.656743  0.501151  1
  Pd  Pd5  1  0.505748  0.844409  0.343257  1
  Pd  Pd6  1  0.661340  0.498849  0.155591  1
  Pt  Pt7  1  0.338936  0.501784  0.843989  1
  Pt  Pt8  1  0.837151  0.342203  0.498216  1
  Pt  Pt9  1  0.494948  0.156011  0.657797  1
  O  O10  1  0.338716  0.001096  0.344008  1
  O  O11  1  0.337621  0.342913  0.998904  1
  O  O12  1  0.994708  0.655992  0.657087  1
  O  O13  1  0.656309  0.651469  0.991568  1
  O  O14  1  0.004840  0.340100  0.348531  1
  O  O15  1  0.664740  0.008432  0.659900  1
  O  O16  1  0.002173  0.000000  0.000000  1
  O  O17  1  0.330025  0.296545  0.611080  1
  O  O18  1  0.033481  0.314535  0.703455  1
  O  O19  1  0.718944  0.388920  0.685465  1
  O  O20  1  0.393070  0.709929  0.753198  1
  O  O21  1  0.253684  0.954508  0.644767  1
  O  O22  1  0.608916  0.355233  0.309742  1
  O  O23  1  0.334857  0.612694  0.368082  1
  O  O24  1  0.683141  0.043271  0.290071  1
  O  O25  1  0.966773  0.631918  0.244613  1
  O  O26  1  0.722163  0.755387  0.387306  1
  O  O27  1  0.639871  0.246802  0.956729  1
  O  O28  1  0.299174  0.690258  0.045492  1
