# generated using pymatgen
data_Tb4Y3PI12
_symmetry_space_group_name_H-M   'P 1'
_cell_length_a   9.69921563
_cell_length_b   9.70034094
_cell_length_c   9.70257821
_cell_angle_alpha   107.94973275
_cell_angle_beta   107.97744033
_cell_angle_gamma   107.95764303
_symmetry_Int_Tables_number   1
_chemical_formula_structural   Tb4Y3PI12
_chemical_formula_sum   'Tb4 Y3 P1 I12'
_cell_volume   739.40157212
_cell_formula_units_Z   1
loop_
 _symmetry_equiv_pos_site_id
 _symmetry_equiv_pos_as_xyz
  1  'x, y, z'
loop_
 _atom_site_type_symbol
 _atom_site_label
 _atom_site_symmetry_multiplicity
 _atom_site_fract_x
 _atom_site_fract_y
 _atom_site_fract_z
 _atom_site_occupancy
  Tb  Tb0  1  0.301458  0.029370  0.099281  1
  Tb  Tb1  1  0.969589  0.899885  0.698002  1
  Tb  Tb2  1  0.899905  0.698004  0.969538  1
  Tb  Tb3  1  0.698000  0.969541  0.899879  1
  Y  Y4  1  0.502116  0.502133  0.502112  1
  Y  Y5  1  0.029500  0.099114  0.301007  1
  Y  Y6  1  0.099102  0.300931  0.029366  1
  P  P7  1  0.000119  0.999955  0.000017  1
  I  I8  1  0.154375  0.465898  0.385875  1
  I  I9  1  0.465798  0.386360  0.154299  1
  I  I10  1  0.385779  0.154719  0.466654  1
  I  I11  1  0.846579  0.532988  0.613535  1
  I  I12  1  0.533060  0.613720  0.846724  1
  I  I13  1  0.613681  0.846747  0.533061  1
  I  I14  1  0.686300  0.076049  0.228561  1
  I  I15  1  0.075798  0.228333  0.685835  1
  I  I16  1  0.228113  0.685497  0.075831  1
  I  I17  1  0.314009  0.924318  0.771495  1
  I  I18  1  0.924531  0.772159  0.314277  1
  I  I19  1  0.772187  0.314276  0.924653  1
