# generated using pymatgen
data_Al4PdPt11
_symmetry_space_group_name_H-M   'P 1'
_cell_length_a   5.51289496
_cell_length_b   5.51289496
_cell_length_c   7.96144500
_cell_angle_alpha   90.00000000
_cell_angle_beta   90.00000000
_cell_angle_gamma   89.93229968
_symmetry_Int_Tables_number   1
_chemical_formula_structural   Al4PdPt11
_chemical_formula_sum   'Al4 Pd1 Pt11'
_cell_volume   241.96415402
_cell_formula_units_Z   1
loop_
 _symmetry_equiv_pos_site_id
 _symmetry_equiv_pos_as_xyz
  1  'x, y, z'
loop_
 _atom_site_type_symbol
 _atom_site_label
 _atom_site_symmetry_multiplicity
 _atom_site_fract_x
 _atom_site_fract_y
 _atom_site_fract_z
 _atom_site_occupancy
  Al  Al0  1  0.501054  0.001053  0.237494  1
  Al  Al1  1  0.998467  0.498468  0.237870  1
  Al  Al2  1  0.501054  0.001053  0.762506  1
  Al  Al3  1  0.998467  0.498468  0.762130  1
  Pd  Pd4  1  0.691873  0.191872  0.500000  1
  Pt  Pt5  1  0.266990  0.231606  0.000000  1
  Pt  Pt6  1  0.766788  0.266790  0.000000  1
  Pt  Pt7  1  0.230843  0.730844  0.000000  1
  Pt  Pt8  1  0.731607  0.766988  0.000000  1
  Pt  Pt9  1  0.000317  0.999603  0.253758  1
  Pt  Pt10  1  0.499604  0.500318  0.253758  1
  Pt  Pt11  1  0.191228  0.310346  0.500000  1
  Pt  Pt12  1  0.810346  0.691229  0.500000  1
  Pt  Pt13  1  0.311446  0.811446  0.500000  1
  Pt  Pt14  1  0.000317  0.999603  0.746241  1
  Pt  Pt15  1  0.499604  0.500318  0.746241  1
