# generated using pymatgen
data_Pr2AlSi4Rh3
_symmetry_space_group_name_H-M   'P 1'
_cell_length_a   8.31995955
_cell_length_b   8.31995964
_cell_length_c   5.78891189
_cell_angle_alpha   71.05767671
_cell_angle_beta   71.05766697
_cell_angle_gamma   93.41165157
_symmetry_Int_Tables_number   1
_chemical_formula_structural   Pr2AlSi4Rh3
_chemical_formula_sum   'Pr4 Al2 Si8 Rh6'
_cell_volume   352.35108203
_cell_formula_units_Z   2
loop_
 _symmetry_equiv_pos_site_id
 _symmetry_equiv_pos_as_xyz
  1  'x, y, z'
loop_
 _atom_site_type_symbol
 _atom_site_label
 _atom_site_symmetry_multiplicity
 _atom_site_fract_x
 _atom_site_fract_y
 _atom_site_fract_z
 _atom_site_occupancy
  Pr  Pr0  1  0.866330  0.601671  0.757423  1
  Pr  Pr1  1  0.133670  0.398329  0.242577  1
  Pr  Pr2  1  0.398329  0.133670  0.742577  1
  Pr  Pr3  1  0.601671  0.866330  0.257423  1
  Al  Al4  1  0.773801  0.226199  0.750000  1
  Al  Al5  1  0.226199  0.773801  0.250000  1
  Si  Si6  1  0.514967  0.485033  0.750000  1
  Si  Si7  1  0.485033  0.514967  0.250000  1
  Si  Si8  1  0.213988  0.786012  0.750000  1
  Si  Si9  1  0.786012  0.213988  0.250000  1
  Si  Si10  1  0.262935  0.056550  0.340747  1
  Si  Si11  1  0.737065  0.943450  0.659253  1
  Si  Si12  1  0.943450  0.737065  0.159253  1
  Si  Si13  1  0.056550  0.262935  0.840747  1
  Rh  Rh14  1  0.534988  0.264580  0.136756  1
  Rh  Rh15  1  0.735420  0.465012  0.363244  1
  Rh  Rh16  1  0.465012  0.735420  0.863244  1
  Rh  Rh17  1  0.264580  0.534988  0.636756  1
  Rh  Rh18  1  0.994263  0.005737  0.250000  1
  Rh  Rh19  1  0.005737  0.994263  0.750000  1
