# generated using pymatgen
data_Nd3ReBO9
_symmetry_space_group_name_H-M   'P 1'
_cell_length_a   8.74996100
_cell_length_b   8.74995971
_cell_length_c   5.58127100
_cell_angle_alpha   90.00000000
_cell_angle_beta   90.00000000
_cell_angle_gamma   120.00003133
_symmetry_Int_Tables_number   1
_chemical_formula_structural   Nd3ReBO9
_chemical_formula_sum   'Nd6 Re2 B2 O18'
_cell_volume   370.06309402
_cell_formula_units_Z   2
loop_
 _symmetry_equiv_pos_site_id
 _symmetry_equiv_pos_as_xyz
  1  'x, y, z'
loop_
 _atom_site_type_symbol
 _atom_site_label
 _atom_site_symmetry_multiplicity
 _atom_site_fract_x
 _atom_site_fract_y
 _atom_site_fract_z
 _atom_site_occupancy
  Nd  Nd0  1  0.359888  0.085621  0.207192  1
  Nd  Nd1  1  0.914380  0.274268  0.207192  1
  Nd  Nd2  1  0.725733  0.640112  0.207192  1
  Nd  Nd3  1  0.274268  0.359889  0.707191  1
  Nd  Nd4  1  0.085620  0.725733  0.707191  1
  Nd  Nd5  1  0.640112  0.914380  0.707191  1
  Re  Re6  1  0.333334  0.666667  0.249808  1
  Re  Re7  1  0.666666  0.333334  0.749809  1
  B  B8  1  0.000000  0.000000  0.365356  1
  B  B9  1  0.000000  0.000000  0.865355  1
  O  O10  1  0.527084  0.722685  0.041895  1
  O  O11  1  0.277315  0.804398  0.041895  1
  O  O12  1  0.195603  0.472917  0.041897  1
  O  O13  1  0.130357  0.176040  0.357368  1
  O  O14  1  0.045683  0.869643  0.357368  1
  O  O15  1  0.823959  0.954316  0.357368  1
  O  O16  1  0.138860  0.514986  0.473255  1
  O  O17  1  0.485014  0.623875  0.473255  1
  O  O18  1  0.376125  0.861139  0.473255  1
  O  O19  1  0.722685  0.195602  0.541896  1
  O  O20  1  0.472916  0.277314  0.541896  1
  O  O21  1  0.804397  0.527084  0.541896  1
  O  O22  1  0.176040  0.045683  0.857369  1
  O  O23  1  0.954316  0.130357  0.857369  1
  O  O24  1  0.869643  0.823959  0.857369  1
  O  O25  1  0.623874  0.138860  0.973253  1
  O  O26  1  0.861139  0.485013  0.973253  1
  O  O27  1  0.514986  0.376124  0.973255  1
