# generated using pymatgen
data_Pr4Sn25Pt12
_symmetry_space_group_name_H-M   'P 1'
_cell_length_a   10.80290219
_cell_length_b   10.80290233
_cell_length_c   10.80290200
_cell_angle_alpha   109.47121813
_cell_angle_beta   109.47121840
_cell_angle_gamma   109.47122260
_symmetry_Int_Tables_number   1
_chemical_formula_structural   Pr4Sn25Pt12
_chemical_formula_sum   'Pr4 Sn25 Pt12'
_cell_volume   970.50874755
_cell_formula_units_Z   1
loop_
 _symmetry_equiv_pos_site_id
 _symmetry_equiv_pos_as_xyz
  1  'x, y, z'
loop_
 _atom_site_type_symbol
 _atom_site_label
 _atom_site_symmetry_multiplicity
 _atom_site_fract_x
 _atom_site_fract_y
 _atom_site_fract_z
 _atom_site_occupancy
  Pr  Pr0  1  0.000000  0.500000  0.000000  1
  Pr  Pr1  1  0.000000  0.000000  0.500000  1
  Pr  Pr2  1  0.500000  0.500000  0.500000  1
  Pr  Pr3  1  0.500000  0.000000  0.000000  1
  Sn  Sn4  1  0.750473  0.627409  0.876936  1
  Sn  Sn5  1  0.620131  0.373366  0.993496  1
  Sn  Sn6  1  0.123064  0.750473  0.873537  1
  Sn  Sn7  1  0.123064  0.249527  0.372591  1
  Sn  Sn8  1  0.379869  0.373366  0.753235  1
  Sn  Sn9  1  0.000000  0.000000  0.000000  1
  Sn  Sn10  1  0.126463  0.876936  0.249527  1
  Sn  Sn11  1  0.627409  0.876936  0.750473  1
  Sn  Sn12  1  0.372591  0.123064  0.249527  1
  Sn  Sn13  1  0.873537  0.123064  0.750473  1
  Sn  Sn14  1  0.373366  0.753235  0.379869  1
  Sn  Sn15  1  0.249527  0.126463  0.876936  1
  Sn  Sn16  1  0.006504  0.379869  0.626634  1
  Sn  Sn17  1  0.993496  0.620131  0.373366  1
  Sn  Sn18  1  0.249527  0.372591  0.123064  1
  Sn  Sn19  1  0.626634  0.246765  0.620131  1
  Sn  Sn20  1  0.876936  0.249527  0.126463  1
  Sn  Sn21  1  0.246765  0.620131  0.626634  1
  Sn  Sn22  1  0.750473  0.873537  0.123064  1
  Sn  Sn23  1  0.753235  0.379869  0.373366  1
  Sn  Sn24  1  0.626634  0.006504  0.379869  1
  Sn  Sn25  1  0.373366  0.993496  0.620131  1
  Sn  Sn26  1  0.876936  0.750473  0.627409  1
  Sn  Sn27  1  0.379869  0.626634  0.006504  1
  Sn  Sn28  1  0.620131  0.626634  0.246765  1
  Pt  Pt29  1  0.487213  0.319731  0.167481  1
  Pt  Pt30  1  0.152250  0.319731  0.832519  1
  Pt  Pt31  1  0.167481  0.847750  0.680269  1
  Pt  Pt32  1  0.319731  0.167481  0.487213  1
  Pt  Pt33  1  0.847750  0.680269  0.167481  1
  Pt  Pt34  1  0.832519  0.512787  0.680269  1
  Pt  Pt35  1  0.319731  0.832519  0.152250  1
  Pt  Pt36  1  0.680269  0.167481  0.847750  1
  Pt  Pt37  1  0.680269  0.832519  0.512787  1
  Pt  Pt38  1  0.832519  0.152250  0.319731  1
  Pt  Pt39  1  0.167481  0.487213  0.319731  1
  Pt  Pt40  1  0.512787  0.680269  0.832519  1
