# generated using pymatgen
data_Ta12Al3Ga5(CoC)4
_symmetry_space_group_name_H-M   'P 1'
_cell_length_a   8.19748038
_cell_length_b   8.19741168
_cell_length_c   8.19748021
_cell_angle_alpha   60.00839333
_cell_angle_beta   60.02616750
_cell_angle_gamma   60.00839026
_symmetry_Int_Tables_number   1
_chemical_formula_structural   Ta12Al3Ga5(CoC)4
_chemical_formula_sum   'Ta12 Al3 Ga5 Co4 C4'
_cell_volume   389.63989800
_cell_formula_units_Z   1
loop_
 _symmetry_equiv_pos_site_id
 _symmetry_equiv_pos_as_xyz
  1  'x, y, z'
loop_
 _atom_site_type_symbol
 _atom_site_label
 _atom_site_symmetry_multiplicity
 _atom_site_fract_x
 _atom_site_fract_y
 _atom_site_fract_z
 _atom_site_occupancy
  Ta  Ta0  1  0.561620  0.938562  0.561620  1
  Ta  Ta1  1  0.310572  0.690146  0.689133  1
  Ta  Ta2  1  0.687841  0.311014  0.311349  1
  Ta  Ta3  1  0.311213  0.688351  0.311213  1
  Ta  Ta4  1  0.689133  0.690146  0.310572  1
  Ta  Ta5  1  0.311349  0.311014  0.687841  1
  Ta  Ta6  1  0.560468  0.561144  0.939414  1
  Ta  Ta7  1  0.939414  0.561144  0.560468  1
  Ta  Ta8  1  0.559691  0.939409  0.939441  1
  Ta  Ta9  1  0.939441  0.939409  0.559691  1
  Ta  Ta10  1  0.689900  0.310126  0.689900  1
  Ta  Ta11  1  0.940176  0.559310  0.940176  1
  Al  Al12  1  0.918138  0.918643  0.244605  1
  Al  Al13  1  0.244605  0.918643  0.918138  1
  Al  Al14  1  0.331251  0.331248  0.331251  1
  Ga  Ga15  1  0.917047  0.916446  0.917047  1
  Ga  Ga16  1  0.000347  0.333397  0.333327  1
  Ga  Ga17  1  0.333201  0.000792  0.333201  1
  Ga  Ga18  1  0.333327  0.333397  0.000347  1
  Ga  Ga19  1  0.917178  0.248990  0.917178  1
  Co  Co20  1  0.125104  0.122556  0.125104  1
  Co  Co21  1  0.624358  0.125228  0.127279  1
  Co  Co22  1  0.126087  0.626022  0.126087  1
  Co  Co23  1  0.127279  0.125228  0.624358  1
  C  C24  1  0.625104  0.624211  0.625104  1
  C  C25  1  0.124555  0.625184  0.626019  1
  C  C26  1  0.625581  0.125052  0.625581  1
  C  C27  1  0.626019  0.625184  0.124555  1
