# generated using pymatgen
data_PrNd(Si7Ir3)2
_symmetry_space_group_name_H-M   'P 1'
_cell_length_a   8.12032962
_cell_length_b   8.12032949
_cell_length_c   8.12032944
_cell_angle_alpha   56.54332297
_cell_angle_beta   56.54331342
_cell_angle_gamma   56.54331711
_symmetry_Int_Tables_number   1
_chemical_formula_structural   PrNd(Si7Ir3)2
_chemical_formula_sum   'Pr1 Nd1 Si14 Ir6'
_cell_volume   348.37782424
_cell_formula_units_Z   1
loop_
 _symmetry_equiv_pos_site_id
 _symmetry_equiv_pos_as_xyz
  1  'x, y, z'
loop_
 _atom_site_type_symbol
 _atom_site_label
 _atom_site_symmetry_multiplicity
 _atom_site_fract_x
 _atom_site_fract_y
 _atom_site_fract_z
 _atom_site_occupancy
  Pr  Pr0  1  0.500000  0.500000  0.500000  1
  Nd  Nd1  1  0.000000  0.000000  0.000000  1
  Si  Si2  1  0.063095  0.850682  0.673177  1
  Si  Si3  1  0.673177  0.063095  0.850682  1
  Si  Si4  1  0.850682  0.673177  0.063095  1
  Si  Si5  1  0.172687  0.350818  0.563384  1
  Si  Si6  1  0.563384  0.172687  0.350818  1
  Si  Si7  1  0.350818  0.563384  0.172687  1
  Si  Si8  1  0.936905  0.149318  0.326823  1
  Si  Si9  1  0.326823  0.936905  0.149318  1
  Si  Si10  1  0.149318  0.326823  0.936905  1
  Si  Si11  1  0.827313  0.649182  0.436616  1
  Si  Si12  1  0.436616  0.827313  0.649182  1
  Si  Si13  1  0.649182  0.436616  0.827313  1
  Si  Si14  1  0.750084  0.750084  0.750084  1
  Si  Si15  1  0.249916  0.249916  0.249916  1
  Ir  Ir16  1  0.067436  0.750417  0.432003  1
  Ir  Ir17  1  0.432003  0.067436  0.750417  1
  Ir  Ir18  1  0.750417  0.432003  0.067436  1
  Ir  Ir19  1  0.932564  0.249583  0.567997  1
  Ir  Ir20  1  0.567997  0.932564  0.249583  1
  Ir  Ir21  1  0.249583  0.567997  0.932564  1
