# generated using pymatgen
data_Tb2Ho10Co5Bi
_symmetry_space_group_name_H-M   'P 1'
_cell_length_a   8.28430738
_cell_length_b   8.28992084
_cell_length_c   8.28992027
_cell_angle_alpha   110.95801326
_cell_angle_beta   110.71846427
_cell_angle_gamma   106.79661386
_symmetry_Int_Tables_number   1
_chemical_formula_structural   Tb2Ho10Co5Bi
_chemical_formula_sum   'Tb2 Ho10 Co5 Bi1'
_cell_volume   437.40138044
_cell_formula_units_Z   1
loop_
 _symmetry_equiv_pos_site_id
 _symmetry_equiv_pos_as_xyz
  1  'x, y, z'
loop_
 _atom_site_type_symbol
 _atom_site_label
 _atom_site_symmetry_multiplicity
 _atom_site_fract_x
 _atom_site_fract_y
 _atom_site_fract_z
 _atom_site_occupancy
  Tb  Tb0  1  0.987382  0.792437  0.194945  1
  Tb  Tb1  1  0.012618  0.207563  0.805055  1
  Ho  Ho2  1  0.816575  0.711615  0.529126  1
  Ho  Ho3  1  0.183425  0.288385  0.470874  1
  Ho  Ho4  1  0.183425  0.712551  0.895042  1
  Ho  Ho5  1  0.816575  0.287449  0.104958  1
  Ho  Ho6  1  0.686910  0.378745  0.689736  1
  Ho  Ho7  1  0.313090  0.621255  0.310264  1
  Ho  Ho8  1  0.686910  0.997174  0.308165  1
  Ho  Ho9  1  0.313090  0.002826  0.691835  1
  Ho  Ho10  1  0.596086  0.791192  0.804896  1
  Ho  Ho11  1  0.403914  0.208808  0.195104  1
  Co  Co12  1  0.623442  0.998909  0.624533  1
  Co  Co13  1  0.376558  0.001091  0.375467  1
  Co  Co14  1  0.113641  0.611373  0.502267  1
  Co  Co15  1  0.886359  0.388627  0.497733  1
  Co  Co16  1  0.000000  0.000000  0.000000  1
  Bi  Bi17  1  0.500000  0.500000  0.000000  1
