# generated using pymatgen
data_Ho8Cr(B8Ir)3
_symmetry_space_group_name_H-M   'P 1'
_cell_length_a   3.62561700
_cell_length_b   9.16284809
_cell_length_c   11.50220351
_cell_angle_alpha   90.09823241
_cell_angle_beta   90.00000000
_cell_angle_gamma   90.00000000
_symmetry_Int_Tables_number   1
_chemical_formula_structural   Ho8Cr(B8Ir)3
_chemical_formula_sum   'Ho8 Cr1 B24 Ir3'
_cell_volume   382.11388588
_cell_formula_units_Z   1
loop_
 _symmetry_equiv_pos_site_id
 _symmetry_equiv_pos_as_xyz
  1  'x, y, z'
loop_
 _atom_site_type_symbol
 _atom_site_label
 _atom_site_symmetry_multiplicity
 _atom_site_fract_x
 _atom_site_fract_y
 _atom_site_fract_z
 _atom_site_occupancy
  Ho  Ho0  1  0.000000  0.321704  0.414276  1
  Ho  Ho1  1  0.000000  0.682149  0.591223  1
  Ho  Ho2  1  0.000000  0.822364  0.081661  1
  Ho  Ho3  1  0.000000  0.174025  0.911620  1
  Ho  Ho4  1  0.000000  0.944072  0.373516  1
  Ho  Ho5  1  0.000000  0.051976  0.627665  1
  Ho  Ho6  1  0.000000  0.443952  0.125303  1
  Ho  Ho7  1  0.000000  0.558688  0.874738  1
  Cr  Cr8  1  0.000000  0.862091  0.821124  1
  B  B9  1  0.500000  0.553342  0.434115  1
  B  B10  1  0.500000  0.447596  0.566703  1
  B  B11  1  0.500000  0.052781  0.065929  1
  B  B12  1  0.500000  0.946907  0.932745  1
  B  B13  1  0.500000  0.749190  0.421234  1
  B  B14  1  0.500000  0.250472  0.579335  1
  B  B15  1  0.500000  0.247835  0.078452  1
  B  B16  1  0.500000  0.753330  0.919647  1
  B  B17  1  0.500000  0.792302  0.265418  1
  B  B18  1  0.500000  0.207117  0.733647  1
  B  B19  1  0.500000  0.293134  0.234635  1
  B  B20  1  0.500000  0.708299  0.766299  1
  B  B21  1  0.500000  0.632417  0.184221  1
  B  B22  1  0.500000  0.367512  0.815251  1
  B  B23  1  0.500000  0.133100  0.315676  1
  B  B24  1  0.500000  0.867556  0.686187  1
  B  B25  1  0.500000  0.982116  0.212592  1
  B  B26  1  0.500000  0.016069  0.787281  1
  B  B27  1  0.500000  0.481769  0.286925  1
  B  B28  1  0.500000  0.518441  0.713531  1
  B  B29  1  0.500000  0.611124  0.031320  1
  B  B30  1  0.500000  0.388026  0.969213  1
  B  B31  1  0.500000  0.111111  0.469340  1
  B  B32  1  0.500000  0.888938  0.529985  1
  Ir  Ir33  1  0.000000  0.637848  0.321975  1
  Ir  Ir34  1  0.000000  0.362317  0.678028  1
  Ir  Ir35  1  0.000000  0.138332  0.179190  1
