# generated using pymatgen
data_Ho5AlCo5
_symmetry_space_group_name_H-M   'P 1'
_cell_length_a   5.46657681
_cell_length_b   5.46657745
_cell_length_c   20.57935600
_cell_angle_alpha   90.00000000
_cell_angle_beta   90.00000000
_cell_angle_gamma   137.04594610
_symmetry_Int_Tables_number   1
_chemical_formula_structural   Ho5AlCo5
_chemical_formula_sum   'Ho10 Al2 Co10'
_cell_volume   419.05623027
_cell_formula_units_Z   2
loop_
 _symmetry_equiv_pos_site_id
 _symmetry_equiv_pos_as_xyz
  1  'x, y, z'
loop_
 _atom_site_type_symbol
 _atom_site_label
 _atom_site_symmetry_multiplicity
 _atom_site_fract_x
 _atom_site_fract_y
 _atom_site_fract_z
 _atom_site_occupancy
  Ho  Ho0  1  0.286949  0.713051  0.250000  1
  Ho  Ho1  1  0.290702  0.709298  0.066112  1
  Ho  Ho2  1  0.998890  0.001110  0.842510  1
  Ho  Ho3  1  0.713051  0.286949  0.750000  1
  Ho  Ho4  1  0.709298  0.290702  0.566112  1
  Ho  Ho5  1  0.001110  0.998890  0.342510  1
  Ho  Ho6  1  0.998890  0.001110  0.657490  1
  Ho  Ho7  1  0.709298  0.290702  0.933888  1
  Ho  Ho8  1  0.001110  0.998890  0.157490  1
  Ho  Ho9  1  0.290702  0.709298  0.433888  1
  Al  Al10  1  0.000000  0.000000  0.500000  1
  Al  Al11  1  0.000000  0.000000  0.000000  1
  Co  Co12  1  0.296293  0.703707  0.654273  1
  Co  Co13  1  0.580740  0.419260  0.441678  1
  Co  Co14  1  0.415175  0.584825  0.750000  1
  Co  Co15  1  0.419260  0.580740  0.941678  1
  Co  Co16  1  0.584825  0.415175  0.250000  1
  Co  Co17  1  0.419260  0.580740  0.558322  1
  Co  Co18  1  0.703707  0.296293  0.345727  1
  Co  Co19  1  0.703707  0.296293  0.154273  1
  Co  Co20  1  0.580740  0.419260  0.058322  1
  Co  Co21  1  0.296293  0.703707  0.845727  1
