# generated using pymatgen
data_Sm4SiI6
_symmetry_space_group_name_H-M   'P 1'
_cell_length_a   4.28327700
_cell_length_b   14.27167600
_cell_length_c   15.05385300
_cell_angle_alpha   90.00000000
_cell_angle_beta   90.00000000
_cell_angle_gamma   90.00000000
_symmetry_Int_Tables_number   1
_chemical_formula_structural   Sm4SiI6
_chemical_formula_sum   'Sm8 Si2 I12'
_cell_volume   920.23513264
_cell_formula_units_Z   2
loop_
 _symmetry_equiv_pos_site_id
 _symmetry_equiv_pos_as_xyz
  1  'x, y, z'
loop_
 _atom_site_type_symbol
 _atom_site_label
 _atom_site_symmetry_multiplicity
 _atom_site_fract_x
 _atom_site_fract_y
 _atom_site_fract_z
 _atom_site_occupancy
  Sm  Sm0  1  0.500000  0.114477  0.346838  1
  Sm  Sm1  1  0.500000  0.885523  0.653162  1
  Sm  Sm2  1  0.500000  0.614477  0.153162  1
  Sm  Sm3  1  0.500000  0.385523  0.846838  1
  Sm  Sm4  1  0.000000  0.112604  0.575204  1
  Sm  Sm5  1  0.000000  0.887396  0.424796  1
  Sm  Sm6  1  0.000000  0.612604  0.924796  1
  Sm  Sm7  1  0.000000  0.387396  0.075204  1
  Si  Si8  1  0.500000  0.000000  0.500000  1
  Si  Si9  1  0.500000  0.500000  0.000000  1
  I  I10  1  0.500000  0.244171  0.161330  1
  I  I11  1  0.500000  0.755829  0.838670  1
  I  I12  1  0.500000  0.744171  0.338670  1
  I  I13  1  0.500000  0.255829  0.661330  1
  I  I14  1  0.000000  0.258835  0.413642  1
  I  I15  1  0.000000  0.741165  0.586358  1
  I  I16  1  0.000000  0.758835  0.086358  1
  I  I17  1  0.000000  0.241165  0.913642  1
  I  I18  1  0.000000  0.998909  0.240272  1
  I  I19  1  0.000000  0.001091  0.759728  1
  I  I20  1  0.000000  0.498909  0.259728  1
  I  I21  1  0.000000  0.501091  0.740272  1
