# generated using pymatgen
data_La2Dy(ErSn2)2
_symmetry_space_group_name_H-M   'P 1'
_cell_length_a   8.18889000
_cell_length_b   8.33978700
_cell_length_c   15.71538500
_cell_angle_alpha   90.00000000
_cell_angle_beta   90.00000000
_cell_angle_gamma   90.00000000
_symmetry_Int_Tables_number   1
_chemical_formula_structural   La2Dy(ErSn2)2
_chemical_formula_sum   'La8 Dy4 Er8 Sn16'
_cell_volume   1073.26019136
_cell_formula_units_Z   4
loop_
 _symmetry_equiv_pos_site_id
 _symmetry_equiv_pos_as_xyz
  1  'x, y, z'
loop_
 _atom_site_type_symbol
 _atom_site_label
 _atom_site_symmetry_multiplicity
 _atom_site_fract_x
 _atom_site_fract_y
 _atom_site_fract_z
 _atom_site_occupancy
  La  La0  1  0.515423  0.321265  0.903621  1
  La  La1  1  0.015423  0.178735  0.596379  1
  La  La2  1  0.484577  0.678735  0.403621  1
  La  La3  1  0.984577  0.821265  0.096379  1
  La  La4  1  0.484577  0.678735  0.096379  1
  La  La5  1  0.984577  0.821265  0.403621  1
  La  La6  1  0.515423  0.321265  0.596379  1
  La  La7  1  0.015423  0.178735  0.903621  1
  Dy  Dy8  1  0.195703  0.504349  0.750000  1
  Dy  Dy9  1  0.695703  0.995651  0.750000  1
  Dy  Dy10  1  0.804297  0.495651  0.250000  1
  Dy  Dy11  1  0.304297  0.004349  0.250000  1
  Er  Er12  1  0.361259  0.837231  0.876740  1
  Er  Er13  1  0.861259  0.662769  0.623260  1
  Er  Er14  1  0.638741  0.162769  0.376740  1
  Er  Er15  1  0.138741  0.337231  0.123260  1
  Er  Er16  1  0.638741  0.162769  0.123260  1
  Er  Er17  1  0.138741  0.337231  0.376740  1
  Er  Er18  1  0.361259  0.837231  0.623260  1
  Er  Er19  1  0.861259  0.662769  0.876740  1
  Sn  Sn20  1  0.304334  0.041722  0.042725  1
  Sn  Sn21  1  0.804334  0.458278  0.457275  1
  Sn  Sn22  1  0.695666  0.958278  0.542725  1
  Sn  Sn23  1  0.195666  0.541722  0.957275  1
  Sn  Sn24  1  0.695666  0.958278  0.957275  1
  Sn  Sn25  1  0.195666  0.541722  0.542725  1
  Sn  Sn26  1  0.304334  0.041722  0.457275  1
  Sn  Sn27  1  0.804334  0.458278  0.042725  1
  Sn  Sn28  1  0.560979  0.626221  0.750000  1
  Sn  Sn29  1  0.060979  0.873779  0.750000  1
  Sn  Sn30  1  0.439021  0.373779  0.250000  1
  Sn  Sn31  1  0.939021  0.126221  0.250000  1
  Sn  Sn32  1  0.324440  0.140291  0.750000  1
  Sn  Sn33  1  0.824440  0.359709  0.750000  1
  Sn  Sn34  1  0.675560  0.859709  0.250000  1
  Sn  Sn35  1  0.175560  0.640291  0.250000  1
