# generated using pymatgen
data_SrGa2Ni4P6PbO24
_symmetry_space_group_name_H-M   'P 1'
_cell_length_a   9.04560600
_cell_length_b   9.04560702
_cell_length_c   9.04560600
_cell_angle_alpha   137.31011054
_cell_angle_beta   110.27487731
_cell_angle_gamma   85.32183912
_symmetry_Int_Tables_number   1
_chemical_formula_structural   SrGa2Ni4P6PbO24
_chemical_formula_sum   'Sr1 Ga2 Ni4 P6 Pb1 O24'
_cell_volume   452.96291037
_cell_formula_units_Z   1
loop_
 _symmetry_equiv_pos_site_id
 _symmetry_equiv_pos_as_xyz
  1  'x, y, z'
loop_
 _atom_site_type_symbol
 _atom_site_label
 _atom_site_symmetry_multiplicity
 _atom_site_fract_x
 _atom_site_fract_y
 _atom_site_fract_z
 _atom_site_occupancy
  Sr  Sr0  1  0.750000  0.656125  0.906125  1
  Ga  Ga1  1  0.999789  0.499898  0.500109  1
  Ga  Ga2  1  0.500211  0.000321  0.500109  1
  Ni  Ni3  1  0.116880  0.116718  0.499923  1
  Ni  Ni4  1  0.383120  0.883042  0.999838  1
  Ni  Ni5  1  0.616795  0.116718  0.999838  1
  Ni  Ni6  1  0.883205  0.883042  0.499923  1
  P  P7  1  0.250000  0.837809  0.587809  1
  P  P8  1  0.750000  0.162386  0.412386  1
  P  P9  1  0.321566  0.321873  0.500372  1
  P  P10  1  0.178434  0.678806  0.000307  1
  P  P11  1  0.821500  0.321873  0.000307  1
  P  P12  1  0.678500  0.678806  0.500372  1
  Pb  Pb13  1  0.250000  0.345032  0.095032  1
  O  O14  1  0.344861  0.798389  0.453530  1
  O  O15  1  0.655786  0.204471  0.548684  1
  O  O16  1  0.844214  0.392898  0.548684  1
  O  O17  1  0.155139  0.608669  0.453530  1
  O  O18  1  0.130000  0.981524  0.611523  1
  O  O19  1  0.630964  0.016523  0.147487  1
  O  O20  1  0.869036  0.016523  0.385560  1
  O  O21  1  0.370000  0.981524  0.851524  1
  O  O22  1  0.345896  0.201035  0.276802  1
  O  O23  1  0.074291  0.797833  0.142940  1
  O  O24  1  0.845107  0.568648  0.142940  1
  O  O25  1  0.575767  0.430906  0.276802  1
  O  O26  1  0.654893  0.797833  0.723541  1
  O  O27  1  0.924233  0.201035  0.855139  1
  O  O28  1  0.154104  0.430906  0.855139  1
  O  O29  1  0.425709  0.568648  0.723541  1
  O  O30  1  0.130427  0.289084  0.432376  1
  O  O31  1  0.143371  0.711033  0.841397  1
  O  O32  1  0.630363  0.198025  0.841397  1
  O  O33  1  0.643293  0.801950  0.432376  1
  O  O34  1  0.869637  0.711033  0.567664  1
  O  O35  1  0.856707  0.289084  0.158656  1
  O  O36  1  0.369573  0.801950  0.158656  1
  O  O37  1  0.356629  0.198025  0.567664  1
