# generated using pymatgen
data_TbLu(AlRu)2
_symmetry_space_group_name_H-M   'P 1'
_cell_length_a   4.00852900
_cell_length_b   7.00834964
_cell_length_c   8.05794056
_cell_angle_alpha   89.51265956
_cell_angle_beta   90.00000000
_cell_angle_gamma   90.00000000
_symmetry_Int_Tables_number   1
_chemical_formula_structural   TbLu(AlRu)2
_chemical_formula_sum   'Tb2 Lu2 Al4 Ru4'
_cell_volume   226.36492765
_cell_formula_units_Z   2
loop_
 _symmetry_equiv_pos_site_id
 _symmetry_equiv_pos_as_xyz
  1  'x, y, z'
loop_
 _atom_site_type_symbol
 _atom_site_label
 _atom_site_symmetry_multiplicity
 _atom_site_fract_x
 _atom_site_fract_y
 _atom_site_fract_z
 _atom_site_occupancy
  Tb  Tb0  1  0.250000  0.031222  0.679877  1
  Tb  Tb1  1  0.750000  0.968778  0.320123  1
  Lu  Lu2  1  0.250000  0.532903  0.825255  1
  Lu  Lu3  1  0.750000  0.467097  0.174745  1
  Al  Al4  1  0.250000  0.635697  0.442162  1
  Al  Al5  1  0.750000  0.364303  0.557838  1
  Al  Al6  1  0.250000  0.139617  0.058101  1
  Al  Al7  1  0.750000  0.860383  0.941899  1
  Ru  Ru8  1  0.750000  0.724856  0.630045  1
  Ru  Ru9  1  0.250000  0.275144  0.369955  1
  Ru  Ru10  1  0.750000  0.235389  0.874907  1
  Ru  Ru11  1  0.250000  0.764611  0.125093  1
