# generated using pymatgen
data_Dy6Al24Cu2IrRu5
_symmetry_space_group_name_H-M   'P 1'
_cell_length_a   8.82696323
_cell_length_b   8.81319983
_cell_length_c   9.48932218
_cell_angle_alpha   89.84014805
_cell_angle_beta   89.94902776
_cell_angle_gamma   119.39157195
_symmetry_Int_Tables_number   1
_chemical_formula_structural   Dy6Al24Cu2IrRu5
_chemical_formula_sum   'Dy6 Al24 Cu2 Ir1 Ru5'
_cell_volume   643.18768277
_cell_formula_units_Z   1
loop_
 _symmetry_equiv_pos_site_id
 _symmetry_equiv_pos_as_xyz
  1  'x, y, z'
loop_
 _atom_site_type_symbol
 _atom_site_label
 _atom_site_symmetry_multiplicity
 _atom_site_fract_x
 _atom_site_fract_y
 _atom_site_fract_z
 _atom_site_occupancy
  Dy  Dy0  1  0.192698  0.805977  0.249748  1
  Dy  Dy1  1  0.187800  0.383522  0.249664  1
  Dy  Dy2  1  0.616810  0.811852  0.249555  1
  Dy  Dy3  1  0.807302  0.194023  0.750252  1
  Dy  Dy4  1  0.812200  0.616478  0.750336  1
  Dy  Dy5  1  0.383190  0.188148  0.750445  1
  Al  Al6  1  0.561011  0.438996  0.250414  1
  Al  Al7  1  0.561485  0.124502  0.248311  1
  Al  Al8  1  0.876876  0.439266  0.250377  1
  Al  Al9  1  0.438989  0.561004  0.749586  1
  Al  Al10  1  0.438515  0.875498  0.751689  1
  Al  Al11  1  0.123124  0.560734  0.749623  1
  Al  Al12  1  0.323438  0.158836  0.422701  1
  Al  Al13  1  0.837910  0.165433  0.422802  1
  Al  Al14  1  0.843157  0.676251  0.422605  1
  Al  Al15  1  0.676562  0.841164  0.577299  1
  Al  Al16  1  0.162090  0.834567  0.577198  1
  Al  Al17  1  0.156843  0.323749  0.577395  1
  Al  Al18  1  0.676196  0.843213  0.922742  1
  Al  Al19  1  0.163792  0.835881  0.922356  1
  Al  Al20  1  0.157019  0.324564  0.923056  1
  Al  Al21  1  0.323804  0.156787  0.077258  1
  Al  Al22  1  0.836208  0.164119  0.077644  1
  Al  Al23  1  0.842981  0.675436  0.076944  1
  Al  Al24  1  0.669681  0.334726  0.523014  1
  Al  Al25  1  0.330319  0.665274  0.476986  1
  Al  Al26  1  0.331861  0.667746  0.022342  1
  Al  Al27  1  0.668139  0.332254  0.977658  1
  Al  Al28  1  0.997256  0.001729  0.249909  1
  Al  Al29  1  0.002744  0.998271  0.750091  1
  Cu  Cu30  1  0.500000  0.500000  0.500000  1
  Cu  Cu31  1  0.500000  0.500000  0.000000  1
  Ir  Ir32  1  0.500000  0.000000  0.500000  1
  Ru  Ru33  1  0.000000  0.000000  0.500000  1
  Ru  Ru34  1  0.000000  0.000000  0.000000  1
  Ru  Ru35  1  0.000000  0.500000  0.500000  1
  Ru  Ru36  1  0.500000  0.000000  0.000000  1
  Ru  Ru37  1  0.000000  0.500000  0.000000  1
