# generated using pymatgen
data_Y5HoTh4(In2Pd)4
_symmetry_space_group_name_H-M   'P 1'
_cell_length_a   3.80095300
_cell_length_b   8.14211519
_cell_length_c   18.24663442
_cell_angle_alpha   89.97543891
_cell_angle_beta   90.00000000
_cell_angle_gamma   90.00000000
_symmetry_Int_Tables_number   1
_chemical_formula_structural   Y5HoTh4(In2Pd)4
_chemical_formula_sum   'Y5 Ho1 Th4 In8 Pd4'
_cell_volume   564.69308872
_cell_formula_units_Z   1
loop_
 _symmetry_equiv_pos_site_id
 _symmetry_equiv_pos_as_xyz
  1  'x, y, z'
loop_
 _atom_site_type_symbol
 _atom_site_label
 _atom_site_symmetry_multiplicity
 _atom_site_fract_x
 _atom_site_fract_y
 _atom_site_fract_z
 _atom_site_occupancy
  Y  Y0  1  0.500000  0.884181  0.417751  1
  Y  Y1  1  0.500000  0.383963  0.082402  1
  Y  Y2  1  0.500000  0.615966  0.917594  1
  Y  Y3  1  0.500000  0.999999  0.000000  1
  Y  Y4  1  0.500000  0.499640  0.500070  1
  Ho  Ho5  1  0.500000  0.115634  0.582886  1
  Th  Th6  1  0.500000  0.237080  0.782710  1
  Th  Th7  1  0.500000  0.762991  0.217215  1
  Th  Th8  1  0.500000  0.262886  0.282774  1
  Th  Th9  1  0.500000  0.737024  0.717146  1
  In  In10  1  0.000000  0.083976  0.145780  1
  In  In11  1  0.000000  0.915987  0.854220  1
  In  In12  1  0.000000  0.415650  0.645699  1
  In  In13  1  0.000000  0.584004  0.354215  1
  In  In14  1  0.000000  0.205560  0.436977  1
  In  In15  1  0.000000  0.794846  0.563231  1
  In  In16  1  0.000000  0.294354  0.936738  1
  In  In17  1  0.000000  0.705662  0.063235  1
  Pd  Pd18  1  0.000000  0.025502  0.697438  1
  Pd  Pd19  1  0.000000  0.975012  0.301912  1
  Pd  Pd20  1  0.000000  0.475045  0.198086  1
  Pd  Pd21  1  0.000000  0.525039  0.801922  1
