# generated using pymatgen
data_Sr3Sc2ReO9
_symmetry_space_group_name_H-M   'P 1'
_cell_length_a   9.92219182
_cell_length_b   9.92219232
_cell_length_c   5.70321110
_cell_angle_alpha   73.20350585
_cell_angle_beta   73.20350435
_cell_angle_gamma   48.94836401
_symmetry_Int_Tables_number   1
_chemical_formula_structural   Sr3Sc2ReO9
_chemical_formula_sum   'Sr6 Sc4 Re2 O18'
_cell_volume   401.51378353
_cell_formula_units_Z   2
loop_
 _symmetry_equiv_pos_site_id
 _symmetry_equiv_pos_as_xyz
  1  'x, y, z'
loop_
 _atom_site_type_symbol
 _atom_site_label
 _atom_site_symmetry_multiplicity
 _atom_site_fract_x
 _atom_site_fract_y
 _atom_site_fract_z
 _atom_site_occupancy
  Sr  Sr0  1  0.917849  0.400957  0.845194  1
  Sr  Sr1  1  0.234614  0.765386  0.500000  1
  Sr  Sr2  1  0.599043  0.082151  0.154806  1
  Sr  Sr3  1  0.765386  0.234614  0.500000  1
  Sr  Sr4  1  0.082151  0.599043  0.154806  1
  Sr  Sr5  1  0.400957  0.917849  0.845194  1
  Sc  Sc6  1  0.500000  0.500000  0.000000  1
  Sc  Sc7  1  0.833029  0.833029  0.664126  1
  Sc  Sc8  1  0.166971  0.166971  0.335874  1
  Sc  Sc9  1  0.000000  0.000000  0.000000  1
  Re  Re10  1  0.333202  0.333202  0.663874  1
  Re  Re11  1  0.666798  0.666798  0.336126  1
  O  O12  1  0.431598  0.906855  0.330601  1
  O  O13  1  0.745790  0.254210  0.000000  1
  O  O14  1  0.093145  0.568402  0.669399  1
  O  O15  1  0.906855  0.431598  0.330601  1
  O  O16  1  0.254210  0.745790  0.000000  1
  O  O17  1  0.568402  0.093145  0.669399  1
  O  O18  1  0.072358  0.072358  0.224249  1
  O  O19  1  0.396782  0.396782  0.884932  1
  O  O20  1  0.726033  0.726033  0.564933  1
  O  O21  1  0.603218  0.603218  0.115068  1
  O  O22  1  0.927642  0.927642  0.775751  1
  O  O23  1  0.273967  0.273967  0.435067  1
  O  O24  1  0.571689  0.571689  0.615617  1
  O  O25  1  0.897627  0.897627  0.308802  1
  O  O26  1  0.239782  0.239782  0.946126  1
  O  O27  1  0.102373  0.102373  0.691198  1
  O  O28  1  0.428311  0.428311  0.384383  1
  O  O29  1  0.760218  0.760218  0.053874  1
