# generated using pymatgen
data_Pr7Nd9Cd4OsPt3
_symmetry_space_group_name_H-M   'P 1'
_cell_length_a   10.07602729
_cell_length_b   10.07602628
_cell_length_c   10.07240633
_cell_angle_alpha   59.66819535
_cell_angle_beta   59.66819984
_cell_angle_gamma   59.72029443
_symmetry_Int_Tables_number   1
_chemical_formula_structural   Pr7Nd9Cd4OsPt3
_chemical_formula_sum   'Pr7 Nd9 Cd4 Os1 Pt3'
_cell_volume   717.93200098
_cell_formula_units_Z   1
loop_
 _symmetry_equiv_pos_site_id
 _symmetry_equiv_pos_as_xyz
  1  'x, y, z'
loop_
 _atom_site_type_symbol
 _atom_site_label
 _atom_site_symmetry_multiplicity
 _atom_site_fract_x
 _atom_site_fract_y
 _atom_site_fract_z
 _atom_site_occupancy
  Pr  Pr0  1  0.808435  0.808435  0.189016  1
  Pr  Pr1  1  0.938260  0.563150  0.563580  1
  Pr  Pr2  1  0.556006  0.939080  0.938835  1
  Pr  Pr3  1  0.563150  0.938260  0.563580  1
  Pr  Pr4  1  0.939080  0.556006  0.938835  1
  Pr  Pr5  1  0.563317  0.563317  0.938138  1
  Pr  Pr6  1  0.938977  0.938977  0.556183  1
  Nd  Nd7  1  0.350765  0.350765  0.350751  1
  Nd  Nd8  1  0.347678  0.347678  0.952347  1
  Nd  Nd9  1  0.347235  0.952524  0.347848  1
  Nd  Nd10  1  0.952524  0.347235  0.347848  1
  Nd  Nd11  1  0.816240  0.189046  0.188621  1
  Nd  Nd12  1  0.189217  0.808678  0.808269  1
  Nd  Nd13  1  0.189046  0.816240  0.188621  1
  Nd  Nd14  1  0.808678  0.189217  0.808269  1
  Nd  Nd15  1  0.188721  0.188721  0.816132  1
  Cd  Cd16  1  0.579573  0.579573  0.579987  1
  Cd  Cd17  1  0.579672  0.579672  0.259344  1
  Cd  Cd18  1  0.579827  0.259263  0.579842  1
  Cd  Cd19  1  0.259263  0.579827  0.579842  1
  Os  Os20  1  0.142883  0.142883  0.143021  1
  Pt  Pt21  1  0.144125  0.144125  0.572961  1
  Pt  Pt22  1  0.145207  0.572122  0.144067  1
  Pt  Pt23  1  0.572122  0.145207  0.144067  1
