# generated using pymatgen
data_Pr7ThAlPd24
_symmetry_space_group_name_H-M   'P 1'
_cell_length_a   8.50174718
_cell_length_b   8.50174734
_cell_length_c   8.50174700
_cell_angle_alpha   90.07948327
_cell_angle_beta   90.07948327
_cell_angle_gamma   89.92051438
_symmetry_Int_Tables_number   1
_chemical_formula_structural   Pr7ThAlPd24
_chemical_formula_sum   'Pr7 Th1 Al1 Pd24'
_cell_volume   614.50200537
_cell_formula_units_Z   1
loop_
 _symmetry_equiv_pos_site_id
 _symmetry_equiv_pos_as_xyz
  1  'x, y, z'
loop_
 _atom_site_type_symbol
 _atom_site_label
 _atom_site_symmetry_multiplicity
 _atom_site_fract_x
 _atom_site_fract_y
 _atom_site_fract_z
 _atom_site_occupancy
  Pr  Pr0  1  0.251796  0.747947  0.252053  1
  Pr  Pr1  1  0.747947  0.251796  0.252053  1
  Pr  Pr2  1  0.747947  0.747947  0.748204  1
  Pr  Pr3  1  0.747596  0.747596  0.252404  1
  Pr  Pr4  1  0.749232  0.252299  0.747701  1
  Pr  Pr5  1  0.252299  0.749232  0.747701  1
  Pr  Pr6  1  0.252299  0.252299  0.250768  1
  Th  Th7  1  0.253707  0.253707  0.746293  1
  Al  Al8  1  0.997672  0.997672  0.002328  1
  Pd  Pd9  1  0.498229  0.498229  0.746425  1
  Pd  Pd10  1  0.498229  0.253575  0.501771  1
  Pd  Pd11  1  0.253575  0.498229  0.501771  1
  Pd  Pd12  1  0.499627  0.499627  0.252690  1
  Pd  Pd13  1  0.499627  0.747310  0.500373  1
  Pd  Pd14  1  0.747310  0.499627  0.500373  1
  Pd  Pd15  1  0.002030  0.002030  0.712213  1
  Pd  Pd16  1  0.002030  0.287787  0.997970  1
  Pd  Pd17  1  0.287787  0.002030  0.997970  1
  Pd  Pd18  1  0.999936  0.999936  0.291148  1
  Pd  Pd19  1  0.999936  0.708852  0.000064  1
  Pd  Pd20  1  0.708852  0.999936  0.000064  1
  Pd  Pd21  1  0.003558  0.498146  0.740228  1
  Pd  Pd22  1  0.498146  0.259772  0.996442  1
  Pd  Pd23  1  0.259772  0.003558  0.501854  1
  Pd  Pd24  1  0.003558  0.259772  0.501854  1
  Pd  Pd25  1  0.498146  0.003558  0.740228  1
  Pd  Pd26  1  0.259772  0.498146  0.996442  1
  Pd  Pd27  1  0.000149  0.499247  0.259705  1
  Pd  Pd28  1  0.499247  0.740295  0.999851  1
  Pd  Pd29  1  0.000149  0.740295  0.500753  1
  Pd  Pd30  1  0.499247  0.000149  0.259705  1
  Pd  Pd31  1  0.740295  0.000149  0.500753  1
  Pd  Pd32  1  0.740295  0.499247  0.999851  1
