# generated using pymatgen
data_Tb3Pa(Zn5Sn)2
_symmetry_space_group_name_H-M   'P 1'
_cell_length_a   8.38476508
_cell_length_b   8.38476605
_cell_length_c   8.99428800
_cell_angle_alpha   90.00000000
_cell_angle_beta   90.00000000
_cell_angle_gamma   149.63406204
_symmetry_Int_Tables_number   1
_chemical_formula_structural   Tb3Pa(Zn5Sn)2
_chemical_formula_sum   'Tb3 Pa1 Zn10 Sn2'
_cell_volume   319.65961115
_cell_formula_units_Z   1
loop_
 _symmetry_equiv_pos_site_id
 _symmetry_equiv_pos_as_xyz
  1  'x, y, z'
loop_
 _atom_site_type_symbol
 _atom_site_label
 _atom_site_symmetry_multiplicity
 _atom_site_fract_x
 _atom_site_fract_y
 _atom_site_fract_z
 _atom_site_occupancy
  Tb  Tb0  1  0.797037  0.202963  0.750000  1
  Tb  Tb1  1  0.000359  0.999641  0.501027  1
  Tb  Tb2  1  0.000359  0.999641  0.998973  1
  Pa  Pa3  1  0.204260  0.795740  0.250000  1
  Zn  Zn4  1  0.812577  0.187423  0.391401  1
  Zn  Zn5  1  0.185723  0.814277  0.608008  1
  Zn  Zn6  1  0.812577  0.187423  0.108599  1
  Zn  Zn7  1  0.185723  0.814277  0.891992  1
  Zn  Zn8  1  0.657288  0.342712  0.480433  1
  Zn  Zn9  1  0.343409  0.656591  0.518422  1
  Zn  Zn10  1  0.657288  0.342712  0.019567  1
  Zn  Zn11  1  0.343409  0.656591  0.981578  1
  Zn  Zn12  1  0.392315  0.607685  0.250000  1
  Zn  Zn13  1  0.607956  0.392044  0.750000  1
  Sn  Sn14  1  0.553715  0.446285  0.250000  1
  Sn  Sn15  1  0.446006  0.553994  0.750000  1
