# generated using pymatgen
data_Tm5Bi2Pb
_symmetry_space_group_name_H-M   'P 1'
_cell_length_a   6.30585500
_cell_length_b   9.04292791
_cell_length_c   9.02450400
_cell_angle_alpha   119.94722097
_cell_angle_beta   89.99995457
_cell_angle_gamma   89.99987062
_symmetry_Int_Tables_number   1
_chemical_formula_structural   Tm5Bi2Pb
_chemical_formula_sum   'Tm10 Bi4 Pb2'
_cell_volume   445.90028550
_cell_formula_units_Z   2
loop_
 _symmetry_equiv_pos_site_id
 _symmetry_equiv_pos_as_xyz
  1  'x, y, z'
loop_
 _atom_site_type_symbol
 _atom_site_label
 _atom_site_symmetry_multiplicity
 _atom_site_fract_x
 _atom_site_fract_y
 _atom_site_fract_z
 _atom_site_occupancy
  Tm  Tm0  1  0.501640  0.336123  0.667061  1
  Tm  Tm1  1  0.501643  0.663901  0.330991  1
  Tm  Tm2  1  0.998356  0.663903  0.330993  1
  Tm  Tm3  1  0.998358  0.336121  0.667060  1
  Tm  Tm4  1  0.750002  0.237827  0.002819  1
  Tm  Tm5  1  0.749998  0.762203  0.765031  1
  Tm  Tm6  1  0.750000  0.000003  0.234914  1
  Tm  Tm7  1  0.249999  0.765252  0.000117  1
  Tm  Tm8  1  0.250000  0.234662  0.234778  1
  Tm  Tm9  1  0.250000  0.999994  0.765070  1
  Bi  Bi10  1  0.750003  0.000025  0.606764  1
  Bi  Bi11  1  0.249999  0.392615  0.998349  1
  Bi  Bi12  1  0.249997  0.607317  0.605672  1
  Bi  Bi13  1  0.250000  0.000005  0.394284  1
  Pb  Pb14  1  0.750000  0.606291  0.001196  1
  Pb  Pb15  1  0.749999  0.393756  0.394899  1
