# generated using pymatgen
data_YbPr4Er5Sn8
_symmetry_space_group_name_H-M   'P 1'
_cell_length_a   7.99336900
_cell_length_b   8.36343800
_cell_length_c   15.66073600
_cell_angle_alpha   90.00000000
_cell_angle_beta   90.00000000
_cell_angle_gamma   90.00000000
_symmetry_Int_Tables_number   1
_chemical_formula_structural   YbPr4Er5Sn8
_chemical_formula_sum   'Yb2 Pr8 Er10 Sn16'
_cell_volume   1046.95224413
_cell_formula_units_Z   2
loop_
 _symmetry_equiv_pos_site_id
 _symmetry_equiv_pos_as_xyz
  1  'x, y, z'
loop_
 _atom_site_type_symbol
 _atom_site_label
 _atom_site_symmetry_multiplicity
 _atom_site_fract_x
 _atom_site_fract_y
 _atom_site_fract_z
 _atom_site_occupancy
  Yb  Yb0  1  0.165412  0.496255  0.250000  1
  Yb  Yb1  1  0.665412  0.003745  0.250000  1
  Pr  Pr2  1  0.503526  0.677489  0.597160  1
  Pr  Pr3  1  0.003526  0.822511  0.902840  1
  Pr  Pr4  1  0.493116  0.319256  0.094598  1
  Pr  Pr5  1  0.993116  0.180744  0.405402  1
  Pr  Pr6  1  0.493116  0.319256  0.405402  1
  Pr  Pr7  1  0.993116  0.180744  0.094598  1
  Pr  Pr8  1  0.503526  0.677489  0.902840  1
  Pr  Pr9  1  0.003526  0.822511  0.597160  1
  Er  Er10  1  0.670686  0.165515  0.626322  1
  Er  Er11  1  0.170686  0.334485  0.873678  1
  Er  Er12  1  0.331508  0.831511  0.122768  1
  Er  Er13  1  0.831508  0.668489  0.377232  1
  Er  Er14  1  0.331508  0.831511  0.377232  1
  Er  Er15  1  0.831508  0.668489  0.122768  1
  Er  Er16  1  0.670686  0.165515  0.873678  1
  Er  Er17  1  0.170686  0.334485  0.626322  1
  Er  Er18  1  0.837562  0.500629  0.750000  1
  Er  Er19  1  0.337562  0.999371  0.750000  1
  Sn  Sn20  1  0.673744  0.959981  0.461183  1
  Sn  Sn21  1  0.173744  0.540019  0.038817  1
  Sn  Sn22  1  0.326545  0.039086  0.957324  1
  Sn  Sn23  1  0.826545  0.460914  0.542676  1
  Sn  Sn24  1  0.326545  0.039086  0.542676  1
  Sn  Sn25  1  0.826545  0.460914  0.957324  1
  Sn  Sn26  1  0.673744  0.959981  0.038817  1
  Sn  Sn27  1  0.173744  0.540019  0.461183  1
  Sn  Sn28  1  0.475384  0.374802  0.750000  1
  Sn  Sn29  1  0.975384  0.125198  0.750000  1
  Sn  Sn30  1  0.531777  0.623263  0.250000  1
  Sn  Sn31  1  0.031777  0.876737  0.250000  1
  Sn  Sn32  1  0.701266  0.856017  0.750000  1
  Sn  Sn33  1  0.201266  0.643983  0.750000  1
  Sn  Sn34  1  0.290347  0.132992  0.250000  1
  Sn  Sn35  1  0.790347  0.367008  0.250000  1
