# generated using pymatgen
data_Ta12Mo6Ru5W
_symmetry_space_group_name_H-M   'P 1'
_cell_length_a   4.51500300
_cell_length_b   6.40983800
_cell_length_c   13.68516000
_cell_angle_alpha   90.00000000
_cell_angle_beta   89.99997475
_cell_angle_gamma   90.00000000
_symmetry_Int_Tables_number   1
_chemical_formula_structural   Ta12Mo6Ru5W
_chemical_formula_sum   'Ta12 Mo6 Ru5 W1'
_cell_volume   396.05452176
_cell_formula_units_Z   1
loop_
 _symmetry_equiv_pos_site_id
 _symmetry_equiv_pos_as_xyz
  1  'x, y, z'
loop_
 _atom_site_type_symbol
 _atom_site_label
 _atom_site_symmetry_multiplicity
 _atom_site_fract_x
 _atom_site_fract_y
 _atom_site_fract_z
 _atom_site_occupancy
  Ta  Ta0  1  0.500000  0.249586  0.000000  1
  Ta  Ta1  1  0.500000  0.750414  0.000000  1
  Ta  Ta2  1  0.999998  0.249668  0.166858  1
  Ta  Ta3  1  0.999998  0.750332  0.166858  1
  Ta  Ta4  1  0.499989  0.250032  0.333667  1
  Ta  Ta5  1  0.499989  0.749969  0.333667  1
  Ta  Ta6  1  0.000000  0.250085  0.500000  1
  Ta  Ta7  1  0.000000  0.749915  0.500000  1
  Ta  Ta8  1  0.500011  0.250032  0.666333  1
  Ta  Ta9  1  0.500011  0.749969  0.666333  1
  Ta  Ta10  1  0.000002  0.249668  0.833142  1
  Ta  Ta11  1  0.000002  0.750332  0.833142  1
  Mo  Mo12  1  0.000000  0.500000  0.000000  1
  Mo  Mo13  1  0.499994  0.000000  0.169120  1
  Mo  Mo14  1  0.999995  0.500000  0.334075  1
  Mo  Mo15  1  0.500000  0.000000  0.500000  1
  Mo  Mo16  1  0.000005  0.500000  0.665925  1
  Mo  Mo17  1  0.500006  0.000000  0.830880  1
  Ru  Ru18  1  0.499992  0.500000  0.167937  1
  Ru  Ru19  1  0.000004  0.000000  0.334887  1
  Ru  Ru20  1  0.500000  0.500000  0.500000  1
  Ru  Ru21  1  0.999996  0.000000  0.665113  1
  Ru  Ru22  1  0.500008  0.500000  0.832063  1
  W  W23  1  0.000000  0.000000  0.000000  1
