# generated using pymatgen
data_KMnTc3F18
_symmetry_space_group_name_H-M   'P 1'
_cell_length_a   10.50363300
_cell_length_b   11.65388500
_cell_length_c   15.51060600
_cell_angle_alpha   90.00000000
_cell_angle_beta   90.00000000
_cell_angle_gamma   90.00000000
_symmetry_Int_Tables_number   1
_chemical_formula_structural   KMnTc3F18
_chemical_formula_sum   'K4 Mn4 Tc12 F72'
_cell_volume   1898.62429213
_cell_formula_units_Z   4
loop_
 _symmetry_equiv_pos_site_id
 _symmetry_equiv_pos_as_xyz
  1  'x, y, z'
loop_
 _atom_site_type_symbol
 _atom_site_label
 _atom_site_symmetry_multiplicity
 _atom_site_fract_x
 _atom_site_fract_y
 _atom_site_fract_z
 _atom_site_occupancy
  K  K0  1  0.531880  0.931486  0.750000  1
  K  K1  1  0.968120  0.431486  0.750000  1
  K  K2  1  0.468120  0.068514  0.250000  1
  K  K3  1  0.031880  0.568514  0.250000  1
  Mn  Mn4  1  0.000000  0.000000  0.500000  1
  Mn  Mn5  1  0.500000  0.500000  0.000000  1
  Mn  Mn6  1  0.000000  0.000000  0.000000  1
  Mn  Mn7  1  0.500000  0.500000  0.500000  1
  Tc  Tc8  1  0.097234  0.025753  0.750000  1
  Tc  Tc9  1  0.402766  0.525753  0.750000  1
  Tc  Tc10  1  0.902766  0.974247  0.250000  1
  Tc  Tc11  1  0.597234  0.474247  0.250000  1
  Tc  Tc12  1  0.701387  0.208789  0.546194  1
  Tc  Tc13  1  0.798613  0.708789  0.953806  1
  Tc  Tc14  1  0.298613  0.791211  0.046194  1
  Tc  Tc15  1  0.201387  0.291211  0.453806  1
  Tc  Tc16  1  0.298613  0.791211  0.453806  1
  Tc  Tc17  1  0.201387  0.291211  0.046194  1
  Tc  Tc18  1  0.701387  0.208789  0.953806  1
  Tc  Tc19  1  0.798613  0.708789  0.546194  1
  F  F20  1  0.093462  0.025860  0.622222  1
  F  F21  1  0.406538  0.525860  0.877778  1
  F  F22  1  0.906538  0.974140  0.122222  1
  F  F23  1  0.593462  0.474140  0.377778  1
  F  F24  1  0.906538  0.974140  0.377778  1
  F  F25  1  0.593462  0.474140  0.122222  1
  F  F26  1  0.093462  0.025860  0.877778  1
  F  F27  1  0.406538  0.525860  0.622222  1
  F  F28  1  0.148429  0.872468  0.750000  1
  F  F29  1  0.351571  0.372468  0.750000  1
  F  F30  1  0.851571  0.127532  0.250000  1
  F  F31  1  0.648429  0.627532  0.250000  1
  F  F32  1  0.271959  0.065108  0.750000  1
  F  F33  1  0.228041  0.565108  0.750000  1
  F  F34  1  0.728041  0.934892  0.250000  1
  F  F35  1  0.771959  0.434892  0.250000  1
  F  F36  1  0.054011  0.183258  0.750000  1
  F  F37  1  0.445989  0.683258  0.750000  1
  F  F38  1  0.945989  0.816742  0.250000  1
  F  F39  1  0.554011  0.316742  0.250000  1
  F  F40  1  0.925675  0.982575  0.750000  1
  F  F41  1  0.574325  0.482575  0.750000  1
  F  F42  1  0.074325  0.017425  0.250000  1
  F  F43  1  0.425675  0.517425  0.250000  1
  F  F44  1  0.831661  0.085224  0.544868  1
  F  F45  1  0.668339  0.585224  0.955132  1
  F  F46  1  0.168339  0.914776  0.044868  1
  F  F47  1  0.331661  0.414776  0.455132  1
  F  F48  1  0.168339  0.914776  0.455132  1
  F  F49  1  0.331661  0.414776  0.044868  1
  F  F50  1  0.831661  0.085224  0.955132  1
  F  F51  1  0.668339  0.585224  0.544868  1
  F  F52  1  0.796031  0.289341  0.464682  1
  F  F53  1  0.703969  0.789341  0.035318  1
  F  F54  1  0.203969  0.710659  0.964682  1
  F  F55  1  0.296031  0.210659  0.535318  1
  F  F56  1  0.203969  0.710659  0.535318  1
  F  F57  1  0.296031  0.210659  0.964682  1
  F  F58  1  0.796031  0.289341  0.035318  1
  F  F59  1  0.703969  0.789341  0.464682  1
  F  F60  1  0.610632  0.133568  0.458623  1
  F  F61  1  0.889368  0.633568  0.041377  1
  F  F62  1  0.389368  0.866432  0.958623  1
  F  F63  1  0.110632  0.366432  0.541377  1
  F  F64  1  0.389368  0.866432  0.541377  1
  F  F65  1  0.110632  0.366432  0.958623  1
  F  F66  1  0.610632  0.133568  0.041377  1
  F  F67  1  0.889368  0.633568  0.458623  1
  F  F68  1  0.574869  0.334633  0.545329  1
  F  F69  1  0.925131  0.834633  0.954671  1
  F  F70  1  0.425131  0.665367  0.045329  1
  F  F71  1  0.074869  0.165367  0.454671  1
  F  F72  1  0.425131  0.665367  0.454671  1
  F  F73  1  0.074869  0.165367  0.045329  1
  F  F74  1  0.574869  0.334633  0.954671  1
  F  F75  1  0.925131  0.834633  0.545329  1
  F  F76  1  0.609399  0.124622  0.630019  1
  F  F77  1  0.890601  0.624622  0.869981  1
  F  F78  1  0.390601  0.875378  0.130019  1
  F  F79  1  0.109399  0.375378  0.369981  1
  F  F80  1  0.390601  0.875378  0.369981  1
  F  F81  1  0.109399  0.375378  0.130019  1
  F  F82  1  0.609399  0.124622  0.869981  1
  F  F83  1  0.890601  0.624622  0.630019  1
  F  F84  1  0.790962  0.283488  0.635774  1
  F  F85  1  0.709038  0.783488  0.864226  1
  F  F86  1  0.209038  0.716512  0.135774  1
  F  F87  1  0.290962  0.216512  0.364226  1
  F  F88  1  0.209038  0.716512  0.364226  1
  F  F89  1  0.290962  0.216512  0.135774  1
  F  F90  1  0.790962  0.283488  0.864226  1
  F  F91  1  0.709038  0.783488  0.635774  1
