# generated using pymatgen
data_Pr4NdGd3(Se3N2)2
_symmetry_space_group_name_H-M   'P 1'
_cell_length_a   8.30621396
_cell_length_b   8.31350035
_cell_length_c   6.42784611
_cell_angle_alpha   90.07211277
_cell_angle_beta   90.35710378
_cell_angle_gamma   75.22197390
_symmetry_Int_Tables_number   1
_chemical_formula_structural   Pr4NdGd3(Se3N2)2
_chemical_formula_sum   'Pr4 Nd1 Gd3 Se6 N4'
_cell_volume   429.17573947
_cell_formula_units_Z   1
loop_
 _symmetry_equiv_pos_site_id
 _symmetry_equiv_pos_as_xyz
  1  'x, y, z'
loop_
 _atom_site_type_symbol
 _atom_site_label
 _atom_site_symmetry_multiplicity
 _atom_site_fract_x
 _atom_site_fract_y
 _atom_site_fract_z
 _atom_site_occupancy
  Pr  Pr0  1  0.942487  0.308635  0.530107  1
  Pr  Pr1  1  0.690536  0.059107  0.972647  1
  Pr  Pr2  1  0.059585  0.689652  0.469047  1
  Pr  Pr3  1  0.308328  0.942903  0.031698  1
  Nd  Nd4  1  0.585608  0.743303  0.571361  1
  Gd  Gd5  1  0.257755  0.411198  0.926346  1
  Gd  Gd6  1  0.411442  0.259238  0.426591  1
  Gd  Gd7  1  0.743507  0.586974  0.072680  1
  Se  Se8  1  0.983551  0.252886  0.032572  1
  Se  Se9  1  0.406825  0.589356  0.246513  1
  Se  Se10  1  0.748490  0.018987  0.466744  1
  Se  Se11  1  0.016656  0.746770  0.965570  1
  Se  Se12  1  0.591820  0.406528  0.751376  1
  Se  Se13  1  0.249266  0.986029  0.532079  1
  N  N14  1  0.828422  0.582728  0.407733  1
  N  N15  1  0.585034  0.825360  0.920780  1
  N  N16  1  0.176838  0.413940  0.588145  1
  N  N17  1  0.413850  0.176407  0.088012  1
