# generated using pymatgen
data_K8PrNd3I20
_symmetry_space_group_name_H-M   'P 1'
_cell_length_a   9.30770847
_cell_length_b   9.88740000
_cell_length_c   14.69026674
_cell_angle_alpha   90.00000000
_cell_angle_beta   89.96355929
_cell_angle_gamma   90.00000000
_symmetry_Int_Tables_number   1
_chemical_formula_structural   K8PrNd3I20
_chemical_formula_sum   'K8 Pr1 Nd3 I20'
_cell_volume   1351.93082425
_cell_formula_units_Z   1
loop_
 _symmetry_equiv_pos_site_id
 _symmetry_equiv_pos_as_xyz
  1  'x, y, z'
loop_
 _atom_site_type_symbol
 _atom_site_label
 _atom_site_symmetry_multiplicity
 _atom_site_fract_x
 _atom_site_fract_y
 _atom_site_fract_z
 _atom_site_occupancy
  K  K0  1  0.947922  0.003975  0.827827  1
  K  K1  1  0.052091  0.996045  0.172171  1
  K  K2  1  0.447896  0.996060  0.672199  1
  K  K3  1  0.052091  0.503955  0.172171  1
  K  K4  1  0.552048  0.003985  0.327788  1
  K  K5  1  0.947922  0.496025  0.827827  1
  K  K6  1  0.552048  0.496015  0.327788  1
  K  K7  1  0.447896  0.503940  0.672199  1
  Pr  Pr8  1  0.920690  0.750000  0.505548  1
  Nd  Nd9  1  0.079164  0.250000  0.494651  1
  Nd  Nd10  1  0.420881  0.250000  0.994670  1
  Nd  Nd11  1  0.579121  0.750000  0.005363  1
  I  I12  1  0.128689  0.750000  0.680378  1
  I  I13  1  0.872391  0.250000  0.320483  1
  I  I14  1  0.627597  0.250000  0.820479  1
  I  I15  1  0.372384  0.750000  0.179525  1
  I  I16  1  0.834477  0.046196  0.577501  1
  I  I17  1  0.165956  0.955784  0.422501  1
  I  I18  1  0.334910  0.955089  0.922836  1
  I  I19  1  0.165956  0.544216  0.422501  1
  I  I20  1  0.665099  0.044908  0.077162  1
  I  I21  1  0.834477  0.453804  0.577501  1
  I  I22  1  0.665099  0.455092  0.077162  1
  I  I23  1  0.334910  0.544911  0.922836  1
  I  I24  1  0.571466  0.750000  0.507582  1
  I  I25  1  0.427156  0.250000  0.492435  1
  I  I26  1  0.072912  0.250000  0.992397  1
  I  I27  1  0.927084  0.750000  0.007561  1
  I  I28  1  0.663464  0.750000  0.795278  1
  I  I29  1  0.336577  0.250000  0.204664  1
  I  I30  1  0.163450  0.250000  0.704672  1
  I  I31  1  0.836179  0.750000  0.294344  1
