# generated using pymatgen
data_Cs4RbNa(ReH9)3
_symmetry_space_group_name_H-M   'P 1'
_cell_length_a   9.73996711
_cell_length_b   10.14256002
_cell_length_c   6.09285900
_cell_angle_alpha   90.00000000
_cell_angle_beta   90.00000000
_cell_angle_gamma   119.74392961
_symmetry_Int_Tables_number   1
_chemical_formula_structural   Cs4RbNa(ReH9)3
_chemical_formula_sum   'Cs4 Rb1 Na1 Re3 H27'
_cell_volume   522.60274680
_cell_formula_units_Z   1
loop_
 _symmetry_equiv_pos_site_id
 _symmetry_equiv_pos_as_xyz
  1  'x, y, z'
loop_
 _atom_site_type_symbol
 _atom_site_label
 _atom_site_symmetry_multiplicity
 _atom_site_fract_x
 _atom_site_fract_y
 _atom_site_fract_z
 _atom_site_occupancy
  Cs  Cs0  1  0.006839  0.254835  0.500000  1
  Cs  Cs1  1  0.998527  0.588439  0.000000  1
  Cs  Cs2  1  0.408236  0.412106  0.000000  1
  Cs  Cs3  1  0.581923  0.002254  0.000000  1
  Rb  Rb4  1  0.750128  0.739805  0.500000  1
  Na  Na5  1  0.286109  0.998583  0.500000  1
  Re  Re6  1  0.640899  0.320899  0.500000  1
  Re  Re7  1  0.335537  0.689827  0.500000  1
  Re  Re8  1  0.018269  0.989994  0.000000  1
  H  H9  1  0.744890  0.297010  0.706950  1
  H  H10  1  0.671759  0.452029  0.699077  1
  H  H11  1  0.502817  0.214262  0.695626  1
  H  H12  1  0.235421  0.561621  0.296314  1
  H  H13  1  0.502817  0.214262  0.304374  1
  H  H14  1  0.744890  0.297010  0.293050  1
  H  H15  1  0.671759  0.452029  0.300923  1
  H  H16  1  0.302735  0.793644  0.695235  1
  H  H17  1  0.468416  0.716350  0.702630  1
  H  H18  1  0.190808  0.989116  0.000000  1
  H  H19  1  0.849623  0.819922  0.000000  1
  H  H20  1  0.020352  0.157516  0.000000  1
  H  H21  1  0.889617  0.988197  0.193753  1
  H  H22  1  0.142721  0.106746  0.800166  1
  H  H23  1  0.023240  0.875937  0.796761  1
  H  H24  1  0.023240  0.875937  0.203239  1
  H  H25  1  0.142721  0.106746  0.199834  1
  H  H26  1  0.889617  0.988197  0.806247  1
  H  H27  1  0.143112  0.640908  0.500000  1
  H  H28  1  0.487651  0.869265  0.500000  1
  H  H29  1  0.378781  0.547763  0.500000  1
  H  H30  1  0.493648  0.362054  0.500000  1
  H  H31  1  0.831738  0.461511  0.500000  1
  H  H32  1  0.614588  0.143614  0.500000  1
  H  H33  1  0.235421  0.561621  0.703686  1
  H  H34  1  0.302735  0.793644  0.304765  1
  H  H35  1  0.468416  0.716350  0.297370  1
