# generated using pymatgen
data_Ti4CrS8
_symmetry_space_group_name_H-M   'P 1'
_cell_length_a   6.67196814
_cell_length_b   6.67196804
_cell_length_c   8.17108541
_cell_angle_alpha   53.43497803
_cell_angle_beta   53.43497852
_cell_angle_gamma   61.60758898
_symmetry_Int_Tables_number   1
_chemical_formula_structural   Ti4CrS8
_chemical_formula_sum   'Ti4 Cr1 S8'
_cell_volume   230.50951828
_cell_formula_units_Z   1
loop_
 _symmetry_equiv_pos_site_id
 _symmetry_equiv_pos_as_xyz
  1  'x, y, z'
loop_
 _atom_site_type_symbol
 _atom_site_label
 _atom_site_symmetry_multiplicity
 _atom_site_fract_x
 _atom_site_fract_y
 _atom_site_fract_z
 _atom_site_occupancy
  Ti  Ti0  1  0.262686  0.737314  0.500000  1
  Ti  Ti1  1  0.737314  0.262686  0.500000  1
  Ti  Ti2  1  0.259093  0.259093  0.991143  1
  Ti  Ti3  1  0.740907  0.740907  0.008857  1
  Cr  Cr4  1  0.000000  0.000000  0.000000  1
  S  S5  1  0.965065  0.965065  0.327249  1
  S  S6  1  0.034935  0.034935  0.672751  1
  S  S7  1  0.454200  0.454200  0.334398  1
  S  S8  1  0.545800  0.545800  0.665602  1
  S  S9  1  0.040854  0.549563  0.167565  1
  S  S10  1  0.549563  0.040854  0.167565  1
  S  S11  1  0.959146  0.450437  0.832435  1
  S  S12  1  0.450437  0.959146  0.832435  1
