# generated using pymatgen
data_YZr2Al7Ni2
_symmetry_space_group_name_H-M   'P 1'
_cell_length_a   8.79219259
_cell_length_b   8.79219344
_cell_length_c   8.79219276
_cell_angle_alpha   35.25916041
_cell_angle_beta   35.25914995
_cell_angle_gamma   35.25915104
_symmetry_Int_Tables_number   1
_chemical_formula_structural   YZr2Al7Ni2
_chemical_formula_sum   'Y1 Zr2 Al7 Ni2'
_cell_volume   202.32263812
_cell_formula_units_Z   1
loop_
 _symmetry_equiv_pos_site_id
 _symmetry_equiv_pos_as_xyz
  1  'x, y, z'
loop_
 _atom_site_type_symbol
 _atom_site_label
 _atom_site_symmetry_multiplicity
 _atom_site_fract_x
 _atom_site_fract_y
 _atom_site_fract_z
 _atom_site_occupancy
  Y  Y0  1  0.000000  0.000000  0.000000  1
  Zr  Zr1  1  0.854697  0.854697  0.854697  1
  Zr  Zr2  1  0.145303  0.145303  0.145303  1
  Al  Al3  1  0.417854  0.417854  0.928131  1
  Al  Al4  1  0.928131  0.417854  0.417854  1
  Al  Al5  1  0.417854  0.928131  0.417854  1
  Al  Al6  1  0.500000  0.500000  0.500000  1
  Al  Al7  1  0.582146  0.071869  0.582146  1
  Al  Al8  1  0.071869  0.582146  0.582146  1
  Al  Al9  1  0.582146  0.582146  0.071869  1
  Ni  Ni10  1  0.664931  0.664931  0.664931  1
  Ni  Ni11  1  0.335069  0.335069  0.335069  1
