# generated using pymatgen
data_TbDyEr4(SbO7)2
_symmetry_space_group_name_H-M   'P 1'
_cell_length_a   6.43959208
_cell_length_b   6.43959323
_cell_length_c   7.50012402
_cell_angle_alpha   90.00650997
_cell_angle_beta   89.99348887
_cell_angle_gamma   109.32014970
_symmetry_Int_Tables_number   1
_chemical_formula_structural   TbDyEr4(SbO7)2
_chemical_formula_sum   'Tb1 Dy1 Er4 Sb2 O14'
_cell_volume   293.50271836
_cell_formula_units_Z   1
loop_
 _symmetry_equiv_pos_site_id
 _symmetry_equiv_pos_as_xyz
  1  'x, y, z'
loop_
 _atom_site_type_symbol
 _atom_site_label
 _atom_site_symmetry_multiplicity
 _atom_site_fract_x
 _atom_site_fract_y
 _atom_site_fract_z
 _atom_site_occupancy
  Tb  Tb0  1  0.500000  0.500000  0.000000  1
  Dy  Dy1  1  0.500000  0.500000  0.500000  1
  Er  Er2  1  0.531663  0.000828  0.749756  1
  Er  Er3  1  0.000828  0.531663  0.250244  1
  Er  Er4  1  0.468337  0.999172  0.250244  1
  Er  Er5  1  0.999172  0.468337  0.749756  1
  Sb  Sb6  1  0.000000  0.000000  0.500000  1
  Sb  Sb7  1  0.000000  0.000000  0.000000  1
  O  O8  1  0.676278  0.927466  0.469793  1
  O  O9  1  0.927466  0.676278  0.530207  1
  O  O10  1  0.676263  0.927806  0.030239  1
  O  O11  1  0.927806  0.676263  0.969761  1
  O  O12  1  0.323722  0.072534  0.530207  1
  O  O13  1  0.072534  0.323722  0.469793  1
  O  O14  1  0.323737  0.072194  0.969761  1
  O  O15  1  0.072194  0.323737  0.030239  1
  O  O16  1  0.928302  0.071698  0.750026  1
  O  O17  1  0.071698  0.928302  0.249974  1
  O  O18  1  0.367651  0.632349  0.749057  1
  O  O19  1  0.632349  0.367651  0.250943  1
  O  O20  1  0.638869  0.361131  0.749216  1
  O  O21  1  0.361131  0.638869  0.250784  1
