# generated using pymatgen
data_Dy8Ti11Si16Tc
_symmetry_space_group_name_H-M   'P 1'
_cell_length_a   7.03807608
_cell_length_b   7.02560767
_cell_length_c   12.92850081
_cell_angle_alpha   90.17709721
_cell_angle_beta   90.17065863
_cell_angle_gamma   90.03227292
_symmetry_Int_Tables_number   1
_chemical_formula_structural   Dy8Ti11Si16Tc
_chemical_formula_sum   'Dy8 Ti11 Si16 Tc1'
_cell_volume   639.26649904
_cell_formula_units_Z   1
loop_
 _symmetry_equiv_pos_site_id
 _symmetry_equiv_pos_as_xyz
  1  'x, y, z'
loop_
 _atom_site_type_symbol
 _atom_site_label
 _atom_site_symmetry_multiplicity
 _atom_site_fract_x
 _atom_site_fract_y
 _atom_site_fract_z
 _atom_site_occupancy
  Dy  Dy0  1  0.998230  0.658677  0.034859  1
  Dy  Dy1  1  0.002471  0.340961  0.531032  1
  Dy  Dy2  1  0.660759  0.996329  0.967174  1
  Dy  Dy3  1  0.158978  0.501824  0.783439  1
  Dy  Dy4  1  0.841107  0.496143  0.283424  1
  Dy  Dy5  1  0.501630  0.160695  0.218407  1
  Dy  Dy6  1  0.496923  0.838960  0.715493  1
  Dy  Dy7  1  0.340650  0.002424  0.466666  1
  Ti  Ti8  1  0.846250  0.990958  0.376081  1
  Ti  Ti9  1  0.009857  0.155229  0.126631  1
  Ti  Ti10  1  0.994111  0.844428  0.621757  1
  Ti  Ti11  1  0.507557  0.346496  0.625933  1
  Ti  Ti12  1  0.152360  0.008384  0.875267  1
  Ti  Ti13  1  0.668916  0.670364  0.498317  1
  Ti  Ti14  1  0.826485  0.172886  0.749938  1
  Ti  Ti15  1  0.177187  0.823515  0.251145  1
  Ti  Ti16  1  0.327822  0.328246  0.001005  1
  Ti  Ti17  1  0.495094  0.653652  0.124457  1
  Ti  Ti18  1  0.653053  0.493147  0.874797  1
  Si  Si19  1  0.048331  0.709665  0.435069  1
  Si  Si20  1  0.954124  0.290987  0.935830  1
  Si  Si21  1  0.708904  0.047113  0.564655  1
  Si  Si22  1  0.210393  0.455550  0.187457  1
  Si  Si23  1  0.790758  0.546364  0.684885  1
  Si  Si24  1  0.454225  0.208617  0.815153  1
  Si  Si25  1  0.543731  0.787948  0.313744  1
  Si  Si26  1  0.291654  0.953164  0.064714  1
  Si  Si27  1  0.797428  0.870207  0.184583  1
  Si  Si28  1  0.299042  0.629813  0.563006  1
  Si  Si29  1  0.701793  0.368660  0.065951  1
  Si  Si30  1  0.625425  0.301613  0.434087  1
  Si  Si31  1  0.369196  0.702262  0.934367  1
  Si  Si32  1  0.130306  0.205678  0.317160  1
  Si  Si33  1  0.201629  0.130368  0.683713  1
  Si  Si34  1  0.869532  0.797765  0.815000  1
  Tc  Tc35  1  0.344090  0.510908  0.374805  1
