# generated using pymatgen
data_V9Si3GeOs3
_symmetry_space_group_name_H-M   'P 1'
_cell_length_a   4.73186938
_cell_length_b   4.72601298
_cell_length_c   9.44097898
_cell_angle_alpha   89.84546044
_cell_angle_beta   90.06223234
_cell_angle_gamma   90.09669101
_symmetry_Int_Tables_number   1
_chemical_formula_structural   V9Si3GeOs3
_chemical_formula_sum   'V9 Si3 Ge1 Os3'
_cell_volume   211.12625084
_cell_formula_units_Z   1
loop_
 _symmetry_equiv_pos_site_id
 _symmetry_equiv_pos_as_xyz
  1  'x, y, z'
loop_
 _atom_site_type_symbol
 _atom_site_label
 _atom_site_symmetry_multiplicity
 _atom_site_fract_x
 _atom_site_fract_y
 _atom_site_fract_z
 _atom_site_occupancy
  V  V0  1  0.999500  0.499660  0.625110  1
  V  V1  1  0.498127  0.248190  0.252620  1
  V  V2  1  0.751965  0.998796  0.999615  1
  V  V3  1  0.001420  0.501791  0.865324  1
  V  V4  1  0.001715  0.501320  0.384503  1
  V  V5  1  0.498886  0.750598  0.748394  1
  V  V6  1  0.498565  0.755413  0.253299  1
  V  V7  1  0.251332  0.999583  0.999076  1
  V  V8  1  0.250734  0.998411  0.498727  1
  Si  Si9  1  0.494831  0.501015  0.497454  1
  Si  Si10  1  0.001056  0.994984  0.752180  1
  Si  Si11  1  0.002462  0.000223  0.250345  1
  Ge  Ge12  1  0.500235  0.503088  0.999793  1
  Os  Os13  1  0.000331  0.500703  0.127759  1
  Os  Os14  1  0.497019  0.249211  0.746012  1
  Os  Os15  1  0.751821  0.997014  0.499788  1
