# generated using pymatgen
data_Li30Si5Bi3
_symmetry_space_group_name_H-M   'P 1'
_cell_length_a   9.41798938
_cell_length_b   9.46158380
_cell_length_c   9.43899227
_cell_angle_alpha   109.47053078
_cell_angle_beta   109.48784674
_cell_angle_gamma   109.39135265
_symmetry_Int_Tables_number   1
_chemical_formula_structural   Li30Si5Bi3
_chemical_formula_sum   'Li30 Si5 Bi3'
_cell_volume   647.98910052
_cell_formula_units_Z   1
loop_
 _symmetry_equiv_pos_site_id
 _symmetry_equiv_pos_as_xyz
  1  'x, y, z'
loop_
 _atom_site_type_symbol
 _atom_site_label
 _atom_site_symmetry_multiplicity
 _atom_site_fract_x
 _atom_site_fract_y
 _atom_site_fract_z
 _atom_site_occupancy
  Li  Li0  1  0.470383  0.168780  0.875673  1
  Li  Li1  1  0.911375  0.674875  0.030970  1
  Li  Li2  1  0.805722  0.708716  0.333220  1
  Li  Li3  1  0.765673  0.572384  0.598874  1
  Li  Li4  1  0.574710  0.597202  0.766459  1
  Li  Li5  1  0.597306  0.766198  0.574760  1
  Li  Li6  1  0.647403  0.962753  0.391531  1
  Li  Li7  1  0.416369  0.529907  0.193176  1
  Li  Li8  1  0.626971  0.385536  0.252578  1
  Li  Li9  1  0.247836  0.622349  0.371041  1
  Li  Li10  1  0.741559  0.857692  0.120320  1
  Li  Li11  1  0.119824  0.734413  0.868668  1
  Li  Li12  1  0.385738  0.255646  0.630442  1
  Li  Li13  1  0.871966  0.138005  0.754357  1
  Li  Li14  1  0.094162  0.294316  0.126323  1
  Li  Li15  1  0.685025  0.040024  0.902618  1
  Li  Li16  1  0.888699  0.472886  0.163528  1
  Li  Li17  1  0.165539  0.874351  0.466225  1
  Li  Li18  1  0.334415  0.805768  0.709068  1
  Li  Li19  1  0.726290  0.338464  0.812598  1
  Li  Li20  1  0.036844  0.899312  0.683635  1
  Li  Li21  1  0.232451  0.318384  0.855241  1
  Li  Li22  1  0.198693  0.429988  0.530812  1
  Li  Li23  1  0.973270  0.398445  0.667433  1
  Li  Li24  1  0.302411  0.829303  0.229912  1
  Li  Li25  1  0.526785  0.194147  0.425931  1
  Li  Li26  1  0.378028  0.644275  0.966491  1
  Li  Li27  1  0.138735  0.099933  0.285538  1
  Li  Li28  1  0.286150  0.141191  0.095122  1
  Li  Li29  1  0.850522  0.243894  0.316753  1
  Si  Si30  1  0.084156  0.499135  0.999416  1
  Si  Si31  1  0.000340  0.584978  0.499677  1
  Si  Si32  1  0.584427  0.499808  0.000448  1
  Si  Si33  1  0.499575  0.001828  0.585659  1
  Si  Si34  1  0.415930  0.416493  0.415186  1
  Bi  Bi35  1  0.916305  0.916396  0.917170  1
  Bi  Bi36  1  0.498346  0.998571  0.082673  1
  Bi  Bi37  1  0.000068  0.083657  0.500477  1
