# generated using pymatgen
data_TbEr15Cd2(InNi2)2
_symmetry_space_group_name_H-M   'P 1'
_cell_length_a   9.48612858
_cell_length_b   9.48527015
_cell_length_c   9.49836370
_cell_angle_alpha   60.11050173
_cell_angle_beta   60.10038977
_cell_angle_gamma   60.20616852
_symmetry_Int_Tables_number   1
_chemical_formula_structural   TbEr15Cd2(InNi2)2
_chemical_formula_sum   'Tb1 Er15 Cd2 In2 Ni4'
_cell_volume   606.22958001
_cell_formula_units_Z   1
loop_
 _symmetry_equiv_pos_site_id
 _symmetry_equiv_pos_as_xyz
  1  'x, y, z'
loop_
 _atom_site_type_symbol
 _atom_site_label
 _atom_site_symmetry_multiplicity
 _atom_site_fract_x
 _atom_site_fract_y
 _atom_site_fract_z
 _atom_site_occupancy
  Tb  Tb0  1  0.345588  0.345620  0.347396  1
  Er  Er1  1  0.348503  0.348549  0.954512  1
  Er  Er2  1  0.350952  0.951580  0.349052  1
  Er  Er3  1  0.951599  0.350967  0.349023  1
  Er  Er4  1  0.811864  0.189876  0.188210  1
  Er  Er5  1  0.189573  0.811775  0.811467  1
  Er  Er6  1  0.189883  0.811842  0.188206  1
  Er  Er7  1  0.811789  0.189568  0.811448  1
  Er  Er8  1  0.187901  0.187886  0.813252  1
  Er  Er9  1  0.810782  0.810759  0.190648  1
  Er  Er10  1  0.937312  0.565791  0.564303  1
  Er  Er11  1  0.563491  0.938463  0.934936  1
  Er  Er12  1  0.565814  0.937289  0.564305  1
  Er  Er13  1  0.938493  0.563469  0.934944  1
  Er  Er14  1  0.564955  0.564934  0.934791  1
  Er  Er15  1  0.938721  0.938704  0.561051  1
  Cd  Cd16  1  0.580198  0.253833  0.583039  1
  Cd  Cd17  1  0.253851  0.580189  0.583031  1
  In  In18  1  0.581705  0.581768  0.583744  1
  In  In19  1  0.581779  0.581710  0.253218  1
  Ni  Ni20  1  0.142099  0.142125  0.144246  1
  Ni  Ni21  1  0.139339  0.139319  0.573841  1
  Ni  Ni22  1  0.139330  0.574585  0.140598  1
  Ni  Ni23  1  0.574480  0.139398  0.140740  1
