# generated using pymatgen
data_Dy8Lu6Sc6Si15Ru
_symmetry_space_group_name_H-M   'P 1'
_cell_length_a   7.14702170
_cell_length_b   7.57631524
_cell_length_c   14.14842975
_cell_angle_alpha   90.13521353
_cell_angle_beta   90.09380362
_cell_angle_gamma   90.27726769
_symmetry_Int_Tables_number   1
_chemical_formula_structural   Dy8Lu6Sc6Si15Ru
_chemical_formula_sum   'Dy8 Lu6 Sc6 Si15 Ru1'
_cell_volume   766.09829413
_cell_formula_units_Z   1
loop_
 _symmetry_equiv_pos_site_id
 _symmetry_equiv_pos_as_xyz
  1  'x, y, z'
loop_
 _atom_site_type_symbol
 _atom_site_label
 _atom_site_symmetry_multiplicity
 _atom_site_fract_x
 _atom_site_fract_y
 _atom_site_fract_z
 _atom_site_occupancy
  Dy  Dy0  1  0.012916  0.181088  0.094388  1
  Dy  Dy1  1  0.988713  0.824646  0.906685  1
  Dy  Dy2  1  0.486937  0.679831  0.904690  1
  Dy  Dy3  1  0.987720  0.825187  0.596752  1
  Dy  Dy4  1  0.513034  0.320410  0.095212  1
  Dy  Dy5  1  0.014897  0.182348  0.401846  1
  Dy  Dy6  1  0.513998  0.320393  0.402554  1
  Dy  Dy7  1  0.487214  0.679050  0.596790  1
  Lu  Lu8  1  0.311656  0.171997  0.629660  1
  Lu  Lu9  1  0.675636  0.825325  0.372886  1
  Lu  Lu10  1  0.174957  0.677857  0.373018  1
  Lu  Lu11  1  0.674573  0.825143  0.124350  1
  Lu  Lu12  1  0.835708  0.317264  0.629250  1
  Lu  Lu13  1  0.312007  0.172495  0.873143  1
  Sc  Sc14  1  0.156842  0.510648  0.751894  1
  Sc  Sc15  1  0.841465  0.490004  0.247858  1
  Sc  Sc16  1  0.340209  0.011177  0.248482  1
  Sc  Sc17  1  0.670195  0.993009  0.752079  1
  Sc  Sc18  1  0.835398  0.320816  0.871957  1
  Sc  Sc19  1  0.174395  0.677099  0.125806  1
  Si  Si20  1  0.977404  0.892929  0.247128  1
  Si  Si21  1  0.474173  0.603022  0.246927  1
  Si  Si22  1  0.525822  0.397449  0.752856  1
  Si  Si23  1  0.282973  0.862124  0.750900  1
  Si  Si24  1  0.714688  0.135596  0.248560  1
  Si  Si25  1  0.215565  0.367423  0.247893  1
  Si  Si26  1  0.778692  0.629211  0.751895  1
  Si  Si27  1  0.159110  0.471276  0.538300  1
  Si  Si28  1  0.844533  0.532889  0.461216  1
  Si  Si29  1  0.344716  0.969035  0.459632  1
  Si  Si30  1  0.847789  0.531257  0.037954  1
  Si  Si31  1  0.652564  0.032520  0.539455  1
  Si  Si32  1  0.156313  0.473365  0.963230  1
  Si  Si33  1  0.658019  0.036759  0.959678  1
  Si  Si34  1  0.341474  0.964752  0.041032  1
  Ru  Ru35  1  0.017697  0.094607  0.754042  1
