# generated using pymatgen
data_Ca2RuO5
_symmetry_space_group_name_H-M   'P 1'
_cell_length_a   5.28230900
_cell_length_b   7.48240504
_cell_length_c   11.16701807
_cell_angle_alpha   70.61729357
_cell_angle_beta   90.00000000
_cell_angle_gamma   90.00000000
_symmetry_Int_Tables_number   1
_chemical_formula_structural   Ca2RuO5
_chemical_formula_sum   'Ca8 Ru4 O20'
_cell_volume   416.35386402
_cell_formula_units_Z   4
loop_
 _symmetry_equiv_pos_site_id
 _symmetry_equiv_pos_as_xyz
  1  'x, y, z'
loop_
 _atom_site_type_symbol
 _atom_site_label
 _atom_site_symmetry_multiplicity
 _atom_site_fract_x
 _atom_site_fract_y
 _atom_site_fract_z
 _atom_site_occupancy
  Ca  Ca0  1  0.597284  0.844246  0.813239  1
  Ca  Ca1  1  0.902716  0.844246  0.313239  1
  Ca  Ca2  1  0.021101  0.663124  0.626753  1
  Ca  Ca3  1  0.521101  0.336876  0.873247  1
  Ca  Ca4  1  0.478899  0.663124  0.126753  1
  Ca  Ca5  1  0.978899  0.336876  0.373247  1
  Ca  Ca6  1  0.097284  0.155754  0.686761  1
  Ca  Ca7  1  0.402716  0.155754  0.186761  1
  Ru  Ru8  1  0.500000  0.000000  0.500000  1
  Ru  Ru9  1  0.000000  0.000000  0.000000  1
  Ru  Ru10  1  0.500000  0.500000  0.500000  1
  Ru  Ru11  1  0.000000  0.500000  0.000000  1
  O  O12  1  0.781943  0.999736  0.606890  1
  O  O13  1  0.859169  0.747682  0.002579  1
  O  O14  1  0.303105  0.887353  0.651010  1
  O  O15  1  0.312951  0.606495  0.932184  1
  O  O16  1  0.718057  0.999736  0.106890  1
  O  O17  1  0.640831  0.747682  0.502579  1
  O  O18  1  0.196895  0.887353  0.151010  1
  O  O19  1  0.849529  0.563915  0.829371  1
  O  O20  1  0.187049  0.606495  0.432184  1
  O  O21  1  0.349529  0.436085  0.670629  1
  O  O22  1  0.650471  0.563915  0.329371  1
  O  O23  1  0.812951  0.393505  0.567816  1
  O  O24  1  0.150471  0.436085  0.170629  1
  O  O25  1  0.803105  0.112647  0.848990  1
  O  O26  1  0.359169  0.252318  0.497421  1
  O  O27  1  0.281943  0.000264  0.893110  1
  O  O28  1  0.687049  0.393505  0.067816  1
  O  O29  1  0.696895  0.112647  0.348990  1
  O  O30  1  0.140831  0.252318  0.997421  1
  O  O31  1  0.218057  0.000264  0.393110  1
