# generated using pymatgen
data_ZrGa(Ni7B2)3
_symmetry_space_group_name_H-M   'P 1'
_cell_length_a   7.43591719
_cell_length_b   7.43603488
_cell_length_c   7.43472103
_cell_angle_alpha   59.99604537
_cell_angle_beta   59.99802459
_cell_angle_gamma   59.98825749
_symmetry_Int_Tables_number   1
_chemical_formula_structural   ZrGa(Ni7B2)3
_chemical_formula_sum   'Zr1 Ga1 Ni21 B6'
_cell_volume   290.64819123
_cell_formula_units_Z   1
loop_
 _symmetry_equiv_pos_site_id
 _symmetry_equiv_pos_as_xyz
  1  'x, y, z'
loop_
 _atom_site_type_symbol
 _atom_site_label
 _atom_site_symmetry_multiplicity
 _atom_site_fract_x
 _atom_site_fract_y
 _atom_site_fract_z
 _atom_site_occupancy
  Zr  Zr0  1  0.750045  0.749990  0.749915  1
  Ga  Ga1  1  0.250000  0.250019  0.250065  1
  Ni  Ni2  1  0.999998  0.000005  0.000006  1
  Ni  Ni3  1  0.611214  0.611245  0.166206  1
  Ni  Ni4  1  0.611285  0.166180  0.611223  1
  Ni  Ni5  1  0.166201  0.611292  0.611203  1
  Ni  Ni6  1  0.611292  0.611284  0.611277  1
  Ni  Ni7  1  0.380240  0.380252  0.859312  1
  Ni  Ni8  1  0.380193  0.859332  0.380256  1
  Ni  Ni9  1  0.859320  0.380208  0.380266  1
  Ni  Ni10  1  0.380199  0.380221  0.380199  1
  Ni  Ni11  1  0.999163  0.999136  0.338978  1
  Ni  Ni12  1  0.662714  0.999197  0.338966  1
  Ni  Ni13  1  0.999207  0.662689  0.338991  1
  Ni  Ni14  1  0.662710  0.338957  0.999187  1
  Ni  Ni15  1  0.999103  0.338917  0.999155  1
  Ni  Ni16  1  0.999149  0.338972  0.662697  1
  Ni  Ni17  1  0.338967  0.662711  0.999196  1
  Ni  Ni18  1  0.338949  0.999141  0.662742  1
  Ni  Ni19  1  0.338924  0.999097  0.999181  1
  Ni  Ni20  1  0.999169  0.999182  0.662695  1
  Ni  Ni21  1  0.999172  0.662793  0.999131  1
  Ni  Ni22  1  0.662800  0.999176  0.999129  1
  B  B23  1  0.729260  0.729226  0.270811  1
  B  B24  1  0.270707  0.729237  0.270767  1
  B  B25  1  0.729236  0.270725  0.270771  1
  B  B26  1  0.270748  0.270772  0.729208  1
  B  B27  1  0.729285  0.270775  0.729220  1
  B  B28  1  0.270749  0.729269  0.729248  1
