# generated using pymatgen
data_Lu4MnB12Os
_symmetry_space_group_name_H-M   'P 1'
_cell_length_a   3.54539000
_cell_length_b   9.00522037
_cell_length_c   11.36754909
_cell_angle_alpha   90.05117735
_cell_angle_beta   90.00000000
_cell_angle_gamma   90.00000000
_symmetry_Int_Tables_number   1
_chemical_formula_structural   Lu4MnB12Os
_chemical_formula_sum   'Lu8 Mn2 B24 Os2'
_cell_volume   362.93180241
_cell_formula_units_Z   2
loop_
 _symmetry_equiv_pos_site_id
 _symmetry_equiv_pos_as_xyz
  1  'x, y, z'
loop_
 _atom_site_type_symbol
 _atom_site_label
 _atom_site_symmetry_multiplicity
 _atom_site_fract_x
 _atom_site_fract_y
 _atom_site_fract_z
 _atom_site_occupancy
  Lu  Lu0  1  0.000000  0.326337  0.416314  1
  Lu  Lu1  1  0.000000  0.673663  0.583686  1
  Lu  Lu2  1  0.000000  0.819673  0.087876  1
  Lu  Lu3  1  0.000000  0.180327  0.912124  1
  Lu  Lu4  1  0.000000  0.939728  0.371490  1
  Lu  Lu5  1  0.000000  0.060272  0.628510  1
  Lu  Lu6  1  0.000000  0.446025  0.131073  1
  Lu  Lu7  1  0.000000  0.553975  0.868927  1
  Mn  Mn8  1  0.000000  0.638203  0.320200  1
  Mn  Mn9  1  0.000000  0.361797  0.679800  1
  B  B10  1  0.500000  0.553692  0.432840  1
  B  B11  1  0.500000  0.446308  0.567160  1
  B  B12  1  0.500000  0.053103  0.066207  1
  B  B13  1  0.500000  0.946897  0.933793  1
  B  B14  1  0.500000  0.746795  0.418549  1
  B  B15  1  0.500000  0.253205  0.581451  1
  B  B16  1  0.500000  0.250138  0.080287  1
  B  B17  1  0.500000  0.749862  0.919713  1
  B  B18  1  0.500000  0.790222  0.265932  1
  B  B19  1  0.500000  0.209778  0.734068  1
  B  B20  1  0.500000  0.293013  0.235708  1
  B  B21  1  0.500000  0.706987  0.764292  1
  B  B22  1  0.500000  0.631075  0.186209  1
  B  B23  1  0.500000  0.368925  0.813791  1
  B  B24  1  0.500000  0.130892  0.315783  1
  B  B25  1  0.500000  0.869108  0.684217  1
  B  B26  1  0.500000  0.980480  0.212788  1
  B  B27  1  0.500000  0.019520  0.787212  1
  B  B28  1  0.500000  0.484158  0.288762  1
  B  B29  1  0.500000  0.515842  0.711238  1
  B  B30  1  0.500000  0.602880  0.028535  1
  B  B31  1  0.500000  0.397120  0.971465  1
  B  B32  1  0.500000  0.103516  0.471485  1
  B  B33  1  0.500000  0.896484  0.528515  1
  Os  Os34  1  0.000000  0.137892  0.178835  1
  Os  Os35  1  0.000000  0.862108  0.821165  1
