# generated using pymatgen
data_TbY8LuIr4
_symmetry_space_group_name_H-M   'P 1'
_cell_length_a   8.53745636
_cell_length_b   8.53745674
_cell_length_c   7.24016185
_cell_angle_alpha   83.40865621
_cell_angle_beta   83.40865613
_cell_angle_gamma   44.90746429
_symmetry_Int_Tables_number   1
_chemical_formula_structural   TbY8LuIr4
_chemical_formula_sum   'Tb1 Y8 Lu1 Ir4'
_cell_volume   369.66798200
_cell_formula_units_Z   1
loop_
 _symmetry_equiv_pos_site_id
 _symmetry_equiv_pos_as_xyz
  1  'x, y, z'
loop_
 _atom_site_type_symbol
 _atom_site_label
 _atom_site_symmetry_multiplicity
 _atom_site_fract_x
 _atom_site_fract_y
 _atom_site_fract_z
 _atom_site_occupancy
  Tb  Tb0  1  0.427881  0.572119  0.750000  1
  Y  Y1  1  0.347900  0.212206  0.317259  1
  Y  Y2  1  0.210019  0.971414  0.082841  1
  Y  Y3  1  0.788366  0.029772  0.919082  1
  Y  Y4  1  0.970228  0.211634  0.580918  1
  Y  Y5  1  0.654199  0.787650  0.681737  1
  Y  Y6  1  0.212350  0.345801  0.818263  1
  Y  Y7  1  0.787794  0.652100  0.182741  1
  Y  Y8  1  0.028586  0.789981  0.417159  1
  Lu  Lu9  1  0.569616  0.430384  0.250000  1
  Ir  Ir10  1  0.394694  0.822081  0.425856  1
  Ir  Ir11  1  0.177919  0.605306  0.074144  1
  Ir  Ir12  1  0.823555  0.393108  0.928883  1
  Ir  Ir13  1  0.606892  0.176445  0.571117  1
