# generated using pymatgen
data_Y2Ho3Er5(In2Pd)4
_symmetry_space_group_name_H-M   'P 1'
_cell_length_a   3.61046500
_cell_length_b   8.14134206
_cell_length_c   18.21949413
_cell_angle_alpha   89.98648895
_cell_angle_beta   90.00000000
_cell_angle_gamma   90.00000000
_symmetry_Int_Tables_number   1
_chemical_formula_structural   Y2Ho3Er5(In2Pd)4
_chemical_formula_sum   'Y2 Ho3 Er5 In8 Pd4'
_cell_volume   535.54435204
_cell_formula_units_Z   1
loop_
 _symmetry_equiv_pos_site_id
 _symmetry_equiv_pos_as_xyz
  1  'x, y, z'
loop_
 _atom_site_type_symbol
 _atom_site_label
 _atom_site_symmetry_multiplicity
 _atom_site_fract_x
 _atom_site_fract_y
 _atom_site_fract_z
 _atom_site_occupancy
  Y  Y0  1  0.000000  0.499991  0.499998  1
  Y  Y1  1  0.000000  0.999992  0.000001  1
  Ho  Ho2  1  0.000000  0.739088  0.281094  1
  Ho  Ho3  1  0.000000  0.260923  0.718904  1
  Ho  Ho4  1  0.000000  0.760937  0.781095  1
  Er  Er5  1  0.000000  0.239120  0.218948  1
  Er  Er6  1  0.000000  0.617037  0.083846  1
  Er  Er7  1  0.000000  0.382932  0.916170  1
  Er  Er8  1  0.000000  0.882905  0.583843  1
  Er  Er9  1  0.000000  0.117098  0.416134  1
  In  In10  1  0.500000  0.707444  0.932689  1
  In  In11  1  0.500000  0.292532  0.067379  1
  In  In12  1  0.500000  0.792595  0.432697  1
  In  In13  1  0.500000  0.207447  0.567297  1
  In  In14  1  0.500000  0.581859  0.650465  1
  In  In15  1  0.500000  0.418072  0.349486  1
  In  In16  1  0.500000  0.918262  0.150488  1
  In  In17  1  0.500000  0.081846  0.849532  1
  Pd  Pd18  1  0.500000  0.523113  0.195915  1
  Pd  Pd19  1  0.500000  0.476505  0.804123  1
  Pd  Pd20  1  0.500000  0.976521  0.695882  1
  Pd  Pd21  1  0.500000  0.023781  0.304013  1
