# generated using pymatgen
data_DyEr3Al24Pt7Rh2
_symmetry_space_group_name_H-M   'P 1'
_cell_length_a   7.51149800
_cell_length_b   7.50515553
_cell_length_c   13.16997609
_cell_angle_alpha   84.51688584
_cell_angle_beta   100.91637788
_cell_angle_gamma   119.77711605
_symmetry_Int_Tables_number   1
_chemical_formula_structural   DyEr3Al24Pt7Rh2
_chemical_formula_sum   'Dy1 Er3 Al24 Pt7 Rh2'
_cell_volume   632.76364242
_cell_formula_units_Z   1
loop_
 _symmetry_equiv_pos_site_id
 _symmetry_equiv_pos_as_xyz
  1  'x, y, z'
loop_
 _atom_site_type_symbol
 _atom_site_label
 _atom_site_symmetry_multiplicity
 _atom_site_fract_x
 _atom_site_fract_y
 _atom_site_fract_z
 _atom_site_occupancy
  Dy  Dy0  1  0.732510  0.999507  0.190690  1
  Er  Er1  1  0.267863  0.001565  0.809024  1
  Er  Er2  1  0.061604  0.667711  0.191309  1
  Er  Er3  1  0.937572  0.331514  0.808782  1
  Al  Al4  1  0.811090  0.871408  0.818282  1
  Al  Al5  1  0.189576  0.128249  0.181707  1
  Al  Al6  1  0.986431  0.669328  0.946149  1
  Al  Al7  1  0.020619  0.334613  0.053226  1
  Al  Al8  1  0.395991  0.663581  0.819533  1
  Al  Al9  1  0.600558  0.336133  0.182602  1
  Al  Al10  1  0.882581  0.665151  0.672682  1
  Al  Al11  1  0.118374  0.334983  0.327126  1
  Al  Al12  1  0.603344  0.459184  0.817049  1
  Al  Al13  1  0.396099  0.544268  0.180863  1
  Al  Al14  1  0.230799  0.340169  0.670458  1
  Al  Al15  1  0.769369  0.659622  0.329789  1
  Al  Al16  1  0.853294  0.333603  0.558961  1
  Al  Al17  1  0.186301  0.999489  0.558973  1
  Al  Al18  1  0.814252  0.999995  0.441132  1
  Al  Al19  1  0.347938  0.995346  0.053588  1
  Al  Al20  1  0.648150  0.997828  0.946373  1
  Al  Al21  1  0.556722  0.991908  0.673071  1
  Al  Al22  1  0.443236  0.007256  0.327482  1
  Al  Al23  1  0.521444  0.668285  0.561680  1
  Al  Al24  1  0.478701  0.331701  0.438268  1
  Al  Al25  1  0.682891  0.671636  0.042899  1
  Al  Al26  1  0.313660  0.331492  0.956866  1
  Al  Al27  1  0.147122  0.665920  0.441157  1
  Pt  Pt28  1  0.546080  0.324167  0.637529  1
  Pt  Pt29  1  0.454134  0.674947  0.362591  1
  Pt  Pt30  1  0.888387  0.008471  0.638655  1
  Pt  Pt31  1  0.112353  0.991191  0.361594  1
  Pt  Pt32  1  0.671758  0.328320  0.999917  1
  Pt  Pt33  1  0.204051  0.666860  0.638822  1
  Pt  Pt34  1  0.796639  0.333115  0.361496  1
  Rh  Rh35  1  0.328360  0.671428  0.999832  1
  Rh  Rh36  1  0.000149  0.000055  0.999845  1
