# generated using pymatgen
data_Nd2Al2Co5NiB2
_symmetry_space_group_name_H-M   'P 1'
_cell_length_a   5.23634606
_cell_length_b   5.23634591
_cell_length_c   6.67454300
_cell_angle_alpha   90.00000000
_cell_angle_beta   90.00000000
_cell_angle_gamma   119.76451845
_symmetry_Int_Tables_number   1
_chemical_formula_structural   Nd2Al2Co5NiB2
_chemical_formula_sum   'Nd2 Al2 Co5 Ni1 B2'
_cell_volume   158.86728579
_cell_formula_units_Z   1
loop_
 _symmetry_equiv_pos_site_id
 _symmetry_equiv_pos_as_xyz
  1  'x, y, z'
loop_
 _atom_site_type_symbol
 _atom_site_label
 _atom_site_symmetry_multiplicity
 _atom_site_fract_x
 _atom_site_fract_y
 _atom_site_fract_z
 _atom_site_occupancy
  Nd  Nd0  1  0.000000  0.000000  0.002566  1
  Nd  Nd1  1  0.000000  0.000000  0.499276  1
  Al  Al2  1  0.332029  0.667971  0.001096  1
  Al  Al3  1  0.667971  0.332029  0.001096  1
  Co  Co4  1  0.500000  0.000000  0.703532  1
  Co  Co5  1  0.000000  0.500000  0.295961  1
  Co  Co6  1  0.500000  0.000000  0.295961  1
  Co  Co7  1  0.500000  0.500000  0.295997  1
  Co  Co8  1  0.000000  0.500000  0.703532  1
  Ni  Ni9  1  0.500000  0.500000  0.705185  1
  B  B10  1  0.330519  0.669481  0.497899  1
  B  B11  1  0.669481  0.330519  0.497899  1
