# generated using pymatgen
data_Tm16Sc4Ir7Rh5
_symmetry_space_group_name_H-M   'P 1'
_cell_length_a   10.64630633
_cell_length_b   10.64625932
_cell_length_c   6.24700438
_cell_angle_alpha   90.02804288
_cell_angle_beta   90.02828045
_cell_angle_gamma   90.00167565
_symmetry_Int_Tables_number   1
_chemical_formula_structural   Tm16Sc4Ir7Rh5
_chemical_formula_sum   'Tm16 Sc4 Ir7 Rh5'
_cell_volume   708.05615688
_cell_formula_units_Z   1
loop_
 _symmetry_equiv_pos_site_id
 _symmetry_equiv_pos_as_xyz
  1  'x, y, z'
loop_
 _atom_site_type_symbol
 _atom_site_label
 _atom_site_symmetry_multiplicity
 _atom_site_fract_x
 _atom_site_fract_y
 _atom_site_fract_z
 _atom_site_occupancy
  Tm  Tm0  1  0.287823  0.086212  0.377515  1
  Tm  Tm1  1  0.288101  0.913649  0.876892  1
  Tm  Tm2  1  0.711553  0.086294  0.876808  1
  Tm  Tm3  1  0.711497  0.912106  0.377699  1
  Tm  Tm4  1  0.586360  0.787930  0.877319  1
  Tm  Tm5  1  0.584999  0.212322  0.377479  1
  Tm  Tm6  1  0.413414  0.787970  0.377386  1
  Tm  Tm7  1  0.413639  0.212040  0.877182  1
  Tm  Tm8  1  0.212067  0.413642  0.622679  1
  Tm  Tm9  1  0.212027  0.586587  0.122613  1
  Tm  Tm10  1  0.787679  0.414998  0.122527  1
  Tm  Tm11  1  0.787962  0.586363  0.622816  1
  Tm  Tm12  1  0.913787  0.712174  0.122480  1
  Tm  Tm13  1  0.913710  0.288453  0.623193  1
  Tm  Tm14  1  0.086347  0.711898  0.623105  1
  Tm  Tm15  1  0.087895  0.288504  0.122307  1
  Sc  Sc16  1  0.000399  0.999575  0.500528  1
  Sc  Sc17  1  0.000425  0.999593  0.999478  1
  Sc  Sc18  1  0.499961  0.499953  0.999708  1
  Sc  Sc19  1  0.500052  0.500032  0.500307  1
  Ir  Ir20  1  0.850316  0.851049  0.749866  1
  Ir  Ir21  1  0.148952  0.149697  0.750129  1
  Ir  Ir22  1  0.149531  0.850468  0.249999  1
  Ir  Ir23  1  0.650208  0.349794  0.749994  1
  Ir  Ir24  1  0.649800  0.649676  0.249972  1
  Ir  Ir25  1  0.350322  0.350201  0.250037  1
  Ir  Ir26  1  0.350373  0.649637  0.749992  1
  Rh  Rh27  1  0.850004  0.150002  0.249987  1
  Rh  Rh28  1  0.500531  0.000073  0.123423  1
  Rh  Rh29  1  0.500472  0.000115  0.622816  1
  Rh  Rh30  1  0.999875  0.499527  0.877186  1
  Rh  Rh31  1  0.999918  0.499466  0.376576  1
