# generated using pymatgen
data_Y3Er3Hf2(Co4P3)4
_symmetry_space_group_name_H-M   'P 1'
_cell_length_a   3.70958400
_cell_length_b   10.67779714
_cell_length_c   12.38968716
_cell_angle_alpha   90.01847974
_cell_angle_beta   90.00000000
_cell_angle_gamma   90.00000000
_symmetry_Int_Tables_number   1
_chemical_formula_structural   Y3Er3Hf2(Co4P3)4
_chemical_formula_sum   'Y3 Er3 Hf2 Co16 P12'
_cell_volume   490.75778024
_cell_formula_units_Z   1
loop_
 _symmetry_equiv_pos_site_id
 _symmetry_equiv_pos_as_xyz
  1  'x, y, z'
loop_
 _atom_site_type_symbol
 _atom_site_label
 _atom_site_symmetry_multiplicity
 _atom_site_fract_x
 _atom_site_fract_y
 _atom_site_fract_z
 _atom_site_occupancy
  Y  Y0  1  0.000000  0.500070  0.528067  1
  Y  Y1  1  0.500000  0.999939  0.471837  1
  Y  Y2  1  0.000000  0.321537  0.795431  1
  Er  Er3  1  0.500000  0.821635  0.204496  1
  Er  Er4  1  0.500000  0.178365  0.204460  1
  Er  Er5  1  0.000000  0.678536  0.795513  1
  Hf  Hf6  1  0.500000  0.500048  0.156729  1
  Hf  Hf7  1  0.000000  0.999732  0.843260  1
  Co  Co8  1  0.500000  0.500952  0.703026  1
  Co  Co9  1  0.000000  0.999977  0.296587  1
  Co  Co10  1  0.000000  0.500288  0.986246  1
  Co  Co11  1  0.500000  0.999835  0.014127  1
  Co  Co12  1  0.500000  0.332154  0.993402  1
  Co  Co13  1  0.500000  0.668008  0.993086  1
  Co  Co14  1  0.000000  0.167614  0.007289  1
  Co  Co15  1  0.000000  0.832122  0.007031  1
  Co  Co16  1  0.500000  0.295143  0.432652  1
  Co  Co17  1  0.500000  0.704882  0.432800  1
  Co  Co18  1  0.000000  0.204710  0.566844  1
  Co  Co19  1  0.000000  0.795164  0.567192  1
  Co  Co20  1  0.500000  0.877465  0.703577  1
  Co  Co21  1  0.500000  0.121855  0.703201  1
  Co  Co22  1  0.000000  0.622481  0.296455  1
  Co  Co23  1  0.000000  0.377514  0.296418  1
  P  P24  1  0.500000  0.500747  0.882892  1
  P  P25  1  0.000000  0.999943  0.117574  1
  P  P26  1  0.500000  0.499994  0.360974  1
  P  P27  1  0.000000  0.000072  0.639032  1
  P  P28  1  0.500000  0.310014  0.615557  1
  P  P29  1  0.500000  0.689997  0.616266  1
  P  P30  1  0.000000  0.189795  0.383616  1
  P  P31  1  0.000000  0.810139  0.383704  1
  P  P32  1  0.500000  0.838137  0.893074  1
  P  P33  1  0.500000  0.161106  0.893663  1
  P  P34  1  0.000000  0.661853  0.107006  1
  P  P35  1  0.000000  0.338174  0.106917  1
