# generated using pymatgen
data_LiEr5Tm11In3Rh4
_symmetry_space_group_name_H-M   'P 1'
_cell_length_a   9.54427840
_cell_length_b   9.54087169
_cell_length_c   9.54087096
_cell_angle_alpha   59.88554337
_cell_angle_beta   59.84698873
_cell_angle_gamma   59.84698642
_symmetry_Int_Tables_number   1
_chemical_formula_structural   LiEr5Tm11In3Rh4
_chemical_formula_sum   'Li1 Er5 Tm11 In3 Rh4'
_cell_volume   612.37934960
_cell_formula_units_Z   1
loop_
 _symmetry_equiv_pos_site_id
 _symmetry_equiv_pos_as_xyz
  1  'x, y, z'
loop_
 _atom_site_type_symbol
 _atom_site_label
 _atom_site_symmetry_multiplicity
 _atom_site_fract_x
 _atom_site_fract_y
 _atom_site_fract_z
 _atom_site_occupancy
  Li  Li0  1  0.425612  0.425649  0.425649  1
  Er  Er1  1  0.061996  0.062019  0.437408  1
  Er  Er2  1  0.436545  0.063979  0.436429  1
  Er  Er3  1  0.061996  0.437408  0.062019  1
  Er  Er4  1  0.049460  0.649519  0.649519  1
  Er  Er5  1  0.436545  0.436429  0.063979  1
  Tm  Tm6  1  0.649544  0.048965  0.649515  1
  Tm  Tm7  1  0.187002  0.813889  0.186846  1
  Tm  Tm8  1  0.187002  0.186846  0.813889  1
  Tm  Tm9  1  0.808798  0.808990  0.191729  1
  Tm  Tm10  1  0.437939  0.061337  0.061337  1
  Tm  Tm11  1  0.813666  0.187127  0.187127  1
  Tm  Tm12  1  0.063215  0.436999  0.436999  1
  Tm  Tm13  1  0.808798  0.191729  0.808990  1
  Tm  Tm14  1  0.191442  0.809144  0.809144  1
  Tm  Tm15  1  0.649544  0.649515  0.048965  1
  Tm  Tm16  1  0.650288  0.650381  0.650381  1
  In  In17  1  0.746212  0.417169  0.417169  1
  In  In18  1  0.417327  0.746525  0.416777  1
  In  In19  1  0.417327  0.416777  0.746525  1
  Rh  Rh20  1  0.857676  0.858107  0.426752  1
  Rh  Rh21  1  0.856815  0.857405  0.857405  1
  Rh  Rh22  1  0.427575  0.857338  0.857338  1
  Rh  Rh23  1  0.857676  0.426752  0.858107  1
