# generated using pymatgen
data_LiEr6Sc(Co4P3)4
_symmetry_space_group_name_H-M   'P 1'
_cell_length_a   3.70906900
_cell_length_b   10.58524200
_cell_length_c   12.23673300
_cell_angle_alpha   90.00000000
_cell_angle_beta   90.00000000
_cell_angle_gamma   90.00000000
_symmetry_Int_Tables_number   1
_chemical_formula_structural   LiEr6Sc(Co4P3)4
_chemical_formula_sum   'Li1 Er6 Sc1 Co16 P12'
_cell_volume   480.43118286
_cell_formula_units_Z   1
loop_
 _symmetry_equiv_pos_site_id
 _symmetry_equiv_pos_as_xyz
  1  'x, y, z'
loop_
 _atom_site_type_symbol
 _atom_site_label
 _atom_site_symmetry_multiplicity
 _atom_site_fract_x
 _atom_site_fract_y
 _atom_site_fract_z
 _atom_site_occupancy
  Li  Li0  1  0.750000  0.750000  0.156677  1
  Er  Er1  1  0.750000  0.250000  0.472059  1
  Er  Er2  1  0.250000  0.750000  0.523875  1
  Er  Er3  1  0.250000  0.927550  0.792990  1
  Er  Er4  1  0.250000  0.572450  0.792990  1
  Er  Er5  1  0.750000  0.070217  0.204843  1
  Er  Er6  1  0.750000  0.429783  0.204843  1
  Sc  Sc7  1  0.250000  0.250000  0.845175  1
  Co  Co8  1  0.250000  0.250000  0.296444  1
  Co  Co9  1  0.750000  0.750000  0.704969  1
  Co  Co10  1  0.750000  0.250000  0.014412  1
  Co  Co11  1  0.250000  0.750000  0.988033  1
  Co  Co12  1  0.250000  0.421156  0.008183  1
  Co  Co13  1  0.250000  0.078844  0.008183  1
  Co  Co14  1  0.750000  0.585234  0.999141  1
  Co  Co15  1  0.750000  0.914766  0.999141  1
  Co  Co16  1  0.250000  0.454642  0.566218  1
  Co  Co17  1  0.250000  0.045358  0.566218  1
  Co  Co18  1  0.750000  0.547399  0.430752  1
  Co  Co19  1  0.750000  0.952601  0.430752  1
  Co  Co20  1  0.250000  0.871309  0.294491  1
  Co  Co21  1  0.250000  0.628691  0.294491  1
  Co  Co22  1  0.750000  0.127236  0.703112  1
  Co  Co23  1  0.750000  0.372764  0.703112  1
  P  P24  1  0.250000  0.250000  0.116682  1
  P  P25  1  0.750000  0.750000  0.885590  1
  P  P26  1  0.250000  0.250000  0.640281  1
  P  P27  1  0.750000  0.750000  0.348563  1
  P  P28  1  0.250000  0.440368  0.382709  1
  P  P29  1  0.250000  0.059632  0.382709  1
  P  P30  1  0.750000  0.561177  0.614614  1
  P  P31  1  0.750000  0.938823  0.614614  1
  P  P32  1  0.250000  0.904380  0.110506  1
  P  P33  1  0.250000  0.595620  0.110506  1
  P  P34  1  0.750000  0.086765  0.896062  1
  P  P35  1  0.750000  0.413235  0.896062  1
