# generated using pymatgen
data_TmFe2P3Ir2Rh
_symmetry_space_group_name_H-M   'P 1'
_cell_length_a   3.82858400
_cell_length_b   10.47697700
_cell_length_c   12.30285000
_cell_angle_alpha   90.00000000
_cell_angle_beta   90.00000000
_cell_angle_gamma   90.00000000
_symmetry_Int_Tables_number   1
_chemical_formula_structural   TmFe2P3Ir2Rh
_chemical_formula_sum   'Tm4 Fe8 P12 Ir8 Rh4'
_cell_volume   493.49175324
_cell_formula_units_Z   4
loop_
 _symmetry_equiv_pos_site_id
 _symmetry_equiv_pos_as_xyz
  1  'x, y, z'
loop_
 _atom_site_type_symbol
 _atom_site_label
 _atom_site_symmetry_multiplicity
 _atom_site_fract_x
 _atom_site_fract_y
 _atom_site_fract_z
 _atom_site_occupancy
  Tm  Tm0  1  0.250000  0.578634  0.712793  1
  Tm  Tm1  1  0.250000  0.921366  0.212793  1
  Tm  Tm2  1  0.750000  0.421366  0.287207  1
  Tm  Tm3  1  0.750000  0.078634  0.787207  1
  Fe  Fe4  1  0.250000  0.875013  0.697814  1
  Fe  Fe5  1  0.250000  0.624987  0.197814  1
  Fe  Fe6  1  0.750000  0.124987  0.302186  1
  Fe  Fe7  1  0.750000  0.375013  0.802186  1
  Fe  Fe8  1  0.250000  0.457928  0.934664  1
  Fe  Fe9  1  0.250000  0.042072  0.434664  1
  Fe  Fe10  1  0.750000  0.542072  0.065336  1
  Fe  Fe11  1  0.750000  0.957928  0.565336  1
  P  P12  1  0.250000  0.441472  0.111540  1
  P  P13  1  0.250000  0.058528  0.611540  1
  P  P14  1  0.750000  0.558528  0.888460  1
  P  P15  1  0.750000  0.941472  0.388460  1
  P  P16  1  0.250000  0.270980  0.862967  1
  P  P17  1  0.250000  0.229020  0.362967  1
  P  P18  1  0.750000  0.729020  0.137033  1
  P  P19  1  0.750000  0.770980  0.637033  1
  P  P20  1  0.250000  0.600795  0.377293  1
  P  P21  1  0.250000  0.899205  0.877293  1
  P  P22  1  0.750000  0.399205  0.622707  1
  P  P23  1  0.750000  0.100795  0.122707  1
  Ir  Ir24  1  0.250000  0.409374  0.473781  1
  Ir  Ir25  1  0.250000  0.090626  0.973781  1
  Ir  Ir26  1  0.750000  0.590626  0.526219  1
  Ir  Ir27  1  0.750000  0.909374  0.026219  1
  Ir  Ir28  1  0.250000  0.231710  0.173519  1
  Ir  Ir29  1  0.250000  0.268290  0.673519  1
  Ir  Ir30  1  0.750000  0.768290  0.826481  1
  Ir  Ir31  1  0.750000  0.731710  0.326481  1
  Rh  Rh32  1  0.250000  0.717531  0.990563  1
  Rh  Rh33  1  0.250000  0.782469  0.490563  1
  Rh  Rh34  1  0.750000  0.282469  0.009437  1
  Rh  Rh35  1  0.750000  0.217531  0.509437  1
