# generated using pymatgen
data_Dy2Pu2B3C4
_symmetry_space_group_name_H-M   'P 1'
_cell_length_a   3.47975241
_cell_length_b   3.65522133
_cell_length_c   11.49576366
_cell_angle_alpha   90.31630677
_cell_angle_beta   98.32093838
_cell_angle_gamma   89.96199942
_symmetry_Int_Tables_number   1
_chemical_formula_structural   Dy2Pu2B3C4
_chemical_formula_sum   'Dy2 Pu2 B3 C4'
_cell_volume   144.67622312
_cell_formula_units_Z   1
loop_
 _symmetry_equiv_pos_site_id
 _symmetry_equiv_pos_as_xyz
  1  'x, y, z'
loop_
 _atom_site_type_symbol
 _atom_site_label
 _atom_site_symmetry_multiplicity
 _atom_site_fract_x
 _atom_site_fract_y
 _atom_site_fract_z
 _atom_site_occupancy
  Dy  Dy0  1  0.817900  0.004197  0.648632  1
  Dy  Dy1  1  0.182100  0.995803  0.351368  1
  Pu  Pu2  1  0.424358  0.507442  0.869169  1
  Pu  Pu3  1  0.575642  0.492558  0.130831  1
  B  B4  1  0.000000  0.000000  0.000000  1
  B  B5  1  0.264156  0.501546  0.540422  1
  B  B6  1  0.735844  0.498454  0.459578  1
  C  C7  1  0.926664  0.007529  0.869188  1
  C  C8  1  0.073336  0.992471  0.130812  1
  C  C9  1  0.329637  0.505339  0.674884  1
  C  C10  1  0.670363  0.494661  0.325116  1
