# generated using pymatgen
data_NaMgMn3Ni9As7
_symmetry_space_group_name_H-M   'P 1'
_cell_length_a   9.47085900
_cell_length_b   9.47085883
_cell_length_c   3.76930300
_cell_angle_alpha   90.00000000
_cell_angle_beta   90.00000000
_cell_angle_gamma   120.00000410
_symmetry_Int_Tables_number   1
_chemical_formula_structural   NaMgMn3Ni9As7
_chemical_formula_sum   'Na1 Mg1 Mn3 Ni9 As7'
_cell_volume   292.79954525
_cell_formula_units_Z   1
loop_
 _symmetry_equiv_pos_site_id
 _symmetry_equiv_pos_as_xyz
  1  'x, y, z'
loop_
 _atom_site_type_symbol
 _atom_site_label
 _atom_site_symmetry_multiplicity
 _atom_site_fract_x
 _atom_site_fract_y
 _atom_site_fract_z
 _atom_site_occupancy
  Na  Na0  1  0.333333  0.666667  0.000000  1
  Mg  Mg1  1  0.666667  0.333333  0.500000  1
  Mn  Mn2  1  0.218746  0.122030  0.500000  1
  Mn  Mn3  1  0.877970  0.096716  0.500000  1
  Mn  Mn4  1  0.903284  0.781254  0.500000  1
  Ni  Ni5  1  0.121972  0.280445  0.000000  1
  Ni  Ni6  1  0.719555  0.841527  0.000000  1
  Ni  Ni7  1  0.158473  0.878028  0.000000  1
  Ni  Ni8  1  0.432862  0.372383  0.000000  1
  Ni  Ni9  1  0.627617  0.060480  0.000000  1
  Ni  Ni10  1  0.939520  0.567138  0.000000  1
  Ni  Ni11  1  0.045832  0.429297  0.500000  1
  Ni  Ni12  1  0.570703  0.616535  0.500000  1
  Ni  Ni13  1  0.383465  0.954168  0.500000  1
  As  As14  1  0.292899  0.412607  0.500000  1
  As  As15  1  0.587393  0.880292  0.500000  1
  As  As16  1  0.119708  0.707101  0.500000  1
  As  As17  1  0.416569  0.120687  0.000000  1
  As  As18  1  0.879313  0.295883  0.000000  1
  As  As19  1  0.704117  0.583431  0.000000  1
  As  As20  1  0.000000  0.000000  0.000000  1
