# generated using pymatgen
data_Yb3HoIr8
_symmetry_space_group_name_H-M   'P 1'
_cell_length_a   5.32707000
_cell_length_b   5.32707005
_cell_length_c   8.69550900
_cell_angle_alpha   90.00000000
_cell_angle_beta   90.00000000
_cell_angle_gamma   119.99999972
_symmetry_Int_Tables_number   1
_chemical_formula_structural   Yb3HoIr8
_chemical_formula_sum   'Yb3 Ho1 Ir8'
_cell_volume   213.69898176
_cell_formula_units_Z   1
loop_
 _symmetry_equiv_pos_site_id
 _symmetry_equiv_pos_as_xyz
  1  'x, y, z'
loop_
 _atom_site_type_symbol
 _atom_site_label
 _atom_site_symmetry_multiplicity
 _atom_site_fract_x
 _atom_site_fract_y
 _atom_site_fract_z
 _atom_site_occupancy
  Yb  Yb0  1  0.333334  0.666667  0.437484  1
  Yb  Yb1  1  0.666666  0.333334  0.568469  1
  Yb  Yb2  1  0.666666  0.333334  0.926973  1
  Ho  Ho3  1  0.333334  0.666667  0.069584  1
  Ir  Ir4  1  0.000000  0.000000  0.999015  1
  Ir  Ir5  1  0.341853  0.170926  0.248722  1
  Ir  Ir6  1  0.829075  0.170926  0.248722  1
  Ir  Ir7  1  0.829073  0.658146  0.248722  1
  Ir  Ir8  1  0.000000  0.000000  0.499837  1
  Ir  Ir9  1  0.170751  0.341503  0.750823  1
  Ir  Ir10  1  0.170751  0.829248  0.750823  1
  Ir  Ir11  1  0.658496  0.829248  0.750823  1
