# generated using pymatgen
data_Tb3Tm(GaCo)4
_symmetry_space_group_name_H-M   'P 1'
_cell_length_a   4.42817400
_cell_length_b   6.83548361
_cell_length_c   7.02280996
_cell_angle_alpha   89.96942262
_cell_angle_beta   90.00000000
_cell_angle_gamma   90.00000000
_symmetry_Int_Tables_number   1
_chemical_formula_structural   Tb3Tm(GaCo)4
_chemical_formula_sum   'Tb3 Tm1 Ga4 Co4'
_cell_volume   212.57137325
_cell_formula_units_Z   1
loop_
 _symmetry_equiv_pos_site_id
 _symmetry_equiv_pos_as_xyz
  1  'x, y, z'
loop_
 _atom_site_type_symbol
 _atom_site_label
 _atom_site_symmetry_multiplicity
 _atom_site_fract_x
 _atom_site_fract_y
 _atom_site_fract_z
 _atom_site_occupancy
  Tb  Tb0  1  0.250000  0.196191  0.024479  1
  Tb  Tb1  1  0.750000  0.693322  0.476615  1
  Tb  Tb2  1  0.750000  0.804990  0.976738  1
  Tm  Tm3  1  0.250000  0.302177  0.524822  1
  Ga  Ga4  1  0.250000  0.895017  0.693690  1
  Ga  Ga5  1  0.250000  0.605661  0.194154  1
  Ga  Ga6  1  0.750000  0.108462  0.308184  1
  Ga  Ga7  1  0.750000  0.392909  0.804264  1
  Co  Co8  1  0.250000  0.937620  0.345838  1
  Co  Co9  1  0.250000  0.562045  0.841746  1
  Co  Co10  1  0.750000  0.065190  0.654024  1
  Co  Co11  1  0.750000  0.436414  0.155445  1
