# generated using pymatgen
data_Ce7SmPa2O20
_symmetry_space_group_name_H-M   'P 1'
_cell_length_a   6.69787959
_cell_length_b   7.73768759
_cell_length_c   8.65119704
_cell_angle_alpha   102.96652007
_cell_angle_beta   97.36201121
_cell_angle_gamma   106.79279934
_symmetry_Int_Tables_number   1
_chemical_formula_structural   Ce7SmPa2O20
_chemical_formula_sum   'Ce7 Sm1 Pa2 O20'
_cell_volume   409.24782549
_cell_formula_units_Z   1
loop_
 _symmetry_equiv_pos_site_id
 _symmetry_equiv_pos_as_xyz
  1  'x, y, z'
loop_
 _atom_site_type_symbol
 _atom_site_label
 _atom_site_symmetry_multiplicity
 _atom_site_fract_x
 _atom_site_fract_y
 _atom_site_fract_z
 _atom_site_occupancy
  Ce  Ce0  1  0.002025  0.501025  0.000726  1
  Ce  Ce1  1  0.800207  0.100054  0.602655  1
  Ce  Ce2  1  0.602043  0.700825  0.198268  1
  Ce  Ce3  1  0.199851  0.399433  0.399241  1
  Ce  Ce4  1  0.395671  0.298325  0.799490  1
  Ce  Ce5  1  0.199999  0.899678  0.398807  1
  Ce  Ce6  1  0.400038  0.800866  0.800723  1
  Sm  Sm7  1  0.000303  0.000033  0.000341  1
  Pa  Pa8  1  0.800271  0.601431  0.602006  1
  Pa  Pa9  1  0.599598  0.198517  0.198104  1
  O  O10  1  0.842026  0.329371  0.451133  1
  O  O11  1  0.643770  0.931653  0.053662  1
  O  O12  1  0.949530  0.771704  0.153653  1
  O  O13  1  0.846365  0.818287  0.455486  1
  O  O14  1  0.456551  0.526025  0.644269  1
  O  O15  1  0.646588  0.417508  0.052784  1
  O  O16  1  0.748063  0.382319  0.746900  1
  O  O17  1  0.266365  0.131458  0.251399  1
  O  O18  1  0.449276  0.023488  0.648892  1
  O  O19  1  0.939887  0.276853  0.157830  1
  O  O20  1  0.556729  0.982405  0.346708  1
  O  O21  1  0.045225  0.718308  0.841315  1
  O  O22  1  0.256665  0.624811  0.251859  1
  O  O23  1  0.747232  0.864569  0.744470  1
  O  O24  1  0.354006  0.576451  0.948348  1
  O  O25  1  0.047725  0.229158  0.848756  1
  O  O26  1  0.560219  0.472479  0.351543  1
  O  O27  1  0.145128  0.174127  0.546591  1
  O  O28  1  0.359774  0.078315  0.953985  1
  O  O29  1  0.138872  0.670526  0.550054  1
