# generated using pymatgen
data_Ta2Ti4Co16Si7
_symmetry_space_group_name_H-M   'P 1'
_cell_length_a   7.87111170
_cell_length_b   7.86945660
_cell_length_c   7.87102616
_cell_angle_alpha   60.01172599
_cell_angle_beta   60.01998065
_cell_angle_gamma   60.01156315
_symmetry_Int_Tables_number   1
_chemical_formula_structural   Ta2Ti4Co16Si7
_chemical_formula_sum   'Ta2 Ti4 Co16 Si7'
_cell_volume   344.85708668
_cell_formula_units_Z   1
loop_
 _symmetry_equiv_pos_site_id
 _symmetry_equiv_pos_as_xyz
  1  'x, y, z'
loop_
 _atom_site_type_symbol
 _atom_site_label
 _atom_site_symmetry_multiplicity
 _atom_site_fract_x
 _atom_site_fract_y
 _atom_site_fract_z
 _atom_site_occupancy
  Ta  Ta0  1  0.200637  0.799902  0.799259  1
  Ta  Ta1  1  0.799260  0.799904  0.200634  1
  Ti  Ti2  1  0.798367  0.202140  0.201578  1
  Ti  Ti3  1  0.201582  0.202146  0.798368  1
  Ti  Ti4  1  0.798558  0.202071  0.798572  1
  Ti  Ti5  1  0.201477  0.799172  0.201476  1
  Co  Co6  1  0.619113  0.619282  0.142675  1
  Co  Co7  1  0.166611  0.500260  0.166607  1
  Co  Co8  1  0.857345  0.381045  0.380882  1
  Co  Co9  1  0.499409  0.832987  0.833680  1
  Co  Co10  1  0.500581  0.166010  0.166440  1
  Co  Co11  1  0.833677  0.832987  0.499412  1
  Co  Co12  1  0.166440  0.166006  0.500589  1
  Co  Co13  1  0.142672  0.619281  0.619118  1
  Co  Co14  1  0.166853  0.165903  0.166849  1
  Co  Co15  1  0.380886  0.381044  0.857342  1
  Co  Co16  1  0.618820  0.619126  0.618825  1
  Co  Co17  1  0.381198  0.856689  0.381195  1
  Co  Co18  1  0.380797  0.380686  0.380795  1
  Co  Co19  1  0.833424  0.833368  0.833428  1
  Co  Co20  1  0.619234  0.142221  0.619237  1
  Co  Co21  1  0.833213  0.499608  0.833218  1
  Si  Si22  1  0.499978  0.003094  0.499957  1
  Si  Si23  1  0.501312  0.498382  0.001639  1
  Si  Si24  1  0.499908  0.498888  0.499932  1
  Si  Si25  1  0.998405  0.001226  0.498649  1
  Si  Si26  1  0.999951  0.496923  0.999931  1
  Si  Si27  1  0.001638  0.498404  0.501309  1
  Si  Si28  1  0.498653  0.001244  0.998404  1
