# generated using pymatgen
data_Ca8Al8SnPb7O36
_symmetry_space_group_name_H-M   'P 1'
_cell_length_a   9.30615876
_cell_length_b   5.68432194
_cell_length_c   15.32132398
_cell_angle_alpha   90.03740503
_cell_angle_beta   89.89740876
_cell_angle_gamma   89.94573780
_symmetry_Int_Tables_number   1
_chemical_formula_structural   Ca8Al8SnPb7O36
_chemical_formula_sum   'Ca8 Al8 Sn1 Pb7 O36'
_cell_volume   810.48398242
_cell_formula_units_Z   1
loop_
 _symmetry_equiv_pos_site_id
 _symmetry_equiv_pos_as_xyz
  1  'x, y, z'
loop_
 _atom_site_type_symbol
 _atom_site_label
 _atom_site_symmetry_multiplicity
 _atom_site_fract_x
 _atom_site_fract_y
 _atom_site_fract_z
 _atom_site_occupancy
  Ca  Ca0  1  0.064411  0.362193  0.143285  1
  Ca  Ca1  1  0.435787  0.862956  0.143961  1
  Ca  Ca2  1  0.935402  0.362245  0.356144  1
  Ca  Ca3  1  0.564496  0.862018  0.356299  1
  Ca  Ca4  1  0.434233  0.137383  0.646192  1
  Ca  Ca5  1  0.065441  0.637703  0.645465  1
  Ca  Ca6  1  0.562149  0.137933  0.856687  1
  Ca  Ca7  1  0.937693  0.638023  0.857231  1
  Al  Al8  1  0.339799  0.309623  0.029343  1
  Al  Al9  1  0.162749  0.806657  0.029544  1
  Al  Al10  1  0.659936  0.307659  0.470262  1
  Al  Al11  1  0.839049  0.806869  0.470324  1
  Al  Al12  1  0.160840  0.192937  0.530875  1
  Al  Al13  1  0.339578  0.692917  0.531151  1
  Al  Al14  1  0.839164  0.191185  0.968436  1
  Al  Al15  1  0.657529  0.691443  0.967566  1
  Sn  Sn16  1  0.345396  0.633394  0.836495  1
  Pb  Pb17  1  0.652805  0.366856  0.164307  1
  Pb  Pb18  1  0.846851  0.866583  0.164168  1
  Pb  Pb19  1  0.346788  0.366663  0.334833  1
  Pb  Pb20  1  0.152814  0.866526  0.334749  1
  Pb  Pb21  1  0.846184  0.133717  0.665281  1
  Pb  Pb22  1  0.650156  0.633380  0.667880  1
  Pb  Pb23  1  0.156082  0.133698  0.833378  1
  O  O24  1  0.506769  0.216228  0.071782  1
  O  O25  1  0.994108  0.718200  0.071314  1
  O  O26  1  0.226024  0.079816  0.069231  1
  O  O27  1  0.275383  0.579117  0.072100  1
  O  O28  1  0.843480  0.197239  0.085338  1
  O  O29  1  0.655022  0.697193  0.084736  1
  O  O30  1  0.659237  0.025946  0.228265  1
  O  O31  1  0.840394  0.525932  0.227982  1
  O  O32  1  0.999895  0.052815  0.249352  1
  O  O33  1  0.500115  0.553261  0.249767  1
  O  O34  1  0.340146  0.025441  0.270947  1
  O  O35  1  0.159420  0.524957  0.271018  1
  O  O36  1  0.156659  0.197278  0.414050  1
  O  O37  1  0.343217  0.697579  0.414187  1
  O  O38  1  0.774227  0.078493  0.429771  1
  O  O39  1  0.725477  0.578193  0.429250  1
  O  O40  1  0.493490  0.217253  0.426429  1
  O  O41  1  0.006157  0.717297  0.426584  1
  O  O42  1  0.993751  0.283788  0.574121  1
  O  O43  1  0.506526  0.783370  0.574230  1
  O  O44  1  0.274770  0.421216  0.571449  1
  O  O45  1  0.225437  0.921901  0.571789  1
  O  O46  1  0.654754  0.304057  0.587226  1
  O  O47  1  0.843021  0.802254  0.587093  1
  O  O48  1  0.839502  0.475142  0.730025  1
  O  O49  1  0.658472  0.978221  0.729307  1
  O  O50  1  0.491849  0.456926  0.753841  1
  O  O51  1  0.000622  0.947963  0.750461  1
  O  O52  1  0.168625  0.479345  0.772673  1
  O  O53  1  0.341315  0.957554  0.772990  1
  O  O54  1  0.343098  0.316955  0.912300  1
  O  O55  1  0.166282  0.796165  0.912575  1
  O  O56  1  0.726620  0.421084  0.928311  1
  O  O57  1  0.772255  0.920848  0.928361  1
  O  O58  1  0.007303  0.277719  0.925525  1
  O  O59  1  0.491246  0.772702  0.921764  1
