# generated using pymatgen
data_Lu2Sc8GaSb5
_symmetry_space_group_name_H-M   'P 1'
_cell_length_a   8.47145300
_cell_length_b   8.44822923
_cell_length_c   6.00621900
_cell_angle_alpha   90.00000000
_cell_angle_beta   90.00000000
_cell_angle_gamma   120.09097239
_symmetry_Int_Tables_number   1
_chemical_formula_structural   Lu2Sc8GaSb5
_chemical_formula_sum   'Lu2 Sc8 Ga1 Sb5'
_cell_volume   371.92600310
_cell_formula_units_Z   1
loop_
 _symmetry_equiv_pos_site_id
 _symmetry_equiv_pos_as_xyz
  1  'x, y, z'
loop_
 _atom_site_type_symbol
 _atom_site_label
 _atom_site_symmetry_multiplicity
 _atom_site_fract_x
 _atom_site_fract_y
 _atom_site_fract_z
 _atom_site_occupancy
  Lu  Lu0  1  0.244048  0.231438  0.750000  1
  Lu  Lu1  1  0.012611  0.768562  0.750000  1
  Sc  Sc2  1  0.334862  0.674254  0.998385  1
  Sc  Sc3  1  0.660609  0.325746  0.501615  1
  Sc  Sc4  1  0.660609  0.325746  0.998385  1
  Sc  Sc5  1  0.334862  0.674254  0.501615  1
  Sc  Sc6  1  0.244268  0.000000  0.250000  1
  Sc  Sc7  1  0.997800  0.242236  0.250000  1
  Sc  Sc8  1  0.755564  0.757764  0.250000  1
  Sc  Sc9  1  0.750634  0.000000  0.750000  1
  Ga  Ga10  1  0.402460  0.000000  0.750000  1
  Sb  Sb11  1  0.608106  0.000000  0.250000  1
  Sb  Sb12  1  0.609510  0.610877  0.750000  1
  Sb  Sb13  1  0.998633  0.389123  0.750000  1
  Sb  Sb14  1  0.996827  0.608227  0.250000  1
  Sb  Sb15  1  0.388600  0.391773  0.250000  1
