# generated using pymatgen
data_Tb5Er7Tc4
_symmetry_space_group_name_H-M   'P 1'
_cell_length_a   6.24276807
_cell_length_b   7.41437061
_cell_length_c   9.11209889
_cell_angle_alpha   89.95474516
_cell_angle_beta   89.88186859
_cell_angle_gamma   89.96274875
_symmetry_Int_Tables_number   1
_chemical_formula_structural   Tb5Er7Tc4
_chemical_formula_sum   'Tb5 Er7 Tc4'
_cell_volume   421.76327957
_cell_formula_units_Z   1
loop_
 _symmetry_equiv_pos_site_id
 _symmetry_equiv_pos_as_xyz
  1  'x, y, z'
loop_
 _atom_site_type_symbol
 _atom_site_label
 _atom_site_symmetry_multiplicity
 _atom_site_fract_x
 _atom_site_fract_y
 _atom_site_fract_z
 _atom_site_occupancy
  Tb  Tb0  1  0.661242  0.175597  0.062993  1
  Tb  Tb1  1  0.874100  0.959586  0.749396  1
  Tb  Tb2  1  0.372662  0.541017  0.250457  1
  Tb  Tb3  1  0.626009  0.460113  0.749274  1
  Tb  Tb4  1  0.126488  0.039403  0.251003  1
  Er  Er5  1  0.161652  0.325435  0.936517  1
  Er  Er6  1  0.839344  0.674987  0.437217  1
  Er  Er7  1  0.339440  0.825058  0.562901  1
  Er  Er8  1  0.339307  0.824887  0.936319  1
  Er  Er9  1  0.840245  0.674264  0.063040  1
  Er  Er10  1  0.159758  0.325219  0.562996  1
  Er  Er11  1  0.660199  0.174750  0.437925  1
  Tc  Tc12  1  0.043443  0.615686  0.750371  1
  Tc  Tc13  1  0.543556  0.883642  0.250228  1
  Tc  Tc14  1  0.454697  0.115641  0.748043  1
  Tc  Tc15  1  0.957857  0.384715  0.251321  1
