# generated using pymatgen
data_MnV(GaCo2)2
_symmetry_space_group_name_H-M   'P 1'
_cell_length_a   7.02309973
_cell_length_b   7.02309987
_cell_length_c   7.02310001
_cell_angle_alpha   33.63906061
_cell_angle_beta   33.63905384
_cell_angle_gamma   33.63905962
_symmetry_Int_Tables_number   1
_chemical_formula_structural   MnV(GaCo2)2
_chemical_formula_sum   'Mn1 V1 Ga2 Co4'
_cell_volume   94.69858640
_cell_formula_units_Z   1
loop_
 _symmetry_equiv_pos_site_id
 _symmetry_equiv_pos_as_xyz
  1  'x, y, z'
loop_
 _atom_site_type_symbol
 _atom_site_label
 _atom_site_symmetry_multiplicity
 _atom_site_fract_x
 _atom_site_fract_y
 _atom_site_fract_z
 _atom_site_occupancy
  Mn  Mn0  1  0.000000  0.000000  0.000000  1
  V  V1  1  0.500000  0.500000  0.500000  1
  Ga  Ga2  1  0.251400  0.251400  0.251400  1
  Ga  Ga3  1  0.748600  0.748600  0.748600  1
  Co  Co4  1  0.622925  0.622925  0.622925  1
  Co  Co5  1  0.126766  0.126766  0.126766  1
  Co  Co6  1  0.873234  0.873234  0.873234  1
  Co  Co7  1  0.377075  0.377075  0.377075  1
