# generated using pymatgen
data_Gd4LuCo2Au
_symmetry_space_group_name_H-M   'P 1'
_cell_length_a   8.63804857
_cell_length_b   8.63804860
_cell_length_c   8.63807800
_cell_angle_alpha   127.80059669
_cell_angle_beta   127.80058846
_cell_angle_gamma   76.94860536
_symmetry_Int_Tables_number   1
_chemical_formula_structural   Gd4LuCo2Au
_chemical_formula_sum   'Gd8 Lu2 Co4 Au2'
_cell_volume   390.64631035
_cell_formula_units_Z   2
loop_
 _symmetry_equiv_pos_site_id
 _symmetry_equiv_pos_as_xyz
  1  'x, y, z'
loop_
 _atom_site_type_symbol
 _atom_site_label
 _atom_site_symmetry_multiplicity
 _atom_site_fract_x
 _atom_site_fract_y
 _atom_site_fract_z
 _atom_site_occupancy
  Gd  Gd0  1  0.702347  0.535196  0.499856  1
  Gd  Gd1  1  0.464770  0.964770  0.167539  1
  Gd  Gd2  1  0.798221  0.298221  0.834155  1
  Gd  Gd3  1  0.535230  0.035230  0.832461  1
  Gd  Gd4  1  0.035196  0.202347  0.499856  1
  Gd  Gd5  1  0.297653  0.464804  0.500144  1
  Gd  Gd6  1  0.201779  0.701779  0.165845  1
  Gd  Gd7  1  0.964804  0.797653  0.500144  1
  Lu  Lu8  1  0.000000  0.000000  0.000000  1
  Lu  Lu9  1  0.500000  0.500000  0.000000  1
  Co  Co10  1  0.134518  0.634518  0.768824  1
  Co  Co11  1  0.865482  0.365482  0.231176  1
  Co  Co12  1  0.634677  0.865323  0.500000  1
  Co  Co13  1  0.365323  0.134677  0.500000  1
  Au  Au14  1  0.249057  0.250943  0.000000  1
  Au  Au15  1  0.750943  0.749057  0.000000  1
