# generated using pymatgen
data_Hf12AlTc5Os6
_symmetry_space_group_name_H-M   'P 1'
_cell_length_a   4.61303900
_cell_length_b   6.54150300
_cell_length_c   13.85439500
_cell_angle_alpha   90.00000000
_cell_angle_beta   89.99988000
_cell_angle_gamma   90.00000000
_symmetry_Int_Tables_number   1
_chemical_formula_structural   Hf12AlTc5Os6
_chemical_formula_sum   'Hf12 Al1 Tc5 Os6'
_cell_volume   418.07311157
_cell_formula_units_Z   1
loop_
 _symmetry_equiv_pos_site_id
 _symmetry_equiv_pos_as_xyz
  1  'x, y, z'
loop_
 _atom_site_type_symbol
 _atom_site_label
 _atom_site_symmetry_multiplicity
 _atom_site_fract_x
 _atom_site_fract_y
 _atom_site_fract_z
 _atom_site_occupancy
  Hf  Hf0  1  0.500000  0.259300  0.000000  1
  Hf  Hf1  1  0.500000  0.740701  0.000000  1
  Hf  Hf2  1  0.000003  0.253700  0.170927  1
  Hf  Hf3  1  0.000003  0.746301  0.170927  1
  Hf  Hf4  1  0.500001  0.249848  0.334588  1
  Hf  Hf5  1  0.500001  0.750152  0.334588  1
  Hf  Hf6  1  0.000000  0.249571  0.500000  1
  Hf  Hf7  1  0.000000  0.750429  0.500000  1
  Hf  Hf8  1  0.499999  0.249848  0.665412  1
  Hf  Hf9  1  0.499999  0.750152  0.665412  1
  Hf  Hf10  1  0.999997  0.253700  0.829073  1
  Hf  Hf11  1  0.999997  0.746301  0.829073  1
  Al  Al12  1  0.000000  0.000000  0.000000  1
  Tc  Tc13  1  0.500002  0.500000  0.167245  1
  Tc  Tc14  1  0.000004  0.000000  0.331911  1
  Tc  Tc15  1  0.500000  0.500000  0.500000  1
  Tc  Tc16  1  0.999996  0.000000  0.668089  1
  Tc  Tc17  1  0.499998  0.500000  0.832755  1
  Os  Os18  1  0.000000  0.500000  0.000000  1
  Os  Os19  1  0.500004  0.000000  0.161866  1
  Os  Os20  1  0.000001  0.500000  0.333710  1
  Os  Os21  1  0.500000  0.000000  0.500000  1
  Os  Os22  1  0.999999  0.500000  0.666290  1
  Os  Os23  1  0.499996  0.000000  0.838134  1
