# generated using pymatgen
data_Y6Tm10Cd3AgIr4
_symmetry_space_group_name_H-M   'P 1'
_cell_length_a   9.56966013
_cell_length_b   9.56966040
_cell_length_c   9.56966078
_cell_angle_alpha   59.82229856
_cell_angle_beta   59.82229787
_cell_angle_gamma   59.82230523
_symmetry_Int_Tables_number   1
_chemical_formula_structural   Y6Tm10Cd3AgIr4
_chemical_formula_sum   'Y6 Tm10 Cd3 Ag1 Ir4'
_cell_volume   617.19069941
_cell_formula_units_Z   1
loop_
 _symmetry_equiv_pos_site_id
 _symmetry_equiv_pos_as_xyz
  1  'x, y, z'
loop_
 _atom_site_type_symbol
 _atom_site_label
 _atom_site_symmetry_multiplicity
 _atom_site_fract_x
 _atom_site_fract_y
 _atom_site_fract_z
 _atom_site_occupancy
  Y  Y0  1  0.938624  0.559677  0.559677  1
  Y  Y1  1  0.560616  0.937936  0.937936  1
  Y  Y2  1  0.559677  0.938624  0.559677  1
  Y  Y3  1  0.937936  0.560616  0.937936  1
  Y  Y4  1  0.559677  0.559677  0.938624  1
  Y  Y5  1  0.937936  0.937936  0.560616  1
  Tm  Tm6  1  0.349044  0.349044  0.349044  1
  Tm  Tm7  1  0.349580  0.349580  0.954030  1
  Tm  Tm8  1  0.349580  0.954030  0.349580  1
  Tm  Tm9  1  0.954030  0.349580  0.349580  1
  Tm  Tm10  1  0.810620  0.188689  0.188689  1
  Tm  Tm11  1  0.186439  0.810612  0.810612  1
  Tm  Tm12  1  0.188689  0.810620  0.188689  1
  Tm  Tm13  1  0.810612  0.186439  0.810612  1
  Tm  Tm14  1  0.188689  0.188689  0.810620  1
  Tm  Tm15  1  0.810612  0.810612  0.186439  1
  Cd  Cd16  1  0.581275  0.581275  0.259509  1
  Cd  Cd17  1  0.581275  0.259509  0.581275  1
  Cd  Cd18  1  0.259509  0.581275  0.581275  1
  Ag  Ag19  1  0.582249  0.582249  0.582249  1
  Ir  Ir20  1  0.141980  0.141980  0.141980  1
  Ir  Ir21  1  0.142979  0.142979  0.575394  1
  Ir  Ir22  1  0.142979  0.575394  0.142979  1
  Ir  Ir23  1  0.575394  0.142979  0.142979  1
