# generated using pymatgen
data_DyTm4Co19Si11P
_symmetry_space_group_name_H-M   'P 1'
_cell_length_a   12.11203843
_cell_length_b   12.14538266
_cell_length_c   3.71437900
_cell_angle_alpha   90.00000000
_cell_angle_beta   90.00000000
_cell_angle_gamma   120.08660674
_symmetry_Int_Tables_number   1
_chemical_formula_structural   DyTm4Co19Si11P
_chemical_formula_sum   'Dy1 Tm4 Co19 Si11 P1'
_cell_volume   472.78709758
_cell_formula_units_Z   1
loop_
 _symmetry_equiv_pos_site_id
 _symmetry_equiv_pos_as_xyz
  1  'x, y, z'
loop_
 _atom_site_type_symbol
 _atom_site_label
 _atom_site_symmetry_multiplicity
 _atom_site_fract_x
 _atom_site_fract_y
 _atom_site_fract_z
 _atom_site_occupancy
  Dy  Dy0  1  0.667349  0.333585  0.000000  1
  Tm  Tm1  1  0.332643  0.666238  0.000000  1
  Tm  Tm2  1  0.185059  0.185804  0.500000  1
  Tm  Tm3  1  0.815109  0.000994  0.500000  1
  Tm  Tm4  1  0.999840  0.813612  0.500000  1
  Co  Co5  1  0.824101  0.196947  0.000000  1
  Co  Co6  1  0.803011  0.623299  0.000000  1
  Co  Co7  1  0.376493  0.179636  0.000000  1
  Co  Co8  1  0.197400  0.819665  0.000000  1
  Co  Co9  1  0.622443  0.802765  0.000000  1
  Co  Co10  1  0.176532  0.373807  0.000000  1
  Co  Co11  1  0.558356  0.558885  0.000000  1
  Co  Co12  1  0.441638  0.000491  0.000000  1
  Co  Co13  1  0.000052  0.441615  0.000000  1
  Co  Co14  1  0.645303  0.123449  0.500000  1
  Co  Co15  1  0.877396  0.520909  0.500000  1
  Co  Co16  1  0.478498  0.356190  0.500000  1
  Co  Co17  1  0.123399  0.643548  0.500000  1
  Co  Co18  1  0.520754  0.876983  0.500000  1
  Co  Co19  1  0.354724  0.478923  0.500000  1
  Co  Co20  1  0.718577  0.719183  0.500000  1
  Co  Co21  1  0.280821  0.999353  0.500000  1
  Co  Co22  1  0.000590  0.277996  0.500000  1
  Co  Co23  1  0.999999  0.004696  0.000000  1
  Si  Si24  1  0.370250  0.370714  0.000000  1
  Si  Si25  1  0.629588  0.000219  0.000000  1
  Si  Si26  1  0.000110  0.629258  0.000000  1
  Si  Si27  1  0.841280  0.318520  0.500000  1
  Si  Si28  1  0.682334  0.522525  0.500000  1
  Si  Si29  1  0.477908  0.160162  0.500000  1
  Si  Si30  1  0.317675  0.839061  0.500000  1
  Si  Si31  1  0.520774  0.682213  0.500000  1
  Si  Si32  1  0.159929  0.478384  0.500000  1
  Si  Si33  1  0.817535  0.817656  0.000000  1
  Si  Si34  1  0.182157  0.999382  0.000000  1
  P  P35  1  0.000373  0.183330  0.000000  1
