# generated using pymatgen
data_Yb3Gd5(Tm3Sn4)4
_symmetry_space_group_name_H-M   'P 1'
_cell_length_a   7.97510079
_cell_length_b   8.08833826
_cell_length_c   15.76086200
_cell_angle_alpha   90.06713273
_cell_angle_beta   90.12765133
_cell_angle_gamma   89.91576648
_symmetry_Int_Tables_number   1
_chemical_formula_structural   Yb3Gd5(Tm3Sn4)4
_chemical_formula_sum   'Yb3 Gd5 Tm12 Sn16'
_cell_volume   1016.65501884
_cell_formula_units_Z   1
loop_
 _symmetry_equiv_pos_site_id
 _symmetry_equiv_pos_as_xyz
  1  'x, y, z'
loop_
 _atom_site_type_symbol
 _atom_site_label
 _atom_site_symmetry_multiplicity
 _atom_site_fract_x
 _atom_site_fract_y
 _atom_site_fract_z
 _atom_site_occupancy
  Yb  Yb0  1  0.483069  0.678396  0.593875  1
  Yb  Yb1  1  0.983439  0.823173  0.905833  1
  Yb  Yb2  1  0.516250  0.322626  0.094134  1
  Gd  Gd3  1  0.016198  0.177989  0.404262  1
  Gd  Gd4  1  0.514666  0.321049  0.406568  1
  Gd  Gd5  1  0.014203  0.177826  0.094646  1
  Gd  Gd6  1  0.485365  0.678948  0.906018  1
  Gd  Gd7  1  0.985861  0.822289  0.593953  1
  Tm  Tm8  1  0.639635  0.163367  0.622663  1
  Tm  Tm9  1  0.141724  0.336245  0.875884  1
  Tm  Tm10  1  0.357786  0.834014  0.123521  1
  Tm  Tm11  1  0.858990  0.664553  0.376278  1
  Tm  Tm12  1  0.360256  0.835668  0.378121  1
  Tm  Tm13  1  0.854828  0.663425  0.123421  1
  Tm  Tm14  1  0.645027  0.163032  0.877619  1
  Tm  Tm15  1  0.142149  0.338161  0.622774  1
  Tm  Tm16  1  0.806344  0.499573  0.748409  1
  Tm  Tm17  1  0.307525  0.000709  0.750837  1
  Tm  Tm18  1  0.193394  0.500365  0.249627  1
  Tm  Tm19  1  0.691985  0.999167  0.251587  1
  Sn  Sn20  1  0.698271  0.965174  0.457082  1
  Sn  Sn21  1  0.191393  0.535219  0.041668  1
  Sn  Sn22  1  0.307671  0.035414  0.958150  1
  Sn  Sn23  1  0.806134  0.461665  0.540573  1
  Sn  Sn24  1  0.302686  0.040609  0.541396  1
  Sn  Sn25  1  0.810077  0.463011  0.957138  1
  Sn  Sn26  1  0.689884  0.962524  0.042717  1
  Sn  Sn27  1  0.192014  0.536539  0.456774  1
  Sn  Sn28  1  0.443183  0.375903  0.752556  1
  Sn  Sn29  1  0.942648  0.123348  0.748320  1
  Sn  Sn30  1  0.557239  0.624100  0.252239  1
  Sn  Sn31  1  0.057974  0.877113  0.249090  1
  Sn  Sn32  1  0.675013  0.857238  0.750349  1
  Sn  Sn33  1  0.174557  0.643326  0.750412  1
  Sn  Sn34  1  0.324547  0.142805  0.251204  1
  Sn  Sn35  1  0.828016  0.355435  0.250304  1
