# generated using pymatgen
data_TbPr4Si2Sn
_symmetry_space_group_name_H-M   'P 1'
_cell_length_a   7.86395100
_cell_length_b   9.26145988
_cell_length_c   7.86395100
_cell_angle_alpha   115.12234179
_cell_angle_beta   90.00000000
_cell_angle_gamma   115.12234179
_symmetry_Int_Tables_number   1
_chemical_formula_structural   TbPr4Si2Sn
_chemical_formula_sum   'Tb2 Pr8 Si4 Sn2'
_cell_volume   458.02041109
_cell_formula_units_Z   2
loop_
 _symmetry_equiv_pos_site_id
 _symmetry_equiv_pos_as_xyz
  1  'x, y, z'
loop_
 _atom_site_type_symbol
 _atom_site_label
 _atom_site_symmetry_multiplicity
 _atom_site_fract_x
 _atom_site_fract_y
 _atom_site_fract_z
 _atom_site_occupancy
  Tb  Tb0  1  0.000000  0.000000  0.000000  1
  Tb  Tb1  1  0.500000  0.000000  0.500000  1
  Pr  Pr2  1  0.536282  0.721819  0.685538  1
  Pr  Pr3  1  0.185538  0.721819  0.036282  1
  Pr  Pr4  1  0.685538  0.721819  0.185538  1
  Pr  Pr5  1  0.036282  0.721819  0.536282  1
  Pr  Pr6  1  0.463718  0.278181  0.314462  1
  Pr  Pr7  1  0.814462  0.278181  0.963718  1
  Pr  Pr8  1  0.314462  0.278181  0.814462  1
  Pr  Pr9  1  0.963718  0.278181  0.463718  1
  Si  Si10  1  0.880875  0.000000  0.619125  1
  Si  Si11  1  0.119125  0.000000  0.380875  1
  Si  Si12  1  0.619125  0.000000  0.119125  1
  Si  Si13  1  0.380875  0.000000  0.880875  1
  Sn  Sn14  1  0.750000  0.500000  0.750000  1
  Sn  Sn15  1  0.250000  0.500000  0.250000  1
