# generated using pymatgen
data_Yb5Y2Er3Rh4
_symmetry_space_group_name_H-M   'P 1'
_cell_length_a   6.40036173
_cell_length_b   7.25498746
_cell_length_c   8.43483300
_cell_angle_alpha   97.31492782
_cell_angle_beta   111.54626316
_cell_angle_gamma   89.66842196
_symmetry_Int_Tables_number   1
_chemical_formula_structural   Yb5Y2Er3Rh4
_chemical_formula_sum   'Yb5 Y2 Er3 Rh4'
_cell_volume   360.97696809
_cell_formula_units_Z   1
loop_
 _symmetry_equiv_pos_site_id
 _symmetry_equiv_pos_as_xyz
  1  'x, y, z'
loop_
 _atom_site_type_symbol
 _atom_site_label
 _atom_site_symmetry_multiplicity
 _atom_site_fract_x
 _atom_site_fract_y
 _atom_site_fract_z
 _atom_site_occupancy
  Yb  Yb0  1  0.796894  0.579290  0.817678  1
  Yb  Yb1  1  0.979273  0.919412  0.184651  1
  Yb  Yb2  1  0.202753  0.418976  0.184097  1
  Yb  Yb3  1  0.019630  0.082492  0.814334  1
  Yb  Yb4  1  0.206146  0.686715  0.564308  1
  Y  Y5  1  0.643388  0.816947  0.435418  1
  Y  Y6  1  0.798375  0.313709  0.434946  1
  Er  Er7  1  0.361447  0.184340  0.566650  1
  Er  Er8  1  0.426926  0.749192  0.998636  1
  Er  Er9  1  0.568475  0.248803  0.999573  1
  Rh  Rh10  1  0.596410  0.929047  0.779671  1
  Rh  Rh11  1  0.804986  0.572538  0.212135  1
  Rh  Rh12  1  0.406904  0.074840  0.228386  1
  Rh  Rh13  1  0.188395  0.423701  0.779518  1
