# generated using pymatgen
data_TbNdHo4Ta2O14
_symmetry_space_group_name_H-M   'P 1'
_cell_length_a   6.49424749
_cell_length_b   6.49424781
_cell_length_c   7.52165517
_cell_angle_alpha   89.90449763
_cell_angle_beta   90.09550028
_cell_angle_gamma   108.73293592
_symmetry_Int_Tables_number   1
_chemical_formula_structural   TbNdHo4Ta2O14
_chemical_formula_sum   'Tb1 Nd1 Ho4 Ta2 O14'
_cell_volume   300.42219659
_cell_formula_units_Z   1
loop_
 _symmetry_equiv_pos_site_id
 _symmetry_equiv_pos_as_xyz
  1  'x, y, z'
loop_
 _atom_site_type_symbol
 _atom_site_label
 _atom_site_symmetry_multiplicity
 _atom_site_fract_x
 _atom_site_fract_y
 _atom_site_fract_z
 _atom_site_occupancy
  Tb  Tb0  1  0.463341  0.463341  0.000000  1
  Nd  Nd1  1  0.519659  0.519659  0.500000  1
  Ho  Ho2  1  0.000007  0.534643  0.240343  1
  Ho  Ho3  1  0.998779  0.465866  0.744557  1
  Ho  Ho4  1  0.534643  0.000007  0.759657  1
  Ho  Ho5  1  0.465866  0.998779  0.255443  1
  Ta  Ta6  1  0.001711  0.001711  0.500000  1
  Ta  Ta7  1  0.997202  0.997202  0.000000  1
  O  O8  1  0.932567  0.067584  0.749674  1
  O  O9  1  0.067584  0.932567  0.250326  1
  O  O10  1  0.357409  0.642652  0.242285  1
  O  O11  1  0.642652  0.357409  0.757715  1
  O  O12  1  0.366064  0.632975  0.757306  1
  O  O13  1  0.632975  0.366064  0.242694  1
  O  O14  1  0.327083  0.080260  0.974738  1
  O  O15  1  0.674048  0.924327  0.473857  1
  O  O16  1  0.312746  0.058091  0.542900  1
  O  O17  1  0.692045  0.950942  0.043452  1
  O  O18  1  0.058091  0.312746  0.457100  1
  O  O19  1  0.950942  0.692045  0.956548  1
  O  O20  1  0.924327  0.674048  0.526143  1
  O  O21  1  0.080260  0.327083  0.025262  1
