# generated using pymatgen
data_TbSm4Ho3(ReB6)4
_symmetry_space_group_name_H-M   'P 1'
_cell_length_a   3.71309500
_cell_length_b   9.22098802
_cell_length_c   11.64550702
_cell_angle_alpha   90.00682575
_cell_angle_beta   90.00000000
_cell_angle_gamma   90.00000000
_symmetry_Int_Tables_number   1
_chemical_formula_structural   TbSm4Ho3(ReB6)4
_chemical_formula_sum   'Tb1 Sm4 Ho3 Re4 B24'
_cell_volume   398.72357714
_cell_formula_units_Z   1
loop_
 _symmetry_equiv_pos_site_id
 _symmetry_equiv_pos_as_xyz
  1  'x, y, z'
loop_
 _atom_site_type_symbol
 _atom_site_label
 _atom_site_symmetry_multiplicity
 _atom_site_fract_x
 _atom_site_fract_y
 _atom_site_fract_z
 _atom_site_occupancy
  Tb  Tb0  1  0.000000  0.943005  0.369813  1
  Sm  Sm1  1  0.000000  0.323145  0.414157  1
  Sm  Sm2  1  0.000000  0.676725  0.586029  1
  Sm  Sm3  1  0.000000  0.823011  0.085716  1
  Sm  Sm4  1  0.000000  0.177019  0.914041  1
  Ho  Ho5  1  0.000000  0.057261  0.630834  1
  Ho  Ho6  1  0.000000  0.442921  0.130246  1
  Ho  Ho7  1  0.000000  0.557081  0.869596  1
  Re  Re8  1  0.000000  0.638466  0.319732  1
  Re  Re9  1  0.000000  0.360915  0.680333  1
  Re  Re10  1  0.000000  0.139575  0.179764  1
  Re  Re11  1  0.000000  0.860761  0.819882  1
  B  B12  1  0.500000  0.553936  0.431513  1
  B  B13  1  0.500000  0.445705  0.568611  1
  B  B14  1  0.500000  0.054307  0.068322  1
  B  B15  1  0.500000  0.945771  0.931420  1
  B  B16  1  0.500000  0.748536  0.416757  1
  B  B17  1  0.500000  0.250577  0.583257  1
  B  B18  1  0.500000  0.249628  0.083085  1
  B  B19  1  0.500000  0.750512  0.916782  1
  B  B20  1  0.500000  0.790892  0.265702  1
  B  B21  1  0.500000  0.208454  0.734149  1
  B  B22  1  0.500000  0.291944  0.234000  1
  B  B23  1  0.500000  0.708365  0.765917  1
  B  B24  1  0.500000  0.629720  0.185836  1
  B  B25  1  0.500000  0.370083  0.813995  1
  B  B26  1  0.500000  0.130620  0.313534  1
  B  B27  1  0.500000  0.870022  0.686088  1
  B  B28  1  0.500000  0.983682  0.212197  1
  B  B29  1  0.500000  0.016761  0.787345  1
  B  B30  1  0.500000  0.483014  0.287190  1
  B  B31  1  0.500000  0.516804  0.712727  1
  B  B32  1  0.500000  0.597400  0.027095  1
  B  B33  1  0.500000  0.402629  0.972825  1
  B  B34  1  0.500000  0.098332  0.473493  1
  B  B35  1  0.500000  0.902423  0.528018  1
