# generated using pymatgen
data_Yb4DyY5Ir4
_symmetry_space_group_name_H-M   'P 1'
_cell_length_a   6.54060991
_cell_length_b   7.28157380
_cell_length_c   8.54049962
_cell_angle_alpha   97.07744028
_cell_angle_beta   112.51450843
_cell_angle_gamma   89.99999117
_symmetry_Int_Tables_number   1
_chemical_formula_structural   Yb4DyY5Ir4
_chemical_formula_sum   'Yb4 Dy1 Y5 Ir4'
_cell_volume   372.39076679
_cell_formula_units_Z   1
loop_
 _symmetry_equiv_pos_site_id
 _symmetry_equiv_pos_as_xyz
  1  'x, y, z'
loop_
 _atom_site_type_symbol
 _atom_site_label
 _atom_site_symmetry_multiplicity
 _atom_site_fract_x
 _atom_site_fract_y
 _atom_site_fract_z
 _atom_site_occupancy
  Yb  Yb0  1  0.793223  0.080832  0.816017  1
  Yb  Yb1  1  0.977207  0.419168  0.183983  1
  Yb  Yb2  1  0.206721  0.919101  0.183924  1
  Yb  Yb3  1  0.022797  0.580899  0.816076  1
  Dy  Dy4  1  0.567829  0.750000  0.000000  1
  Y  Y5  1  0.209424  0.183756  0.561207  1
  Y  Y6  1  0.648217  0.316244  0.438793  1
  Y  Y7  1  0.790494  0.816157  0.438676  1
  Y  Y8  1  0.351818  0.683843  0.561324  1
  Y  Y9  1  0.431857  0.250000  0.000000  1
  Ir  Ir10  1  0.589771  0.427955  0.773732  1
  Ir  Ir11  1  0.816039  0.072045  0.226268  1
  Ir  Ir12  1  0.410441  0.572851  0.226278  1
  Ir  Ir13  1  0.184162  0.927149  0.773722  1
