# generated using pymatgen
data_TbTiCdSbO7
_symmetry_space_group_name_H-M   'P 1'
_cell_length_a   7.30673000
_cell_length_b   7.30673000
_cell_length_c   10.36531000
_cell_angle_alpha   90.00000000
_cell_angle_beta   90.00000000
_cell_angle_gamma   90.00000000
_symmetry_Int_Tables_number   1
_chemical_formula_structural   TbTiCdSbO7
_chemical_formula_sum   'Tb4 Ti4 Cd4 Sb4 O28'
_cell_volume   553.38631400
_cell_formula_units_Z   4
loop_
 _symmetry_equiv_pos_site_id
 _symmetry_equiv_pos_as_xyz
  1  'x, y, z'
loop_
 _atom_site_type_symbol
 _atom_site_label
 _atom_site_symmetry_multiplicity
 _atom_site_fract_x
 _atom_site_fract_y
 _atom_site_fract_z
 _atom_site_occupancy
  Tb  Tb0  1  0.000000  0.734678  0.000000  1
  Tb  Tb1  1  0.265322  0.000000  0.250000  1
  Tb  Tb2  1  0.000000  0.265322  0.500000  1
  Tb  Tb3  1  0.734678  0.000000  0.750000  1
  Ti  Ti4  1  0.763590  0.000000  0.250000  1
  Ti  Ti5  1  0.000000  0.763590  0.500000  1
  Ti  Ti6  1  0.236410  0.000000  0.750000  1
  Ti  Ti7  1  0.000000  0.236410  0.000000  1
  Cd  Cd8  1  0.500000  0.740109  0.000000  1
  Cd  Cd9  1  0.500000  0.259891  0.500000  1
  Cd  Cd10  1  0.740109  0.500000  0.750000  1
  Cd  Cd11  1  0.259891  0.500000  0.250000  1
  Sb  Sb12  1  0.242709  0.500000  0.750000  1
  Sb  Sb13  1  0.500000  0.757291  0.500000  1
  Sb  Sb14  1  0.500000  0.242709  0.000000  1
  Sb  Sb15  1  0.757291  0.500000  0.250000  1
  O  O16  1  0.252301  0.747699  0.125000  1
  O  O17  1  0.551407  0.947247  0.367370  1
  O  O18  1  0.747699  0.252301  0.625000  1
  O  O19  1  0.954090  0.954090  0.375000  1
  O  O20  1  0.052753  0.448593  0.882630  1
  O  O21  1  0.045910  0.045910  0.875000  1
  O  O22  1  0.045910  0.954090  0.625000  1
  O  O23  1  0.249518  0.232280  0.074421  1
  O  O24  1  0.232280  0.249518  0.675579  1
  O  O25  1  0.249518  0.767720  0.425579  1
  O  O26  1  0.449075  0.449075  0.875000  1
  O  O27  1  0.448593  0.052753  0.867370  1
  O  O28  1  0.448593  0.947247  0.632630  1
  O  O29  1  0.550925  0.550925  0.375000  1
  O  O30  1  0.551407  0.052753  0.132630  1
  O  O31  1  0.550925  0.449075  0.125000  1
  O  O32  1  0.750482  0.767720  0.574421  1
  O  O33  1  0.747699  0.747699  0.875000  1
  O  O34  1  0.767720  0.249518  0.324421  1
  O  O35  1  0.767720  0.750482  0.175579  1
  O  O36  1  0.750482  0.232280  0.925579  1
  O  O37  1  0.947247  0.551407  0.382630  1
  O  O38  1  0.947247  0.448593  0.117370  1
  O  O39  1  0.954090  0.045910  0.125000  1
  O  O40  1  0.052753  0.551407  0.617370  1
  O  O41  1  0.252301  0.252301  0.375000  1
  O  O42  1  0.232280  0.750482  0.824421  1
  O  O43  1  0.449075  0.550925  0.625000  1
