# generated using pymatgen
data_La4Mg4Mn3H22
_symmetry_space_group_name_H-M   'P 1'
_cell_length_a   6.83384200
_cell_length_b   6.83384200
_cell_length_c   6.83384200
_cell_angle_alpha   90.00000000
_cell_angle_beta   90.00000000
_cell_angle_gamma   90.00000000
_symmetry_Int_Tables_number   1
_chemical_formula_structural   La4Mg4Mn3H22
_chemical_formula_sum   'La4 Mg4 Mn3 H22'
_cell_volume   319.14996473
_cell_formula_units_Z   1
loop_
 _symmetry_equiv_pos_site_id
 _symmetry_equiv_pos_as_xyz
  1  'x, y, z'
loop_
 _atom_site_type_symbol
 _atom_site_label
 _atom_site_symmetry_multiplicity
 _atom_site_fract_x
 _atom_site_fract_y
 _atom_site_fract_z
 _atom_site_occupancy
  La  La0  1  0.284854  0.284854  0.715146  1
  La  La1  1  0.284854  0.715146  0.284854  1
  La  La2  1  0.715146  0.284854  0.284854  1
  La  La3  1  0.715146  0.715146  0.715146  1
  Mg  Mg4  1  0.789670  0.789670  0.210330  1
  Mg  Mg5  1  0.789670  0.210330  0.789670  1
  Mg  Mg6  1  0.210330  0.789670  0.789670  1
  Mg  Mg7  1  0.210330  0.210330  0.210330  1
  Mn  Mn8  1  0.000000  0.000000  0.500000  1
  Mn  Mn9  1  0.000000  0.500000  0.000000  1
  Mn  Mn10  1  0.500000  0.000000  0.000000  1
  H  H11  1  0.000000  0.500000  0.241718  1
  H  H12  1  0.500000  0.758282  0.000000  1
  H  H13  1  0.758282  0.000000  0.500000  1
  H  H14  1  0.000000  0.758282  0.500000  1
  H  H15  1  0.500000  0.000000  0.241718  1
  H  H16  1  0.758282  0.500000  0.000000  1
  H  H17  1  0.000000  0.500000  0.758282  1
  H  H18  1  0.500000  0.241718  0.000000  1
  H  H19  1  0.000000  0.241718  0.500000  1
  H  H20  1  0.500000  0.000000  0.758282  1
  H  H21  1  0.241718  0.000000  0.500000  1
  H  H22  1  0.241718  0.500000  0.000000  1
  H  H23  1  0.000000  0.000000  0.258700  1
  H  H24  1  0.000000  0.741300  0.000000  1
  H  H25  1  0.741300  0.000000  0.000000  1
  H  H26  1  0.000000  0.000000  0.741300  1
  H  H27  1  0.000000  0.258700  0.000000  1
  H  H28  1  0.258700  0.000000  0.000000  1
  H  H29  1  0.627481  0.627481  0.372519  1
  H  H30  1  0.627481  0.372519  0.627481  1
  H  H31  1  0.372519  0.627481  0.627481  1
  H  H32  1  0.372519  0.372519  0.372519  1
