# generated using pymatgen
data_YEr2Co(P3Ir4)2
_symmetry_space_group_name_H-M   'P 1'
_cell_length_a   3.92342600
_cell_length_b   11.08246000
_cell_length_c   12.77134600
_cell_angle_alpha   90.00000000
_cell_angle_beta   90.00000000
_cell_angle_gamma   90.00000000
_symmetry_Int_Tables_number   1
_chemical_formula_structural   YEr2Co(P3Ir4)2
_chemical_formula_sum   'Y2 Er4 Co2 P12 Ir16'
_cell_volume   555.31359922
_cell_formula_units_Z   2
loop_
 _symmetry_equiv_pos_site_id
 _symmetry_equiv_pos_as_xyz
  1  'x, y, z'
loop_
 _atom_site_type_symbol
 _atom_site_label
 _atom_site_symmetry_multiplicity
 _atom_site_fract_x
 _atom_site_fract_y
 _atom_site_fract_z
 _atom_site_occupancy
  Y  Y0  1  0.000000  0.500000  0.522445  1
  Y  Y1  1  0.500000  0.000000  0.477555  1
  Er  Er2  1  0.500000  0.815842  0.200463  1
  Er  Er3  1  0.500000  0.184158  0.200463  1
  Er  Er4  1  0.000000  0.684158  0.799537  1
  Er  Er5  1  0.000000  0.315842  0.799537  1
  Co  Co6  1  0.000000  0.500000  0.976840  1
  Co  Co7  1  0.500000  0.000000  0.023160  1
  P  P8  1  0.500000  0.500000  0.880294  1
  P  P9  1  0.000000  0.000000  0.119706  1
  P  P10  1  0.500000  0.500000  0.358044  1
  P  P11  1  0.000000  0.000000  0.641956  1
  P  P12  1  0.500000  0.315745  0.619677  1
  P  P13  1  0.500000  0.684255  0.619677  1
  P  P14  1  0.000000  0.184255  0.380323  1
  P  P15  1  0.000000  0.815745  0.380323  1
  P  P16  1  0.500000  0.851705  0.896410  1
  P  P17  1  0.500000  0.148295  0.896410  1
  P  P18  1  0.000000  0.648295  0.103590  1
  P  P19  1  0.000000  0.351705  0.103590  1
  Ir  Ir20  1  0.500000  0.500000  0.177705  1
  Ir  Ir21  1  0.000000  0.000000  0.822295  1
  Ir  Ir22  1  0.500000  0.500000  0.703204  1
  Ir  Ir23  1  0.000000  0.000000  0.296796  1
  Ir  Ir24  1  0.500000  0.338971  0.997755  1
  Ir  Ir25  1  0.500000  0.661029  0.997755  1
  Ir  Ir26  1  0.000000  0.161029  0.002245  1
  Ir  Ir27  1  0.000000  0.838971  0.002245  1
  Ir  Ir28  1  0.500000  0.292817  0.429119  1
  Ir  Ir29  1  0.500000  0.707183  0.429119  1
  Ir  Ir30  1  0.000000  0.207183  0.570881  1
  Ir  Ir31  1  0.000000  0.792817  0.570881  1
  Ir  Ir32  1  0.500000  0.869630  0.715066  1
  Ir  Ir33  1  0.500000  0.130370  0.715066  1
  Ir  Ir34  1  0.000000  0.630370  0.284934  1
  Ir  Ir35  1  0.000000  0.369630  0.284934  1
