# generated using pymatgen
data_CeY5(Ni3As2)6
_symmetry_space_group_name_H-M   'P 1'
_cell_length_a   3.91667900
_cell_length_b   10.90673402
_cell_length_c   12.77298300
_cell_angle_alpha   90.00332005
_cell_angle_beta   90.00000000
_cell_angle_gamma   90.00000000
_symmetry_Int_Tables_number   1
_chemical_formula_structural   CeY5(Ni3As2)6
_chemical_formula_sum   'Ce1 Y5 Ni18 As12'
_cell_volume   545.63853605
_cell_formula_units_Z   1
loop_
 _symmetry_equiv_pos_site_id
 _symmetry_equiv_pos_as_xyz
  1  'x, y, z'
loop_
 _atom_site_type_symbol
 _atom_site_label
 _atom_site_symmetry_multiplicity
 _atom_site_fract_x
 _atom_site_fract_y
 _atom_site_fract_z
 _atom_site_occupancy
  Ce  Ce0  1  0.500000  0.816697  0.207164  1
  Y  Y1  1  0.000000  0.499780  0.522484  1
  Y  Y2  1  0.500000  0.000617  0.478255  1
  Y  Y3  1  0.500000  0.184744  0.206363  1
  Y  Y4  1  0.000000  0.683932  0.793769  1
  Y  Y5  1  0.000000  0.316118  0.793270  1
  Ni  Ni6  1  0.500000  0.500334  0.155665  1
  Ni  Ni7  1  0.000000  0.000446  0.843734  1
  Ni  Ni8  1  0.500000  0.499795  0.698747  1
  Ni  Ni9  1  0.000000  0.999315  0.300691  1
  Ni  Ni10  1  0.000000  0.498956  0.981937  1
  Ni  Ni11  1  0.500000  0.000759  0.017623  1
  Ni  Ni12  1  0.500000  0.333020  0.997194  1
  Ni  Ni13  1  0.500000  0.666508  0.996971  1
  Ni  Ni14  1  0.000000  0.167775  0.002192  1
  Ni  Ni15  1  0.000000  0.832637  0.001669  1
  Ni  Ni16  1  0.500000  0.303162  0.426227  1
  Ni  Ni17  1  0.500000  0.696428  0.425984  1
  Ni  Ni18  1  0.000000  0.196471  0.573883  1
  Ni  Ni19  1  0.000000  0.803474  0.575300  1
  Ni  Ni20  1  0.500000  0.879900  0.708129  1
  Ni  Ni21  1  0.500000  0.120544  0.707573  1
  Ni  Ni22  1  0.000000  0.619452  0.292817  1
  Ni  Ni23  1  0.000000  0.379705  0.292095  1
  As  As24  1  0.500000  0.500042  0.876005  1
  As  As25  1  0.000000  0.001145  0.121984  1
  As  As26  1  0.500000  0.499468  0.344107  1
  As  As27  1  0.000000  0.000164  0.656288  1
  As  As28  1  0.500000  0.314072  0.613179  1
  As  As29  1  0.500000  0.685804  0.613463  1
  As  As30  1  0.000000  0.185946  0.386711  1
  As  As31  1  0.000000  0.813570  0.389761  1
  As  As32  1  0.500000  0.847633  0.891272  1
  As  As33  1  0.500000  0.152529  0.890447  1
  As  As34  1  0.000000  0.651391  0.107879  1
  As  As35  1  0.000000  0.347671  0.109166  1
