# generated using pymatgen
data_Pr3ScBi5
_symmetry_space_group_name_H-M   'P 1'
_cell_length_a   9.78204901
_cell_length_b   9.78204962
_cell_length_c   6.58622300
_cell_angle_alpha   90.00000000
_cell_angle_beta   90.00000000
_cell_angle_gamma   119.99838303
_symmetry_Int_Tables_number   1
_chemical_formula_structural   Pr3ScBi5
_chemical_formula_sum   'Pr6 Sc2 Bi10'
_cell_volume   545.80038147
_cell_formula_units_Z   2
loop_
 _symmetry_equiv_pos_site_id
 _symmetry_equiv_pos_as_xyz
  1  'x, y, z'
loop_
 _atom_site_type_symbol
 _atom_site_label
 _atom_site_symmetry_multiplicity
 _atom_site_fract_x
 _atom_site_fract_y
 _atom_site_fract_z
 _atom_site_occupancy
  Pr  Pr0  1  0.618511  0.000007  0.249997  1
  Pr  Pr1  1  0.000008  0.618511  0.249997  1
  Pr  Pr2  1  0.381478  0.381477  0.250005  1
  Pr  Pr3  1  0.381484  0.999987  0.750002  1
  Pr  Pr4  1  0.999987  0.381484  0.750002  1
  Pr  Pr5  1  0.618513  0.618514  0.750021  1
  Sc  Sc6  1  0.000039  0.000039  0.999944  1
  Sc  Sc7  1  0.000012  0.000012  0.499985  1
  Bi  Bi8  1  0.666664  0.333333  0.000004  1
  Bi  Bi9  1  0.333334  0.666664  0.000004  1
  Bi  Bi10  1  0.262539  0.999996  0.250006  1
  Bi  Bi11  1  0.999997  0.262539  0.250006  1
  Bi  Bi12  1  0.737453  0.737452  0.250012  1
  Bi  Bi13  1  0.666659  0.333331  0.500004  1
  Bi  Bi14  1  0.333331  0.666660  0.500004  1
  Bi  Bi15  1  0.737455  0.000000  0.750001  1
  Bi  Bi16  1  0.000000  0.737454  0.750001  1
  Bi  Bi17  1  0.262538  0.262538  0.750006  1
