# generated using pymatgen
data_Ca3(TmSi2)2
_symmetry_space_group_name_H-M   'P 1'
_cell_length_a   7.34994700
_cell_length_b   7.76018400
_cell_length_c   14.99860800
_cell_angle_alpha   90.00000000
_cell_angle_beta   90.00000000
_cell_angle_gamma   90.00000000
_symmetry_Int_Tables_number   1
_chemical_formula_structural   Ca3(TmSi2)2
_chemical_formula_sum   'Ca12 Tm8 Si16'
_cell_volume   855.47472123
_cell_formula_units_Z   4
loop_
 _symmetry_equiv_pos_site_id
 _symmetry_equiv_pos_as_xyz
  1  'x, y, z'
loop_
 _atom_site_type_symbol
 _atom_site_label
 _atom_site_symmetry_multiplicity
 _atom_site_fract_x
 _atom_site_fract_y
 _atom_site_fract_z
 _atom_site_occupancy
  Ca  Ca0  1  0.973311  0.816972  0.404189  1
  Ca  Ca1  1  0.473311  0.683028  0.095811  1
  Ca  Ca2  1  0.526689  0.316972  0.595811  1
  Ca  Ca3  1  0.026689  0.183028  0.904189  1
  Ca  Ca4  1  0.026689  0.183028  0.595811  1
  Ca  Ca5  1  0.526689  0.316972  0.904189  1
  Ca  Ca6  1  0.473311  0.683028  0.404189  1
  Ca  Ca7  1  0.973311  0.816972  0.095811  1
  Ca  Ca8  1  0.352593  0.018906  0.750000  1
  Ca  Ca9  1  0.852593  0.481094  0.750000  1
  Ca  Ca10  1  0.147407  0.518906  0.250000  1
  Ca  Ca11  1  0.647407  0.981094  0.250000  1
  Tm  Tm12  1  0.314433  0.176530  0.121156  1
  Tm  Tm13  1  0.814433  0.323470  0.378844  1
  Tm  Tm14  1  0.185567  0.676530  0.878844  1
  Tm  Tm15  1  0.685567  0.823470  0.621156  1
  Tm  Tm16  1  0.314433  0.176530  0.378844  1
  Tm  Tm17  1  0.814433  0.323470  0.121156  1
  Tm  Tm18  1  0.185567  0.676530  0.621156  1
  Tm  Tm19  1  0.685567  0.823470  0.878844  1
  Si  Si20  1  0.857311  0.534993  0.538193  1
  Si  Si21  1  0.357311  0.965007  0.961807  1
  Si  Si22  1  0.642689  0.034993  0.461807  1
  Si  Si23  1  0.142689  0.465007  0.038193  1
  Si  Si24  1  0.142689  0.465007  0.461807  1
  Si  Si25  1  0.642689  0.034993  0.038193  1
  Si  Si26  1  0.357311  0.965007  0.538193  1
  Si  Si27  1  0.857311  0.534993  0.961807  1
  Si  Si28  1  0.977344  0.879031  0.750000  1
  Si  Si29  1  0.477344  0.620969  0.750000  1
  Si  Si30  1  0.522656  0.379031  0.250000  1
  Si  Si31  1  0.022656  0.120969  0.250000  1
  Si  Si32  1  0.248492  0.396828  0.750000  1
  Si  Si33  1  0.748492  0.103172  0.750000  1
  Si  Si34  1  0.251508  0.896828  0.250000  1
  Si  Si35  1  0.751508  0.603172  0.250000  1
