# generated using pymatgen
data_SrHo(PPd)2
_symmetry_space_group_name_H-M   'P 1'
_cell_length_a   4.12272900
_cell_length_b   8.19313886
_cell_length_c   7.29499460
_cell_angle_alpha   90.12082431
_cell_angle_beta   90.00000000
_cell_angle_gamma   90.00000000
_symmetry_Int_Tables_number   1
_chemical_formula_structural   SrHo(PPd)2
_chemical_formula_sum   'Sr2 Ho2 P4 Pd4'
_cell_volume   246.41044512
_cell_formula_units_Z   2
loop_
 _symmetry_equiv_pos_site_id
 _symmetry_equiv_pos_as_xyz
  1  'x, y, z'
loop_
 _atom_site_type_symbol
 _atom_site_label
 _atom_site_symmetry_multiplicity
 _atom_site_fract_x
 _atom_site_fract_y
 _atom_site_fract_z
 _atom_site_occupancy
  Sr  Sr0  1  0.250000  0.500090  0.249710  1
  Sr  Sr1  1  0.750000  0.499910  0.750290  1
  Ho  Ho2  1  0.750000  0.999624  0.752528  1
  Ho  Ho3  1  0.250000  0.000376  0.247472  1
  P  P4  1  0.250000  0.774700  0.912926  1
  P  P5  1  0.750000  0.225300  0.087074  1
  P  P6  1  0.750000  0.776075  0.413007  1
  P  P7  1  0.250000  0.223925  0.586993  1
  Pd  Pd8  1  0.250000  0.770147  0.582939  1
  Pd  Pd9  1  0.750000  0.229853  0.417061  1
  Pd  Pd10  1  0.750000  0.768169  0.083610  1
  Pd  Pd11  1  0.250000  0.231831  0.916390  1
