# generated using pymatgen
data_Zr4Al24RuPt8
_symmetry_space_group_name_H-M   'P 1'
_cell_length_a   7.45363479
_cell_length_b   7.47163319
_cell_length_c   12.96230250
_cell_angle_alpha   84.61466849
_cell_angle_beta   78.98044946
_cell_angle_gamma   59.93211936
_symmetry_Int_Tables_number   1
_chemical_formula_structural   Zr4Al24RuPt8
_chemical_formula_sum   'Zr4 Al24 Ru1 Pt8'
_cell_volume   613.21901005
_cell_formula_units_Z   1
loop_
 _symmetry_equiv_pos_site_id
 _symmetry_equiv_pos_as_xyz
  1  'x, y, z'
loop_
 _atom_site_type_symbol
 _atom_site_label
 _atom_site_symmetry_multiplicity
 _atom_site_fract_x
 _atom_site_fract_y
 _atom_site_fract_z
 _atom_site_occupancy
  Zr  Zr0  1  0.393031  0.167429  0.811357  1
  Zr  Zr1  1  0.606969  0.832571  0.188643  1
  Zr  Zr2  1  0.731830  0.498696  0.811019  1
  Zr  Zr3  1  0.268170  0.501304  0.188981  1
  Al  Al4  1  0.686795  0.828207  0.944047  1
  Al  Al5  1  0.313205  0.171793  0.055953  1
  Al  Al6  1  0.145580  0.832737  0.563837  1
  Al  Al7  1  0.854420  0.167263  0.436163  1
  Al  Al8  1  0.480428  0.166847  0.561275  1
  Al  Al9  1  0.519572  0.833153  0.438725  1
  Al  Al10  1  0.221167  0.164742  0.322680  1
  Al  Al11  1  0.778833  0.835258  0.677320  1
  Al  Al12  1  0.436749  0.505641  0.677312  1
  Al  Al13  1  0.563251  0.494359  0.322688  1
  Al  Al14  1  0.107903  0.162710  0.675101  1
  Al  Al15  1  0.892097  0.837290  0.324899  1
  Al  Al16  1  0.350471  0.496481  0.944119  1
  Al  Al17  1  0.649529  0.503519  0.055881  1
  Al  Al18  1  0.016245  0.175553  0.951366  1
  Al  Al19  1  0.983755  0.824447  0.048634  1
  Al  Al20  1  0.187447  0.499571  0.439251  1
  Al  Al21  1  0.812553  0.500429  0.560749  1
  Al  Al22  1  0.730331  0.162855  0.182790  1
  Al  Al23  1  0.269669  0.837145  0.817210  1
  Al  Al24  1  0.060493  0.622925  0.818729  1
  Al  Al25  1  0.939507  0.377075  0.181271  1
  Al  Al26  1  0.851425  0.046762  0.816515  1
  Al  Al27  1  0.148575  0.953238  0.183485  1
  Ru  Ru28  1  0.000000  0.500000  0.000000  1
  Pt  Pt29  1  0.120128  0.491212  0.639600  1
  Pt  Pt30  1  0.879872  0.508788  0.360400  1
  Pt  Pt31  1  0.656260  0.172054  0.999639  1
  Pt  Pt32  1  0.343740  0.827946  0.000361  1
  Pt  Pt33  1  0.536389  0.166077  0.361337  1
  Pt  Pt34  1  0.463611  0.833923  0.638663  1
  Pt  Pt35  1  0.777940  0.176921  0.637386  1
  Pt  Pt36  1  0.222060  0.823079  0.362614  1
