# generated using pymatgen
data_Pr7PaGaPd24
_symmetry_space_group_name_H-M   'P 1'
_cell_length_a   8.51014931
_cell_length_b   8.51014931
_cell_length_c   8.51014931
_cell_angle_alpha   89.90954905
_cell_angle_beta   89.90954905
_cell_angle_gamma   90.09045095
_symmetry_Int_Tables_number   1
_chemical_formula_structural   Pr7PaGaPd24
_chemical_formula_sum   'Pr7 Pa1 Ga1 Pd24'
_cell_volume   616.32518349
_cell_formula_units_Z   1
loop_
 _symmetry_equiv_pos_site_id
 _symmetry_equiv_pos_as_xyz
  1  'x, y, z'
loop_
 _atom_site_type_symbol
 _atom_site_label
 _atom_site_symmetry_multiplicity
 _atom_site_fract_x
 _atom_site_fract_y
 _atom_site_fract_z
 _atom_site_occupancy
  Pr  Pr0  1  0.251318  0.748276  0.251724  1
  Pr  Pr1  1  0.748276  0.251318  0.251724  1
  Pr  Pr2  1  0.748276  0.748276  0.748682  1
  Pr  Pr3  1  0.748208  0.748208  0.251792  1
  Pr  Pr4  1  0.750445  0.251497  0.748503  1
  Pr  Pr5  1  0.251497  0.750445  0.748503  1
  Pr  Pr6  1  0.251497  0.251497  0.249555  1
  Pa  Pa7  1  0.251320  0.251320  0.748680  1
  Ga  Ga8  1  0.999527  0.999527  0.000473  1
  Pd  Pd9  1  0.494846  0.494846  0.746441  1
  Pd  Pd10  1  0.494846  0.253559  0.505154  1
  Pd  Pd11  1  0.253559  0.494846  0.505154  1
  Pd  Pd12  1  0.499299  0.499299  0.252993  1
  Pd  Pd13  1  0.499299  0.747007  0.500701  1
  Pd  Pd14  1  0.747007  0.499299  0.500701  1
  Pd  Pd15  1  0.003686  0.003686  0.706759  1
  Pd  Pd16  1  0.003686  0.293241  0.996314  1
  Pd  Pd17  1  0.293241  0.003686  0.996314  1
  Pd  Pd18  1  0.000237  0.000237  0.294053  1
  Pd  Pd19  1  0.000237  0.705947  0.999763  1
  Pd  Pd20  1  0.705947  0.000237  0.999763  1
  Pd  Pd21  1  0.006806  0.495702  0.739320  1
  Pd  Pd22  1  0.495702  0.260680  0.993194  1
  Pd  Pd23  1  0.260680  0.006806  0.504298  1
  Pd  Pd24  1  0.006806  0.260680  0.504298  1
  Pd  Pd25  1  0.495702  0.006806  0.739320  1
  Pd  Pd26  1  0.260680  0.495702  0.993194  1
  Pd  Pd27  1  0.000200  0.499103  0.260616  1
  Pd  Pd28  1  0.499103  0.739384  0.999800  1
  Pd  Pd29  1  0.000200  0.739384  0.500897  1
  Pd  Pd30  1  0.499103  0.000200  0.260616  1
  Pd  Pd31  1  0.739384  0.000200  0.500897  1
  Pd  Pd32  1  0.739384  0.499103  0.999800  1
