# generated using pymatgen
data_CsRbFeCoSe4
_symmetry_space_group_name_H-M   'P 1'
_cell_length_a   7.42370108
_cell_length_b   7.42370068
_cell_length_c   5.56478213
_cell_angle_alpha   79.24809338
_cell_angle_beta   79.24809296
_cell_angle_gamma   116.46150006
_symmetry_Int_Tables_number   1
_chemical_formula_structural   CsRbFeCoSe4
_chemical_formula_sum   'Cs1 Rb1 Fe1 Co1 Se4'
_cell_volume   256.73938418
_cell_formula_units_Z   1
loop_
 _symmetry_equiv_pos_site_id
 _symmetry_equiv_pos_as_xyz
  1  'x, y, z'
loop_
 _atom_site_type_symbol
 _atom_site_label
 _atom_site_symmetry_multiplicity
 _atom_site_fract_x
 _atom_site_fract_y
 _atom_site_fract_z
 _atom_site_occupancy
  Cs  Cs0  1  0.142498  0.857502  0.250000  1
  Rb  Rb1  1  0.859744  0.140256  0.750000  1
  Fe  Fe2  1  0.498148  0.501852  0.750000  1
  Co  Co3  1  0.499171  0.500829  0.250000  1
  Se  Se4  1  0.209903  0.419735  0.093036  1
  Se  Se5  1  0.580265  0.790097  0.406964  1
  Se  Se6  1  0.783317  0.573045  0.910502  1
  Se  Se7  1  0.426955  0.216683  0.589498  1
