# generated using pymatgen
data_Tb3ZnIn3AgRu
_symmetry_space_group_name_H-M   'P 1'
_cell_length_a   7.79985300
_cell_length_b   7.79985252
_cell_length_c   3.90621000
_cell_angle_alpha   90.00000000
_cell_angle_beta   90.00000000
_cell_angle_gamma   120.00000628
_symmetry_Int_Tables_number   1
_chemical_formula_structural   Tb3ZnIn3AgRu
_chemical_formula_sum   'Tb3 Zn1 In3 Ag1 Ru1'
_cell_volume   205.80645906
_cell_formula_units_Z   1
loop_
 _symmetry_equiv_pos_site_id
 _symmetry_equiv_pos_as_xyz
  1  'x, y, z'
loop_
 _atom_site_type_symbol
 _atom_site_label
 _atom_site_symmetry_multiplicity
 _atom_site_fract_x
 _atom_site_fract_y
 _atom_site_fract_z
 _atom_site_occupancy
  Tb  Tb0  1  0.969179  0.579198  0.500000  1
  Tb  Tb1  1  0.420802  0.389982  0.500000  1
  Tb  Tb2  1  0.610018  0.030821  0.500000  1
  Zn  Zn3  1  0.000000  0.000000  0.500000  1
  In  In4  1  0.738353  0.739408  0.000000  1
  In  In5  1  0.001055  0.261647  0.000000  1
  In  In6  1  0.260592  0.998945  0.000000  1
  Ag  Ag7  1  0.333333  0.666667  0.000000  1
  Ru  Ru8  1  0.666667  0.333333  0.000000  1
