# generated using pymatgen
data_Y3Lu7Bi6
_symmetry_space_group_name_H-M   'P 1'
_cell_length_a   8.18525300
_cell_length_b   9.39650000
_cell_length_c   11.91968100
_cell_angle_alpha   90.00000000
_cell_angle_beta   90.00000000
_cell_angle_gamma   90.00000000
_symmetry_Int_Tables_number   1
_chemical_formula_structural   Y3Lu7Bi6
_chemical_formula_sum   'Y6 Lu14 Bi12'
_cell_volume   916.77520423
_cell_formula_units_Z   2
loop_
 _symmetry_equiv_pos_site_id
 _symmetry_equiv_pos_as_xyz
  1  'x, y, z'
loop_
 _atom_site_type_symbol
 _atom_site_label
 _atom_site_symmetry_multiplicity
 _atom_site_fract_x
 _atom_site_fract_y
 _atom_site_fract_z
 _atom_site_occupancy
  Y  Y0  1  0.647251  0.250000  0.782987  1
  Y  Y1  1  0.852749  0.750000  0.282986  1
  Y  Y2  1  0.311548  0.250000  0.218012  1
  Y  Y3  1  0.188452  0.750000  0.718013  1
  Y  Y4  1  0.813439  0.250000  0.281977  1
  Y  Y5  1  0.686560  0.750000  0.781978  1
  Lu  Lu6  1  0.476440  0.250000  0.489330  1
  Lu  Lu7  1  0.023559  0.750000  0.989330  1
  Lu  Lu8  1  0.977133  0.250000  0.010040  1
  Lu  Lu9  1  0.522868  0.750000  0.510040  1
  Lu  Lu10  1  0.149098  0.250000  0.718201  1
  Lu  Lu11  1  0.350902  0.750000  0.218201  1
  Lu  Lu12  1  0.192573  0.567638  0.440439  1
  Lu  Lu13  1  0.307427  0.432363  0.940439  1
  Lu  Lu14  1  0.692892  0.932843  0.058523  1
  Lu  Lu15  1  0.807108  0.067156  0.558524  1
  Lu  Lu16  1  0.807108  0.432844  0.558524  1
  Lu  Lu17  1  0.692892  0.567157  0.058523  1
  Lu  Lu18  1  0.307427  0.067637  0.940439  1
  Lu  Lu19  1  0.192573  0.932362  0.440439  1
  Bi  Bi20  1  0.066425  0.995296  0.172811  1
  Bi  Bi21  1  0.433575  0.004705  0.672811  1
  Bi  Bi22  1  0.563780  0.505098  0.326422  1
  Bi  Bi23  1  0.936220  0.494901  0.826421  1
  Bi  Bi24  1  0.936220  0.005100  0.826421  1
  Bi  Bi25  1  0.563780  0.994901  0.326422  1
  Bi  Bi26  1  0.433575  0.495296  0.672811  1
  Bi  Bi27  1  0.066425  0.504703  0.172811  1
  Bi  Bi28  1  0.096295  0.250000  0.459894  1
  Bi  Bi29  1  0.403706  0.750000  0.959894  1
  Bi  Bi30  1  0.595852  0.250000  0.043170  1
  Bi  Bi31  1  0.904148  0.750000  0.543171  1
