# generated using pymatgen
data_K11Rb(AsSe4)4
_symmetry_space_group_name_H-M   'P 1'
_cell_length_a   9.64671233
_cell_length_b   10.21751215
_cell_length_c   11.04629300
_cell_angle_alpha   90.00000000
_cell_angle_beta   90.00000000
_cell_angle_gamma   89.72427150
_symmetry_Int_Tables_number   1
_chemical_formula_structural   K11Rb(AsSe4)4
_chemical_formula_sum   'K11 Rb1 As4 Se16'
_cell_volume   1088.76968580
_cell_formula_units_Z   1
loop_
 _symmetry_equiv_pos_site_id
 _symmetry_equiv_pos_as_xyz
  1  'x, y, z'
loop_
 _atom_site_type_symbol
 _atom_site_label
 _atom_site_symmetry_multiplicity
 _atom_site_fract_x
 _atom_site_fract_y
 _atom_site_fract_z
 _atom_site_occupancy
  K  K0  1  0.134742  0.077105  0.750000  1
  K  K1  1  0.362707  0.578802  0.250000  1
  K  K2  1  0.863656  0.923386  0.250000  1
  K  K3  1  0.570769  0.194893  0.047486  1
  K  K4  1  0.073273  0.305556  0.453239  1
  K  K5  1  0.427168  0.804744  0.548253  1
  K  K6  1  0.928695  0.696339  0.955120  1
  K  K7  1  0.427168  0.804744  0.951747  1
  K  K8  1  0.928695  0.696339  0.544880  1
  K  K9  1  0.570769  0.194893  0.452514  1
  K  K10  1  0.073273  0.305556  0.046761  1
  Rb  Rb11  1  0.652174  0.414880  0.750000  1
  As  As12  1  0.726857  0.975609  0.750000  1
  As  As13  1  0.229842  0.524646  0.750000  1
  As  As14  1  0.270801  0.023901  0.250000  1
  As  As15  1  0.770903  0.476544  0.250000  1
  Se  Se16  1  0.855122  0.026351  0.572670  1
  Se  Se17  1  0.357765  0.477282  0.928235  1
  Se  Se18  1  0.141567  0.976357  0.072747  1
  Se  Se19  1  0.641350  0.524668  0.427079  1
  Se  Se20  1  0.141567  0.976357  0.427253  1
  Se  Se21  1  0.641350  0.524668  0.072921  1
  Se  Se22  1  0.855122  0.026351  0.927330  1
  Se  Se23  1  0.357765  0.477282  0.571765  1
  Se  Se24  1  0.677572  0.750506  0.750000  1
  Se  Se25  1  0.172264  0.749030  0.750000  1
  Se  Se26  1  0.325123  0.248538  0.250000  1
  Se  Se27  1  0.826384  0.251734  0.250000  1
  Se  Se28  1  0.512572  0.091273  0.750000  1
  Se  Se29  1  0.021570  0.401549  0.750000  1
  Se  Se30  1  0.480887  0.901815  0.250000  1
  Se  Se31  1  0.980530  0.598305  0.250000  1
