# generated using pymatgen
data_La5Ce(Sn3Hg2)2
_symmetry_space_group_name_H-M   'P 1'
_cell_length_a   6.69978300
_cell_length_b   6.69978353
_cell_length_c   10.54994500
_cell_angle_alpha   90.00000000
_cell_angle_beta   90.00000000
_cell_angle_gamma   103.09717539
_symmetry_Int_Tables_number   1
_chemical_formula_structural   La5Ce(Sn3Hg2)2
_chemical_formula_sum   'La5 Ce1 Sn6 Hg4'
_cell_volume   461.23783582
_cell_formula_units_Z   1
loop_
 _symmetry_equiv_pos_site_id
 _symmetry_equiv_pos_as_xyz
  1  'x, y, z'
loop_
 _atom_site_type_symbol
 _atom_site_label
 _atom_site_symmetry_multiplicity
 _atom_site_fract_x
 _atom_site_fract_y
 _atom_site_fract_z
 _atom_site_occupancy
  La  La0  1  0.374547  0.374547  0.750000  1
  La  La1  1  0.205380  0.796048  0.500291  1
  La  La2  1  0.205380  0.796048  0.999709  1
  La  La3  1  0.796048  0.205380  0.500291  1
  La  La4  1  0.796048  0.205380  0.999709  1
  Ce  Ce5  1  0.625858  0.625858  0.250000  1
  Sn  Sn6  1  0.014410  0.014410  0.250000  1
  Sn  Sn7  1  0.981857  0.981857  0.750000  1
  Sn  Sn8  1  0.490053  0.063183  0.250000  1
  Sn  Sn9  1  0.932439  0.512112  0.750000  1
  Sn  Sn10  1  0.512112  0.932439  0.750000  1
  Sn  Sn11  1  0.063183  0.490053  0.250000  1
  Hg  Hg12  1  0.311091  0.311091  0.047833  1
  Hg  Hg13  1  0.690250  0.690250  0.958323  1
  Hg  Hg14  1  0.311091  0.311091  0.452167  1
  Hg  Hg15  1  0.690250  0.690250  0.541677  1
