# generated using pymatgen
data_TiBr37
_symmetry_space_group_name_H-M   'P 1'
_cell_length_a   14.20848141
_cell_length_b   15.29732181
_cell_length_c   14.42416200
_cell_angle_alpha   103.00376457
_cell_angle_beta   48.80056783
_cell_angle_gamma   81.50743146
_symmetry_Int_Tables_number   1
_chemical_formula_structural   TiBr37
_chemical_formula_sum   'Ti1 Br37'
_cell_volume   2102.91272627
_cell_formula_units_Z   1
loop_
 _symmetry_equiv_pos_site_id
 _symmetry_equiv_pos_as_xyz
  1  'x, y, z'
loop_
 _atom_site_type_symbol
 _atom_site_label
 _atom_site_symmetry_multiplicity
 _atom_site_fract_x
 _atom_site_fract_y
 _atom_site_fract_z
 _atom_site_occupancy
  Ti  Ti0  1  0.500000  0.000000  0.000000  1
  Br  Br1  1  0.802751  0.305017  0.135891  1
  Br  Br2  1  0.197249  0.694983  0.864109  1
  Br  Br3  1  0.752543  0.081599  0.357693  1
  Br  Br4  1  0.247457  0.918401  0.642307  1
  Br  Br5  1  0.108239  0.349193  0.174750  1
  Br  Br6  1  0.891761  0.650807  0.825250  1
  Br  Br7  1  0.870224  0.542829  0.248983  1
  Br  Br8  1  0.129776  0.457171  0.751017  1
  Br  Br9  1  0.689003  0.275124  0.519658  1
  Br  Br10  1  0.310997  0.724876  0.480342  1
  Br  Br11  1  0.056338  0.159276  0.467678  1
  Br  Br12  1  0.943662  0.840724  0.532322  1
  Br  Br13  1  0.990661  0.005529  0.272683  1
  Br  Br14  1  0.009339  0.994471  0.727317  1
  Br  Br15  1  0.951871  0.348965  0.599285  1
  Br  Br16  1  0.048129  0.651035  0.400715  1
  Br  Br17  1  0.591425  0.428681  0.234293  1
  Br  Br18  1  0.408575  0.571319  0.765707  1
  Br  Br19  1  0.184828  0.467718  0.261815  1
  Br  Br20  1  0.815172  0.532282  0.738185  1
  Br  Br21  1  0.000000  0.500000  0.000000  1
  Br  Br22  1  0.625504  0.940226  0.054335  1
  Br  Br23  1  0.374496  0.059774  0.945665  1
  Br  Br24  1  0.327088  0.056827  0.267774  1
  Br  Br25  1  0.672912  0.943173  0.732226  1
  Br  Br26  1  0.538757  0.127499  0.409802  1
  Br  Br27  1  0.461243  0.872501  0.590198  1
  Br  Br28  1  0.070434  0.220559  0.083167  1
  Br  Br29  1  0.929566  0.779441  0.916833  1
  Br  Br30  1  0.663181  0.699705  0.404555  1
  Br  Br31  1  0.336819  0.300295  0.595445  1
  Br  Br32  1  0.902515  0.149628  0.928693  1
  Br  Br33  1  0.097485  0.850372  0.071307  1
  Br  Br34  1  0.537762  0.150007  0.024048  1
  Br  Br35  1  0.462238  0.849993  0.975952  1
  Br  Br36  1  0.644699  0.432525  0.650746  1
  Br  Br37  1  0.355301  0.567475  0.349254  1
