# generated using pymatgen
data_ErLu2Fe4Co4TcP6
_symmetry_space_group_name_H-M   'P 1'
_cell_length_a   3.67832400
_cell_length_b   10.45530500
_cell_length_c   12.12576600
_cell_angle_alpha   90.00000000
_cell_angle_beta   90.00000000
_cell_angle_gamma   90.00000000
_symmetry_Int_Tables_number   1
_chemical_formula_structural   ErLu2Fe4Co4TcP6
_chemical_formula_sum   'Er2 Lu4 Fe8 Co8 Tc2 P12'
_cell_volume   466.33270045
_cell_formula_units_Z   2
loop_
 _symmetry_equiv_pos_site_id
 _symmetry_equiv_pos_as_xyz
  1  'x, y, z'
loop_
 _atom_site_type_symbol
 _atom_site_label
 _atom_site_symmetry_multiplicity
 _atom_site_fract_x
 _atom_site_fract_y
 _atom_site_fract_z
 _atom_site_occupancy
  Er  Er0  1  0.000000  0.500000  0.525757  1
  Er  Er1  1  0.500000  0.000000  0.473923  1
  Lu  Lu2  1  0.500000  0.819251  0.205310  1
  Lu  Lu3  1  0.500000  0.180749  0.205310  1
  Lu  Lu4  1  0.000000  0.680798  0.794775  1
  Lu  Lu5  1  0.000000  0.319202  0.794775  1
  Fe  Fe6  1  0.000000  0.500000  0.986864  1
  Fe  Fe7  1  0.500000  0.000000  0.012914  1
  Fe  Fe8  1  0.500000  0.330202  0.992245  1
  Fe  Fe9  1  0.500000  0.669798  0.992245  1
  Fe  Fe10  1  0.000000  0.169852  0.007645  1
  Fe  Fe11  1  0.000000  0.830148  0.007645  1
  Fe  Fe12  1  0.500000  0.296376  0.431158  1
  Fe  Fe13  1  0.500000  0.703624  0.431158  1
  Co  Co14  1  0.500000  0.500000  0.701541  1
  Co  Co15  1  0.000000  0.000000  0.298825  1
  Co  Co16  1  0.000000  0.202774  0.569881  1
  Co  Co17  1  0.000000  0.797226  0.569881  1
  Co  Co18  1  0.500000  0.878513  0.706641  1
  Co  Co19  1  0.500000  0.121487  0.706641  1
  Co  Co20  1  0.000000  0.621656  0.292821  1
  Co  Co21  1  0.000000  0.378344  0.292821  1
  Tc  Tc22  1  0.500000  0.500000  0.155803  1
  Tc  Tc23  1  0.000000  0.000000  0.843629  1
  P  P24  1  0.500000  0.500000  0.881761  1
  P  P25  1  0.000000  0.000000  0.118375  1
  P  P26  1  0.500000  0.500000  0.349595  1
  P  P27  1  0.000000  0.000000  0.650943  1
  P  P28  1  0.500000  0.311237  0.615631  1
  P  P29  1  0.500000  0.688763  0.615631  1
  P  P30  1  0.000000  0.190154  0.383727  1
  P  P31  1  0.000000  0.809846  0.383727  1
  P  P32  1  0.500000  0.845669  0.892538  1
  P  P33  1  0.500000  0.154331  0.892538  1
  P  P34  1  0.000000  0.653909  0.107663  1
  P  P35  1  0.000000  0.346091  0.107663  1
