# generated using pymatgen
data_CaNb6SnSe12
_symmetry_space_group_name_H-M   'P 1'
_cell_length_a   6.08966600
_cell_length_b   6.08966524
_cell_length_c   15.08066500
_cell_angle_alpha   90.00000000
_cell_angle_beta   90.00000000
_cell_angle_gamma   120.00001500
_symmetry_Int_Tables_number   1
_chemical_formula_structural   CaNb6SnSe12
_chemical_formula_sum   'Ca1 Nb6 Sn1 Se12'
_cell_volume   484.32618698
_cell_formula_units_Z   1
loop_
 _symmetry_equiv_pos_site_id
 _symmetry_equiv_pos_as_xyz
  1  'x, y, z'
loop_
 _atom_site_type_symbol
 _atom_site_label
 _atom_site_symmetry_multiplicity
 _atom_site_fract_x
 _atom_site_fract_y
 _atom_site_fract_z
 _atom_site_occupancy
  Ca  Ca0  1  0.000000  0.000000  0.500000  1
  Nb  Nb1  1  0.333333  0.666667  0.250719  1
  Nb  Nb2  1  0.666667  0.333333  0.749281  1
  Nb  Nb3  1  0.666667  0.333333  0.250719  1
  Nb  Nb4  1  0.333333  0.666667  0.749281  1
  Nb  Nb5  1  0.000000  0.000000  0.250867  1
  Nb  Nb6  1  0.000000  0.000000  0.749133  1
  Sn  Sn7  1  0.000000  0.000000  0.000000  1
  Se  Se8  1  0.336897  0.000000  0.140517  1
  Se  Se9  1  0.000000  0.336897  0.140517  1
  Se  Se10  1  0.663103  0.663103  0.140517  1
  Se  Se11  1  0.337399  0.337399  0.638474  1
  Se  Se12  1  0.662601  0.662601  0.361526  1
  Se  Se13  1  0.662601  0.000000  0.638474  1
  Se  Se14  1  0.000000  0.662601  0.638474  1
  Se  Se15  1  0.000000  0.663103  0.859483  1
  Se  Se16  1  0.336897  0.336897  0.859483  1
  Se  Se17  1  0.000000  0.337399  0.361526  1
  Se  Se18  1  0.337399  0.000000  0.361526  1
  Se  Se19  1  0.663103  0.000000  0.859483  1
