# generated using pymatgen
data_TbTm19Rh12
_symmetry_space_group_name_H-M   'P 1'
_cell_length_a   10.68536417
_cell_length_b   10.68979083
_cell_length_c   6.27049000
_cell_angle_alpha   89.97156594
_cell_angle_beta   90.01027911
_cell_angle_gamma   90.01768728
_symmetry_Int_Tables_number   1
_chemical_formula_structural   TbTm19Rh12
_chemical_formula_sum   'Tb1 Tm19 Rh12'
_cell_volume   716.24224656
_cell_formula_units_Z   1
loop_
 _symmetry_equiv_pos_site_id
 _symmetry_equiv_pos_as_xyz
  1  'x, y, z'
loop_
 _atom_site_type_symbol
 _atom_site_label
 _atom_site_symmetry_multiplicity
 _atom_site_fract_x
 _atom_site_fract_y
 _atom_site_fract_z
 _atom_site_occupancy
  Tb  Tb0  1  0.088799  0.289214  0.123510  1
  Tm  Tm1  1  0.291836  0.086993  0.378234  1
  Tm  Tm2  1  0.290965  0.911947  0.878124  1
  Tm  Tm3  1  0.709012  0.088008  0.877296  1
  Tm  Tm4  1  0.709047  0.911950  0.377725  1
  Tm  Tm5  1  0.588020  0.790964  0.877885  1
  Tm  Tm6  1  0.588067  0.209066  0.377861  1
  Tm  Tm7  1  0.412095  0.790809  0.377717  1
  Tm  Tm8  1  0.412185  0.209058  0.877357  1
  Tm  Tm9  1  0.209307  0.412664  0.622342  1
  Tm  Tm10  1  0.209149  0.589070  0.122261  1
  Tm  Tm11  1  0.790346  0.412359  0.122333  1
  Tm  Tm12  1  0.790598  0.588314  0.622496  1
  Tm  Tm13  1  0.911753  0.709134  0.122465  1
  Tm  Tm14  1  0.911191  0.291284  0.622338  1
  Tm  Tm15  1  0.088234  0.709360  0.622449  1
  Tm  Tm16  1  0.999789  0.999840  0.499738  1
  Tm  Tm17  1  0.999457  0.998846  0.999432  1
  Tm  Tm18  1  0.500006  0.500291  0.999585  1
  Tm  Tm19  1  0.500288  0.500211  0.499976  1
  Rh  Rh20  1  0.843842  0.153010  0.251143  1
  Rh  Rh21  1  0.845682  0.845658  0.750096  1
  Rh  Rh22  1  0.154933  0.153031  0.746810  1
  Rh  Rh23  1  0.154032  0.845873  0.249847  1
  Rh  Rh24  1  0.654257  0.345933  0.750089  1
  Rh  Rh25  1  0.654185  0.654093  0.249798  1
  Rh  Rh26  1  0.347897  0.346186  0.251017  1
  Rh  Rh27  1  0.345939  0.654353  0.750080  1
  Rh  Rh28  1  0.500362  0.999820  0.123088  1
  Rh  Rh29  1  0.500065  0.999780  0.623345  1
  Rh  Rh30  1  0.999397  0.501444  0.876198  1
  Rh  Rh31  1  0.999266  0.501432  0.377363  1
