# generated using pymatgen
data_CaTbEr2(Ga2Ag)4
_symmetry_space_group_name_H-M   'P 1'
_cell_length_a   4.35266100
_cell_length_b   6.98392881
_cell_length_c   10.29002220
_cell_angle_alpha   89.56140240
_cell_angle_beta   90.00000000
_cell_angle_gamma   90.00000000
_symmetry_Int_Tables_number   1
_chemical_formula_structural   CaTbEr2(Ga2Ag)4
_chemical_formula_sum   'Ca1 Tb1 Er2 Ga8 Ag4'
_cell_volume   312.79387124
_cell_formula_units_Z   1
loop_
 _symmetry_equiv_pos_site_id
 _symmetry_equiv_pos_as_xyz
  1  'x, y, z'
loop_
 _atom_site_type_symbol
 _atom_site_label
 _atom_site_symmetry_multiplicity
 _atom_site_fract_x
 _atom_site_fract_y
 _atom_site_fract_z
 _atom_site_occupancy
  Ca  Ca0  1  0.750000  0.223231  0.173656  1
  Tb  Tb1  1  0.250000  0.277862  0.673598  1
  Er  Er2  1  0.250000  0.778889  0.827501  1
  Er  Er3  1  0.750000  0.720399  0.326365  1
  Ga  Ga4  1  0.250000  0.925443  0.152609  1
  Ga  Ga5  1  0.750000  0.069832  0.844181  1
  Ga  Ga6  1  0.750000  0.574356  0.655270  1
  Ga  Ga7  1  0.250000  0.430633  0.348475  1
  Ga  Ga8  1  0.250000  0.705124  0.536813  1
  Ga  Ga9  1  0.750000  0.299755  0.465012  1
  Ga  Ga10  1  0.750000  0.796033  0.035577  1
  Ga  Ga11  1  0.250000  0.200232  0.963757  1
  Ag  Ag12  1  0.250000  0.544135  0.095934  1
  Ag  Ag13  1  0.750000  0.455867  0.902513  1
  Ag  Ag14  1  0.750000  0.954953  0.595828  1
  Ag  Ag15  1  0.250000  0.043258  0.402912  1
