# generated using pymatgen
data_CsMgVF6
_symmetry_space_group_name_H-M   'P 1'
_cell_length_a   7.46174540
_cell_length_b   7.46174459
_cell_length_c   7.46174547
_cell_angle_alpha   120.76671305
_cell_angle_beta   119.05148955
_cell_angle_gamma   90.16391948
_symmetry_Int_Tables_number   1
_chemical_formula_structural   CsMgVF6
_chemical_formula_sum   'Cs2 Mg2 V2 F12'
_cell_volume   294.08938709
_cell_formula_units_Z   2
loop_
 _symmetry_equiv_pos_site_id
 _symmetry_equiv_pos_as_xyz
  1  'x, y, z'
loop_
 _atom_site_type_symbol
 _atom_site_label
 _atom_site_symmetry_multiplicity
 _atom_site_fract_x
 _atom_site_fract_y
 _atom_site_fract_z
 _atom_site_occupancy
  Cs  Cs0  1  0.369964  0.619964  0.750000  1
  Cs  Cs1  1  0.630036  0.380036  0.250000  1
  Mg  Mg2  1  0.000000  0.000000  0.500000  1
  Mg  Mg3  1  0.000000  0.500000  0.000000  1
  V  V4  1  0.000000  0.000000  0.000000  1
  V  V5  1  0.500000  0.000000  0.500000  1
  F  F6  1  0.319844  0.069844  0.250000  1
  F  F7  1  0.934098  0.684098  0.250000  1
  F  F8  1  0.320922  0.688305  0.255139  1
  F  F9  1  0.933166  0.065783  0.244861  1
  F  F10  1  0.320922  0.065783  0.632617  1
  F  F11  1  0.933166  0.688305  0.867383  1
  F  F12  1  0.680156  0.930156  0.750000  1
  F  F13  1  0.065902  0.315902  0.750000  1
  F  F14  1  0.679078  0.311695  0.744861  1
  F  F15  1  0.066834  0.934217  0.755139  1
  F  F16  1  0.679078  0.934217  0.367383  1
  F  F17  1  0.066834  0.311695  0.132617  1
