# generated using pymatgen
data_TbEr9Bi5Os
_symmetry_space_group_name_H-M   'P 1'
_cell_length_a   8.04532800
_cell_length_b   9.33677100
_cell_length_c   12.04155300
_cell_angle_alpha   90.00000000
_cell_angle_beta   90.00000000
_cell_angle_gamma   90.00000000
_symmetry_Int_Tables_number   1
_chemical_formula_structural   TbEr9Bi5Os
_chemical_formula_sum   'Tb2 Er18 Bi10 Os2'
_cell_volume   904.52997458
_cell_formula_units_Z   2
loop_
 _symmetry_equiv_pos_site_id
 _symmetry_equiv_pos_as_xyz
  1  'x, y, z'
loop_
 _atom_site_type_symbol
 _atom_site_label
 _atom_site_symmetry_multiplicity
 _atom_site_fract_x
 _atom_site_fract_y
 _atom_site_fract_z
 _atom_site_occupancy
  Tb  Tb0  1  0.574946  0.500000  0.773081  1
  Tb  Tb1  1  0.425054  0.500000  0.273081  1
  Er  Er2  1  0.431529  0.178688  0.562882  1
  Er  Er3  1  0.568471  0.821312  0.062882  1
  Er  Er4  1  0.073428  0.721475  0.434831  1
  Er  Er5  1  0.926572  0.278525  0.934831  1
  Er  Er6  1  0.073428  0.278525  0.434831  1
  Er  Er7  1  0.926572  0.721475  0.934831  1
  Er  Er8  1  0.431529  0.821312  0.562882  1
  Er  Er9  1  0.568471  0.178688  0.062882  1
  Er  Er10  1  0.910586  0.000000  0.208922  1
  Er  Er11  1  0.089414  0.000000  0.708922  1
  Er  Er12  1  0.258427  0.500000  0.993096  1
  Er  Er13  1  0.741573  0.500000  0.493096  1
  Er  Er14  1  0.191495  0.000000  0.996589  1
  Er  Er15  1  0.808505  0.000000  0.496589  1
  Er  Er16  1  0.090116  0.500000  0.717869  1
  Er  Er17  1  0.909884  0.500000  0.217869  1
  Er  Er18  1  0.373498  0.000000  0.303662  1
  Er  Er19  1  0.626502  0.000000  0.803662  1
  Bi  Bi20  1  0.816622  0.740775  0.670379  1
  Bi  Bi21  1  0.183378  0.259225  0.170379  1
  Bi  Bi22  1  0.680789  0.241666  0.326397  1
  Bi  Bi23  1  0.319211  0.758334  0.826397  1
  Bi  Bi24  1  0.680789  0.758334  0.326397  1
  Bi  Bi25  1  0.319211  0.241666  0.826397  1
  Bi  Bi26  1  0.816622  0.259225  0.670379  1
  Bi  Bi27  1  0.183378  0.740775  0.170379  1
  Bi  Bi28  1  0.350349  0.500000  0.530463  1
  Bi  Bi29  1  0.649651  0.500000  0.030463  1
  Os  Os30  1  0.171565  0.000000  0.487342  1
  Os  Os31  1  0.828435  0.000000  0.987342  1
