# generated using pymatgen
data_Rb2LiPS4
_symmetry_space_group_name_H-M   'P 1'
_cell_length_a   13.46682751
_cell_length_b   12.05979793
_cell_length_c   7.32944304
_cell_angle_alpha   84.21986721
_cell_angle_beta   62.99486657
_cell_angle_gamma   32.78526069
_symmetry_Int_Tables_number   1
_chemical_formula_structural   Rb2LiPS4
_chemical_formula_sum   'Rb4 Li2 P2 S8'
_cell_volume   466.79793270
_cell_formula_units_Z   2
loop_
 _symmetry_equiv_pos_site_id
 _symmetry_equiv_pos_as_xyz
  1  'x, y, z'
loop_
 _atom_site_type_symbol
 _atom_site_label
 _atom_site_symmetry_multiplicity
 _atom_site_fract_x
 _atom_site_fract_y
 _atom_site_fract_z
 _atom_site_occupancy
  Rb  Rb0  1  0.821601  0.821601  0.178399  1
  Rb  Rb1  1  0.428399  0.428399  0.071601  1
  Rb  Rb2  1  0.178399  0.178399  0.821601  1
  Rb  Rb3  1  0.071601  0.071601  0.428399  1
  Li  Li4  1  0.500000  0.500000  0.500000  1
  Li  Li5  1  0.750000  0.750000  0.750000  1
  P  P6  1  0.000000  0.000000  0.000000  1
  P  P7  1  0.250000  0.250000  0.250000  1
  S  S8  1  0.491379  0.908130  0.185790  1
  S  S9  1  0.908130  0.491379  0.414702  1
  S  S10  1  0.835298  0.064210  0.341870  1
  S  S11  1  0.064210  0.835298  0.758621  1
  S  S12  1  0.185790  0.414702  0.491379  1
  S  S13  1  0.414702  0.185790  0.908130  1
  S  S14  1  0.341870  0.758621  0.835298  1
  S  S15  1  0.758621  0.341870  0.064210  1
