# generated using pymatgen
data_Dy3Zn2Pt3Au
_symmetry_space_group_name_H-M   'P 1'
_cell_length_a   3.88178600
_cell_length_b   7.43032308
_cell_length_c   7.31524767
_cell_angle_alpha   120.52175996
_cell_angle_beta   90.00000000
_cell_angle_gamma   90.00000000
_symmetry_Int_Tables_number   1
_chemical_formula_structural   Dy3Zn2Pt3Au
_chemical_formula_sum   'Dy3 Zn2 Pt3 Au1'
_cell_volume   181.75715358
_cell_formula_units_Z   1
loop_
 _symmetry_equiv_pos_site_id
 _symmetry_equiv_pos_as_xyz
  1  'x, y, z'
loop_
 _atom_site_type_symbol
 _atom_site_label
 _atom_site_symmetry_multiplicity
 _atom_site_fract_x
 _atom_site_fract_y
 _atom_site_fract_z
 _atom_site_occupancy
  Dy  Dy0  1  0.000000  0.407892  0.000000  1
  Dy  Dy1  1  0.000000  0.600723  0.608515  1
  Dy  Dy2  1  0.000000  0.992209  0.391485  1
  Zn  Zn3  1  0.500000  0.255435  0.254683  1
  Zn  Zn4  1  0.500000  0.000753  0.745317  1
  Pt  Pt5  1  0.500000  0.661772  0.349156  1
  Pt  Pt6  1  0.500000  0.312616  0.650844  1
  Pt  Pt7  1  0.000000  0.027591  0.000000  1
  Au  Au8  1  0.500000  0.741108  0.000000  1
