# generated using pymatgen
data_Eu3In2Pd3Au
_symmetry_space_group_name_H-M   'P 1'
_cell_length_a   7.85639641
_cell_length_b   7.70146055
_cell_length_c   4.12196600
_cell_angle_alpha   90.00000000
_cell_angle_beta   90.00000000
_cell_angle_gamma   120.82378014
_symmetry_Int_Tables_number   1
_chemical_formula_structural   Eu3In2Pd3Au
_chemical_formula_sum   'Eu3 In2 Pd3 Au1'
_cell_volume   214.17376696
_cell_formula_units_Z   1
loop_
 _symmetry_equiv_pos_site_id
 _symmetry_equiv_pos_as_xyz
  1  'x, y, z'
loop_
 _atom_site_type_symbol
 _atom_site_label
 _atom_site_symmetry_multiplicity
 _atom_site_fract_x
 _atom_site_fract_y
 _atom_site_fract_z
 _atom_site_occupancy
  Eu  Eu0  1  0.419937  0.999988  0.500000  1
  Eu  Eu1  1  0.983339  0.385223  0.500000  1
  Eu  Eu2  1  0.598140  0.614627  0.500000  1
  In  In3  1  0.001046  0.744246  0.000000  1
  In  In4  1  0.257516  0.256132  0.000000  1
  Pd  Pd5  1  0.317689  0.657199  0.000000  1
  Pd  Pd6  1  0.660477  0.342787  0.000000  1
  Pd  Pd7  1  0.018792  0.999863  0.500000  1
  Au  Au8  1  0.743064  0.999935  0.000000  1
