# generated using pymatgen
data_Tb5Nd3Re2(B12Os)2
_symmetry_space_group_name_H-M   'P 1'
_cell_length_a   3.71918100
_cell_length_b   9.25324491
_cell_length_c   11.68011916
_cell_angle_alpha   90.12876785
_cell_angle_beta   90.00000000
_cell_angle_gamma   90.00000000
_symmetry_Int_Tables_number   1
_chemical_formula_structural   Tb5Nd3Re2(B12Os)2
_chemical_formula_sum   'Tb5 Nd3 Re2 B24 Os2'
_cell_volume   401.96435994
_cell_formula_units_Z   1
loop_
 _symmetry_equiv_pos_site_id
 _symmetry_equiv_pos_as_xyz
  1  'x, y, z'
loop_
 _atom_site_type_symbol
 _atom_site_label
 _atom_site_symmetry_multiplicity
 _atom_site_fract_x
 _atom_site_fract_y
 _atom_site_fract_z
 _atom_site_occupancy
  Tb  Tb0  1  0.000000  0.174803  0.915286  1
  Tb  Tb1  1  0.000000  0.943560  0.369679  1
  Tb  Tb2  1  0.000000  0.056919  0.630243  1
  Tb  Tb3  1  0.000000  0.441960  0.128543  1
  Tb  Tb4  1  0.000000  0.557387  0.870950  1
  Nd  Nd5  1  0.000000  0.321623  0.412762  1
  Nd  Nd6  1  0.000000  0.678283  0.587592  1
  Nd  Nd7  1  0.000000  0.824528  0.084902  1
  Re  Re8  1  0.000000  0.139067  0.179139  1
  Re  Re9  1  0.000000  0.862387  0.820286  1
  B  B10  1  0.500000  0.555272  0.430695  1
  B  B11  1  0.500000  0.444219  0.569862  1
  B  B12  1  0.500000  0.055174  0.067231  1
  B  B13  1  0.500000  0.947437  0.931321  1
  B  B14  1  0.500000  0.748646  0.416721  1
  B  B15  1  0.500000  0.251268  0.584026  1
  B  B16  1  0.500000  0.248332  0.080954  1
  B  B17  1  0.500000  0.752254  0.916803  1
  B  B18  1  0.500000  0.789462  0.266853  1
  B  B19  1  0.500000  0.209444  0.734637  1
  B  B20  1  0.500000  0.290160  0.232431  1
  B  B21  1  0.500000  0.710158  0.766949  1
  B  B22  1  0.500000  0.630241  0.187008  1
  B  B23  1  0.500000  0.368119  0.814251  1
  B  B24  1  0.500000  0.131012  0.313035  1
  B  B25  1  0.500000  0.869894  0.686957  1
  B  B26  1  0.500000  0.985784  0.212466  1
  B  B27  1  0.500000  0.016868  0.787774  1
  B  B28  1  0.500000  0.485239  0.286968  1
  B  B29  1  0.500000  0.513907  0.713405  1
  B  B30  1  0.500000  0.601062  0.028078  1
  B  B31  1  0.500000  0.396093  0.971044  1
  B  B32  1  0.500000  0.101105  0.472240  1
  B  B33  1  0.500000  0.899180  0.527932  1
  Os  Os34  1  0.000000  0.638339  0.320563  1
  Os  Os35  1  0.000000  0.360814  0.680414  1
