# generated using pymatgen
data_K6Rb12Ga2Bi5Sb3
_symmetry_space_group_name_H-M   'P 1'
_cell_length_a   11.04107833
_cell_length_b   11.05152761
_cell_length_c   11.52793300
_cell_angle_alpha   90.00000000
_cell_angle_beta   90.00000000
_cell_angle_gamma   119.81194516
_symmetry_Int_Tables_number   1
_chemical_formula_structural   K6Rb12Ga2Bi5Sb3
_chemical_formula_sum   'K6 Rb12 Ga2 Bi5 Sb3'
_cell_volume   1220.49424881
_cell_formula_units_Z   1
loop_
 _symmetry_equiv_pos_site_id
 _symmetry_equiv_pos_as_xyz
  1  'x, y, z'
loop_
 _atom_site_type_symbol
 _atom_site_label
 _atom_site_symmetry_multiplicity
 _atom_site_fract_x
 _atom_site_fract_y
 _atom_site_fract_z
 _atom_site_occupancy
  K  K0  1  0.238283  0.119743  0.750000  1
  K  K1  1  0.881398  0.119755  0.750000  1
  K  K2  1  0.761767  0.880279  0.250000  1
  K  K3  1  0.119689  0.238190  0.250000  1
  K  K4  1  0.118793  0.881202  0.250000  1
  K  K5  1  0.880486  0.761057  0.750000  1
  Rb  Rb6  1  0.207822  0.791270  0.957230  1
  Rb  Rb7  1  0.208540  0.416796  0.957124  1
  Rb  Rb8  1  0.583372  0.791090  0.957462  1
  Rb  Rb9  1  0.416673  0.208929  0.457507  1
  Rb  Rb10  1  0.791169  0.583221  0.042274  1
  Rb  Rb11  1  0.791892  0.208420  0.457818  1
  Rb  Rb12  1  0.791169  0.583221  0.457726  1
  Rb  Rb13  1  0.207822  0.791270  0.542770  1
  Rb  Rb14  1  0.583372  0.791090  0.542538  1
  Rb  Rb15  1  0.416673  0.208929  0.042493  1
  Rb  Rb16  1  0.791892  0.208420  0.042182  1
  Rb  Rb17  1  0.208540  0.416796  0.542876  1
  Ga  Ga18  1  0.335374  0.664807  0.250000  1
  Ga  Ga19  1  0.669023  0.337459  0.750000  1
  Bi  Bi20  1  0.000012  0.000012  0.999979  1
  Bi  Bi21  1  0.044363  0.522063  0.250000  1
  Bi  Bi22  1  0.477872  0.955479  0.250000  1
  Bi  Bi23  1  0.522470  0.045013  0.750000  1
  Bi  Bi24  1  0.000012  0.000012  0.500021  1
  Sb  Sb25  1  0.524386  0.475788  0.750000  1
  Sb  Sb26  1  0.476032  0.523979  0.250000  1
  Sb  Sb27  1  0.951105  0.475708  0.750000  1
