# generated using pymatgen
data_Dy2Sc3Ge7Pt9
_symmetry_space_group_name_H-M   'P 1'
_cell_length_a   10.29864500
_cell_length_b   10.29864372
_cell_length_c   4.02059700
_cell_angle_alpha   90.00000000
_cell_angle_beta   90.00000000
_cell_angle_gamma   120.00000091
_symmetry_Int_Tables_number   1
_chemical_formula_structural   Dy2Sc3Ge7Pt9
_chemical_formula_sum   'Dy2 Sc3 Ge7 Pt9'
_cell_volume   369.30168897
_cell_formula_units_Z   1
loop_
 _symmetry_equiv_pos_site_id
 _symmetry_equiv_pos_as_xyz
  1  'x, y, z'
loop_
 _atom_site_type_symbol
 _atom_site_label
 _atom_site_symmetry_multiplicity
 _atom_site_fract_x
 _atom_site_fract_y
 _atom_site_fract_z
 _atom_site_occupancy
  Dy  Dy0  1  0.000000  0.000000  0.000000  1
  Dy  Dy1  1  0.333333  0.666667  0.500000  1
  Sc  Sc2  1  0.894414  0.456531  0.500000  1
  Sc  Sc3  1  0.562118  0.105586  0.500000  1
  Sc  Sc4  1  0.543469  0.437882  0.500000  1
  Ge  Ge5  1  0.243510  0.196427  0.500000  1
  Ge  Ge6  1  0.803573  0.047085  0.500000  1
  Ge  Ge7  1  0.952915  0.756490  0.500000  1
  Ge  Ge8  1  0.554114  0.644831  0.000000  1
  Ge  Ge9  1  0.355169  0.909282  0.000000  1
  Ge  Ge10  1  0.090718  0.445886  0.000000  1
  Ge  Ge11  1  0.666667  0.333333  0.000000  1
  Pt  Pt12  1  0.222726  0.938883  0.500000  1
  Pt  Pt13  1  0.061117  0.283844  0.500000  1
  Pt  Pt14  1  0.716156  0.777274  0.500000  1
  Pt  Pt15  1  0.312626  0.409559  0.000000  1
  Pt  Pt16  1  0.590441  0.903066  0.000000  1
  Pt  Pt17  1  0.096934  0.687374  0.000000  1
  Pt  Pt18  1  0.384718  0.172648  0.000000  1
  Pt  Pt19  1  0.827352  0.212069  0.000000  1
  Pt  Pt20  1  0.787931  0.615282  0.000000  1
