# generated using pymatgen
data_Dy20Ir6Ru5Rh
_symmetry_space_group_name_H-M   'P 1'
_cell_length_a   10.84969168
_cell_length_b   10.84915337
_cell_length_c   6.40529707
_cell_angle_alpha   89.95658161
_cell_angle_beta   89.97589161
_cell_angle_gamma   90.03324922
_symmetry_Int_Tables_number   1
_chemical_formula_structural   Dy20Ir6Ru5Rh
_chemical_formula_sum   'Dy20 Ir6 Ru5 Rh1'
_cell_volume   753.96690967
_cell_formula_units_Z   1
loop_
 _symmetry_equiv_pos_site_id
 _symmetry_equiv_pos_as_xyz
  1  'x, y, z'
loop_
 _atom_site_type_symbol
 _atom_site_label
 _atom_site_symmetry_multiplicity
 _atom_site_fract_x
 _atom_site_fract_y
 _atom_site_fract_z
 _atom_site_occupancy
  Dy  Dy0  1  0.293412  0.086639  0.378978  1
  Dy  Dy1  1  0.292769  0.913311  0.879325  1
  Dy  Dy2  1  0.706745  0.088083  0.879798  1
  Dy  Dy3  1  0.706236  0.914009  0.377308  1
  Dy  Dy4  1  0.585793  0.793605  0.879574  1
  Dy  Dy5  1  0.587578  0.206591  0.379504  1
  Dy  Dy6  1  0.413195  0.793468  0.379117  1
  Dy  Dy7  1  0.413154  0.206364  0.878615  1
  Dy  Dy8  1  0.206403  0.413309  0.620722  1
  Dy  Dy9  1  0.206512  0.586807  0.120702  1
  Dy  Dy10  1  0.793380  0.412475  0.120684  1
  Dy  Dy11  1  0.793600  0.585946  0.621112  1
  Dy  Dy12  1  0.913814  0.705800  0.121833  1
  Dy  Dy13  1  0.913044  0.292623  0.620386  1
  Dy  Dy14  1  0.087829  0.706671  0.620428  1
  Dy  Dy15  1  0.086489  0.292935  0.121830  1
  Dy  Dy16  1  0.999775  0.001329  0.499182  1
  Dy  Dy17  1  0.999288  0.000645  0.000733  1
  Dy  Dy18  1  0.500140  0.500184  0.000187  1
  Dy  Dy19  1  0.499928  0.499775  0.499899  1
  Ir  Ir20  1  0.153378  0.153054  0.750282  1
  Ir  Ir21  1  0.152541  0.847033  0.250063  1
  Ir  Ir22  1  0.652091  0.347953  0.750044  1
  Ir  Ir23  1  0.653303  0.652902  0.249740  1
  Ir  Ir24  1  0.347291  0.347004  0.250254  1
  Ir  Ir25  1  0.347373  0.652663  0.749978  1
  Ru  Ru26  1  0.847936  0.151659  0.249962  1
  Ru  Ru27  1  0.500557  0.999958  0.123597  1
  Ru  Ru28  1  0.500240  0.999818  0.623880  1
  Ru  Ru29  1  0.999703  0.500559  0.876058  1
  Ru  Ru30  1  0.999551  0.500167  0.376456  1
  Rh  Rh31  1  0.846951  0.846661  0.749768  1
