# generated using pymatgen
data_Sc4AlSi(B2Ir5)2
_symmetry_space_group_name_H-M   'P 1'
_cell_length_a   9.32983600
_cell_length_b   9.32983600
_cell_length_c   3.09140600
_cell_angle_alpha   90.00000000
_cell_angle_beta   90.00000000
_cell_angle_gamma   90.00000000
_symmetry_Int_Tables_number   1
_chemical_formula_structural   Sc4AlSi(B2Ir5)2
_chemical_formula_sum   'Sc4 Al1 Si1 B4 Ir10'
_cell_volume   269.09403139
_cell_formula_units_Z   1
loop_
 _symmetry_equiv_pos_site_id
 _symmetry_equiv_pos_as_xyz
  1  'x, y, z'
loop_
 _atom_site_type_symbol
 _atom_site_label
 _atom_site_symmetry_multiplicity
 _atom_site_fract_x
 _atom_site_fract_y
 _atom_site_fract_z
 _atom_site_occupancy
  Sc  Sc0  1  0.675004  0.176453  0.000000  1
  Sc  Sc1  1  0.176453  0.324996  0.000000  1
  Sc  Sc2  1  0.823547  0.675004  0.000000  1
  Sc  Sc3  1  0.324996  0.823547  0.000000  1
  Al  Al4  1  0.500000  0.500000  0.000000  1
  Si  Si5  1  0.000000  0.000000  0.000000  1
  B  B6  1  0.376723  0.123540  0.000000  1
  B  B7  1  0.876461  0.376723  0.000000  1
  B  B8  1  0.123540  0.623277  0.000000  1
  B  B9  1  0.623277  0.876461  0.000000  1
  Ir  Ir10  1  0.500000  0.000000  0.500002  1
  Ir  Ir11  1  0.211883  0.068201  0.500002  1
  Ir  Ir12  1  0.931800  0.211883  0.500002  1
  Ir  Ir13  1  0.428055  0.283926  0.500002  1
  Ir  Ir14  1  0.716075  0.428055  0.500002  1
  Ir  Ir15  1  0.000000  0.500000  0.500002  1
  Ir  Ir16  1  0.283926  0.571945  0.500002  1
  Ir  Ir17  1  0.571945  0.716075  0.500002  1
  Ir  Ir18  1  0.068201  0.788118  0.500002  1
  Ir  Ir19  1  0.788118  0.931800  0.500002  1
