# generated using pymatgen
data_Tb7Sn23(IrRh)3
_symmetry_space_group_name_H-M   'P 1'
_cell_length_a   9.89951969
_cell_length_b   9.90121865
_cell_length_c   10.10802608
_cell_angle_alpha   90.03720920
_cell_angle_beta   89.86620945
_cell_angle_gamma   120.20125399
_symmetry_Int_Tables_number   1
_chemical_formula_structural   Tb7Sn23(IrRh)3
_chemical_formula_sum   'Tb7 Sn23 Ir3 Rh3'
_cell_volume   856.27681258
_cell_formula_units_Z   1
loop_
 _symmetry_equiv_pos_site_id
 _symmetry_equiv_pos_as_xyz
  1  'x, y, z'
loop_
 _atom_site_type_symbol
 _atom_site_label
 _atom_site_symmetry_multiplicity
 _atom_site_fract_x
 _atom_site_fract_y
 _atom_site_fract_z
 _atom_site_occupancy
  Tb  Tb0  1  0.996302  0.993184  0.004106  1
  Tb  Tb1  1  0.480263  0.521826  0.308998  1
  Tb  Tb2  1  0.521421  0.478847  0.689428  1
  Tb  Tb3  1  0.480389  0.958539  0.308696  1
  Tb  Tb4  1  0.519887  0.042351  0.690792  1
  Tb  Tb5  1  0.040898  0.520186  0.307501  1
  Tb  Tb6  1  0.957889  0.480322  0.690823  1
  Sn  Sn7  1  0.352617  0.001505  0.000655  1
  Sn  Sn8  1  0.647535  0.999024  0.999082  1
  Sn  Sn9  1  0.001880  0.350963  0.998842  1
  Sn  Sn10  1  0.999872  0.645544  0.999636  1
  Sn  Sn11  1  0.645254  0.646502  0.998985  1
  Sn  Sn12  1  0.350433  0.351020  0.999701  1
  Sn  Sn13  1  0.333796  0.666988  0.822440  1
  Sn  Sn14  1  0.666542  0.333818  0.175434  1
  Sn  Sn15  1  0.000222  0.000140  0.500622  1
  Sn  Sn16  1  0.779767  0.220593  0.456657  1
  Sn  Sn17  1  0.220394  0.779170  0.543156  1
  Sn  Sn18  1  0.779846  0.558512  0.456321  1
  Sn  Sn19  1  0.219577  0.440623  0.543550  1
  Sn  Sn20  1  0.440561  0.219930  0.455383  1
  Sn  Sn21  1  0.558710  0.780012  0.544666  1
  Sn  Sn22  1  0.334662  0.666462  0.115893  1
  Sn  Sn23  1  0.665661  0.334297  0.882860  1
  Sn  Sn24  1  0.120093  0.882823  0.282299  1
  Sn  Sn25  1  0.882659  0.119241  0.721120  1
  Sn  Sn26  1  0.119163  0.237291  0.281712  1
  Sn  Sn27  1  0.881327  0.763537  0.718525  1
  Sn  Sn28  1  0.762704  0.882095  0.285395  1
  Sn  Sn29  1  0.236784  0.119657  0.718819  1
  Ir  Ir30  1  0.830846  0.169047  0.198863  1
  Ir  Ir31  1  0.169657  0.831572  0.800824  1
  Ir  Ir32  1  0.831511  0.664178  0.197936  1
  Rh  Rh33  1  0.170219  0.338953  0.800719  1
  Rh  Rh34  1  0.337840  0.169684  0.198361  1
  Rh  Rh35  1  0.662822  0.831566  0.801206  1
