# generated using pymatgen
data_PrNd5Al18(Mo3Os4)2
_symmetry_space_group_name_H-M   'P 1'
_cell_length_a   8.94365408
_cell_length_b   8.94365403
_cell_length_c   9.76404800
_cell_angle_alpha   90.00000000
_cell_angle_beta   90.00000000
_cell_angle_gamma   120.01520894
_symmetry_Int_Tables_number   1
_chemical_formula_structural   PrNd5Al18(Mo3Os4)2
_chemical_formula_sum   'Pr1 Nd5 Al18 Mo6 Os8'
_cell_volume   676.27595063
_cell_formula_units_Z   1
loop_
 _symmetry_equiv_pos_site_id
 _symmetry_equiv_pos_as_xyz
  1  'x, y, z'
loop_
 _atom_site_type_symbol
 _atom_site_label
 _atom_site_symmetry_multiplicity
 _atom_site_fract_x
 _atom_site_fract_y
 _atom_site_fract_z
 _atom_site_occupancy
  Pr  Pr0  1  0.806714  0.193286  0.750000  1
  Nd  Nd1  1  0.193075  0.386247  0.250000  1
  Nd  Nd2  1  0.806759  0.613478  0.750000  1
  Nd  Nd3  1  0.613753  0.806925  0.250000  1
  Nd  Nd4  1  0.386522  0.193241  0.750000  1
  Nd  Nd5  1  0.193116  0.806884  0.250000  1
  Al  Al6  1  0.333311  0.666689  0.004567  1
  Al  Al7  1  0.666619  0.333381  0.995420  1
  Al  Al8  1  0.666619  0.333381  0.504580  1
  Al  Al9  1  0.333311  0.666689  0.495433  1
  Al  Al10  1  0.164277  0.328322  0.575350  1
  Al  Al11  1  0.835867  0.671679  0.424612  1
  Al  Al12  1  0.671678  0.835723  0.575350  1
  Al  Al13  1  0.835867  0.671679  0.075388  1
  Al  Al14  1  0.328321  0.164133  0.424612  1
  Al  Al15  1  0.164277  0.328322  0.924650  1
  Al  Al16  1  0.164157  0.835843  0.575444  1
  Al  Al17  1  0.328321  0.164133  0.075388  1
  Al  Al18  1  0.835827  0.164173  0.424464  1
  Al  Al19  1  0.671678  0.835723  0.924650  1
  Al  Al20  1  0.835827  0.164173  0.075536  1
  Al  Al21  1  0.164157  0.835843  0.924556  1
  Al  Al22  1  0.999999  0.000001  0.250000  1
  Al  Al23  1  0.000143  0.999857  0.750000  1
  Mo  Mo24  1  0.570133  0.140165  0.250000  1
  Mo  Mo25  1  0.429597  0.859611  0.750000  1
  Mo  Mo26  1  0.859835  0.429867  0.250000  1
  Mo  Mo27  1  0.140389  0.570403  0.750000  1
  Mo  Mo28  1  0.570081  0.429919  0.250000  1
  Mo  Mo29  1  0.429895  0.570105  0.750000  1
  Os  Os30  1  0.499765  0.999803  0.000271  1
  Os  Os31  1  0.000197  0.500235  0.000271  1
  Os  Os32  1  0.499765  0.999803  0.499729  1
  Os  Os33  1  0.499949  0.500051  0.000100  1
  Os  Os34  1  0.000197  0.500235  0.499729  1
  Os  Os35  1  0.499949  0.500051  0.499900  1
  Os  Os36  1  0.000027  0.999973  0.000117  1
  Os  Os37  1  0.000027  0.999973  0.499883  1
