# generated using pymatgen
data_YTmC2(O3F)2
_symmetry_space_group_name_H-M   'P 1'
_cell_length_a   6.78665400
_cell_length_b   4.34618395
_cell_length_c   6.32721422
_cell_angle_alpha   88.75720075
_cell_angle_beta   90.00000000
_cell_angle_gamma   90.00000000
_symmetry_Int_Tables_number   1
_chemical_formula_structural   YTmC2(O3F)2
_chemical_formula_sum   'Y1 Tm1 C2 O6 F2'
_cell_volume   186.58390398
_cell_formula_units_Z   1
loop_
 _symmetry_equiv_pos_site_id
 _symmetry_equiv_pos_as_xyz
  1  'x, y, z'
loop_
 _atom_site_type_symbol
 _atom_site_label
 _atom_site_symmetry_multiplicity
 _atom_site_fract_x
 _atom_site_fract_y
 _atom_site_fract_z
 _atom_site_occupancy
  Y  Y0  1  0.750000  0.502523  0.658525  1
  Tm  Tm1  1  0.250000  0.497815  0.342016  1
  C  C2  1  0.750000  0.505545  0.206162  1
  C  C3  1  0.250000  0.494390  0.795190  1
  O  O4  1  0.250000  0.501207  0.994214  1
  O  O5  1  0.750000  0.498231  0.007809  1
  O  O6  1  0.588082  0.509076  0.318957  1
  O  O7  1  0.089971  0.490923  0.679776  1
  O  O8  1  0.410029  0.490923  0.679776  1
  O  O9  1  0.911918  0.509076  0.318957  1
  F  F10  1  0.250000  0.997646  0.351245  1
  F  F11  1  0.750000  0.002644  0.647373  1
