# generated using pymatgen
data_La3Nd5Zn8PdRh7
_symmetry_space_group_name_H-M   'P 1'
_cell_length_a   4.00963400
_cell_length_b   7.40723291
_cell_length_c   16.65521551
_cell_angle_alpha   90.27634348
_cell_angle_beta   90.00000000
_cell_angle_gamma   90.00000000
_symmetry_Int_Tables_number   1
_chemical_formula_structural   La3Nd5Zn8PdRh7
_chemical_formula_sum   'La3 Nd5 Zn8 Pd1 Rh7'
_cell_volume   494.65902576
_cell_formula_units_Z   1
loop_
 _symmetry_equiv_pos_site_id
 _symmetry_equiv_pos_as_xyz
  1  'x, y, z'
loop_
 _atom_site_type_symbol
 _atom_site_label
 _atom_site_symmetry_multiplicity
 _atom_site_fract_x
 _atom_site_fract_y
 _atom_site_fract_z
 _atom_site_occupancy
  La  La0  1  0.250000  0.170492  0.939273  1
  La  La1  1  0.750000  0.326340  0.440856  1
  La  La2  1  0.750000  0.954794  0.278949  1
  Nd  Nd3  1  0.250000  0.668602  0.565760  1
  Nd  Nd4  1  0.750000  0.829130  0.059814  1
  Nd  Nd5  1  0.750000  0.449900  0.214222  1
  Nd  Nd6  1  0.250000  0.049738  0.716123  1
  Nd  Nd7  1  0.250000  0.548318  0.785058  1
  Zn  Zn8  1  0.750000  0.002213  0.563684  1
  Zn  Zn9  1  0.250000  0.620092  0.344897  1
  Zn  Zn10  1  0.750000  0.377491  0.652438  1
  Zn  Zn11  1  0.250000  0.501132  0.060063  1
  Zn  Zn12  1  0.750000  0.504399  0.940247  1
  Zn  Zn13  1  0.250000  0.997152  0.441418  1
  Zn  Zn14  1  0.250000  0.125446  0.147927  1
  Zn  Zn15  1  0.750000  0.874789  0.847871  1
  Pd  Pd16  1  0.750000  0.756286  0.434034  1
  Rh  Rh17  1  0.250000  0.242782  0.315614  1
  Rh  Rh18  1  0.750000  0.253084  0.814621  1
  Rh  Rh19  1  0.750000  0.755527  0.686015  1
  Rh  Rh20  1  0.250000  0.246953  0.564586  1
  Rh  Rh21  1  0.250000  0.745984  0.188117  1
  Rh  Rh22  1  0.750000  0.255529  0.064088  1
  Rh  Rh23  1  0.250000  0.743824  0.934327  1
