# generated using pymatgen
data_Y10Tl2BiPb3
_symmetry_space_group_name_H-M   'P 1'
_cell_length_a   9.04058200
_cell_length_b   9.07935672
_cell_length_c   6.69896600
_cell_angle_alpha   90.00000000
_cell_angle_beta   90.00000000
_cell_angle_gamma   120.14198040
_symmetry_Int_Tables_number   1
_chemical_formula_structural   Y10Tl2BiPb3
_chemical_formula_sum   'Y10 Tl2 Bi1 Pb3'
_cell_volume   475.51777388
_cell_formula_units_Z   1
loop_
 _symmetry_equiv_pos_site_id
 _symmetry_equiv_pos_as_xyz
  1  'x, y, z'
loop_
 _atom_site_type_symbol
 _atom_site_label
 _atom_site_symmetry_multiplicity
 _atom_site_fract_x
 _atom_site_fract_y
 _atom_site_fract_z
 _atom_site_occupancy
  Y  Y0  1  0.660328  0.328256  0.998904  1
  Y  Y1  1  0.339672  0.667929  0.998904  1
  Y  Y2  1  0.339672  0.667929  0.501096  1
  Y  Y3  1  0.660328  0.328256  0.501096  1
  Y  Y4  1  0.756758  0.765476  0.750000  1
  Y  Y5  1  0.243242  0.008718  0.750000  1
  Y  Y6  1  0.000000  0.234625  0.750000  1
  Y  Y7  1  0.238088  0.236487  0.250000  1
  Y  Y8  1  0.761912  0.998399  0.250000  1
  Y  Y9  1  0.000000  0.761988  0.250000  1
  Tl  Tl10  1  0.396202  0.397336  0.750000  1
  Tl  Tl11  1  0.603798  0.001136  0.750000  1
  Bi  Bi12  1  0.000000  0.607950  0.750000  1
  Pb  Pb13  1  0.606012  0.602896  0.250000  1
  Pb  Pb14  1  0.393988  0.996884  0.250000  1
  Pb  Pb15  1  0.000000  0.395735  0.250000  1
