# generated using pymatgen
data_Zr6Nb5Al11Os7
_symmetry_space_group_name_H-M   'P 1'
_cell_length_a   8.91000953
_cell_length_b   8.91000956
_cell_length_c   8.88278988
_cell_angle_alpha   59.89857830
_cell_angle_beta   59.89857833
_cell_angle_gamma   59.99999597
_symmetry_Int_Tables_number   1
_chemical_formula_structural   Zr6Nb5Al11Os7
_chemical_formula_sum   'Zr6 Nb5 Al11 Os7'
_cell_volume   497.87835360
_cell_formula_units_Z   1
loop_
 _symmetry_equiv_pos_site_id
 _symmetry_equiv_pos_as_xyz
  1  'x, y, z'
loop_
 _atom_site_type_symbol
 _atom_site_label
 _atom_site_symmetry_multiplicity
 _atom_site_fract_x
 _atom_site_fract_y
 _atom_site_fract_z
 _atom_site_occupancy
  Zr  Zr0  1  0.700416  0.700416  0.303702  1
  Zr  Zr1  1  0.295465  0.700416  0.303702  1
  Zr  Zr2  1  0.700416  0.295465  0.303702  1
  Zr  Zr3  1  0.308515  0.308515  0.698709  1
  Zr  Zr4  1  0.684261  0.308515  0.698709  1
  Zr  Zr5  1  0.308515  0.684261  0.698709  1
  Nb  Nb6  1  0.879293  0.879293  0.362120  1
  Nb  Nb7  1  0.874913  0.366283  0.883891  1
  Nb  Nb8  1  0.366283  0.874913  0.883891  1
  Nb  Nb9  1  0.874913  0.874913  0.883891  1
  Nb  Nb10  1  0.125010  0.125010  0.624970  1
  Al  Al11  1  0.121067  0.638592  0.119273  1
  Al  Al12  1  0.638592  0.121067  0.119273  1
  Al  Al13  1  0.121067  0.121067  0.119273  1
  Al  Al14  1  0.657759  0.657759  0.026723  1
  Al  Al15  1  0.661667  0.016855  0.659813  1
  Al  Al16  1  0.016855  0.661667  0.659813  1
  Al  Al17  1  0.661667  0.661667  0.659813  1
  Al  Al18  1  0.334533  0.334533  0.996399  1
  Al  Al19  1  0.338422  0.991191  0.331966  1
  Al  Al20  1  0.991191  0.338422  0.331966  1
  Al  Al21  1  0.338422  0.338422  0.331966  1
  Os  Os22  1  0.003628  0.003628  0.989115  1
  Os  Os23  1  0.998851  0.998851  0.504183  1
  Os  Os24  1  0.498115  0.998851  0.504183  1
  Os  Os25  1  0.998851  0.498115  0.504183  1
  Os  Os26  1  0.501618  0.501618  0.998685  1
  Os  Os27  1  0.998079  0.501618  0.998685  1
  Os  Os28  1  0.501618  0.998079  0.998685  1
