# generated using pymatgen
data_Sr6HfCd(CoO6)2
_symmetry_space_group_name_H-M   'P 1'
_cell_length_a   6.73033346
_cell_length_b   6.72870127
_cell_length_c   6.73031798
_cell_angle_alpha   92.33960484
_cell_angle_beta   92.36563546
_cell_angle_gamma   92.33986521
_symmetry_Int_Tables_number   1
_chemical_formula_structural   Sr6HfCd(CoO6)2
_chemical_formula_sum   'Sr6 Hf1 Cd1 Co2 O12'
_cell_volume   304.00227631
_cell_formula_units_Z   1
loop_
 _symmetry_equiv_pos_site_id
 _symmetry_equiv_pos_as_xyz
  1  'x, y, z'
loop_
 _atom_site_type_symbol
 _atom_site_label
 _atom_site_symmetry_multiplicity
 _atom_site_fract_x
 _atom_site_fract_y
 _atom_site_fract_z
 _atom_site_occupancy
  Sr  Sr0  1  0.622705  0.877231  0.250171  1
  Sr  Sr1  1  0.877318  0.250004  0.622684  1
  Sr  Sr2  1  0.249841  0.622772  0.877298  1
  Sr  Sr3  1  0.110383  0.749996  0.389621  1
  Sr  Sr4  1  0.750040  0.389379  0.110610  1
  Sr  Sr5  1  0.389393  0.110623  0.749954  1
  Hf  Hf6  1  0.250089  0.250004  0.249915  1
  Cd  Cd7  1  0.749606  0.749998  0.750398  1
  Co  Co8  1  0.494909  0.494922  0.494796  1
  Co  Co9  1  0.005197  0.005071  0.005084  1
  O  O10  1  0.527870  0.210193  0.397733  1
  O  O11  1  0.210219  0.397644  0.527590  1
  O  O12  1  0.397768  0.527652  0.209962  1
  O  O13  1  0.055092  0.924758  0.729213  1
  O  O14  1  0.925000  0.729044  0.055265  1
  O  O15  1  0.729202  0.055046  0.924863  1
  O  O16  1  0.444737  0.770956  0.575005  1
  O  O17  1  0.770784  0.575242  0.444906  1
  O  O18  1  0.575141  0.444951  0.770797  1
  O  O19  1  0.972405  0.102356  0.289781  1
  O  O20  1  0.102263  0.289811  0.972123  1
  O  O21  1  0.290039  0.972349  0.102229  1
