# generated using pymatgen
data_Y3LuScSi3H
_symmetry_space_group_name_H-M   'P 1'
_cell_length_a   8.35053800
_cell_length_b   8.35053846
_cell_length_c   6.05702900
_cell_angle_alpha   90.00000000
_cell_angle_beta   90.00000000
_cell_angle_gamma   120.00000609
_symmetry_Int_Tables_number   1
_chemical_formula_structural   Y3LuScSi3H
_chemical_formula_sum   'Y6 Lu2 Sc2 Si6 H2'
_cell_volume   365.77935978
_cell_formula_units_Z   2
loop_
 _symmetry_equiv_pos_site_id
 _symmetry_equiv_pos_as_xyz
  1  'x, y, z'
loop_
 _atom_site_type_symbol
 _atom_site_label
 _atom_site_symmetry_multiplicity
 _atom_site_fract_x
 _atom_site_fract_y
 _atom_site_fract_z
 _atom_site_occupancy
  Y  Y0  1  0.748112  0.748112  0.752437  1
  Y  Y1  1  0.251888  0.000000  0.752437  1
  Y  Y2  1  0.000000  0.251888  0.752437  1
  Y  Y3  1  0.251888  0.251888  0.247563  1
  Y  Y4  1  0.748112  0.000000  0.247563  1
  Y  Y5  1  0.000000  0.748112  0.247563  1
  Lu  Lu6  1  0.333333  0.666667  0.500000  1
  Lu  Lu7  1  0.666667  0.333333  0.500000  1
  Sc  Sc8  1  0.666667  0.333333  0.000000  1
  Sc  Sc9  1  0.333333  0.666667  0.000000  1
  Si  Si10  1  0.393266  0.393266  0.760183  1
  Si  Si11  1  0.606734  0.000000  0.760183  1
  Si  Si12  1  0.000000  0.606734  0.760183  1
  Si  Si13  1  0.606734  0.606734  0.239817  1
  Si  Si14  1  0.393266  0.000000  0.239817  1
  Si  Si15  1  0.000000  0.393266  0.239817  1
  H  H16  1  0.000000  0.000000  0.500000  1
  H  H17  1  0.000000  0.000000  0.000000  1
