# generated using pymatgen
data_Li3Er2LuTlSi2
_symmetry_space_group_name_H-M   'P 1'
_cell_length_a   7.13984595
_cell_length_b   7.13984694
_cell_length_c   4.17291200
_cell_angle_alpha   90.00000000
_cell_angle_beta   90.00000000
_cell_angle_gamma   119.75287427
_symmetry_Int_Tables_number   1
_chemical_formula_structural   Li3Er2LuTlSi2
_chemical_formula_sum   'Li3 Er2 Lu1 Tl1 Si2'
_cell_volume   184.68163259
_cell_formula_units_Z   1
loop_
 _symmetry_equiv_pos_site_id
 _symmetry_equiv_pos_as_xyz
  1  'x, y, z'
loop_
 _atom_site_type_symbol
 _atom_site_label
 _atom_site_symmetry_multiplicity
 _atom_site_fract_x
 _atom_site_fract_y
 _atom_site_fract_z
 _atom_site_occupancy
  Li  Li0  1  0.254939  0.000424  0.500000  1
  Li  Li1  1  0.000424  0.254939  0.500000  1
  Li  Li2  1  0.745044  0.745044  0.500000  1
  Er  Er3  1  0.558099  0.999701  0.000000  1
  Er  Er4  1  0.999701  0.558099  0.000000  1
  Lu  Lu5  1  0.441614  0.441614  0.000000  1
  Tl  Tl6  1  0.001658  0.001658  0.000000  1
  Si  Si7  1  0.333765  0.664753  0.500000  1
  Si  Si8  1  0.664753  0.333765  0.500000  1
