# generated using pymatgen
data_La4Nd8Fe2I17
_symmetry_space_group_name_H-M   'P 1'
_cell_length_a   10.04815104
_cell_length_b   12.17767895
_cell_length_c   12.08962626
_cell_angle_alpha   74.45006322
_cell_angle_beta   75.46855721
_cell_angle_gamma   65.68097721
_symmetry_Int_Tables_number   1
_chemical_formula_structural   La4Nd8Fe2I17
_chemical_formula_sum   'La4 Nd8 Fe2 I17'
_cell_volume   1281.97408739
_cell_formula_units_Z   1
loop_
 _symmetry_equiv_pos_site_id
 _symmetry_equiv_pos_as_xyz
  1  'x, y, z'
loop_
 _atom_site_type_symbol
 _atom_site_label
 _atom_site_symmetry_multiplicity
 _atom_site_fract_x
 _atom_site_fract_y
 _atom_site_fract_z
 _atom_site_occupancy
  La  La0  1  0.580115  0.759515  0.279952  1
  La  La1  1  0.819209  0.192558  0.585828  1
  La  La2  1  0.172064  0.808884  0.424296  1
  La  La3  1  0.151376  0.714922  0.150236  1
  Nd  Nd4  1  0.454932  0.488114  0.320472  1
  Nd  Nd5  1  0.553935  0.672599  0.008496  1
  Nd  Nd6  1  0.271837  0.987614  0.107169  1
  Nd  Nd7  1  0.860646  0.287271  0.851385  1
  Nd  Nd8  1  0.408145  0.239936  0.717852  1
  Nd  Nd9  1  0.723695  0.021182  0.891329  1
  Nd  Nd10  1  0.548977  0.502895  0.680349  1
  Nd  Nd11  1  0.454814  0.326729  0.982185  1
  Fe  Fe12  1  0.364234  0.738679  0.214172  1
  Fe  Fe13  1  0.636613  0.260867  0.784896  1
  I  I14  1  0.056047  0.101846  0.325530  1
  I  I15  1  0.463768  0.948942  0.845579  1
  I  I16  1  0.429695  0.806817  0.543000  1
  I  I17  1  0.565743  0.188614  0.461624  1
  I  I18  1  0.835743  0.716006  0.042754  1
  I  I19  1  0.230447  0.418873  0.233578  1
  I  I20  1  0.686568  0.374163  0.100730  1
  I  I21  1  0.531591  0.053683  0.154543  1
  I  I22  1  0.739435  0.473334  0.418665  1
  I  I23  1  0.885896  0.783246  0.367215  1
  I  I24  1  0.943235  0.896371  0.678712  1
  I  I25  1  0.163319  0.287968  0.954101  1
  I  I26  1  0.319969  0.628342  0.896168  1
  I  I27  1  0.997820  0.003155  0.002342  1
  I  I28  1  0.112970  0.216373  0.635684  1
  I  I29  1  0.776936  0.577899  0.762242  1
  I  I30  1  0.260223  0.522603  0.578915  1
