# generated using pymatgen
data_MgTa3Pd2Pt7Rh3
_symmetry_space_group_name_H-M   'P 1'
_cell_length_a   5.60914893
_cell_length_b   5.60914859
_cell_length_c   9.11872700
_cell_angle_alpha   90.00000000
_cell_angle_beta   90.00000000
_cell_angle_gamma   119.93390810
_symmetry_Int_Tables_number   1
_chemical_formula_structural   MgTa3Pd2Pt7Rh3
_chemical_formula_sum   'Mg1 Ta3 Pd2 Pt7 Rh3'
_cell_volume   248.62661130
_cell_formula_units_Z   1
loop_
 _symmetry_equiv_pos_site_id
 _symmetry_equiv_pos_as_xyz
  1  'x, y, z'
loop_
 _atom_site_type_symbol
 _atom_site_label
 _atom_site_symmetry_multiplicity
 _atom_site_fract_x
 _atom_site_fract_y
 _atom_site_fract_z
 _atom_site_occupancy
  Mg  Mg0  1  0.334048  0.665952  0.000000  1
  Ta  Ta1  1  0.666534  0.333466  0.500000  1
  Ta  Ta2  1  0.998994  0.001006  0.742429  1
  Ta  Ta3  1  0.998994  0.001006  0.257571  1
  Pd  Pd4  1  0.831997  0.664250  0.000000  1
  Pd  Pd5  1  0.335750  0.168003  0.000000  1
  Pt  Pt6  1  0.831257  0.168743  0.000000  1
  Pt  Pt7  1  0.997355  0.499134  0.746212  1
  Pt  Pt8  1  0.501341  0.498659  0.745601  1
  Pt  Pt9  1  0.500866  0.002645  0.746212  1
  Pt  Pt10  1  0.997355  0.499134  0.253788  1
  Pt  Pt11  1  0.501341  0.498659  0.254399  1
  Pt  Pt12  1  0.500866  0.002645  0.253788  1
  Rh  Rh13  1  0.169596  0.830404  0.500000  1
  Rh  Rh14  1  0.167761  0.334059  0.500000  1
  Rh  Rh15  1  0.665941  0.832239  0.500000  1
