# generated using pymatgen
data_Dy4Ho16(Bi3Sb)3
_symmetry_space_group_name_H-M   'P 1'
_cell_length_a   8.18436981
_cell_length_b   9.45738400
_cell_length_c   11.96904818
_cell_angle_alpha   90.00000000
_cell_angle_beta   90.03547349
_cell_angle_gamma   90.00000000
_symmetry_Int_Tables_number   1
_chemical_formula_structural   Dy4Ho16(Bi3Sb)3
_chemical_formula_sum   'Dy4 Ho16 Bi9 Sb3'
_cell_volume   926.43680419
_cell_formula_units_Z   1
loop_
 _symmetry_equiv_pos_site_id
 _symmetry_equiv_pos_as_xyz
  1  'x, y, z'
loop_
 _atom_site_type_symbol
 _atom_site_label
 _atom_site_symmetry_multiplicity
 _atom_site_fract_x
 _atom_site_fract_y
 _atom_site_fract_z
 _atom_site_occupancy
  Dy  Dy0  1  0.318036  0.250000  0.216246  1
  Dy  Dy1  1  0.811486  0.250000  0.278944  1
  Dy  Dy2  1  0.683279  0.750000  0.782125  1
  Dy  Dy3  1  0.183791  0.750000  0.717901  1
  Ho  Ho4  1  0.352673  0.750000  0.213080  1
  Ho  Ho5  1  0.853025  0.750000  0.286441  1
  Ho  Ho6  1  0.647223  0.250000  0.786662  1
  Ho  Ho7  1  0.148125  0.250000  0.716573  1
  Ho  Ho8  1  0.689136  0.562959  0.057469  1
  Ho  Ho9  1  0.190412  0.933680  0.442483  1
  Ho  Ho10  1  0.311049  0.062544  0.942691  1
  Ho  Ho11  1  0.808330  0.439844  0.559030  1
  Ho  Ho12  1  0.311049  0.437456  0.942691  1
  Ho  Ho13  1  0.808330  0.060156  0.559030  1
  Ho  Ho14  1  0.689136  0.937041  0.057469  1
  Ho  Ho15  1  0.190412  0.566320  0.442483  1
  Ho  Ho16  1  0.475590  0.250000  0.488071  1
  Ho  Ho17  1  0.972765  0.250000  0.011786  1
  Ho  Ho18  1  0.528608  0.750000  0.512583  1
  Ho  Ho19  1  0.027761  0.750000  0.988025  1
  Bi  Bi20  1  0.092334  0.250000  0.456759  1
  Bi  Bi21  1  0.565382  0.994989  0.325647  1
  Bi  Bi22  1  0.065732  0.504226  0.174288  1
  Bi  Bi23  1  0.434042  0.495400  0.674522  1
  Bi  Bi24  1  0.934135  0.004154  0.825912  1
  Bi  Bi25  1  0.434042  0.004600  0.674522  1
  Bi  Bi26  1  0.934135  0.495846  0.825912  1
  Bi  Bi27  1  0.565382  0.505011  0.325647  1
  Bi  Bi28  1  0.065732  0.995774  0.174288  1
  Sb  Sb29  1  0.407383  0.750000  0.958256  1
  Sb  Sb30  1  0.908133  0.750000  0.541419  1
  Sb  Sb31  1  0.593353  0.250000  0.041042  1
