# generated using pymatgen
data_Ho16Cd4Ir2PdRh
_symmetry_space_group_name_H-M   'P 1'
_cell_length_a   9.60473660
_cell_length_b   9.60473652
_cell_length_c   9.58447707
_cell_angle_alpha   60.05587647
_cell_angle_beta   60.05588217
_cell_angle_gamma   60.15636605
_symmetry_Int_Tables_number   1
_chemical_formula_structural   Ho16Cd4Ir2PdRh
_chemical_formula_sum   'Ho16 Cd4 Ir2 Pd1 Rh1'
_cell_volume   626.47262453
_cell_formula_units_Z   1
loop_
 _symmetry_equiv_pos_site_id
 _symmetry_equiv_pos_as_xyz
  1  'x, y, z'
loop_
 _atom_site_type_symbol
 _atom_site_label
 _atom_site_symmetry_multiplicity
 _atom_site_fract_x
 _atom_site_fract_y
 _atom_site_fract_z
 _atom_site_occupancy
  Ho  Ho0  1  0.597903  0.597903  0.597853  1
  Ho  Ho1  1  0.603695  0.603695  0.197478  1
  Ho  Ho2  1  0.604156  0.196746  0.603437  1
  Ho  Ho3  1  0.196746  0.604156  0.603437  1
  Ho  Ho4  1  0.054990  0.440645  0.439792  1
  Ho  Ho5  1  0.438259  0.060441  0.061173  1
  Ho  Ho6  1  0.440645  0.054990  0.439792  1
  Ho  Ho7  1  0.060441  0.438259  0.061173  1
  Ho  Ho8  1  0.440236  0.440236  0.054964  1
  Ho  Ho9  1  0.060542  0.060542  0.438256  1
  Ho  Ho10  1  0.187599  0.814906  0.813128  1
  Ho  Ho11  1  0.814759  0.186897  0.187053  1
  Ho  Ho12  1  0.814906  0.187599  0.813128  1
  Ho  Ho13  1  0.186897  0.814759  0.187053  1
  Ho  Ho14  1  0.813137  0.813137  0.188157  1
  Ho  Ho15  1  0.186254  0.186254  0.814968  1
  Cd  Cd16  1  0.831025  0.831025  0.830662  1
  Cd  Cd17  1  0.830930  0.830930  0.505883  1
  Cd  Cd18  1  0.830844  0.505839  0.830754  1
  Cd  Cd19  1  0.505839  0.830844  0.830754  1
  Ir  Ir20  1  0.391737  0.823234  0.392260  1
  Ir  Ir21  1  0.823234  0.391737  0.392260  1
  Pd  Pd22  1  0.393291  0.393291  0.393438  1
  Rh  Rh23  1  0.391939  0.391939  0.823149  1
