# generated using pymatgen
data_PrSm2MoO7
_symmetry_space_group_name_H-M   'P 1'
_cell_length_a   6.59437100
_cell_length_b   6.59437184
_cell_length_c   7.69830000
_cell_angle_alpha   90.00000000
_cell_angle_beta   90.00000000
_cell_angle_gamma   109.36761511
_symmetry_Int_Tables_number   1
_chemical_formula_structural   PrSm2MoO7
_chemical_formula_sum   'Pr2 Sm4 Mo2 O14'
_cell_volume   315.82189280
_cell_formula_units_Z   2
loop_
 _symmetry_equiv_pos_site_id
 _symmetry_equiv_pos_as_xyz
  1  'x, y, z'
loop_
 _atom_site_type_symbol
 _atom_site_label
 _atom_site_symmetry_multiplicity
 _atom_site_fract_x
 _atom_site_fract_y
 _atom_site_fract_z
 _atom_site_occupancy
  Pr  Pr0  1  0.501206  0.501206  0.500000  1
  Pr  Pr1  1  0.498794  0.498794  0.000000  1
  Sm  Sm2  1  0.463958  0.000060  0.249989  1
  Sm  Sm3  1  0.999940  0.536042  0.250011  1
  Sm  Sm4  1  0.536042  0.999940  0.749989  1
  Sm  Sm5  1  0.000060  0.463958  0.750011  1
  Mo  Mo6  1  0.000285  0.000285  0.500000  1
  Mo  Mo7  1  0.999715  0.999715  0.000000  1
  O  O8  1  0.316188  0.071097  0.529102  1
  O  O9  1  0.928903  0.683812  0.970898  1
  O  O10  1  0.683812  0.928903  0.029102  1
  O  O11  1  0.071097  0.316188  0.470898  1
  O  O12  1  0.928562  0.683743  0.529202  1
  O  O13  1  0.316257  0.071438  0.970798  1
  O  O14  1  0.071438  0.316257  0.029202  1
  O  O15  1  0.683743  0.928562  0.470798  1
  O  O16  1  0.633997  0.366003  0.250000  1
  O  O17  1  0.366003  0.633997  0.750000  1
  O  O18  1  0.637767  0.362233  0.750000  1
  O  O19  1  0.362233  0.637767  0.250000  1
  O  O20  1  0.067633  0.932367  0.250000  1
  O  O21  1  0.932367  0.067633  0.750000  1
