# generated using pymatgen
data_CeB8Pb3O20
_symmetry_space_group_name_H-M   'P 1'
_cell_length_a   7.29732403
_cell_length_b   4.61282056
_cell_length_c   9.14754526
_cell_angle_alpha   87.52368164
_cell_angle_beta   89.70094942
_cell_angle_gamma   90.42092322
_symmetry_Int_Tables_number   1
_chemical_formula_structural   CeB8Pb3O20
_chemical_formula_sum   'Ce1 B8 Pb3 O20'
_cell_volume   307.61720405
_cell_formula_units_Z   1
loop_
 _symmetry_equiv_pos_site_id
 _symmetry_equiv_pos_as_xyz
  1  'x, y, z'
loop_
 _atom_site_type_symbol
 _atom_site_label
 _atom_site_symmetry_multiplicity
 _atom_site_fract_x
 _atom_site_fract_y
 _atom_site_fract_z
 _atom_site_occupancy
  Ce  Ce0  1  0.118922  0.004199  0.325032  1
  B  B1  1  0.420094  0.469993  0.333337  1
  B  B2  1  0.736550  0.467881  0.921149  1
  B  B3  1  0.586554  0.534921  0.665936  1
  B  B4  1  0.264747  0.528558  0.077180  1
  B  B5  1  0.086952  0.466363  0.834637  1
  B  B6  1  0.238324  0.538213  0.580010  1
  B  B7  1  0.907839  0.526365  0.164383  1
  B  B8  1  0.762159  0.464145  0.423059  1
  Pb  Pb9  1  0.618958  0.999137  0.170140  1
  Pb  Pb10  1  0.879701  0.993297  0.677453  1
  Pb  Pb11  1  0.378845  0.008954  0.825363  1
  O  O12  1  0.579639  0.219028  0.672777  1
  O  O13  1  0.352882  0.333583  0.193192  1
  O  O14  1  0.902410  0.336745  0.854286  1
  O  O15  1  0.283683  0.377923  0.448098  1
  O  O16  1  0.715900  0.635599  0.550166  1
  O  O17  1  0.605102  0.236805  0.962218  1
  O  O18  1  0.215763  0.361461  0.949509  1
  O  O19  1  0.081954  0.782034  0.829371  1
  O  O20  1  0.892880  0.231065  0.465083  1
  O  O21  1  0.157705  0.331342  0.695718  1
  O  O22  1  0.903967  0.211091  0.176161  1
  O  O23  1  0.843606  0.665021  0.304586  1
  O  O24  1  0.785708  0.638689  0.048033  1
  O  O25  1  0.423558  0.784449  0.321499  1
  O  O26  1  0.598142  0.332589  0.358239  1
  O  O27  1  0.097666  0.640015  0.150148  1
  O  O28  1  0.110639  0.771434  0.537624  1
  O  O29  1  0.658196  0.670165  0.804028  1
  O  O30  1  0.403174  0.666205  0.647721  1
  O  O31  1  0.387776  0.772732  0.033865  1
