# generated using pymatgen
data_Rb(NiO2)2
_symmetry_space_group_name_H-M   'P 1'
_cell_length_a   5.80545450
_cell_length_b   4.93380874
_cell_length_c   13.17447608
_cell_angle_alpha   90.01400122
_cell_angle_beta   90.07018754
_cell_angle_gamma   90.04586111
_symmetry_Int_Tables_number   1
_chemical_formula_structural   Rb(NiO2)2
_chemical_formula_sum   'Rb4 Ni8 O16'
_cell_volume   377.35613156
_cell_formula_units_Z   4
loop_
 _symmetry_equiv_pos_site_id
 _symmetry_equiv_pos_as_xyz
  1  'x, y, z'
loop_
 _atom_site_type_symbol
 _atom_site_label
 _atom_site_symmetry_multiplicity
 _atom_site_fract_x
 _atom_site_fract_y
 _atom_site_fract_z
 _atom_site_occupancy
  Rb  Rb0  1  0.026372  0.057863  0.251771  1
  Rb  Rb1  1  0.978520  0.372456  0.748464  1
  Rb  Rb2  1  0.523223  0.627265  0.248550  1
  Rb  Rb3  1  0.475611  0.942311  0.751795  1
  Ni  Ni4  1  0.002912  0.997104  0.997685  1
  Ni  Ni5  1  0.001265  0.005051  0.502871  1
  Ni  Ni6  1  0.248130  0.496527  0.998668  1
  Ni  Ni7  1  0.251405  0.503585  0.498748  1
  Ni  Ni8  1  0.498644  0.994677  0.002942  1
  Ni  Ni9  1  0.496429  0.002779  0.497753  1
  Ni  Ni10  1  0.746212  0.504385  0.501471  1
  Ni  Ni11  1  0.753388  0.495752  0.001405  1
  O  O12  1  0.997331  0.345037  0.430338  1
  O  O13  1  0.003108  0.332025  0.070707  1
  O  O14  1  0.027223  0.682027  0.577844  1
  O  O15  1  0.023027  0.682651  0.920424  1
  O  O16  1  0.268302  0.820271  0.420590  1
  O  O17  1  0.246188  0.829400  0.073127  1
  O  O18  1  0.253866  0.170611  0.573053  1
  O  O19  1  0.231167  0.179488  0.920659  1
  O  O20  1  0.476193  0.317277  0.420366  1
  O  O21  1  0.472946  0.318059  0.077877  1
  O  O22  1  0.497085  0.668070  0.570657  1
  O  O23  1  0.501939  0.654935  0.930392  1
  O  O24  1  0.749559  0.844927  0.427712  1
  O  O25  1  0.779325  0.823404  0.078213  1
  O  O26  1  0.720823  0.176740  0.578185  1
  O  O27  1  0.749903  0.155121  0.927732  1
