# generated using pymatgen
data_Sn8B6Ir3Rh11
_symmetry_space_group_name_H-M   'P 1'
_cell_length_a   9.31076981
_cell_length_b   9.31618941
_cell_length_c   5.68773282
_cell_angle_alpha   89.94115357
_cell_angle_beta   90.04568986
_cell_angle_gamma   120.03570619
_symmetry_Int_Tables_number   1
_chemical_formula_structural   Sn8B6Ir3Rh11
_chemical_formula_sum   'Sn8 B6 Ir3 Rh11'
_cell_volume   427.10739931
_cell_formula_units_Z   1
loop_
 _symmetry_equiv_pos_site_id
 _symmetry_equiv_pos_as_xyz
  1  'x, y, z'
loop_
 _atom_site_type_symbol
 _atom_site_label
 _atom_site_symmetry_multiplicity
 _atom_site_fract_x
 _atom_site_fract_y
 _atom_site_fract_z
 _atom_site_occupancy
  Sn  Sn0  1  0.501889  0.091227  0.750145  1
  Sn  Sn1  1  0.090892  0.588912  0.249707  1
  Sn  Sn2  1  0.909024  0.411099  0.750052  1
  Sn  Sn3  1  0.589166  0.497013  0.749814  1
  Sn  Sn4  1  0.497685  0.909712  0.250118  1
  Sn  Sn5  1  0.332730  0.666962  0.751574  1
  Sn  Sn6  1  0.410269  0.500840  0.249463  1
  Sn  Sn7  1  0.666853  0.333155  0.249741  1
  B  B8  1  0.828623  0.792365  0.249486  1
  B  B9  1  0.963471  0.170722  0.250438  1
  B  B10  1  0.207272  0.036766  0.249902  1
  B  B11  1  0.791997  0.962632  0.750104  1
  B  B12  1  0.036855  0.829477  0.749619  1
  B  B13  1  0.170511  0.207185  0.750105  1
  Ir  Ir14  1  0.000162  0.000055  0.500237  1
  Ir  Ir15  1  0.000874  0.000742  0.000133  1
  Ir  Ir16  1  0.647485  0.770840  0.998961  1
  Rh  Rh17  1  0.123730  0.353872  0.999042  1
  Rh  Rh18  1  0.770061  0.124013  0.499469  1
  Rh  Rh19  1  0.770062  0.124331  0.001160  1
  Rh  Rh20  1  0.645659  0.769611  0.500620  1
  Rh  Rh21  1  0.124109  0.354198  0.500995  1
  Rh  Rh22  1  0.876517  0.645854  0.000432  1
  Rh  Rh23  1  0.353586  0.229556  0.000727  1
  Rh  Rh24  1  0.230205  0.876416  0.500659  1
  Rh  Rh25  1  0.876420  0.646249  0.498890  1
  Rh  Rh26  1  0.353908  0.230063  0.499285  1
  Rh  Rh27  1  0.229985  0.876133  0.999124  1
