# generated using pymatgen
data_Y6InGa2
_symmetry_space_group_name_H-M   'P 1'
_cell_length_a   8.67628766
_cell_length_b   8.67628830
_cell_length_c   8.67628789
_cell_angle_alpha   112.83611428
_cell_angle_beta   111.88199763
_cell_angle_gamma   103.83974930
_symmetry_Int_Tables_number   1
_chemical_formula_structural   Y6InGa2
_chemical_formula_sum   'Y12 In2 Ga4'
_cell_volume   499.14930956
_cell_formula_units_Z   2
loop_
 _symmetry_equiv_pos_site_id
 _symmetry_equiv_pos_as_xyz
  1  'x, y, z'
loop_
 _atom_site_type_symbol
 _atom_site_label
 _atom_site_symmetry_multiplicity
 _atom_site_fract_x
 _atom_site_fract_y
 _atom_site_fract_z
 _atom_site_occupancy
  Y  Y0  1  0.438729  0.236297  0.202432  1
  Y  Y1  1  0.561271  0.763703  0.797568  1
  Y  Y2  1  0.033865  0.236297  0.797568  1
  Y  Y3  1  0.966135  0.763703  0.202432  1
  Y  Y4  1  0.186788  0.281608  0.468396  1
  Y  Y5  1  0.813212  0.718392  0.531604  1
  Y  Y6  1  0.186788  0.718392  0.905181  1
  Y  Y7  1  0.813212  0.281608  0.094819  1
  Y  Y8  1  0.320110  0.616561  0.296451  1
  Y  Y9  1  0.679890  0.383439  0.703549  1
  Y  Y10  1  0.320110  0.023659  0.703549  1
  Y  Y11  1  0.679890  0.976341  0.296451  1
  In  In12  1  0.500000  0.500000  0.000000  1
  In  In13  1  0.000000  0.000000  0.000000  1
  Ga  Ga14  1  0.354882  0.000000  0.354882  1
  Ga  Ga15  1  0.645118  0.000000  0.645118  1
  Ga  Ga16  1  0.120363  0.620363  0.500000  1
  Ga  Ga17  1  0.879637  0.379637  0.500000  1
