# generated using pymatgen
data_Dy2HfZr3(SnRh)6
_symmetry_space_group_name_H-M   'P 1'
_cell_length_a   7.51752052
_cell_length_b   7.48909798
_cell_length_c   7.37414700
_cell_angle_alpha   90.00000000
_cell_angle_beta   90.00000000
_cell_angle_gamma   119.98199494
_symmetry_Int_Tables_number   1
_chemical_formula_structural   Dy2HfZr3(SnRh)6
_chemical_formula_sum   'Dy2 Hf1 Zr3 Sn6 Rh6'
_cell_volume   359.60467007
_cell_formula_units_Z   1
loop_
 _symmetry_equiv_pos_site_id
 _symmetry_equiv_pos_as_xyz
  1  'x, y, z'
loop_
 _atom_site_type_symbol
 _atom_site_label
 _atom_site_symmetry_multiplicity
 _atom_site_fract_x
 _atom_site_fract_y
 _atom_site_fract_z
 _atom_site_occupancy
  Dy  Dy0  1  0.001290  0.404751  0.250000  1
  Dy  Dy1  1  0.597885  0.594305  0.250000  1
  Hf  Hf2  1  0.395920  0.999268  0.750000  1
  Zr  Zr3  1  0.995550  0.388819  0.750000  1
  Zr  Zr4  1  0.605724  0.611966  0.750000  1
  Zr  Zr5  1  0.398199  0.996273  0.250000  1
  Sn  Sn6  1  0.268874  0.267485  0.508073  1
  Sn  Sn7  1  0.999910  0.732147  0.508671  1
  Sn  Sn8  1  0.999910  0.732147  0.991329  1
  Sn  Sn9  1  0.731999  0.000384  0.495328  1
  Sn  Sn10  1  0.731999  0.000384  0.004672  1
  Sn  Sn11  1  0.268874  0.267485  0.991927  1
  Rh  Rh12  1  0.334924  0.674781  0.528260  1
  Rh  Rh13  1  0.661406  0.327042  0.531075  1
  Rh  Rh14  1  0.334924  0.674781  0.971740  1
  Rh  Rh15  1  0.996944  0.000705  0.750000  1
  Rh  Rh16  1  0.014262  0.000236  0.250000  1
  Rh  Rh17  1  0.661406  0.327042  0.968925  1
