# generated using pymatgen
data_Nd6Y7Th3(CdIr)4
_symmetry_space_group_name_H-M   'P 1'
_cell_length_a   9.84872087
_cell_length_b   9.84392653
_cell_length_c   9.84392600
_cell_angle_alpha   60.00000179
_cell_angle_beta   60.01610361
_cell_angle_gamma   60.01610643
_symmetry_Int_Tables_number   1
_chemical_formula_structural   Nd6Y7Th3(CdIr)4
_chemical_formula_sum   'Nd6 Y7 Th3 Cd4 Ir4'
_cell_volume   675.00535328
_cell_formula_units_Z   1
loop_
 _symmetry_equiv_pos_site_id
 _symmetry_equiv_pos_as_xyz
  1  'x, y, z'
loop_
 _atom_site_type_symbol
 _atom_site_label
 _atom_site_symmetry_multiplicity
 _atom_site_fract_x
 _atom_site_fract_y
 _atom_site_fract_z
 _atom_site_occupancy
  Nd  Nd0  1  0.938501  0.561889  0.561889  1
  Nd  Nd1  1  0.561971  0.937987  0.937987  1
  Nd  Nd2  1  0.561971  0.937987  0.562055  1
  Nd  Nd3  1  0.938501  0.561889  0.937720  1
  Nd  Nd4  1  0.561971  0.562055  0.937987  1
  Nd  Nd5  1  0.938501  0.937720  0.561889  1
  Y  Y6  1  0.951666  0.349445  0.349445  1
  Y  Y7  1  0.813593  0.187485  0.187485  1
  Y  Y8  1  0.187950  0.813795  0.813795  1
  Y  Y9  1  0.187950  0.813795  0.184460  1
  Y  Y10  1  0.813593  0.187485  0.811437  1
  Y  Y11  1  0.187950  0.184460  0.813795  1
  Y  Y12  1  0.813593  0.811437  0.187485  1
  Th  Th13  1  0.345624  0.348479  0.348479  1
  Th  Th14  1  0.345624  0.348479  0.957419  1
  Th  Th15  1  0.345624  0.957419  0.348479  1
  Cd  Cd16  1  0.581020  0.579127  0.579127  1
  Cd  Cd17  1  0.581020  0.579127  0.260726  1
  Cd  Cd18  1  0.581020  0.260726  0.579127  1
  Cd  Cd19  1  0.258711  0.580429  0.580429  1
  Ir  Ir20  1  0.144791  0.141799  0.141799  1
  Ir  Ir21  1  0.144791  0.141799  0.571611  1
  Ir  Ir22  1  0.144791  0.571611  0.141799  1
  Ir  Ir23  1  0.569272  0.143576  0.143576  1
