# generated using pymatgen
data_K2Pt3O8
_symmetry_space_group_name_H-M   'P 1'
_cell_length_a   7.16697008
_cell_length_b   7.16701643
_cell_length_c   5.37836916
_cell_angle_alpha   106.83814092
_cell_angle_beta   106.83822232
_cell_angle_gamma   52.47795137
_symmetry_Int_Tables_number   1
_chemical_formula_structural   K2Pt3O8
_chemical_formula_sum   'K2 Pt3 O8'
_cell_volume   207.36981791
_cell_formula_units_Z   1
loop_
 _symmetry_equiv_pos_site_id
 _symmetry_equiv_pos_as_xyz
  1  'x, y, z'
loop_
 _atom_site_type_symbol
 _atom_site_label
 _atom_site_symmetry_multiplicity
 _atom_site_fract_x
 _atom_site_fract_y
 _atom_site_fract_z
 _atom_site_occupancy
  K  K0  1  0.725783  0.725920  0.172598  1
  K  K1  1  0.274075  0.274222  0.827401  1
  Pt  Pt2  1  0.000037  0.999963  0.000001  1
  Pt  Pt3  1  0.744570  0.255430  0.500000  1
  Pt  Pt4  1  0.255447  0.744554  0.500001  1
  O  O5  1  0.692931  0.136235  0.117174  1
  O  O6  1  0.136231  0.692900  0.117131  1
  O  O7  1  0.083102  0.083118  0.400563  1
  O  O8  1  0.588824  0.588746  0.450943  1
  O  O9  1  0.411250  0.411180  0.549057  1
  O  O10  1  0.916881  0.916901  0.599437  1
  O  O11  1  0.863766  0.307067  0.882826  1
  O  O12  1  0.307103  0.863767  0.882870  1
