# generated using pymatgen
data_Tb5Dy7ZnGaCo4
_symmetry_space_group_name_H-M   'P 1'
_cell_length_a   8.28054310
_cell_length_b   8.27979175
_cell_length_c   8.28054425
_cell_angle_alpha   106.91908083
_cell_angle_beta   109.39614114
_cell_angle_gamma   112.14439979
_symmetry_Int_Tables_number   1
_chemical_formula_structural   Tb5Dy7ZnGaCo4
_chemical_formula_sum   'Tb5 Dy7 Zn1 Ga1 Co4'
_cell_volume   436.10347371
_cell_formula_units_Z   1
loop_
 _symmetry_equiv_pos_site_id
 _symmetry_equiv_pos_as_xyz
  1  'x, y, z'
loop_
 _atom_site_type_symbol
 _atom_site_label
 _atom_site_symmetry_multiplicity
 _atom_site_fract_x
 _atom_site_fract_y
 _atom_site_fract_z
 _atom_site_occupancy
  Tb  Tb0  1  0.304726  0.263129  0.568060  1
  Tb  Tb1  1  0.695610  0.736721  0.432141  1
  Tb  Tb2  1  0.304581  0.736721  0.041111  1
  Tb  Tb3  1  0.695066  0.263129  0.958403  1
  Tb  Tb4  1  0.187863  0.514886  0.327023  1
  Dy  Dy5  1  0.187525  0.860746  0.673221  1
  Dy  Dy6  1  0.812575  0.485578  0.673003  1
  Dy  Dy7  1  0.812189  0.139225  0.327036  1
  Dy  Dy8  1  0.397678  0.218181  0.179226  1
  Dy  Dy9  1  0.038955  0.218181  0.820503  1
  Dy  Dy10  1  0.960870  0.781842  0.179214  1
  Dy  Dy11  1  0.602628  0.781842  0.820973  1
  Zn  Zn12  1  0.500000  0.500014  0.000014  1
  Ga  Ga13  1  0.500178  0.000279  0.500101  1
  Co  Co14  1  0.165520  0.499939  0.665809  1
  Co  Co15  1  0.834130  0.499939  0.334419  1
  Co  Co16  1  0.999860  0.114436  0.114575  1
  Co  Co17  1  0.000047  0.885213  0.885166  1
