# generated using pymatgen
data_Cs8Na4Sm3YSb8
_symmetry_space_group_name_H-M   'P 1'
_cell_length_a   11.72342158
_cell_length_b   11.72341950
_cell_length_c   7.64743895
_cell_angle_alpha   90.04365377
_cell_angle_beta   89.95634685
_cell_angle_gamma   99.34655826
_symmetry_Int_Tables_number   1
_chemical_formula_structural   Cs8Na4Sm3YSb8
_chemical_formula_sum   'Cs8 Na4 Sm3 Y1 Sb8'
_cell_volume   1037.09899514
_cell_formula_units_Z   1
loop_
 _symmetry_equiv_pos_site_id
 _symmetry_equiv_pos_as_xyz
  1  'x, y, z'
loop_
 _atom_site_type_symbol
 _atom_site_label
 _atom_site_symmetry_multiplicity
 _atom_site_fract_x
 _atom_site_fract_y
 _atom_site_fract_z
 _atom_site_occupancy
  Cs  Cs0  1  0.070503  0.429546  0.250083  1
  Cs  Cs1  1  0.429546  0.070503  0.749917  1
  Cs  Cs2  1  0.929363  0.570460  0.749910  1
  Cs  Cs3  1  0.570460  0.929363  0.250090  1
  Cs  Cs4  1  0.677144  0.323029  0.212925  1
  Cs  Cs5  1  0.822851  0.177190  0.712757  1
  Cs  Cs6  1  0.323029  0.677144  0.787075  1
  Cs  Cs7  1  0.177190  0.822851  0.287243  1
  Na  Na8  1  0.382185  0.382185  0.000000  1
  Na  Na9  1  0.117894  0.117894  0.500000  1
  Na  Na10  1  0.617886  0.617886  0.000000  1
  Na  Na11  1  0.881891  0.881891  0.500000  1
  Sm  Sm12  1  0.131886  0.131886  0.000000  1
  Sm  Sm13  1  0.368804  0.368804  0.500000  1
  Sm  Sm14  1  0.867996  0.867996  0.000000  1
  Y  Y15  1  0.631288  0.631288  0.500000  1
  Sb  Sb16  1  0.841536  0.656453  0.252298  1
  Sb  Sb17  1  0.656453  0.841536  0.747702  1
  Sb  Sb18  1  0.156499  0.343469  0.750079  1
  Sb  Sb19  1  0.343469  0.156499  0.249921  1
  Sb  Sb20  1  0.903751  0.096128  0.213207  1
  Sb  Sb21  1  0.596601  0.405645  0.711665  1
  Sb  Sb22  1  0.096128  0.903751  0.786793  1
  Sb  Sb23  1  0.405645  0.596601  0.288335  1
