# generated using pymatgen
data_SmTm5Hf2(Co4P3)4
_symmetry_space_group_name_H-M   'P 1'
_cell_length_a   3.70089500
_cell_length_b   10.64106700
_cell_length_c   12.33500200
_cell_angle_alpha   90.00000000
_cell_angle_beta   90.00000000
_cell_angle_gamma   90.00000000
_symmetry_Int_Tables_number   1
_chemical_formula_structural   SmTm5Hf2(Co4P3)4
_chemical_formula_sum   'Sm1 Tm5 Hf2 Co16 P12'
_cell_volume   485.77053163
_cell_formula_units_Z   1
loop_
 _symmetry_equiv_pos_site_id
 _symmetry_equiv_pos_as_xyz
  1  'x, y, z'
loop_
 _atom_site_type_symbol
 _atom_site_label
 _atom_site_symmetry_multiplicity
 _atom_site_fract_x
 _atom_site_fract_y
 _atom_site_fract_z
 _atom_site_occupancy
  Sm  Sm0  1  0.000000  0.500000  0.530036  1
  Tm  Tm1  1  0.500000  0.000000  0.470767  1
  Tm  Tm2  1  0.500000  0.822324  0.204479  1
  Tm  Tm3  1  0.500000  0.177676  0.204479  1
  Tm  Tm4  1  0.000000  0.678209  0.796107  1
  Tm  Tm5  1  0.000000  0.321791  0.796107  1
  Hf  Hf6  1  0.500000  0.500000  0.156190  1
  Hf  Hf7  1  0.000000  0.000000  0.841912  1
  Co  Co8  1  0.500000  0.500000  0.706232  1
  Co  Co9  1  0.000000  0.000000  0.296761  1
  Co  Co10  1  0.000000  0.500000  0.986716  1
  Co  Co11  1  0.500000  0.000000  0.013371  1
  Co  Co12  1  0.500000  0.331644  0.993427  1
  Co  Co13  1  0.500000  0.668356  0.993427  1
  Co  Co14  1  0.000000  0.167950  0.006609  1
  Co  Co15  1  0.000000  0.832050  0.006609  1
  Co  Co16  1  0.500000  0.292999  0.432365  1
  Co  Co17  1  0.500000  0.707001  0.432365  1
  Co  Co18  1  0.000000  0.203004  0.566958  1
  Co  Co19  1  0.000000  0.796996  0.566958  1
  Co  Co20  1  0.500000  0.877972  0.703220  1
  Co  Co21  1  0.500000  0.122028  0.703220  1
  Co  Co22  1  0.000000  0.623368  0.296145  1
  Co  Co23  1  0.000000  0.376632  0.296145  1
  P  P24  1  0.500000  0.500000  0.883861  1
  P  P25  1  0.000000  0.000000  0.117072  1
  P  P26  1  0.500000  0.500000  0.359795  1
  P  P27  1  0.000000  0.000000  0.636632  1
  P  P28  1  0.500000  0.308081  0.617427  1
  P  P29  1  0.500000  0.691919  0.617427  1
  P  P30  1  0.000000  0.188370  0.383643  1
  P  P31  1  0.000000  0.811630  0.383643  1
  P  P32  1  0.500000  0.837987  0.892218  1
  P  P33  1  0.500000  0.162013  0.892218  1
  P  P34  1  0.000000  0.662410  0.107729  1
  P  P35  1  0.000000  0.337590  0.107729  1
