# generated using pymatgen
data_Sm12Co2I17
_symmetry_space_group_name_H-M   'P 1'
_cell_length_a   9.87447471
_cell_length_b   11.82776814
_cell_length_c   11.82395331
_cell_angle_alpha   93.16817401
_cell_angle_beta   104.66379648
_cell_angle_gamma   114.73902992
_symmetry_Int_Tables_number   1
_chemical_formula_structural   Sm12Co2I17
_chemical_formula_sum   'Sm12 Co2 I17'
_cell_volume   1192.76632598
_cell_formula_units_Z   1
loop_
 _symmetry_equiv_pos_site_id
 _symmetry_equiv_pos_as_xyz
  1  'x, y, z'
loop_
 _atom_site_type_symbol
 _atom_site_label
 _atom_site_symmetry_multiplicity
 _atom_site_fract_x
 _atom_site_fract_y
 _atom_site_fract_z
 _atom_site_occupancy
  Sm  Sm0  1  0.054053  0.505829  0.321150  1
  Sm  Sm1  1  0.992197  0.810307  0.585158  1
  Sm  Sm2  1  0.648758  0.240692  0.281597  1
  Sm  Sm3  1  0.007803  0.189693  0.414842  1
  Sm  Sm4  1  0.215666  0.667401  0.985099  1
  Sm  Sm5  1  0.259623  0.980870  0.891602  1
  Sm  Sm6  1  0.351242  0.759308  0.718403  1
  Sm  Sm7  1  0.945947  0.494171  0.678850  1
  Sm  Sm8  1  0.740377  0.019130  0.108398  1
  Sm  Sm9  1  0.147074  0.287697  0.151364  1
  Sm  Sm10  1  0.784334  0.332599  0.014901  1
  Sm  Sm11  1  0.852926  0.712303  0.848636  1
  Co  Co12  1  0.103184  0.738284  0.784241  1
  Co  Co13  1  0.896816  0.261716  0.215759  1
  I  I14  1  0.781726  0.529092  0.416891  1
  I  I15  1  0.639682  0.416981  0.759679  1
  I  I16  1  0.843112  0.893669  0.325467  1
  I  I17  1  0.327297  0.212261  0.369630  1
  I  I18  1  0.156888  0.106331  0.674533  1
  I  I19  1  0.588962  0.054613  0.839955  1
  I  I20  1  0.754671  0.184197  0.539390  1
  I  I21  1  0.551623  0.708023  0.954481  1
  I  I22  1  0.360318  0.583019  0.240321  1
  I  I23  1  0.218274  0.470908  0.583109  1
  I  I24  1  0.056356  0.362848  0.893142  1
  I  I25  1  0.448377  0.291977  0.045519  1
  I  I26  1  0.000000  0.000000  0.000000  1
  I  I27  1  0.245329  0.815803  0.460610  1
  I  I28  1  0.411038  0.945387  0.160045  1
  I  I29  1  0.672703  0.787739  0.630370  1
  I  I30  1  0.943644  0.637152  0.106858  1
