# generated using pymatgen
data_NaScSnB2Rh5
_symmetry_space_group_name_H-M   'P 1'
_cell_length_a   9.73225500
_cell_length_b   9.75445800
_cell_length_c   3.01464100
_cell_angle_alpha   90.00000000
_cell_angle_beta   90.00000000
_cell_angle_gamma   90.00000000
_symmetry_Int_Tables_number   1
_chemical_formula_structural   NaScSnB2Rh5
_chemical_formula_sum   'Na2 Sc2 Sn2 B4 Rh10'
_cell_volume   286.18853012
_cell_formula_units_Z   2
loop_
 _symmetry_equiv_pos_site_id
 _symmetry_equiv_pos_as_xyz
  1  'x, y, z'
loop_
 _atom_site_type_symbol
 _atom_site_label
 _atom_site_symmetry_multiplicity
 _atom_site_fract_x
 _atom_site_fract_y
 _atom_site_fract_z
 _atom_site_occupancy
  Na  Na0  1  0.822379  0.322992  0.000000  1
  Na  Na1  1  0.322379  0.177008  0.000000  1
  Sc  Sc2  1  0.673172  0.824905  0.000000  1
  Sc  Sc3  1  0.173172  0.675095  0.000000  1
  Sn  Sn4  1  0.005975  0.012112  0.000000  1
  Sn  Sn5  1  0.505975  0.487888  0.000000  1
  B  B6  1  0.623343  0.115271  0.000000  1
  B  B7  1  0.123343  0.384729  0.000000  1
  B  B8  1  0.879564  0.631178  0.000000  1
  B  B9  1  0.379564  0.868822  0.000000  1
  Rh  Rh10  1  0.071358  0.236883  0.500000  1
  Rh  Rh11  1  0.222350  0.912445  0.500000  1
  Rh  Rh12  1  0.772416  0.053428  0.500000  1
  Rh  Rh13  1  0.930231  0.785459  0.500000  1
  Rh  Rh14  1  0.430231  0.714541  0.500000  1
  Rh  Rh15  1  0.571358  0.263117  0.500000  1
  Rh  Rh16  1  0.722350  0.587555  0.500000  1
  Rh  Rh17  1  0.272416  0.446572  0.500000  1
  Rh  Rh18  1  0.499212  0.987817  0.500000  1
  Rh  Rh19  1  0.999212  0.512183  0.500000  1
