# generated using pymatgen
data_ThUH6
_symmetry_space_group_name_H-M   'P 1'
_cell_length_a   6.75221500
_cell_length_b   6.74033300
_cell_length_c   6.75221500
_cell_angle_alpha   90.00000000
_cell_angle_beta   90.00000000
_cell_angle_gamma   90.00000000
_symmetry_Int_Tables_number   1
_chemical_formula_structural   ThUH6
_chemical_formula_sum   'Th4 U4 H24'
_cell_volume   307.30800819
_cell_formula_units_Z   4
loop_
 _symmetry_equiv_pos_site_id
 _symmetry_equiv_pos_as_xyz
  1  'x, y, z'
loop_
 _atom_site_type_symbol
 _atom_site_label
 _atom_site_symmetry_multiplicity
 _atom_site_fract_x
 _atom_site_fract_y
 _atom_site_fract_z
 _atom_site_occupancy
  Th  Th0  1  0.250821  0.000000  0.500000  1
  Th  Th1  1  0.749179  0.000000  0.500000  1
  Th  Th2  1  0.000000  0.500000  0.249179  1
  Th  Th3  1  0.000000  0.500000  0.750821  1
  U  U4  1  0.000000  0.000000  0.000000  1
  U  U5  1  0.500000  0.500000  0.500000  1
  U  U6  1  0.500000  0.750000  0.000000  1
  U  U7  1  0.500000  0.250000  0.000000  1
  H  H8  1  0.000000  0.154145  0.299699  1
  H  H9  1  0.500000  0.203889  0.658792  1
  H  H10  1  0.500000  0.796111  0.341208  1
  H  H11  1  0.799699  0.654145  0.500000  1
  H  H12  1  0.200301  0.654145  0.500000  1
  H  H13  1  0.350249  0.500000  0.807214  1
  H  H14  1  0.649751  0.500000  0.807214  1
  H  H15  1  0.307214  0.000000  0.149751  1
  H  H16  1  0.158792  0.296111  0.000000  1
  H  H17  1  0.841208  0.703889  0.000000  1
  H  H18  1  0.307214  0.000000  0.850249  1
  H  H19  1  0.841208  0.296111  0.000000  1
  H  H20  1  0.692786  0.000000  0.149751  1
  H  H21  1  0.692786  0.000000  0.850249  1
  H  H22  1  0.158792  0.703889  0.000000  1
  H  H23  1  0.000000  0.845855  0.700301  1
  H  H24  1  0.000000  0.154145  0.700301  1
  H  H25  1  0.000000  0.845855  0.299699  1
  H  H26  1  0.649751  0.500000  0.192786  1
  H  H27  1  0.350249  0.500000  0.192786  1
  H  H28  1  0.799699  0.345855  0.500000  1
  H  H29  1  0.200301  0.345855  0.500000  1
  H  H30  1  0.500000  0.796111  0.658792  1
  H  H31  1  0.500000  0.203889  0.341208  1
