# generated using pymatgen
data_YHoSi2(Tc2C)2
_symmetry_space_group_name_H-M   'P 1'
_cell_length_a   5.82427212
_cell_length_b   5.82427163
_cell_length_c   7.24547100
_cell_angle_alpha   90.00000000
_cell_angle_beta   90.00000000
_cell_angle_gamma   140.76132531
_symmetry_Int_Tables_number   1
_chemical_formula_structural   YHoSi2(Tc2C)2
_chemical_formula_sum   'Y1 Ho1 Si2 Tc4 C2'
_cell_volume   155.46989484
_cell_formula_units_Z   1
loop_
 _symmetry_equiv_pos_site_id
 _symmetry_equiv_pos_as_xyz
  1  'x, y, z'
loop_
 _atom_site_type_symbol
 _atom_site_label
 _atom_site_symmetry_multiplicity
 _atom_site_fract_x
 _atom_site_fract_y
 _atom_site_fract_z
 _atom_site_occupancy
  Y  Y0  1  0.455701  0.544299  0.750000  1
  Ho  Ho1  1  0.544261  0.455739  0.250000  1
  Si  Si2  1  0.267932  0.732068  0.250000  1
  Si  Si3  1  0.732042  0.267958  0.750000  1
  Tc  Tc4  1  0.828642  0.171358  0.060833  1
  Tc  Tc5  1  0.171286  0.828714  0.939938  1
  Tc  Tc6  1  0.171286  0.828714  0.560062  1
  Tc  Tc7  1  0.828642  0.171358  0.439167  1
  C  C8  1  0.000104  0.999896  0.001009  1
  C  C9  1  0.000104  0.999896  0.498991  1
