# generated using pymatgen
data_Dy4Cr3Co17As12
_symmetry_space_group_name_H-M   'P 1'
_cell_length_a   3.79035700
_cell_length_b   10.75668939
_cell_length_c   12.28331043
_cell_angle_alpha   90.01397173
_cell_angle_beta   90.00000000
_cell_angle_gamma   90.00000000
_symmetry_Int_Tables_number   1
_chemical_formula_structural   Dy4Cr3Co17As12
_chemical_formula_sum   'Dy4 Cr3 Co17 As12'
_cell_volume   500.81134613
_cell_formula_units_Z   1
loop_
 _symmetry_equiv_pos_site_id
 _symmetry_equiv_pos_as_xyz
  1  'x, y, z'
loop_
 _atom_site_type_symbol
 _atom_site_label
 _atom_site_symmetry_multiplicity
 _atom_site_fract_x
 _atom_site_fract_y
 _atom_site_fract_z
 _atom_site_occupancy
  Dy  Dy0  1  0.250000  0.578842  0.703922  1
  Dy  Dy1  1  0.250000  0.918436  0.203309  1
  Dy  Dy2  1  0.750000  0.418424  0.295447  1
  Dy  Dy3  1  0.750000  0.080728  0.795496  1
  Cr  Cr4  1  0.250000  0.704857  0.990316  1
  Cr  Cr5  1  0.250000  0.795424  0.490431  1
  Cr  Cr6  1  0.750000  0.294964  0.009565  1
  Co  Co7  1  0.750000  0.208494  0.510392  1
  Co  Co8  1  0.250000  0.406123  0.488239  1
  Co  Co9  1  0.250000  0.094334  0.989164  1
  Co  Co10  1  0.750000  0.594873  0.511432  1
  Co  Co11  1  0.750000  0.906059  0.011848  1
  Co  Co12  1  0.250000  0.216961  0.176733  1
  Co  Co13  1  0.250000  0.282418  0.675308  1
  Co  Co14  1  0.750000  0.783422  0.824837  1
  Co  Co15  1  0.750000  0.717734  0.324470  1
  Co  Co16  1  0.250000  0.884235  0.697829  1
  Co  Co17  1  0.250000  0.616320  0.198500  1
  Co  Co18  1  0.750000  0.116797  0.303184  1
  Co  Co19  1  0.750000  0.382472  0.800758  1
  Co  Co20  1  0.250000  0.465281  0.932054  1
  Co  Co21  1  0.250000  0.033866  0.432439  1
  Co  Co22  1  0.750000  0.534555  0.068321  1
  Co  Co23  1  0.750000  0.967068  0.566581  1
  As  As24  1  0.250000  0.417944  0.114729  1
  As  As25  1  0.250000  0.083402  0.613649  1
  As  As26  1  0.750000  0.581173  0.884901  1
  As  As27  1  0.750000  0.918277  0.384293  1
  As  As28  1  0.250000  0.267422  0.866070  1
  As  As29  1  0.250000  0.232406  0.368917  1
  As  As30  1  0.750000  0.732086  0.133676  1
  As  As31  1  0.750000  0.768315  0.634388  1
  As  As32  1  0.250000  0.595850  0.389943  1
  As  As33  1  0.250000  0.903892  0.890196  1
  As  As34  1  0.750000  0.399021  0.607630  1
  As  As35  1  0.750000  0.097526  0.111034  1
