# generated using pymatgen
data_Dy7Lu3(In2Au)4
_symmetry_space_group_name_H-M   'P 1'
_cell_length_a   3.67094200
_cell_length_b   8.18470923
_cell_length_c   18.30661400
_cell_angle_alpha   89.92981144
_cell_angle_beta   90.00000000
_cell_angle_gamma   90.00000000
_symmetry_Int_Tables_number   1
_chemical_formula_structural   Dy7Lu3(In2Au)4
_chemical_formula_sum   'Dy7 Lu3 In8 Au4'
_cell_volume   550.03265867
_cell_formula_units_Z   1
loop_
 _symmetry_equiv_pos_site_id
 _symmetry_equiv_pos_as_xyz
  1  'x, y, z'
loop_
 _atom_site_type_symbol
 _atom_site_label
 _atom_site_symmetry_multiplicity
 _atom_site_fract_x
 _atom_site_fract_y
 _atom_site_fract_z
 _atom_site_occupancy
  Dy  Dy0  1  0.000000  0.620429  0.079896  1
  Dy  Dy1  1  0.000000  0.239296  0.217842  1
  Dy  Dy2  1  0.000000  0.760827  0.782416  1
  Dy  Dy3  1  0.000000  0.260383  0.717045  1
  Dy  Dy4  1  0.000000  0.739722  0.283442  1
  Dy  Dy5  1  0.000000  0.000278  0.999606  1
  Dy  Dy6  1  0.000000  0.499931  0.500274  1
  Lu  Lu7  1  0.000000  0.120182  0.418686  1
  Lu  Lu8  1  0.000000  0.880056  0.581398  1
  Lu  Lu9  1  0.000000  0.380006  0.918091  1
  In  In10  1  0.500000  0.419843  0.354130  1
  In  In11  1  0.500000  0.579808  0.646643  1
  In  In12  1  0.500000  0.079171  0.853081  1
  In  In13  1  0.500000  0.923397  0.147313  1
  In  In14  1  0.500000  0.291180  0.064195  1
  In  In15  1  0.500000  0.706254  0.934012  1
  In  In16  1  0.500000  0.204985  0.563667  1
  In  In17  1  0.500000  0.795110  0.436739  1
  Au  Au18  1  0.500000  0.029310  0.305085  1
  Au  Au19  1  0.500000  0.971159  0.695104  1
  Au  Au20  1  0.500000  0.470610  0.804230  1
  Au  Au21  1  0.500000  0.528063  0.197105  1
