# generated using pymatgen
data_CeIn6IrBr12
_symmetry_space_group_name_H-M   'P 1'
_cell_length_a   9.26043096
_cell_length_b   9.26043092
_cell_length_c   9.26043064
_cell_angle_alpha   104.25352076
_cell_angle_beta   104.25353220
_cell_angle_gamma   104.25353099
_symmetry_Int_Tables_number   1
_chemical_formula_structural   CeIn6IrBr12
_chemical_formula_sum   'Ce1 In6 Ir1 Br12'
_cell_volume   705.07538412
_cell_formula_units_Z   1
loop_
 _symmetry_equiv_pos_site_id
 _symmetry_equiv_pos_as_xyz
  1  'x, y, z'
loop_
 _atom_site_type_symbol
 _atom_site_label
 _atom_site_symmetry_multiplicity
 _atom_site_fract_x
 _atom_site_fract_y
 _atom_site_fract_z
 _atom_site_occupancy
  Ce  Ce0  1  0.500000  0.500000  0.500000  1
  In  In1  1  0.042524  0.059211  0.306200  1
  In  In2  1  0.306200  0.042524  0.059211  1
  In  In3  1  0.059211  0.306200  0.042524  1
  In  In4  1  0.957476  0.940789  0.693800  1
  In  In5  1  0.693800  0.957476  0.940789  1
  In  In6  1  0.940789  0.693800  0.957476  1
  Ir  Ir7  1  0.000000  0.000000  0.000000  1
  Br  Br8  1  0.983578  0.556593  0.193035  1
  Br  Br9  1  0.193035  0.983578  0.556593  1
  Br  Br10  1  0.556593  0.193035  0.983578  1
  Br  Br11  1  0.016422  0.443407  0.806965  1
  Br  Br12  1  0.806965  0.016422  0.443407  1
  Br  Br13  1  0.443407  0.806965  0.016422  1
  Br  Br14  1  0.481845  0.171605  0.376748  1
  Br  Br15  1  0.376748  0.481845  0.171605  1
  Br  Br16  1  0.171605  0.376748  0.481845  1
  Br  Br17  1  0.518155  0.828395  0.623252  1
  Br  Br18  1  0.623252  0.518155  0.828395  1
  Br  Br19  1  0.828395  0.623252  0.518155  1
