# generated using pymatgen
data_Sr4Dy3Ho(BO4)4
_symmetry_space_group_name_H-M   'P 1'
_cell_length_a   3.67391900
_cell_length_b   9.74698728
_cell_length_c   10.98799831
_cell_angle_alpha   89.97270450
_cell_angle_beta   90.00000000
_cell_angle_gamma   90.00000000
_symmetry_Int_Tables_number   1
_chemical_formula_structural   Sr4Dy3Ho(BO4)4
_chemical_formula_sum   'Sr4 Dy3 Ho1 B4 O16'
_cell_volume   393.47623842
_cell_formula_units_Z   1
loop_
 _symmetry_equiv_pos_site_id
 _symmetry_equiv_pos_as_xyz
  1  'x, y, z'
loop_
 _atom_site_type_symbol
 _atom_site_label
 _atom_site_symmetry_multiplicity
 _atom_site_fract_x
 _atom_site_fract_y
 _atom_site_fract_z
 _atom_site_occupancy
  Sr  Sr0  1  0.250000  0.658793  0.083743  1
  Sr  Sr1  1  0.750000  0.341219  0.916217  1
  Sr  Sr2  1  0.750000  0.158854  0.416304  1
  Sr  Sr3  1  0.250000  0.841176  0.583748  1
  Dy  Dy4  1  0.250000  0.080812  0.110641  1
  Dy  Dy5  1  0.750000  0.919201  0.889360  1
  Dy  Dy6  1  0.750000  0.580733  0.389465  1
  Ho  Ho7  1  0.250000  0.419390  0.610366  1
  B  B8  1  0.250000  0.362871  0.204388  1
  B  B9  1  0.750000  0.637035  0.795529  1
  B  B10  1  0.750000  0.862857  0.295589  1
  B  B11  1  0.250000  0.137234  0.704357  1
  O  O12  1  0.250000  0.488822  0.263546  1
  O  O13  1  0.750000  0.511046  0.736237  1
  O  O14  1  0.750000  0.988830  0.236444  1
  O  O15  1  0.250000  0.011191  0.763571  1
  O  O16  1  0.250000  0.239899  0.269559  1
  O  O17  1  0.750000  0.760110  0.730445  1
  O  O18  1  0.750000  0.739918  0.230455  1
  O  O19  1  0.250000  0.260406  0.769178  1
  O  O20  1  0.250000  0.357829  0.077018  1
  O  O21  1  0.750000  0.642154  0.922962  1
  O  O22  1  0.750000  0.857802  0.422989  1
  O  O23  1  0.250000  0.142209  0.576993  1
  O  O24  1  0.250000  0.612654  0.500279  1
  O  O25  1  0.750000  0.386959  0.500618  1
  O  O26  1  0.750000  0.113101  0.000014  1
  O  O27  1  0.250000  0.886895  0.999986  1
