# generated using pymatgen
data_Y13Ho3Cd4Ir3Os
_symmetry_space_group_name_H-M   'P 1'
_cell_length_a   9.70519795
_cell_length_b   9.71682880
_cell_length_c   9.71685781
_cell_angle_alpha   59.41814137
_cell_angle_beta   59.37715909
_cell_angle_gamma   59.37667189
_symmetry_Int_Tables_number   1
_chemical_formula_structural   Y13Ho3Cd4Ir3Os
_chemical_formula_sum   'Y13 Ho3 Cd4 Ir3 Os1'
_cell_volume   638.96200144
_cell_formula_units_Z   1
loop_
 _symmetry_equiv_pos_site_id
 _symmetry_equiv_pos_as_xyz
  1  'x, y, z'
loop_
 _atom_site_type_symbol
 _atom_site_label
 _atom_site_symmetry_multiplicity
 _atom_site_fract_x
 _atom_site_fract_y
 _atom_site_fract_z
 _atom_site_occupancy
  Y  Y0  1  0.956341  0.348908  0.348912  1
  Y  Y1  1  0.811080  0.189125  0.189124  1
  Y  Y2  1  0.187909  0.809065  0.809065  1
  Y  Y3  1  0.189349  0.811036  0.189284  1
  Y  Y4  1  0.809164  0.187602  0.809424  1
  Y  Y5  1  0.189350  0.189278  0.811038  1
  Y  Y6  1  0.809166  0.809423  0.187603  1
  Y  Y7  1  0.938825  0.561410  0.561411  1
  Y  Y8  1  0.557521  0.939254  0.939257  1
  Y  Y9  1  0.560881  0.939106  0.561127  1
  Y  Y10  1  0.939060  0.557987  0.938584  1
  Y  Y11  1  0.560889  0.561123  0.939104  1
  Y  Y12  1  0.939062  0.938580  0.557987  1
  Ho  Ho13  1  0.348803  0.348961  0.348930  1
  Ho  Ho14  1  0.348170  0.348173  0.958505  1
  Ho  Ho15  1  0.348189  0.958499  0.348161  1
  Cd  Cd16  1  0.579460  0.579643  0.579646  1
  Cd  Cd17  1  0.580112  0.580276  0.257546  1
  Cd  Cd18  1  0.580116  0.257539  0.580279  1
  Cd  Cd19  1  0.257617  0.580194  0.580194  1
  Ir  Ir20  1  0.145375  0.143096  0.575829  1
  Ir  Ir21  1  0.145371  0.575833  0.143094  1
  Ir  Ir22  1  0.574664  0.144295  0.144299  1
  Os  Os23  1  0.143527  0.141596  0.141596  1
