# generated using pymatgen
data_Sr4HoSc(RhO6)2
_symmetry_space_group_name_H-M   'P 1'
_cell_length_a   5.75874069
_cell_length_b   5.77289142
_cell_length_c   9.99677320
_cell_angle_alpha   54.45091123
_cell_angle_beta   90.05311301
_cell_angle_gamma   90.01626146
_symmetry_Int_Tables_number   1
_chemical_formula_structural   Sr4HoSc(RhO6)2
_chemical_formula_sum   'Sr4 Ho1 Sc1 Rh2 O12'
_cell_volume   270.39641493
_cell_formula_units_Z   1
loop_
 _symmetry_equiv_pos_site_id
 _symmetry_equiv_pos_as_xyz
  1  'x, y, z'
loop_
 _atom_site_type_symbol
 _atom_site_label
 _atom_site_symmetry_multiplicity
 _atom_site_fract_x
 _atom_site_fract_y
 _atom_site_fract_z
 _atom_site_occupancy
  Sr  Sr0  1  0.478753  0.746133  0.258690  1
  Sr  Sr1  1  0.521247  0.253867  0.741310  1
  Sr  Sr2  1  0.975935  0.237977  0.256701  1
  Sr  Sr3  1  0.024065  0.762023  0.743299  1
  Ho  Ho4  1  0.000000  0.000000  0.000000  1
  Sc  Sc5  1  0.500000  0.000000  0.500000  1
  Rh  Rh6  1  0.000000  0.500000  0.500000  1
  Rh  Rh7  1  0.500000  0.500000  0.000000  1
  O  O8  1  0.706120  0.198762  0.035051  1
  O  O9  1  0.293880  0.801238  0.964949  1
  O  O10  1  0.221899  0.796849  0.469108  1
  O  O11  1  0.778101  0.203151  0.530892  1
  O  O12  1  0.009101  0.672094  0.264480  1
  O  O13  1  0.990899  0.327906  0.735520  1
  O  O14  1  0.509467  0.317994  0.243411  1
  O  O15  1  0.490533  0.682006  0.756589  1
  O  O16  1  0.231630  0.261580  0.034756  1
  O  O17  1  0.768370  0.738420  0.965244  1
  O  O18  1  0.732345  0.751511  0.468472  1
  O  O19  1  0.267655  0.248489  0.531528  1
