# generated using pymatgen
data_NdTm3(Lu4Bi3)4
_symmetry_space_group_name_H-M   'P 1'
_cell_length_a   8.16710956
_cell_length_b   9.39240600
_cell_length_c   11.85920181
_cell_angle_alpha   90.00000000
_cell_angle_beta   89.95763548
_cell_angle_gamma   90.00000000
_symmetry_Int_Tables_number   1
_chemical_formula_structural   NdTm3(Lu4Bi3)4
_chemical_formula_sum   'Nd1 Tm3 Lu16 Bi12'
_cell_volume   909.70499572
_cell_formula_units_Z   1
loop_
 _symmetry_equiv_pos_site_id
 _symmetry_equiv_pos_as_xyz
  1  'x, y, z'
loop_
 _atom_site_type_symbol
 _atom_site_label
 _atom_site_symmetry_multiplicity
 _atom_site_fract_x
 _atom_site_fract_y
 _atom_site_fract_z
 _atom_site_occupancy
  Nd  Nd0  1  0.185968  0.250000  0.780897  1
  Tm  Tm1  1  0.812318  0.750000  0.217080  1
  Tm  Tm2  1  0.312047  0.750000  0.282714  1
  Tm  Tm3  1  0.687224  0.250000  0.717758  1
  Lu  Lu4  1  0.024502  0.250000  0.510402  1
  Lu  Lu5  1  0.975012  0.750000  0.488850  1
  Lu  Lu6  1  0.475768  0.750000  0.011453  1
  Lu  Lu7  1  0.524456  0.250000  0.989803  1
  Lu  Lu8  1  0.355567  0.250000  0.281940  1
  Lu  Lu9  1  0.645182  0.750000  0.717483  1
  Lu  Lu10  1  0.144745  0.750000  0.782141  1
  Lu  Lu11  1  0.855058  0.250000  0.218635  1
  Lu  Lu12  1  0.193438  0.067005  0.060922  1
  Lu  Lu13  1  0.806892  0.932856  0.939503  1
  Lu  Lu14  1  0.306229  0.932858  0.560321  1
  Lu  Lu15  1  0.806892  0.567144  0.939503  1
  Lu  Lu16  1  0.694188  0.066879  0.439187  1
  Lu  Lu17  1  0.193438  0.432995  0.060922  1
  Lu  Lu18  1  0.694188  0.433121  0.439187  1
  Lu  Lu19  1  0.306229  0.567142  0.560321  1
  Bi  Bi20  1  0.407696  0.250000  0.540055  1
  Bi  Bi21  1  0.594683  0.750000  0.457814  1
  Bi  Bi22  1  0.095327  0.750000  0.042007  1
  Bi  Bi23  1  0.900866  0.250000  0.961383  1
  Bi  Bi24  1  0.067224  0.004248  0.326089  1
  Bi  Bi25  1  0.929765  0.993402  0.672643  1
  Bi  Bi26  1  0.437356  0.992744  0.826516  1
  Bi  Bi27  1  0.929765  0.506598  0.672643  1
  Bi  Bi28  1  0.566699  0.003982  0.174611  1
  Bi  Bi29  1  0.067224  0.495752  0.326089  1
  Bi  Bi30  1  0.566699  0.496018  0.174611  1
  Bi  Bi31  1  0.437356  0.507256  0.826516  1
