# generated using pymatgen
data_Dy16Cd4IrOs2Ru
_symmetry_space_group_name_H-M   'P 1'
_cell_length_a   9.63723273
_cell_length_b   9.65153765
_cell_length_c   9.69390400
_cell_angle_alpha   59.85469367
_cell_angle_beta   59.80529175
_cell_angle_gamma   59.69292357
_symmetry_Int_Tables_number   1
_chemical_formula_structural   Dy16Cd4IrOs2Ru
_chemical_formula_sum   'Dy16 Cd4 Ir1 Os2 Ru1'
_cell_volume   634.45202290
_cell_formula_units_Z   1
loop_
 _symmetry_equiv_pos_site_id
 _symmetry_equiv_pos_as_xyz
  1  'x, y, z'
loop_
 _atom_site_type_symbol
 _atom_site_label
 _atom_site_symmetry_multiplicity
 _atom_site_fract_x
 _atom_site_fract_y
 _atom_site_fract_z
 _atom_site_occupancy
  Dy  Dy0  1  0.596846  0.599003  0.597590  1
  Dy  Dy1  1  0.596846  0.599003  0.206561  1
  Dy  Dy2  1  0.596667  0.209244  0.597044  1
  Dy  Dy3  1  0.213203  0.596191  0.595302  1
  Dy  Dy4  1  0.060874  0.438452  0.441002  1
  Dy  Dy5  1  0.437791  0.060232  0.060839  1
  Dy  Dy6  1  0.437791  0.060232  0.441140  1
  Dy  Dy7  1  0.060874  0.438452  0.059673  1
  Dy  Dy8  1  0.438852  0.439704  0.060722  1
  Dy  Dy9  1  0.060990  0.058989  0.440011  1
  Dy  Dy10  1  0.188655  0.808510  0.812433  1
  Dy  Dy11  1  0.807724  0.189148  0.189984  1
  Dy  Dy12  1  0.807724  0.189148  0.813145  1
  Dy  Dy13  1  0.188655  0.808510  0.190403  1
  Dy  Dy14  1  0.811110  0.811671  0.188610  1
  Dy  Dy15  1  0.189281  0.190225  0.810247  1
  Cd  Cd16  1  0.830119  0.829700  0.830435  1
  Cd  Cd17  1  0.830119  0.829700  0.509747  1
  Cd  Cd18  1  0.830295  0.508670  0.830517  1
  Cd  Cd19  1  0.507852  0.830284  0.830932  1
  Ir  Ir20  1  0.828244  0.392849  0.389454  1
  Os  Os21  1  0.393359  0.389888  0.386824  1
  Os  Os22  1  0.393359  0.389888  0.829929  1
  Ru  Ru23  1  0.392770  0.832308  0.387461  1
