# generated using pymatgen
data_Sc8Mn3CrB24
_symmetry_space_group_name_H-M   'P 1'
_cell_length_a   8.85258529
_cell_length_b   11.15326836
_cell_length_c   3.33885000
_cell_angle_alpha   90.00000000
_cell_angle_beta   90.00000000
_cell_angle_gamma   90.02914811
_symmetry_Int_Tables_number   1
_chemical_formula_structural   Sc8Mn3CrB24
_chemical_formula_sum   'Sc8 Mn3 Cr1 B24'
_cell_volume   329.66217814
_cell_formula_units_Z   1
loop_
 _symmetry_equiv_pos_site_id
 _symmetry_equiv_pos_as_xyz
  1  'x, y, z'
loop_
 _atom_site_type_symbol
 _atom_site_label
 _atom_site_symmetry_multiplicity
 _atom_site_fract_x
 _atom_site_fract_y
 _atom_site_fract_z
 _atom_site_occupancy
  Sc  Sc0  1  0.321483  0.085671  0.000000  1
  Sc  Sc1  1  0.943974  0.129551  0.000000  1
  Sc  Sc2  1  0.442591  0.370743  0.000000  1
  Sc  Sc3  1  0.820851  0.414236  0.000000  1
  Sc  Sc4  1  0.178862  0.585134  0.000000  1
  Sc  Sc5  1  0.556924  0.630289  0.000000  1
  Sc  Sc6  1  0.057438  0.869912  0.000000  1
  Sc  Sc7  1  0.678750  0.914949  0.000000  1
  Mn  Mn8  1  0.139438  0.320223  0.000000  1
  Mn  Mn9  1  0.860626  0.680340  0.000000  1
  Mn  Mn10  1  0.360065  0.819048  0.000000  1
  Cr  Cr11  1  0.639408  0.180000  0.000000  1
  B  B12  1  0.100870  0.027436  0.499999  1
  B  B13  1  0.552735  0.065107  0.499999  1
  B  B14  1  0.751370  0.079408  0.499999  1
  B  B15  1  0.130510  0.183501  0.499999  1
  B  B16  1  0.479164  0.212002  0.499999  1
  B  B17  1  0.794579  0.236451  0.499999  1
  B  B18  1  0.293473  0.263999  0.499999  1
  B  B19  1  0.980590  0.288276  0.499999  1
  B  B20  1  0.630207  0.317082  0.499999  1
  B  B21  1  0.250798  0.420261  0.499999  1
  B  B22  1  0.053190  0.434268  0.499999  1
  B  B23  1  0.600284  0.472811  0.499999  1
  B  B24  1  0.399543  0.527759  0.499999  1
  B  B25  1  0.946514  0.565538  0.499999  1
  B  B26  1  0.749058  0.579783  0.499999  1
  B  B27  1  0.369302  0.683110  0.499999  1
  B  B28  1  0.019406  0.711565  0.499999  1
  B  B29  1  0.706522  0.736463  0.499999  1
  B  B30  1  0.206297  0.763530  0.499999  1
  B  B31  1  0.519392  0.788327  0.499999  1
  B  B32  1  0.869587  0.816840  0.499999  1
  B  B33  1  0.249477  0.920223  0.499999  1
  B  B34  1  0.446562  0.933993  0.499999  1
  B  B35  1  0.900156  0.972165  0.499999  1
