# generated using pymatgen
data_Er16Co4AgHg3
_symmetry_space_group_name_H-M   'P 1'
_cell_length_a   9.37475520
_cell_length_b   9.37475569
_cell_length_c   9.37475506
_cell_angle_alpha   60.06200699
_cell_angle_beta   60.06200613
_cell_angle_gamma   60.06201055
_symmetry_Int_Tables_number   1
_chemical_formula_structural   Er16Co4AgHg3
_chemical_formula_sum   'Er16 Co4 Ag1 Hg3'
_cell_volume   583.41114579
_cell_formula_units_Z   1
loop_
 _symmetry_equiv_pos_site_id
 _symmetry_equiv_pos_as_xyz
  1  'x, y, z'
loop_
 _atom_site_type_symbol
 _atom_site_label
 _atom_site_symmetry_multiplicity
 _atom_site_fract_x
 _atom_site_fract_y
 _atom_site_fract_z
 _atom_site_occupancy
  Er  Er0  1  0.597586  0.597586  0.597586  1
  Er  Er1  1  0.597095  0.597095  0.207368  1
  Er  Er2  1  0.597095  0.207368  0.597095  1
  Er  Er3  1  0.207368  0.597095  0.597095  1
  Er  Er4  1  0.061043  0.439014  0.439014  1
  Er  Er5  1  0.438944  0.061750  0.061750  1
  Er  Er6  1  0.439014  0.061043  0.439014  1
  Er  Er7  1  0.061750  0.438944  0.061750  1
  Er  Er8  1  0.439014  0.439014  0.061043  1
  Er  Er9  1  0.061750  0.061750  0.438944  1
  Er  Er10  1  0.186600  0.811446  0.811446  1
  Er  Er11  1  0.811747  0.187620  0.187620  1
  Er  Er12  1  0.811446  0.186600  0.811446  1
  Er  Er13  1  0.187620  0.811747  0.187620  1
  Er  Er14  1  0.811446  0.811446  0.186600  1
  Er  Er15  1  0.187620  0.187620  0.811747  1
  Co  Co16  1  0.391051  0.391051  0.391051  1
  Co  Co17  1  0.391393  0.391393  0.826488  1
  Co  Co18  1  0.391393  0.826488  0.391393  1
  Co  Co19  1  0.826488  0.391393  0.391393  1
  Ag  Ag20  1  0.833130  0.833130  0.833130  1
  Hg  Hg21  1  0.835162  0.835162  0.499084  1
  Hg  Hg22  1  0.835162  0.499084  0.835162  1
  Hg  Hg23  1  0.499084  0.835162  0.835162  1
