# generated using pymatgen
data_Er5Mg(Rh2Pb)6
_symmetry_space_group_name_H-M   'P 1'
_cell_length_a   4.57808500
_cell_length_b   7.15563300
_cell_length_c   13.59339100
_cell_angle_alpha   89.99908416
_cell_angle_beta   90.00004189
_cell_angle_gamma   90.00005706
_symmetry_Int_Tables_number   1
_chemical_formula_structural   Er5Mg(Rh2Pb)6
_chemical_formula_sum   'Er5 Mg1 Rh12 Pb6'
_cell_volume   445.30720210
_cell_formula_units_Z   1
loop_
 _symmetry_equiv_pos_site_id
 _symmetry_equiv_pos_as_xyz
  1  'x, y, z'
loop_
 _atom_site_type_symbol
 _atom_site_label
 _atom_site_symmetry_multiplicity
 _atom_site_fract_x
 _atom_site_fract_y
 _atom_site_fract_z
 _atom_site_occupancy
  Er  Er0  1  0.000002  0.999937  0.997366  1
  Er  Er1  1  0.499993  0.500062  0.164862  1
  Er  Er2  1  0.999999  0.999955  0.333355  1
  Er  Er3  1  0.500015  0.500047  0.501782  1
  Er  Er4  1  0.000012  0.999954  0.669280  1
  Mg  Mg5  1  0.500007  0.499992  0.833338  1
  Rh  Rh6  1  0.499985  0.255353  0.995828  1
  Rh  Rh7  1  0.499997  0.744632  0.995846  1
  Rh  Rh8  1  0.000005  0.249635  0.165429  1
  Rh  Rh9  1  0.999983  0.750376  0.165392  1
  Rh  Rh10  1  0.500029  0.249854  0.333326  1
  Rh  Rh11  1  0.500010  0.750198  0.333355  1
  Rh  Rh12  1  0.000002  0.249651  0.501220  1
  Rh  Rh13  1  0.000007  0.750362  0.501249  1
  Rh  Rh14  1  0.499982  0.255464  0.670840  1
  Rh  Rh15  1  0.500008  0.744529  0.670801  1
  Rh  Rh16  1  0.000004  0.252382  0.833339  1
  Rh  Rh17  1  0.000003  0.747634  0.833337  1
  Pb  Pb18  1  0.000001  0.499977  0.995043  1
  Pb  Pb19  1  0.499982  0.000007  0.163723  1
  Pb  Pb20  1  0.000019  0.499961  0.333330  1
  Pb  Pb21  1  0.499994  0.000003  0.502996  1
  Pb  Pb22  1  0.999995  0.499979  0.671596  1
  Pb  Pb23  1  0.499960  0.000056  0.833368  1
