# generated using pymatgen
data_Dy4Fe(Si2Pt)5
_symmetry_space_group_name_H-M   'P 1'
_cell_length_a   8.12710409
_cell_length_b   8.12710310
_cell_length_c   8.12710331
_cell_angle_alpha   137.14532954
_cell_angle_beta   104.19696259
_cell_angle_gamma   91.24127896
_symmetry_Int_Tables_number   1
_chemical_formula_structural   Dy4Fe(Si2Pt)5
_chemical_formula_sum   'Dy4 Fe1 Si10 Pt5'
_cell_volume   337.02031014
_cell_formula_units_Z   1
loop_
 _symmetry_equiv_pos_site_id
 _symmetry_equiv_pos_as_xyz
  1  'x, y, z'
loop_
 _atom_site_type_symbol
 _atom_site_label
 _atom_site_symmetry_multiplicity
 _atom_site_fract_x
 _atom_site_fract_y
 _atom_site_fract_z
 _atom_site_occupancy
  Dy  Dy0  1  0.102080  0.870177  0.230965  1
  Dy  Dy1  1  0.897920  0.128885  0.768098  1
  Dy  Dy2  1  0.360788  0.629823  0.731902  1
  Dy  Dy3  1  0.639212  0.371115  0.269035  1
  Fe  Fe4  1  0.500000  0.750000  0.250000  1
  Si  Si5  1  0.000000  0.750000  0.750000  1
  Si  Si6  1  0.000000  0.250000  0.250000  1
  Si  Si7  1  0.273462  0.023462  0.750000  1
  Si  Si8  1  0.726538  0.476538  0.750000  1
  Si  Si9  1  0.722445  0.972445  0.250000  1
  Si  Si10  1  0.277555  0.527555  0.250000  1
  Si  Si11  1  0.753371  0.620203  0.164394  1
  Si  Si12  1  0.455810  0.088978  0.335606  1
  Si  Si13  1  0.544190  0.879797  0.633169  1
  Si  Si14  1  0.246629  0.411022  0.866831  1
  Pt  Pt15  1  0.253771  0.140037  0.116803  1
  Pt  Pt16  1  0.500000  0.250000  0.750000  1
  Pt  Pt17  1  0.023234  0.636968  0.383197  1
  Pt  Pt18  1  0.976766  0.359963  0.613734  1
  Pt  Pt19  1  0.746229  0.863032  0.886266  1
