# generated using pymatgen
data_LaPr2In2Sn3
_symmetry_space_group_name_H-M   'P 1'
_cell_length_a   6.67492000
_cell_length_b   6.67492035
_cell_length_c   10.52500300
_cell_angle_alpha   90.00000000
_cell_angle_beta   90.00000000
_cell_angle_gamma   103.12107809
_symmetry_Int_Tables_number   1
_chemical_formula_structural   LaPr2In2Sn3
_chemical_formula_sum   'La2 Pr4 In4 Sn6'
_cell_volume   456.69411074
_cell_formula_units_Z   2
loop_
 _symmetry_equiv_pos_site_id
 _symmetry_equiv_pos_as_xyz
  1  'x, y, z'
loop_
 _atom_site_type_symbol
 _atom_site_label
 _atom_site_symmetry_multiplicity
 _atom_site_fract_x
 _atom_site_fract_y
 _atom_site_fract_z
 _atom_site_occupancy
  La  La0  1  0.797035  0.202965  0.500000  1
  La  La1  1  0.797035  0.202965  0.000000  1
  Pr  Pr2  1  0.635043  0.635443  0.250000  1
  Pr  Pr3  1  0.364557  0.364957  0.750000  1
  Pr  Pr4  1  0.202479  0.797521  0.500000  1
  Pr  Pr5  1  0.202479  0.797521  0.000000  1
  In  In6  1  0.310916  0.310556  0.046517  1
  In  In7  1  0.689444  0.689084  0.953483  1
  In  In8  1  0.310916  0.310556  0.453483  1
  In  In9  1  0.689444  0.689084  0.546517  1
  Sn  Sn10  1  0.020004  0.018950  0.250000  1
  Sn  Sn11  1  0.981050  0.979996  0.750000  1
  Sn  Sn12  1  0.491137  0.073090  0.250000  1
  Sn  Sn13  1  0.926910  0.508863  0.750000  1
  Sn  Sn14  1  0.507272  0.925719  0.750000  1
  Sn  Sn15  1  0.074281  0.492728  0.250000  1
