# generated using pymatgen
data_Sm2Dy(HoRh6)3
_symmetry_space_group_name_H-M   'P 1'
_cell_length_a   5.29119778
_cell_length_b   5.29076345
_cell_length_c   17.54166400
_cell_angle_alpha   90.00070632
_cell_angle_beta   89.99946166
_cell_angle_gamma   119.98211288
_symmetry_Int_Tables_number   1
_chemical_formula_structural   Sm2Dy(HoRh6)3
_chemical_formula_sum   'Sm2 Dy1 Ho3 Rh18'
_cell_volume   425.35545747
_cell_formula_units_Z   1
loop_
 _symmetry_equiv_pos_site_id
 _symmetry_equiv_pos_as_xyz
  1  'x, y, z'
loop_
 _atom_site_type_symbol
 _atom_site_label
 _atom_site_symmetry_multiplicity
 _atom_site_fract_x
 _atom_site_fract_y
 _atom_site_fract_z
 _atom_site_occupancy
  Sm  Sm0  1  0.333324  0.666676  0.750093  1
  Sm  Sm1  1  0.666669  0.333334  0.249988  1
  Dy  Dy2  1  0.333343  0.666665  0.541813  1
  Ho  Ho3  1  0.333337  0.666677  0.958071  1
  Ho  Ho4  1  0.666662  0.333332  0.041891  1
  Ho  Ho5  1  0.666661  0.333325  0.457980  1
  Rh  Rh6  1  0.167466  0.832539  0.374630  1
  Rh  Rh7  1  0.167472  0.334917  0.374641  1
  Rh  Rh8  1  0.665099  0.832556  0.374640  1
  Rh  Rh9  1  0.832607  0.167407  0.625417  1
  Rh  Rh10  1  0.832595  0.665215  0.625409  1
  Rh  Rh11  1  0.334783  0.167398  0.625410  1
  Rh  Rh12  1  0.832609  0.167367  0.874773  1
  Rh  Rh13  1  0.832609  0.665242  0.874782  1
  Rh  Rh14  1  0.334756  0.167383  0.874784  1
  Rh  Rh15  1  0.167435  0.832588  0.125238  1
  Rh  Rh16  1  0.167431  0.334820  0.125235  1
  Rh  Rh17  1  0.665177  0.832574  0.125228  1
  Rh  Rh18  1  0.333398  0.666646  0.250026  1
  Rh  Rh19  1  0.666619  0.333346  0.750009  1
  Rh  Rh20  1  0.999938  0.000022  0.249962  1
  Rh  Rh21  1  0.000029  0.999967  0.750029  1
  Rh  Rh22  1  0.000001  0.999996  0.499954  1
  Rh  Rh23  1  0.999978  0.000007  0.999997  1
