# generated using pymatgen
data_Zr6Co16Si6Mo
_symmetry_space_group_name_H-M   'P 1'
_cell_length_a   8.13783625
_cell_length_b   8.13783662
_cell_length_c   8.13783500
_cell_angle_alpha   60.00000254
_cell_angle_beta   60.00000103
_cell_angle_gamma   60.00000219
_symmetry_Int_Tables_number   1
_chemical_formula_structural   Zr6Co16Si6Mo
_chemical_formula_sum   'Zr6 Co16 Si6 Mo1'
_cell_volume   381.07619010
_cell_formula_units_Z   1
loop_
 _symmetry_equiv_pos_site_id
 _symmetry_equiv_pos_as_xyz
  1  'x, y, z'
loop_
 _atom_site_type_symbol
 _atom_site_label
 _atom_site_symmetry_multiplicity
 _atom_site_fract_x
 _atom_site_fract_y
 _atom_site_fract_z
 _atom_site_occupancy
  Zr  Zr0  1  0.707548  0.292452  0.292452  1
  Zr  Zr1  1  0.292452  0.292452  0.707548  1
  Zr  Zr2  1  0.292452  0.707548  0.707548  1
  Zr  Zr3  1  0.707548  0.707548  0.292452  1
  Zr  Zr4  1  0.292452  0.707548  0.292452  1
  Zr  Zr5  1  0.707548  0.292452  0.707548  1
  Co  Co6  1  0.121415  0.121415  0.635757  1
  Co  Co7  1  0.672933  0.981200  0.672933  1
  Co  Co8  1  0.364243  0.878585  0.878585  1
  Co  Co9  1  0.018800  0.327067  0.327067  1
  Co  Co10  1  0.981200  0.672933  0.672933  1
  Co  Co11  1  0.327067  0.327067  0.018800  1
  Co  Co12  1  0.672933  0.672933  0.981200  1
  Co  Co13  1  0.635757  0.121415  0.121415  1
  Co  Co14  1  0.672933  0.672933  0.672933  1
  Co  Co15  1  0.878585  0.878585  0.364243  1
  Co  Co16  1  0.121415  0.121415  0.121415  1
  Co  Co17  1  0.878585  0.364243  0.878585  1
  Co  Co18  1  0.878585  0.878585  0.878585  1
  Co  Co19  1  0.327067  0.327067  0.327067  1
  Co  Co20  1  0.121415  0.635757  0.121415  1
  Co  Co21  1  0.327067  0.018800  0.327067  1
  Si  Si22  1  0.000000  0.500000  0.000000  1
  Si  Si23  1  0.000000  0.000000  0.500000  1
  Si  Si24  1  0.500000  0.500000  0.000000  1
  Si  Si25  1  0.500000  0.000000  0.500000  1
  Si  Si26  1  0.500000  0.000000  0.000000  1
  Si  Si27  1  0.000000  0.500000  0.500000  1
  Mo  Mo28  1  0.000000  0.000000  0.000000  1
