# generated using pymatgen
data_Er12InFe2CoNiAg
_symmetry_space_group_name_H-M   'P 1'
_cell_length_a   8.28215423
_cell_length_b   8.28215460
_cell_length_c   8.28215400
_cell_angle_alpha   110.78901273
_cell_angle_beta   110.35086247
_cell_angle_gamma   107.29576389
_symmetry_Int_Tables_number   1
_chemical_formula_structural   Er12InFe2CoNiAg
_chemical_formula_sum   'Er12 In1 Fe2 Co1 Ni1 Ag1'
_cell_volume   436.85148728
_cell_formula_units_Z   1
loop_
 _symmetry_equiv_pos_site_id
 _symmetry_equiv_pos_as_xyz
  1  'x, y, z'
loop_
 _atom_site_type_symbol
 _atom_site_label
 _atom_site_symmetry_multiplicity
 _atom_site_fract_x
 _atom_site_fract_y
 _atom_site_fract_z
 _atom_site_occupancy
  Er  Er0  1  0.186395  0.292359  0.478754  1
  Er  Er1  1  0.812577  0.708559  0.521136  1
  Er  Er2  1  0.186395  0.707641  0.894036  1
  Er  Er3  1  0.812577  0.291441  0.104017  1
  Er  Er4  1  0.315352  0.615440  0.302925  1
  Er  Er5  1  0.687486  0.384560  0.699913  1
  Er  Er6  1  0.315352  0.012427  0.699913  1
  Er  Er7  1  0.687486  0.987573  0.302925  1
  Er  Er8  1  0.430910  0.224600  0.206310  1
  Er  Er9  1  0.569974  0.776901  0.793073  1
  Er  Er10  1  0.016171  0.223099  0.793073  1
  Er  Er11  1  0.981711  0.775400  0.206310  1
  In  In12  1  0.499864  0.500000  0.999864  1
  Fe  Fe13  1  0.109385  0.609427  0.499958  1
  Fe  Fe14  1  0.890531  0.390573  0.499958  1
  Co  Co15  1  0.622151  0.000000  0.622151  1
  Ni  Ni16  1  0.375850  0.000000  0.375850  1
  Ag  Ag17  1  0.999834  0.000000  0.999834  1
