# generated using pymatgen
data_Hf8Mn3Fe3(Si8Ru3)2
_symmetry_space_group_name_H-M   'P 1'
_cell_length_a   9.77243839
_cell_length_b   9.77156418
_cell_length_c   13.11438020
_cell_angle_alpha   53.77295341
_cell_angle_beta   53.78367433
_cell_angle_gamma   31.12882897
_symmetry_Int_Tables_number   1
_chemical_formula_structural   Hf8Mn3Fe3(Si8Ru3)2
_chemical_formula_sum   'Hf8 Mn3 Fe3 Si16 Ru6'
_cell_volume   511.29904866
_cell_formula_units_Z   1
loop_
 _symmetry_equiv_pos_site_id
 _symmetry_equiv_pos_as_xyz
  1  'x, y, z'
loop_
 _atom_site_type_symbol
 _atom_site_label
 _atom_site_symmetry_multiplicity
 _atom_site_fract_x
 _atom_site_fract_y
 _atom_site_fract_z
 _atom_site_occupancy
  Hf  Hf0  1  0.290496  0.563336  0.649683  1
  Hf  Hf1  1  0.436372  0.709630  0.852341  1
  Hf  Hf2  1  0.708625  0.443672  0.353022  1
  Hf  Hf3  1  0.558566  0.293503  0.143652  1
  Hf  Hf4  1  0.037790  0.293613  0.638409  1
  Hf  Hf5  1  0.705344  0.960660  0.862414  1
  Hf  Hf6  1  0.960640  0.704134  0.360126  1
  Hf  Hf7  1  0.295646  0.041636  0.138010  1
  Mn  Mn8  1  0.656853  0.822047  0.278940  1
  Mn  Mn9  1  0.177673  0.344051  0.220077  1
  Mn  Mn10  1  0.759510  0.483779  0.064885  1
  Fe  Fe11  1  0.826267  0.648265  0.780804  1
  Fe  Fe12  1  0.900845  0.142536  0.584521  1
  Fe  Fe13  1  0.858277  0.100651  0.915811  1
  Si  Si14  1  0.873129  0.132871  0.246122  1
  Si  Si15  1  0.109853  0.889718  0.750706  1
  Si  Si16  1  0.393528  0.612818  0.246079  1
  Si  Si17  1  0.627635  0.371385  0.750857  1
  Si  Si18  1  0.957581  0.266500  0.894265  1
  Si  Si19  1  0.747340  0.031963  0.608370  1
  Si  Si20  1  0.021869  0.740855  0.107912  1
  Si  Si21  1  0.258885  0.977800  0.391770  1
  Si  Si22  1  0.574992  0.082899  0.067508  1
  Si  Si23  1  0.916429  0.426451  0.431755  1
  Si  Si24  1  0.438121  0.903540  0.936205  1
  Si  Si25  1  0.077755  0.577429  0.568767  1
  Si  Si26  1  0.389467  0.142182  0.389631  1
  Si  Si27  1  0.857778  0.607668  0.107691  1
  Si  Si28  1  0.615197  0.855383  0.604615  1
  Si  Si29  1  0.128267  0.391404  0.899984  1
  Ru  Ru30  1  0.106583  0.855782  0.415548  1
  Ru  Ru31  1  0.144622  0.892801  0.083394  1
  Ru  Ru32  1  0.239393  0.517796  0.931759  1
  Ru  Ru33  1  0.481189  0.760508  0.568235  1
  Ru  Ru34  1  0.516086  0.239686  0.433602  1
  Ru  Ru35  1  0.351401  0.171049  0.722528  1
