# generated using pymatgen
data_Yb2HoSc(Pt2O7)2
_symmetry_space_group_name_H-M   'P 1'
_cell_length_a   7.21380780
_cell_length_b   7.21380775
_cell_length_c   7.13711515
_cell_angle_alpha   60.13353442
_cell_angle_beta   60.13353412
_cell_angle_gamma   60.24999461
_symmetry_Int_Tables_number   1
_chemical_formula_structural   Yb2HoSc(Pt2O7)2
_chemical_formula_sum   'Yb2 Ho1 Sc1 Pt4 O14'
_cell_volume   263.64988586
_cell_formula_units_Z   1
loop_
 _symmetry_equiv_pos_site_id
 _symmetry_equiv_pos_as_xyz
  1  'x, y, z'
loop_
 _atom_site_type_symbol
 _atom_site_label
 _atom_site_symmetry_multiplicity
 _atom_site_fract_x
 _atom_site_fract_y
 _atom_site_fract_z
 _atom_site_occupancy
  Yb  Yb0  1  0.625000  0.125000  0.625000  1
  Yb  Yb1  1  0.125000  0.625000  0.625000  1
  Ho  Ho2  1  0.625000  0.625000  0.625000  1
  Sc  Sc3  1  0.625000  0.625000  0.125000  1
  Pt  Pt4  1  0.625000  0.125000  0.125000  1
  Pt  Pt5  1  0.125000  0.125000  0.125000  1
  Pt  Pt6  1  0.125000  0.625000  0.125000  1
  Pt  Pt7  1  0.125000  0.125000  0.625000  1
  O  O8  1  0.030164  0.463033  0.462322  1
  O  O9  1  0.786594  0.786594  0.209015  1
  O  O10  1  0.787535  0.224644  0.199537  1
  O  O11  1  0.025356  0.462465  0.050463  1
  O  O12  1  0.463033  0.030164  0.462322  1
  O  O13  1  0.738489  0.738489  0.774544  1
  O  O14  1  0.037496  0.037496  0.462278  1
  O  O15  1  0.786967  0.219836  0.787678  1
  O  O16  1  0.511511  0.511511  0.475456  1
  O  O17  1  0.212504  0.212504  0.787722  1
  O  O18  1  0.224644  0.787535  0.199537  1
  O  O19  1  0.462465  0.025356  0.050463  1
  O  O20  1  0.463406  0.463406  0.040985  1
  O  O21  1  0.219836  0.786967  0.787678  1
