# generated using pymatgen
data_Tm3ZrIn2Ir3
_symmetry_space_group_name_H-M   'P 1'
_cell_length_a   7.38582300
_cell_length_b   7.16559210
_cell_length_c   4.16347300
_cell_angle_alpha   90.00000000
_cell_angle_beta   90.00000000
_cell_angle_gamma   119.01842717
_symmetry_Int_Tables_number   1
_chemical_formula_structural   Tm3ZrIn2Ir3
_chemical_formula_sum   'Tm3 Zr1 In2 Ir3'
_cell_volume   192.68527927
_cell_formula_units_Z   1
loop_
 _symmetry_equiv_pos_site_id
 _symmetry_equiv_pos_as_xyz
  1  'x, y, z'
loop_
 _atom_site_type_symbol
 _atom_site_label
 _atom_site_symmetry_multiplicity
 _atom_site_fract_x
 _atom_site_fract_y
 _atom_site_fract_z
 _atom_site_occupancy
  Tm  Tm0  1  0.582683  0.587358  0.000000  1
  Tm  Tm1  1  0.417317  0.004675  0.000000  1
  Tm  Tm2  1  0.000000  0.394802  0.000000  1
  Zr  Zr3  1  0.000000  0.751442  0.500000  1
  In  In4  1  0.254830  0.254303  0.500000  1
  In  In5  1  0.745170  0.999473  0.500000  1
  Ir  Ir6  1  0.000000  0.983236  0.000000  1
  Ir  Ir7  1  0.676892  0.350801  0.500000  1
  Ir  Ir8  1  0.323108  0.673909  0.500000  1
