# generated using pymatgen
data_Th2InSbTe2
_symmetry_space_group_name_H-M   'P 1'
_cell_length_a   4.37738300
_cell_length_b   4.37738300
_cell_length_c   9.40424900
_cell_angle_alpha   90.00000000
_cell_angle_beta   90.00000000
_cell_angle_gamma   90.00000000
_symmetry_Int_Tables_number   1
_chemical_formula_structural   Th2InSbTe2
_chemical_formula_sum   'Th2 In1 Sb1 Te2'
_cell_volume   180.19934727
_cell_formula_units_Z   1
loop_
 _symmetry_equiv_pos_site_id
 _symmetry_equiv_pos_as_xyz
  1  'x, y, z'
loop_
 _atom_site_type_symbol
 _atom_site_label
 _atom_site_symmetry_multiplicity
 _atom_site_fract_x
 _atom_site_fract_y
 _atom_site_fract_z
 _atom_site_occupancy
  Th  Th0  1  0.000000  0.500000  0.730043  1
  Th  Th1  1  0.500000  0.000000  0.269957  1
  In  In2  1  0.000000  0.000000  0.000000  1
  Sb  Sb3  1  0.500000  0.500000  0.000000  1
  Te  Te4  1  0.000000  0.500000  0.371796  1
  Te  Te5  1  0.500000  0.000000  0.628204  1
