# generated using pymatgen
data_Nd17Pa3Ir15Rh
_symmetry_space_group_name_H-M   'P 1'
_cell_length_a   7.63127614
_cell_length_b   7.68842380
_cell_length_c   14.90778057
_cell_angle_alpha   90.10846431
_cell_angle_beta   90.13822401
_cell_angle_gamma   89.99335803
_symmetry_Int_Tables_number   1
_chemical_formula_structural   Nd17Pa3Ir15Rh
_chemical_formula_sum   'Nd17 Pa3 Ir15 Rh1'
_cell_volume   874.67241547
_cell_formula_units_Z   1
loop_
 _symmetry_equiv_pos_site_id
 _symmetry_equiv_pos_as_xyz
  1  'x, y, z'
loop_
 _atom_site_type_symbol
 _atom_site_label
 _atom_site_symmetry_multiplicity
 _atom_site_fract_x
 _atom_site_fract_y
 _atom_site_fract_z
 _atom_site_occupancy
  Nd  Nd0  1  0.836625  0.664371  0.378832  1
  Nd  Nd1  1  0.338532  0.835663  0.378539  1
  Nd  Nd2  1  0.838476  0.664555  0.119164  1
  Nd  Nd3  1  0.660820  0.163518  0.880892  1
  Nd  Nd4  1  0.161269  0.335048  0.621364  1
  Nd  Nd5  1  0.514383  0.682918  0.592491  1
  Nd  Nd6  1  0.016456  0.815424  0.905527  1
  Nd  Nd7  1  0.485674  0.319194  0.095463  1
  Nd  Nd8  1  0.987550  0.188305  0.408096  1
  Nd  Nd9  1  0.486103  0.318238  0.409598  1
  Nd  Nd10  1  0.986905  0.177077  0.091069  1
  Nd  Nd11  1  0.511128  0.676935  0.909235  1
  Nd  Nd12  1  0.011347  0.821318  0.591439  1
  Nd  Nd13  1  0.819222  0.514842  0.749433  1
  Nd  Nd14  1  0.321062  0.983332  0.750988  1
  Nd  Nd15  1  0.173082  0.489138  0.250381  1
  Nd  Nd16  1  0.682166  0.010848  0.251226  1
  Pa  Pa17  1  0.658624  0.158359  0.625673  1
  Pa  Pa18  1  0.159762  0.339016  0.876874  1
  Pa  Pa19  1  0.338614  0.837763  0.122239  1
  Ir  Ir20  1  0.693467  0.973502  0.470737  1
  Ir  Ir21  1  0.201261  0.546222  0.030438  1
  Ir  Ir22  1  0.296813  0.049980  0.967282  1
  Ir  Ir23  1  0.798540  0.437442  0.541555  1
  Ir  Ir24  1  0.343326  0.033609  0.547907  1
  Ir  Ir25  1  0.852403  0.461176  0.952427  1
  Ir  Ir26  1  0.641415  0.960481  0.047908  1
  Ir  Ir27  1  0.168614  0.530251  0.455433  1
  Ir  Ir28  1  0.456923  0.368297  0.752304  1
  Ir  Ir29  1  0.961138  0.130885  0.753716  1
  Ir  Ir30  1  0.532671  0.625214  0.241604  1
  Ir  Ir31  1  0.058421  0.884648  0.236711  1
  Ir  Ir32  1  0.707429  0.882109  0.741262  1
  Ir  Ir33  1  0.204191  0.619427  0.759038  1
  Ir  Ir34  1  0.308956  0.132559  0.244391  1
  Rh  Rh35  1  0.786630  0.368337  0.248760  1
