# generated using pymatgen
data_Al5Ga(CuPt2)6
_symmetry_space_group_name_H-M   'P 1'
_cell_length_a   4.02909700
_cell_length_b   6.95656600
_cell_length_c   12.08652500
_cell_angle_alpha   90.00004841
_cell_angle_beta   89.99974402
_cell_angle_gamma   89.99994685
_symmetry_Int_Tables_number   1
_chemical_formula_structural   Al5Ga(CuPt2)6
_chemical_formula_sum   'Al5 Ga1 Cu6 Pt12'
_cell_volume   338.76933188
_cell_formula_units_Z   1
loop_
 _symmetry_equiv_pos_site_id
 _symmetry_equiv_pos_as_xyz
  1  'x, y, z'
loop_
 _atom_site_type_symbol
 _atom_site_label
 _atom_site_symmetry_multiplicity
 _atom_site_fract_x
 _atom_site_fract_y
 _atom_site_fract_z
 _atom_site_occupancy
  Al  Al0  1  0.999998  0.000000  0.999995  1
  Al  Al1  1  0.500210  0.500000  0.166758  1
  Al  Al2  1  0.000203  0.000000  0.333341  1
  Al  Al3  1  0.499999  0.500000  0.499902  1
  Al  Al4  1  0.999794  0.000000  0.666664  1
  Ga  Ga5  1  0.499785  0.500000  0.833343  1
  Cu  Cu6  1  0.000000  0.500000  0.001108  1
  Cu  Cu7  1  0.500182  0.000000  0.166356  1
  Cu  Cu8  1  0.000181  0.500000  0.333324  1
  Cu  Cu9  1  0.499999  0.000000  0.500319  1
  Cu  Cu10  1  0.999812  0.500000  0.665571  1
  Cu  Cu11  1  0.499818  0.000000  0.833324  1
  Pt  Pt12  1  0.500003  0.248824  0.000792  1
  Pt  Pt13  1  0.500003  0.751176  0.000792  1
  Pt  Pt14  1  0.000167  0.249956  0.166778  1
  Pt  Pt15  1  0.000168  0.750044  0.166778  1
  Pt  Pt16  1  0.500168  0.249985  0.333334  1
  Pt  Pt17  1  0.500167  0.750016  0.333334  1
  Pt  Pt18  1  0.999999  0.249978  0.499888  1
  Pt  Pt19  1  0.999999  0.750022  0.499888  1
  Pt  Pt20  1  0.499832  0.248845  0.665872  1
  Pt  Pt21  1  0.499831  0.751155  0.665872  1
  Pt  Pt22  1  0.999841  0.247223  0.833334  1
  Pt  Pt23  1  0.999841  0.752777  0.833334  1
