# generated using pymatgen
data_ErAl10RuRh
_symmetry_space_group_name_H-M   'P 1'
_cell_length_a   6.84454231
_cell_length_b   6.84328703
_cell_length_c   9.15156400
_cell_angle_alpha   90.00000000
_cell_angle_beta   90.00000000
_cell_angle_gamma   96.98151638
_symmetry_Int_Tables_number   1
_chemical_formula_structural   ErAl10RuRh
_chemical_formula_sum   'Er2 Al20 Ru2 Rh2'
_cell_volume   425.47336649
_cell_formula_units_Z   2
loop_
 _symmetry_equiv_pos_site_id
 _symmetry_equiv_pos_as_xyz
  1  'x, y, z'
loop_
 _atom_site_type_symbol
 _atom_site_label
 _atom_site_symmetry_multiplicity
 _atom_site_fract_x
 _atom_site_fract_y
 _atom_site_fract_z
 _atom_site_occupancy
  Er  Er0  1  0.869483  0.125506  0.750000  1
  Er  Er1  1  0.130517  0.874494  0.250000  1
  Al  Al2  1  0.621490  0.375274  0.550167  1
  Al  Al3  1  0.378510  0.624726  0.449833  1
  Al  Al4  1  0.378510  0.624726  0.050167  1
  Al  Al5  1  0.621490  0.375274  0.949833  1
  Al  Al6  1  0.225167  0.223412  0.499188  1
  Al  Al7  1  0.774833  0.776588  0.500812  1
  Al  Al8  1  0.774833  0.776588  0.999188  1
  Al  Al9  1  0.225167  0.223412  0.000812  1
  Al  Al10  1  0.845051  0.153656  0.101068  1
  Al  Al11  1  0.154949  0.846344  0.898932  1
  Al  Al12  1  0.154949  0.846344  0.601068  1
  Al  Al13  1  0.845051  0.153656  0.398932  1
  Al  Al14  1  0.856759  0.587991  0.750000  1
  Al  Al15  1  0.143241  0.412009  0.250000  1
  Al  Al16  1  0.413451  0.141151  0.750000  1
  Al  Al17  1  0.586549  0.858849  0.250000  1
  Al  Al18  1  0.224783  0.480354  0.750000  1
  Al  Al19  1  0.775217  0.519646  0.250000  1
  Al  Al20  1  0.519399  0.777490  0.750000  1
  Al  Al21  1  0.480601  0.222510  0.250000  1
  Ru  Ru22  1  0.500000  0.000000  0.000000  1
  Ru  Ru23  1  0.500000  0.000000  0.500000  1
  Rh  Rh24  1  0.000000  0.500000  0.500000  1
  Rh  Rh25  1  0.000000  0.500000  0.000000  1
