# generated using pymatgen
data_Lu2P7Ru11Pt
_symmetry_space_group_name_H-M   'P 1'
_cell_length_a   9.33205945
_cell_length_b   9.44756950
_cell_length_c   3.93817000
_cell_angle_alpha   90.00000000
_cell_angle_beta   90.00000000
_cell_angle_gamma   119.31174458
_symmetry_Int_Tables_number   1
_chemical_formula_structural   Lu2P7Ru11Pt
_chemical_formula_sum   'Lu2 P7 Ru11 Pt1'
_cell_volume   302.75621491
_cell_formula_units_Z   1
loop_
 _symmetry_equiv_pos_site_id
 _symmetry_equiv_pos_as_xyz
  1  'x, y, z'
loop_
 _atom_site_type_symbol
 _atom_site_label
 _atom_site_symmetry_multiplicity
 _atom_site_fract_x
 _atom_site_fract_y
 _atom_site_fract_z
 _atom_site_occupancy
  Lu  Lu0  1  0.670832  0.336896  0.500000  1
  Lu  Lu1  1  0.328191  0.657854  0.000000  1
  P  P2  1  0.597246  0.704750  0.500000  1
  P  P3  1  0.997777  0.000824  0.000000  1
  P  P4  1  0.270882  0.876353  0.500000  1
  P  P5  1  0.119233  0.402457  0.500000  1
  P  P6  1  0.886767  0.580284  0.000000  1
  P  P7  1  0.427792  0.308460  0.000000  1
  P  P8  1  0.706180  0.128628  0.000000  1
  Ru  Ru9  1  0.390051  0.439182  0.500000  1
  Ru  Ru10  1  0.909876  0.129108  0.500000  1
  Ru  Ru11  1  0.211926  0.086537  0.500000  1
  Ru  Ru12  1  0.875534  0.793793  0.500000  1
  Ru  Ru13  1  0.723249  0.893178  0.000000  1
  Ru  Ru14  1  0.112374  0.839838  0.000000  1
  Ru  Ru15  1  0.163162  0.269953  0.000000  1
  Ru  Ru16  1  0.435922  0.069782  0.000000  1
  Ru  Ru17  1  0.938383  0.367330  0.000000  1
  Ru  Ru18  1  0.640155  0.573557  0.000000  1
  Ru  Ru19  1  0.053180  0.609187  0.500000  1
  Pt  Pt20  1  0.541288  0.932050  0.500000  1
