# generated using pymatgen
data_Zr3GaRe2Si2Ru
_symmetry_space_group_name_H-M   'P 1'
_cell_length_a   7.08765592
_cell_length_b   7.07549754
_cell_length_c   3.41683400
_cell_angle_alpha   90.00000000
_cell_angle_beta   90.00000000
_cell_angle_gamma   120.19258711
_symmetry_Int_Tables_number   1
_chemical_formula_structural   Zr3GaRe2Si2Ru
_chemical_formula_sum   'Zr3 Ga1 Re2 Si2 Ru1'
_cell_volume   148.10442676
_cell_formula_units_Z   1
loop_
 _symmetry_equiv_pos_site_id
 _symmetry_equiv_pos_as_xyz
  1  'x, y, z'
loop_
 _atom_site_type_symbol
 _atom_site_label
 _atom_site_symmetry_multiplicity
 _atom_site_fract_x
 _atom_site_fract_y
 _atom_site_fract_z
 _atom_site_occupancy
  Zr  Zr0  1  0.393956  0.401247  0.500000  1
  Zr  Zr1  1  0.594251  0.998160  0.500000  1
  Zr  Zr2  1  0.012498  0.599937  0.500000  1
  Ga  Ga3  1  0.667451  0.337457  0.000000  1
  Re  Re4  1  0.005873  0.254040  0.000000  1
  Re  Re5  1  0.247710  0.992952  0.000000  1
  Si  Si6  1  0.996775  0.996156  0.500000  1
  Si  Si7  1  0.336202  0.668006  0.000000  1
  Ru  Ru8  1  0.745284  0.752046  0.000000  1
