# generated using pymatgen
data_Hf8Si5Tc2GeN2
_symmetry_space_group_name_H-M   'P 1'
_cell_length_a   7.72536322
_cell_length_b   7.73035570
_cell_length_c   5.40941586
_cell_angle_alpha   90.03221410
_cell_angle_beta   89.93553757
_cell_angle_gamma   119.97863849
_symmetry_Int_Tables_number   1
_chemical_formula_structural   Hf8Si5Tc2GeN2
_chemical_formula_sum   'Hf8 Si5 Tc2 Ge1 N2'
_cell_volume   279.82889326
_cell_formula_units_Z   1
loop_
 _symmetry_equiv_pos_site_id
 _symmetry_equiv_pos_as_xyz
  1  'x, y, z'
loop_
 _atom_site_type_symbol
 _atom_site_label
 _atom_site_symmetry_multiplicity
 _atom_site_fract_x
 _atom_site_fract_y
 _atom_site_fract_z
 _atom_site_occupancy
  Hf  Hf0  1  0.234283  0.000000  0.249799  1
  Hf  Hf1  1  0.765768  0.000000  0.751395  1
  Hf  Hf2  1  0.002873  0.236516  0.250450  1
  Hf  Hf3  1  0.000229  0.765179  0.749157  1
  Hf  Hf4  1  0.766358  0.763484  0.250450  1
  Hf  Hf5  1  0.235049  0.234821  0.749157  1
  Hf  Hf6  1  0.668064  0.337567  0.500853  1
  Hf  Hf7  1  0.330496  0.662433  0.500853  1
  Si  Si8  1  0.407539  0.000000  0.769007  1
  Si  Si9  1  0.000591  0.591566  0.224999  1
  Si  Si10  1  0.998741  0.407392  0.774447  1
  Si  Si11  1  0.409025  0.408434  0.224999  1
  Si  Si12  1  0.591350  0.592608  0.774447  1
  Tc  Tc13  1  0.328445  0.659692  0.997881  1
  Tc  Tc14  1  0.668754  0.340308  0.997881  1
  Ge  Ge15  1  0.592797  0.000000  0.234414  1
  N  N16  1  0.999865  0.000000  0.000064  1
  N  N17  1  0.999774  0.000000  0.499747  1
