# generated using pymatgen
data_ScTa2Nb3(B2Ru5)2
_symmetry_space_group_name_H-M   'P 1'
_cell_length_a   9.47289911
_cell_length_b   9.47289990
_cell_length_c   3.04134900
_cell_angle_alpha   90.00000000
_cell_angle_beta   90.00000000
_cell_angle_gamma   89.96633467
_symmetry_Int_Tables_number   1
_chemical_formula_structural   ScTa2Nb3(B2Ru5)2
_chemical_formula_sum   'Sc1 Ta2 Nb3 B4 Ru10'
_cell_volume   272.91791461
_cell_formula_units_Z   1
loop_
 _symmetry_equiv_pos_site_id
 _symmetry_equiv_pos_as_xyz
  1  'x, y, z'
loop_
 _atom_site_type_symbol
 _atom_site_label
 _atom_site_symmetry_multiplicity
 _atom_site_fract_x
 _atom_site_fract_y
 _atom_site_fract_z
 _atom_site_occupancy
  Sc  Sc0  1  0.824244  0.675756  0.000000  1
  Ta  Ta1  1  0.501759  0.500986  0.000000  1
  Ta  Ta2  1  0.999014  0.998241  0.000000  1
  Nb  Nb3  1  0.176440  0.323560  0.000000  1
  Nb  Nb4  1  0.324278  0.822808  0.000000  1
  Nb  Nb5  1  0.677192  0.175722  0.000000  1
  B  B6  1  0.622048  0.877952  0.000000  1
  B  B7  1  0.378153  0.121847  0.000000  1
  B  B8  1  0.120284  0.620889  0.000000  1
  B  B9  1  0.879111  0.379716  0.000000  1
  Ru  Ru10  1  0.564687  0.720995  0.500000  1
  Ru  Ru11  1  0.427614  0.282539  0.500000  1
  Ru  Ru12  1  0.077022  0.782881  0.500000  1
  Ru  Ru13  1  0.929940  0.217337  0.500000  1
  Ru  Ru14  1  0.282663  0.570060  0.500000  1
  Ru  Ru15  1  0.717119  0.422978  0.500000  1
  Ru  Ru16  1  0.217461  0.072386  0.500000  1
  Ru  Ru17  1  0.779005  0.935313  0.500000  1
  Ru  Ru18  1  0.498447  0.001553  0.500000  1
  Ru  Ru19  1  0.003520  0.496480  0.500000  1
