# generated using pymatgen
data_ErPu5O12
_symmetry_space_group_name_H-M   'P 1'
_cell_length_a   6.57896126
_cell_length_b   6.57896210
_cell_length_c   7.58689700
_cell_angle_alpha   73.25801532
_cell_angle_beta   73.25801314
_cell_angle_gamma   48.24334396
_symmetry_Int_Tables_number   1
_chemical_formula_structural   ErPu5O12
_chemical_formula_sum   'Er1 Pu5 O12'
_cell_volume   232.44466737
_cell_formula_units_Z   1
loop_
 _symmetry_equiv_pos_site_id
 _symmetry_equiv_pos_as_xyz
  1  'x, y, z'
loop_
 _atom_site_type_symbol
 _atom_site_label
 _atom_site_symmetry_multiplicity
 _atom_site_fract_x
 _atom_site_fract_y
 _atom_site_fract_z
 _atom_site_occupancy
  Er  Er0  1  0.000112  0.999888  0.500000  1
  Pu  Pu1  1  0.999902  0.000098  0.000000  1
  Pu  Pu2  1  0.667281  0.667205  0.665361  1
  Pu  Pu3  1  0.334254  0.334480  0.831766  1
  Pu  Pu4  1  0.332795  0.332719  0.334639  1
  Pu  Pu5  1  0.665520  0.665746  0.168234  1
  O  O6  1  0.417363  0.918047  0.917186  1
  O  O7  1  0.917410  0.417537  0.916867  1
  O  O8  1  0.084998  0.579706  0.584832  1
  O  O9  1  0.252792  0.749424  0.753705  1
  O  O10  1  0.579788  0.083180  0.584600  1
  O  O11  1  0.748697  0.253014  0.752829  1
  O  O12  1  0.746986  0.251303  0.247171  1
  O  O13  1  0.916820  0.420212  0.415400  1
  O  O14  1  0.420294  0.915002  0.415168  1
  O  O15  1  0.250576  0.747208  0.246295  1
  O  O16  1  0.582463  0.082590  0.083133  1
  O  O17  1  0.081953  0.582637  0.082814  1
