# generated using pymatgen
data_La8Be3Si12Pd
_symmetry_space_group_name_H-M   'P 1'
_cell_length_a   8.10597800
_cell_length_b   8.10597761
_cell_length_c   8.88689000
_cell_angle_alpha   90.00000000
_cell_angle_beta   90.00000000
_cell_angle_gamma   119.99999342
_symmetry_Int_Tables_number   1
_chemical_formula_structural   La8Be3Si12Pd
_chemical_formula_sum   'La8 Be3 Si12 Pd1'
_cell_volume   505.69805787
_cell_formula_units_Z   1
loop_
 _symmetry_equiv_pos_site_id
 _symmetry_equiv_pos_as_xyz
  1  'x, y, z'
loop_
 _atom_site_type_symbol
 _atom_site_label
 _atom_site_symmetry_multiplicity
 _atom_site_fract_x
 _atom_site_fract_y
 _atom_site_fract_z
 _atom_site_occupancy
  La  La0  1  0.498933  0.501067  0.751903  1
  La  La1  1  0.499035  0.500965  0.248149  1
  La  La2  1  0.002134  0.501067  0.751903  1
  La  La3  1  0.001931  0.500965  0.248149  1
  La  La4  1  0.498933  0.997866  0.751903  1
  La  La5  1  0.499035  0.998069  0.248149  1
  La  La6  1  0.000000  0.000000  0.750366  1
  La  La7  1  0.000000  0.000000  0.249706  1
  Be  Be8  1  0.666667  0.333333  0.998948  1
  Be  Be9  1  0.333333  0.666667  0.001026  1
  Be  Be10  1  0.333333  0.666667  0.499429  1
  Si  Si11  1  0.827577  0.172423  0.000133  1
  Si  Si12  1  0.172068  0.827932  0.000004  1
  Si  Si13  1  0.344845  0.172423  0.000133  1
  Si  Si14  1  0.169825  0.830175  0.499886  1
  Si  Si15  1  0.655866  0.827932  0.000004  1
  Si  Si16  1  0.833894  0.166106  0.500114  1
  Si  Si17  1  0.827577  0.655155  0.000133  1
  Si  Si18  1  0.660349  0.830175  0.499886  1
  Si  Si19  1  0.172068  0.344134  0.000004  1
  Si  Si20  1  0.332214  0.166106  0.500114  1
  Si  Si21  1  0.169825  0.339651  0.499886  1
  Si  Si22  1  0.833894  0.667786  0.500114  1
  Pd  Pd23  1  0.666667  0.333333  0.499962  1
