# generated using pymatgen
data_Ho8Ta8Nb4Si15Ge
_symmetry_space_group_name_H-M   'P 1'
_cell_length_a   6.85711283
_cell_length_b   7.04511286
_cell_length_c   13.39351301
_cell_angle_alpha   90.04422882
_cell_angle_beta   89.92473089
_cell_angle_gamma   90.02187690
_symmetry_Int_Tables_number   1
_chemical_formula_structural   Ho8Ta8Nb4Si15Ge
_chemical_formula_sum   'Ho8 Ta8 Nb4 Si15 Ge1'
_cell_volume   647.02821296
_cell_formula_units_Z   1
loop_
 _symmetry_equiv_pos_site_id
 _symmetry_equiv_pos_as_xyz
  1  'x, y, z'
loop_
 _atom_site_type_symbol
 _atom_site_label
 _atom_site_symmetry_multiplicity
 _atom_site_fract_x
 _atom_site_fract_y
 _atom_site_fract_z
 _atom_site_occupancy
  Ho  Ho0  1  0.502383  0.328653  0.095674  1
  Ho  Ho1  1  0.001325  0.170979  0.403964  1
  Ho  Ho2  1  0.500723  0.673366  0.596387  1
  Ho  Ho3  1  0.997599  0.828346  0.904712  1
  Ho  Ho4  1  0.497699  0.671179  0.904669  1
  Ho  Ho5  1  0.997661  0.829514  0.595803  1
  Ho  Ho6  1  0.502707  0.327281  0.403588  1
  Ho  Ho7  1  0.002117  0.171703  0.095315  1
  Ta  Ta8  1  0.664631  0.008955  0.750153  1
  Ta  Ta9  1  0.164544  0.490172  0.752048  1
  Ta  Ta10  1  0.335105  0.991082  0.249714  1
  Ta  Ta11  1  0.835377  0.509274  0.249923  1
  Ta  Ta12  1  0.836552  0.324336  0.625702  1
  Ta  Ta13  1  0.338299  0.175046  0.874909  1
  Ta  Ta14  1  0.161679  0.675306  0.125164  1
  Ta  Ta15  1  0.661201  0.825267  0.374268  1
  Nb  Nb16  1  0.160527  0.677626  0.373186  1
  Nb  Nb17  1  0.661311  0.824759  0.125026  1
  Nb  Nb18  1  0.837742  0.324861  0.875046  1
  Nb  Nb19  1  0.340304  0.171306  0.626398  1
  Si  Si20  1  0.797704  0.627690  0.750169  1
  Si  Si21  1  0.296715  0.871230  0.750565  1
  Si  Si22  1  0.202730  0.372273  0.249714  1
  Si  Si23  1  0.702852  0.127724  0.249581  1
  Si  Si24  1  0.542652  0.377229  0.750048  1
  Si  Si25  1  0.042672  0.123089  0.750371  1
  Si  Si26  1  0.456932  0.622843  0.249619  1
  Si  Si27  1  0.956273  0.877654  0.249354  1
  Si  Si28  1  0.665442  0.037113  0.540153  1
  Si  Si29  1  0.164678  0.463279  0.959563  1
  Si  Si30  1  0.334878  0.963522  0.040533  1
  Si  Si31  1  0.831280  0.537412  0.458741  1
  Si  Si32  1  0.335431  0.963034  0.459305  1
  Si  Si33  1  0.836169  0.536591  0.041010  1
  Si  Si34  1  0.664007  0.036523  0.959210  1
  Ge  Ge35  1  0.170096  0.463786  0.540412  1
