# generated using pymatgen
data_Tm12Co4TcPb
_symmetry_space_group_name_H-M   'P 1'
_cell_length_a   8.19747512
_cell_length_b   8.19750998
_cell_length_c   8.19747400
_cell_angle_alpha   110.62333253
_cell_angle_beta   111.73740060
_cell_angle_gamma   106.10636093
_symmetry_Int_Tables_number   1
_chemical_formula_structural   Tm12Co4TcPb
_chemical_formula_sum   'Tm12 Co4 Tc1 Pb1'
_cell_volume   422.92271505
_cell_formula_units_Z   1
loop_
 _symmetry_equiv_pos_site_id
 _symmetry_equiv_pos_as_xyz
  1  'x, y, z'
loop_
 _atom_site_type_symbol
 _atom_site_label
 _atom_site_symmetry_multiplicity
 _atom_site_fract_x
 _atom_site_fract_y
 _atom_site_fract_z
 _atom_site_occupancy
  Tm  Tm0  1  0.280319  0.182333  0.462642  1
  Tm  Tm1  1  0.719681  0.817667  0.537358  1
  Tm  Tm2  1  0.280310  0.817667  0.097985  1
  Tm  Tm3  1  0.719690  0.182333  0.902015  1
  Tm  Tm4  1  0.618981  0.312178  0.306822  1
  Tm  Tm5  1  0.381019  0.687822  0.693178  1
  Tm  Tm6  1  0.005356  0.312178  0.693196  1
  Tm  Tm7  1  0.994644  0.687822  0.306804  1
  Tm  Tm8  1  0.219404  0.415326  0.195925  1
  Tm  Tm9  1  0.780596  0.584674  0.804075  1
  Tm  Tm10  1  0.219400  0.023488  0.804088  1
  Tm  Tm11  1  0.780600  0.976512  0.195912  1
  Co  Co12  1  0.999985  0.376380  0.376394  1
  Co  Co13  1  0.000015  0.623620  0.623606  1
  Co  Co14  1  0.388307  0.888334  0.500028  1
  Co  Co15  1  0.611693  0.111666  0.499972  1
  Tc  Tc16  1  0.000000  0.000000  0.000000  1
  Pb  Pb17  1  0.500000  0.500000  0.000000  1
