# generated using pymatgen
data_Cs4Na2TmGaAs4
_symmetry_space_group_name_H-M   'P 1'
_cell_length_a   9.82854201
_cell_length_b   9.82854300
_cell_length_c   9.82852053
_cell_angle_alpha   139.52156279
_cell_angle_beta   137.46837156
_cell_angle_gamma   60.16189062
_symmetry_Int_Tables_number   1
_chemical_formula_structural   Cs4Na2TmGaAs4
_chemical_formula_sum   'Cs4 Na2 Tm1 Ga1 As4'
_cell_volume   412.33054692
_cell_formula_units_Z   1
loop_
 _symmetry_equiv_pos_site_id
 _symmetry_equiv_pos_as_xyz
  1  'x, y, z'
loop_
 _atom_site_type_symbol
 _atom_site_label
 _atom_site_symmetry_multiplicity
 _atom_site_fract_x
 _atom_site_fract_y
 _atom_site_fract_z
 _atom_site_occupancy
  Cs  Cs0  1  0.095386  0.328891  0.774827  1
  Cs  Cs1  1  0.445968  0.171101  0.266515  1
  Cs  Cs2  1  0.904586  0.679454  0.233485  1
  Cs  Cs3  1  0.554064  0.820559  0.725173  1
  Na  Na4  1  0.500002  0.750002  0.250000  1
  Na  Na5  1  0.500000  0.250000  0.750000  1
  Tm  Tm6  1  0.999998  0.249998  0.250000  1
  Ga  Ga7  1  0.000001  0.750001  0.750000  1
  As  As8  1  0.122311  0.897561  0.195862  1
  As  As9  1  0.877704  0.073563  0.775282  1
  As  As10  1  0.298281  0.602422  0.724718  1
  As  As11  1  0.701700  0.426449  0.304138  1
