# generated using pymatgen
data_La2CoCl
_symmetry_space_group_name_H-M   'P 1'
_cell_length_a   7.98377609
_cell_length_b   7.98377646
_cell_length_c   7.98377532
_cell_angle_alpha   29.39141635
_cell_angle_beta   29.39141140
_cell_angle_gamma   29.39140966
_symmetry_Int_Tables_number   1
_chemical_formula_structural   La2CoCl
_chemical_formula_sum   'La2 Co1 Cl1'
_cell_volume   108.47393539
_cell_formula_units_Z   1
loop_
 _symmetry_equiv_pos_site_id
 _symmetry_equiv_pos_as_xyz
  1  'x, y, z'
loop_
 _atom_site_type_symbol
 _atom_site_label
 _atom_site_symmetry_multiplicity
 _atom_site_fract_x
 _atom_site_fract_y
 _atom_site_fract_z
 _atom_site_occupancy
  La  La0  1  0.233162  0.233162  0.233162  1
  La  La1  1  0.766838  0.766838  0.766838  1
  Co  Co2  1  0.500000  0.500000  0.500000  1
  Cl  Cl3  1  0.000000  0.000000  0.000000  1
