# generated using pymatgen
data_Y5(Th3Ir2)3
_symmetry_space_group_name_H-M   'P 1'
_cell_length_a   9.92781392
_cell_length_b   10.07080927
_cell_length_c   6.36403952
_cell_angle_alpha   90.22448790
_cell_angle_beta   89.97897978
_cell_angle_gamma   120.55986324
_symmetry_Int_Tables_number   1
_chemical_formula_structural   Y5(Th3Ir2)3
_chemical_formula_sum   'Y5 Th9 Ir6'
_cell_volume   547.89778841
_cell_formula_units_Z   1
loop_
 _symmetry_equiv_pos_site_id
 _symmetry_equiv_pos_as_xyz
  1  'x, y, z'
loop_
 _atom_site_type_symbol
 _atom_site_label
 _atom_site_symmetry_multiplicity
 _atom_site_fract_x
 _atom_site_fract_y
 _atom_site_fract_z
 _atom_site_occupancy
  Y  Y0  1  0.458928  0.536326  0.300697  1
  Y  Y1  1  0.073663  0.535552  0.301104  1
  Y  Y2  1  0.924801  0.462375  0.799110  1
  Y  Y3  1  0.254980  0.128285  0.499100  1
  Y  Y4  1  0.539730  0.077091  0.794957  1
  Th  Th5  1  0.746424  0.875812  0.004271  1
  Th  Th6  1  0.665390  0.331436  0.279177  1
  Th  Th7  1  0.130205  0.873351  0.998540  1
  Th  Th8  1  0.456296  0.917146  0.299295  1
  Th  Th9  1  0.538579  0.460329  0.800835  1
  Th  Th10  1  0.877691  0.131852  0.503528  1
  Th  Th11  1  0.126320  0.252961  0.997912  1
  Th  Th12  1  0.872979  0.743682  0.501141  1
  Th  Th13  1  0.334772  0.667500  0.783838  1
  Ir  Ir14  1  0.810796  0.625569  0.052603  1
  Ir  Ir15  1  0.814237  0.188261  0.058583  1
  Ir  Ir16  1  0.627834  0.817216  0.548758  1
  Ir  Ir17  1  0.375679  0.190212  0.043444  1
  Ir  Ir18  1  0.184042  0.376433  0.560790  1
  Ir  Ir19  1  0.186654  0.808611  0.556317  1
