# generated using pymatgen
data_Na4TlGa3Br16
_symmetry_space_group_name_H-M   'P 1'
_cell_length_a   7.43876930
_cell_length_b   8.00434258
_cell_length_c   14.72072600
_cell_angle_alpha   86.95643918
_cell_angle_beta   90.34428806
_cell_angle_gamma   89.95365072
_symmetry_Int_Tables_number   1
_chemical_formula_structural   Na4TlGa3Br16
_chemical_formula_sum   'Na4 Tl1 Ga3 Br16'
_cell_volume   875.25549304
_cell_formula_units_Z   1
loop_
 _symmetry_equiv_pos_site_id
 _symmetry_equiv_pos_as_xyz
  1  'x, y, z'
loop_
 _atom_site_type_symbol
 _atom_site_label
 _atom_site_symmetry_multiplicity
 _atom_site_fract_x
 _atom_site_fract_y
 _atom_site_fract_z
 _atom_site_occupancy
  Na  Na0  1  0.992887  0.846372  0.373475  1
  Na  Na1  1  0.498197  0.152480  0.127549  1
  Na  Na2  1  0.006049  0.154552  0.627520  1
  Na  Na3  1  0.508319  0.846192  0.871133  1
  Tl  Tl4  1  0.306101  0.698612  0.101848  1
  Ga  Ga5  1  0.189098  0.705832  0.601359  1
  Ga  Ga6  1  0.688961  0.294121  0.898391  1
  Ga  Ga7  1  0.810634  0.293834  0.399110  1
  Br  Br8  1  0.318893  0.687192  0.456990  1
  Br  Br9  1  0.819565  0.315246  0.043226  1
  Br  Br10  1  0.680113  0.313332  0.543208  1
  Br  Br11  1  0.171440  0.687484  0.938990  1
  Br  Br12  1  0.113063  0.199684  0.424898  1
  Br  Br13  1  0.637990  0.813376  0.073151  1
  Br  Br14  1  0.886216  0.799973  0.577112  1
  Br  Br15  1  0.386669  0.200038  0.922963  1
  Br  Br16  1  0.331423  0.927056  0.678661  1
  Br  Br17  1  0.830740  0.074264  0.820651  1
  Br  Br18  1  0.669059  0.072878  0.321613  1
  Br  Br19  1  0.158587  0.948855  0.186740  1
  Br  Br20  1  0.205803  0.455602  0.691318  1
  Br  Br21  1  0.703802  0.543552  0.807775  1
  Br  Br22  1  0.794704  0.544057  0.308604  1
  Br  Br23  1  0.291686  0.425415  0.203713  1
