# generated using pymatgen
data_Tb4Ga24Pd8Au
_symmetry_space_group_name_H-M   'P 1'
_cell_length_a   7.61166011
_cell_length_b   7.60761852
_cell_length_c   13.36191488
_cell_angle_alpha   84.84263163
_cell_angle_beta   100.65391975
_cell_angle_gamma   119.97487150
_symmetry_Int_Tables_number   1
_chemical_formula_structural   Tb4Ga24Pd8Au
_chemical_formula_sum   'Tb4 Ga24 Pd8 Au1'
_cell_volume   658.69412397
_cell_formula_units_Z   1
loop_
 _symmetry_equiv_pos_site_id
 _symmetry_equiv_pos_as_xyz
  1  'x, y, z'
loop_
 _atom_site_type_symbol
 _atom_site_label
 _atom_site_symmetry_multiplicity
 _atom_site_fract_x
 _atom_site_fract_y
 _atom_site_fract_z
 _atom_site_occupancy
  Tb  Tb0  1  0.437308  0.830337  0.809808  1
  Tb  Tb1  1  0.562790  0.167971  0.191317  1
  Tb  Tb2  1  0.768575  0.501090  0.809643  1
  Tb  Tb3  1  0.229449  0.498703  0.190576  1
  Ga  Ga4  1  0.483198  0.165288  0.940288  1
  Ga  Ga5  1  0.518161  0.834380  0.061200  1
  Ga  Ga6  1  0.013368  0.156927  0.560416  1
  Ga  Ga7  1  0.977527  0.835416  0.435016  1
  Ga  Ga8  1  0.354450  0.842267  0.557350  1
  Ga  Ga9  1  0.643985  0.167460  0.438609  1
  Ga  Ga10  1  0.613395  0.834358  0.327947  1
  Ga  Ga11  1  0.388254  0.160858  0.674793  1
  Ga  Ga12  1  0.053996  0.495371  0.675270  1
  Ga  Ga13  1  0.941057  0.504815  0.327166  1
  Ga  Ga14  1  0.737253  0.844288  0.674314  1
  Ga  Ga15  1  0.270503  0.162212  0.327863  1
  Ga  Ga16  1  0.145957  0.501729  0.940518  1
  Ga  Ga17  1  0.853650  0.498517  0.060962  1
  Ga  Ga18  1  0.814814  0.832739  0.947189  1
  Ga  Ga19  1  0.186356  0.167569  0.054335  1
  Ga  Ga20  1  0.311278  0.500883  0.435757  1
  Ga  Ga21  1  0.696060  0.499792  0.557238  1
  Ga  Ga22  1  0.099854  0.835211  0.183067  1
  Ga  Ga23  1  0.898567  0.165059  0.817396  1
  Ga  Ga24  1  0.304818  0.364233  0.820367  1
  Ga  Ga25  1  0.692289  0.631618  0.183774  1
  Ga  Ga26  1  0.104864  0.959945  0.816965  1
  Ga  Ga27  1  0.896076  0.038595  0.183634  1
  Pd  Pd28  1  0.612443  0.495225  0.359762  1
  Pd  Pd29  1  0.169206  0.829603  0.999072  1
  Pd  Pd30  1  0.831508  0.170719  0.001274  1
  Pd  Pd31  1  0.291843  0.832869  0.359924  1
  Pd  Pd32  1  0.708301  0.166795  0.638685  1
  Pd  Pd33  1  0.048738  0.826650  0.637856  1
  Pd  Pd34  1  0.951442  0.174242  0.361208  1
  Pd  Pd35  1  0.500779  0.500581  0.000539  1
  Au  Au36  1  0.387888  0.505689  0.638901  1
