# generated using pymatgen
data_BeV12Zn2Ga5N4
_symmetry_space_group_name_H-M   'P 1'
_cell_length_a   6.56155941
_cell_length_b   6.56475791
_cell_length_c   6.56493651
_cell_angle_alpha   90.01450211
_cell_angle_beta   90.04680713
_cell_angle_gamma   90.14456442
_symmetry_Int_Tables_number   1
_chemical_formula_structural   BeV12Zn2Ga5N4
_chemical_formula_sum   'Be1 V12 Zn2 Ga5 N4'
_cell_volume   282.78395851
_cell_formula_units_Z   1
loop_
 _symmetry_equiv_pos_site_id
 _symmetry_equiv_pos_as_xyz
  1  'x, y, z'
loop_
 _atom_site_type_symbol
 _atom_site_label
 _atom_site_symmetry_multiplicity
 _atom_site_fract_x
 _atom_site_fract_y
 _atom_site_fract_z
 _atom_site_occupancy
  Be  Be0  1  0.823949  0.321270  0.177259  1
  V  V1  1  0.789579  0.963387  0.372275  1
  V  V2  1  0.710741  0.040993  0.877206  1
  V  V3  1  0.206659  0.458718  0.125772  1
  V  V4  1  0.291520  0.541842  0.625897  1
  V  V5  1  0.958204  0.375234  0.792526  1
  V  V6  1  0.040226  0.873516  0.709696  1
  V  V7  1  0.463919  0.128930  0.210052  1
  V  V8  1  0.542523  0.622746  0.290659  1
  V  V9  1  0.375736  0.789218  0.957924  1
  V  V10  1  0.873256  0.706253  0.039884  1
  V  V11  1  0.122053  0.210774  0.457875  1
  V  V12  1  0.629290  0.291724  0.536723  1
  Zn  Zn13  1  0.178648  0.820627  0.317793  1
  Zn  Zn14  1  0.318859  0.181261  0.822248  1
  Ga  Ga15  1  0.679837  0.677867  0.678967  1
  Ga  Ga16  1  0.579711  0.420204  0.941325  1
  Ga  Ga17  1  0.424273  0.933489  0.570380  1
  Ga  Ga18  1  0.927902  0.561972  0.415667  1
  Ga  Ga19  1  0.063427  0.080194  0.076161  1
  N  N20  1  0.876358  0.124442  0.625452  1
  N  N21  1  0.623498  0.875173  0.125143  1
  N  N22  1  0.125071  0.624130  0.876390  1
  N  N23  1  0.374761  0.376033  0.376726  1
