# generated using pymatgen
data_Li8Tb3Y5Sn7Sb
_symmetry_space_group_name_H-M   'P 1'
_cell_length_a   9.38306369
_cell_length_b   9.38306378
_cell_length_c   7.31620900
_cell_angle_alpha   90.06975569
_cell_angle_beta   89.93025200
_cell_angle_gamma   119.97600304
_symmetry_Int_Tables_number   1
_chemical_formula_structural   Li8Tb3Y5Sn7Sb
_chemical_formula_sum   'Li8 Tb3 Y5 Sn7 Sb1'
_cell_volume   557.96968559
_cell_formula_units_Z   1
loop_
 _symmetry_equiv_pos_site_id
 _symmetry_equiv_pos_as_xyz
  1  'x, y, z'
loop_
 _atom_site_type_symbol
 _atom_site_label
 _atom_site_symmetry_multiplicity
 _atom_site_fract_x
 _atom_site_fract_y
 _atom_site_fract_z
 _atom_site_occupancy
  Li  Li0  1  0.166869  0.833131  0.191345  1
  Li  Li1  1  0.334164  0.167735  0.690574  1
  Li  Li2  1  0.832265  0.665836  0.690574  1
  Li  Li3  1  0.166770  0.333823  0.190967  1
  Li  Li4  1  0.666177  0.833230  0.190967  1
  Li  Li5  1  0.833173  0.166827  0.691287  1
  Li  Li6  1  0.333738  0.666262  0.815569  1
  Li  Li7  1  0.666706  0.333294  0.314925  1
  Tb  Tb8  1  0.513242  0.486758  0.991767  1
  Tb  Tb9  1  0.024799  0.511237  0.490381  1
  Tb  Tb10  1  0.488763  0.975201  0.490381  1
  Y  Y11  1  0.515852  0.027174  0.993565  1
  Y  Y12  1  0.972826  0.484148  0.993565  1
  Y  Y13  1  0.486859  0.513141  0.491167  1
  Y  Y14  1  0.998962  0.001038  0.987537  1
  Y  Y15  1  0.999122  0.000878  0.484779  1
  Sn  Sn16  1  0.333098  0.166019  0.257875  1
  Sn  Sn17  1  0.833981  0.666902  0.257875  1
  Sn  Sn18  1  0.166074  0.333194  0.757983  1
  Sn  Sn19  1  0.666806  0.833926  0.757983  1
  Sn  Sn20  1  0.833483  0.166517  0.257007  1
  Sn  Sn21  1  0.332837  0.667163  0.223014  1
  Sn  Sn22  1  0.666879  0.333121  0.722888  1
  Sb  Sb23  1  0.166555  0.833445  0.756033  1
