# generated using pymatgen
data_Er12Zn(InOs)2
_symmetry_space_group_name_H-M   'P 1'
_cell_length_a   8.41342826
_cell_length_b   8.41342764
_cell_length_c   8.41342746
_cell_angle_alpha   110.51106477
_cell_angle_beta   110.51106766
_cell_angle_gamma   107.41096771
_symmetry_Int_Tables_number   1
_chemical_formula_structural   Er12Zn(InOs)2
_chemical_formula_sum   'Er12 Zn1 In2 Os2'
_cell_volume   458.01272147
_cell_formula_units_Z   1
loop_
 _symmetry_equiv_pos_site_id
 _symmetry_equiv_pos_as_xyz
  1  'x, y, z'
loop_
 _atom_site_type_symbol
 _atom_site_label
 _atom_site_symmetry_multiplicity
 _atom_site_fract_x
 _atom_site_fract_y
 _atom_site_fract_z
 _atom_site_occupancy
  Er  Er0  1  0.316406  0.316406  0.632812  1
  Er  Er1  1  0.683594  0.683594  0.367188  1
  Er  Er2  1  0.316406  0.683594  0.000000  1
  Er  Er3  1  0.683594  0.316406  0.000000  1
  Er  Er4  1  0.442526  0.194866  0.247660  1
  Er  Er5  1  0.557474  0.805134  0.752340  1
  Er  Er6  1  0.947207  0.194866  0.752340  1
  Er  Er7  1  0.194866  0.947207  0.752340  1
  Er  Er8  1  0.052793  0.805134  0.247660  1
  Er  Er9  1  0.805134  0.052793  0.247660  1
  Er  Er10  1  0.194866  0.442526  0.247660  1
  Er  Er11  1  0.805134  0.557474  0.752340  1
  Zn  Zn12  1  0.000000  0.000000  0.000000  1
  In  In13  1  0.500000  0.000000  0.500000  1
  In  In14  1  0.000000  0.500000  0.500000  1
  Os  Os15  1  0.346185  0.346185  0.000000  1
  Os  Os16  1  0.653815  0.653815  0.000000  1
