# generated using pymatgen
data_Ho4Al(GaB4)2
_symmetry_space_group_name_H-M   'P 1'
_cell_length_a   7.16141900
_cell_length_b   7.16141900
_cell_length_c   7.79462100
_cell_angle_alpha   90.00000000
_cell_angle_beta   90.00000000
_cell_angle_gamma   90.00000000
_symmetry_Int_Tables_number   1
_chemical_formula_structural   Ho4Al(GaB4)2
_chemical_formula_sum   'Ho8 Al2 Ga4 B16'
_cell_volume   399.75432535
_cell_formula_units_Z   2
loop_
 _symmetry_equiv_pos_site_id
 _symmetry_equiv_pos_as_xyz
  1  'x, y, z'
loop_
 _atom_site_type_symbol
 _atom_site_label
 _atom_site_symmetry_multiplicity
 _atom_site_fract_x
 _atom_site_fract_y
 _atom_site_fract_z
 _atom_site_occupancy
  Ho  Ho0  1  0.681639  0.181639  0.230143  1
  Ho  Ho1  1  0.318361  0.818361  0.769857  1
  Ho  Ho2  1  0.318361  0.818361  0.230143  1
  Ho  Ho3  1  0.818361  0.681639  0.230143  1
  Ho  Ho4  1  0.818361  0.681639  0.769857  1
  Ho  Ho5  1  0.681639  0.181639  0.769857  1
  Ho  Ho6  1  0.181639  0.318361  0.769857  1
  Ho  Ho7  1  0.181639  0.318361  0.230143  1
  Al  Al8  1  0.000000  0.000000  0.500000  1
  Al  Al9  1  0.500000  0.500000  0.500000  1
  Ga  Ga10  1  0.122175  0.622175  0.500000  1
  Ga  Ga11  1  0.877825  0.377825  0.500000  1
  Ga  Ga12  1  0.377825  0.122175  0.500000  1
  Ga  Ga13  1  0.622175  0.877825  0.500000  1
  B  B14  1  0.173000  0.040702  0.000000  1
  B  B15  1  0.827000  0.959298  0.000000  1
  B  B16  1  0.959298  0.173000  0.000000  1
  B  B17  1  0.327000  0.540702  0.000000  1
  B  B18  1  0.040702  0.827000  0.000000  1
  B  B19  1  0.673000  0.459298  0.000000  1
  B  B20  1  0.540702  0.673000  0.000000  1
  B  B21  1  0.459298  0.327000  0.000000  1
  B  B22  1  0.089665  0.589665  0.000000  1
  B  B23  1  0.910335  0.410335  0.000000  1
  B  B24  1  0.410335  0.089665  0.000000  1
  B  B25  1  0.589665  0.910335  0.000000  1
  B  B26  1  0.000000  0.000000  0.165235  1
  B  B27  1  0.000000  0.000000  0.834765  1
  B  B28  1  0.500000  0.500000  0.834765  1
  B  B29  1  0.500000  0.500000  0.165235  1
