# generated using pymatgen
data_ErZr3(FeB4)4
_symmetry_space_group_name_H-M   'P 1'
_cell_length_a   3.28707500
_cell_length_b   5.79417499
_cell_length_c   11.22239491
_cell_angle_alpha   90.06691834
_cell_angle_beta   90.00000000
_cell_angle_gamma   90.00000000
_symmetry_Int_Tables_number   1
_chemical_formula_structural   ErZr3(FeB4)4
_chemical_formula_sum   'Er1 Zr3 Fe4 B16'
_cell_volume   213.74032801
_cell_formula_units_Z   1
loop_
 _symmetry_equiv_pos_site_id
 _symmetry_equiv_pos_as_xyz
  1  'x, y, z'
loop_
 _atom_site_type_symbol
 _atom_site_label
 _atom_site_symmetry_multiplicity
 _atom_site_fract_x
 _atom_site_fract_y
 _atom_site_fract_z
 _atom_site_occupancy
  Er  Er0  1  0.000000  0.871713  0.850031  1
  Zr  Zr1  1  0.000000  0.627775  0.350787  1
  Zr  Zr2  1  0.000000  0.373149  0.648352  1
  Zr  Zr3  1  0.000000  0.128899  0.150401  1
  Fe  Fe4  1  0.000000  0.631523  0.092592  1
  Fe  Fe5  1  0.000000  0.366541  0.911502  1
  Fe  Fe6  1  0.000000  0.133726  0.409011  1
  Fe  Fe7  1  0.000000  0.866812  0.587575  1
  B  B8  1  0.500000  0.787191  0.186502  1
  B  B9  1  0.500000  0.215776  0.813625  1
  B  B10  1  0.500000  0.287344  0.313759  1
  B  B11  1  0.500000  0.712553  0.684551  1
  B  B12  1  0.500000  0.863760  0.033236  1
  B  B13  1  0.500000  0.136470  0.969414  1
  B  B14  1  0.500000  0.365239  0.467141  1
  B  B15  1  0.500000  0.634300  0.531513  1
  B  B16  1  0.500000  0.886505  0.452795  1
  B  B17  1  0.500000  0.113555  0.546029  1
  B  B18  1  0.500000  0.386444  0.047633  1
  B  B19  1  0.500000  0.611184  0.954461  1
  B  B20  1  0.500000  0.974398  0.307033  1
  B  B21  1  0.500000  0.026711  0.691111  1
  B  B22  1  0.500000  0.474697  0.193766  1
  B  B23  1  0.500000  0.523734  0.807180  1
