# generated using pymatgen
data_Tb6Al24ZnCuRu6
_symmetry_space_group_name_H-M   'P 1'
_cell_length_a   8.84873022
_cell_length_b   8.84873056
_cell_length_c   9.50727667
_cell_angle_alpha   90.10799069
_cell_angle_beta   89.89200706
_cell_angle_gamma   119.42680375
_symmetry_Int_Tables_number   1
_chemical_formula_structural   Tb6Al24ZnCuRu6
_chemical_formula_sum   'Tb6 Al24 Zn1 Cu1 Ru6'
_cell_volume   648.37645043
_cell_formula_units_Z   1
loop_
 _symmetry_equiv_pos_site_id
 _symmetry_equiv_pos_as_xyz
  1  'x, y, z'
loop_
 _atom_site_type_symbol
 _atom_site_label
 _atom_site_symmetry_multiplicity
 _atom_site_fract_x
 _atom_site_fract_y
 _atom_site_fract_z
 _atom_site_occupancy
  Tb  Tb0  1  0.383135  0.188489  0.250468  1
  Tb  Tb1  1  0.806442  0.193558  0.248834  1
  Tb  Tb2  1  0.811511  0.616865  0.250468  1
  Tb  Tb3  1  0.616865  0.811511  0.749532  1
  Tb  Tb4  1  0.193558  0.806442  0.751166  1
  Tb  Tb5  1  0.188489  0.383135  0.749532  1
  Al  Al6  1  0.439311  0.877762  0.249982  1
  Al  Al7  1  0.122238  0.560689  0.249982  1
  Al  Al8  1  0.437414  0.562586  0.244539  1
  Al  Al9  1  0.560689  0.122238  0.750018  1
  Al  Al10  1  0.877762  0.439311  0.750018  1
  Al  Al11  1  0.562586  0.437414  0.755461  1
  Al  Al12  1  0.163509  0.836491  0.422043  1
  Al  Al13  1  0.151698  0.322009  0.421563  1
  Al  Al14  1  0.677991  0.848302  0.421563  1
  Al  Al15  1  0.836491  0.163509  0.577957  1
  Al  Al16  1  0.848302  0.677991  0.578437  1
  Al  Al17  1  0.322009  0.151698  0.578437  1
  Al  Al18  1  0.836142  0.163858  0.922866  1
  Al  Al19  1  0.843775  0.676456  0.923416  1
  Al  Al20  1  0.323544  0.156225  0.923416  1
  Al  Al21  1  0.163858  0.836142  0.077134  1
  Al  Al22  1  0.156225  0.323544  0.076584  1
  Al  Al23  1  0.676456  0.843775  0.076584  1
  Al  Al24  1  0.328884  0.671116  0.520423  1
  Al  Al25  1  0.671116  0.328884  0.479577  1
  Al  Al26  1  0.668320  0.331680  0.019868  1
  Al  Al27  1  0.331680  0.668320  0.980132  1
  Al  Al28  1  0.002305  0.997695  0.249734  1
  Al  Al29  1  0.997695  0.002305  0.750266  1
  Zn  Zn30  1  0.500000  0.500000  0.500000  1
  Cu  Cu31  1  0.500000  0.500000  0.000000  1
  Ru  Ru32  1  0.000000  0.000000  0.500000  1
  Ru  Ru33  1  0.000000  0.000000  0.000000  1
  Ru  Ru34  1  0.500000  0.000000  0.500000  1
  Ru  Ru35  1  0.000000  0.500000  0.500000  1
  Ru  Ru36  1  0.500000  0.000000  0.000000  1
  Ru  Ru37  1  0.000000  0.500000  0.000000  1
