# generated using pymatgen
data_SrGaSiIr2
_symmetry_space_group_name_H-M   'P 1'
_cell_length_a   8.41071727
_cell_length_b   7.29725670
_cell_length_c   5.94746042
_cell_angle_alpha   78.11113816
_cell_angle_beta   58.10337886
_cell_angle_gamma   43.78547807
_symmetry_Int_Tables_number   1
_chemical_formula_structural   SrGaSiIr2
_chemical_formula_sum   'Sr2 Ga2 Si2 Ir4'
_cell_volume   204.65779702
_cell_formula_units_Z   2
loop_
 _symmetry_equiv_pos_site_id
 _symmetry_equiv_pos_as_xyz
  1  'x, y, z'
loop_
 _atom_site_type_symbol
 _atom_site_label
 _atom_site_symmetry_multiplicity
 _atom_site_fract_x
 _atom_site_fract_y
 _atom_site_fract_z
 _atom_site_occupancy
  Sr  Sr0  1  0.500000  0.500000  0.500000  1
  Sr  Sr1  1  0.750000  0.750000  0.750000  1
  Ga  Ga2  1  0.431147  0.068853  0.431147  1
  Ga  Ga3  1  0.068853  0.431147  0.068853  1
  Si  Si4  1  0.821097  0.178903  0.821097  1
  Si  Si5  1  0.178903  0.821097  0.178903  1
  Ir  Ir6  1  0.112083  0.112083  0.887917  1
  Ir  Ir7  1  0.887917  0.887917  0.112083  1
  Ir  Ir8  1  0.120859  0.120859  0.379141  1
  Ir  Ir9  1  0.379141  0.379141  0.120859  1
