# generated using pymatgen
data_LaPrPt2F14
_symmetry_space_group_name_H-M   'P 1'
_cell_length_a   5.73470200
_cell_length_b   9.27260129
_cell_length_c   12.41805279
_cell_angle_alpha   61.93697712
_cell_angle_beta   90.00000000
_cell_angle_gamma   90.00000000
_symmetry_Int_Tables_number   1
_chemical_formula_structural   LaPrPt2F14
_chemical_formula_sum   'La2 Pr2 Pt4 F28'
_cell_volume   582.70203171
_cell_formula_units_Z   2
loop_
 _symmetry_equiv_pos_site_id
 _symmetry_equiv_pos_as_xyz
  1  'x, y, z'
loop_
 _atom_site_type_symbol
 _atom_site_label
 _atom_site_symmetry_multiplicity
 _atom_site_fract_x
 _atom_site_fract_y
 _atom_site_fract_z
 _atom_site_occupancy
  La  La0  1  0.760290  0.810027  0.764529  1
  La  La1  1  0.260290  0.189973  0.735471  1
  Pr  Pr2  1  0.239590  0.188973  0.235511  1
  Pr  Pr3  1  0.739590  0.811027  0.264489  1
  Pt  Pt4  1  0.756446  0.272087  0.959458  1
  Pt  Pt5  1  0.256446  0.727913  0.540542  1
  Pt  Pt6  1  0.243005  0.725503  0.044841  1
  Pt  Pt7  1  0.743005  0.274497  0.455159  1
  F  F8  1  0.430559  0.706686  0.919266  1
  F  F9  1  0.930559  0.293314  0.580734  1
  F  F10  1  0.568280  0.292210  0.084442  1
  F  F11  1  0.068280  0.707790  0.415558  1
  F  F12  1  0.453397  0.282357  0.537650  1
  F  F13  1  0.953397  0.717643  0.962350  1
  F  F14  1  0.547774  0.718778  0.459309  1
  F  F15  1  0.047774  0.281222  0.040691  1
  F  F16  1  0.765007  0.511850  0.863534  1
  F  F17  1  0.265007  0.488150  0.636466  1
  F  F18  1  0.233894  0.485338  0.139822  1
  F  F19  1  0.733894  0.514662  0.360178  1
  F  F20  1  0.757139  0.031554  0.050239  1
  F  F21  1  0.257139  0.968446  0.449761  1
  F  F22  1  0.243257  0.965697  0.953129  1
  F  F23  1  0.743257  0.034303  0.546871  1
  F  F24  1  0.970474  0.729458  0.627486  1
  F  F25  1  0.470474  0.270542  0.872514  1
  F  F26  1  0.028730  0.271961  0.368041  1
  F  F27  1  0.528730  0.728039  0.131959  1
  F  F28  1  0.058204  0.741724  0.172515  1
  F  F29  1  0.558204  0.258276  0.327485  1
  F  F30  1  0.939791  0.256877  0.830971  1
  F  F31  1  0.439791  0.743123  0.669029  1
  F  F32  1  0.409113  0.968006  0.231427  1
  F  F33  1  0.909113  0.031994  0.268573  1
  F  F34  1  0.595052  0.033723  0.768595  1
  F  F35  1  0.095052  0.966277  0.731405  1
