# generated using pymatgen
data_Er3Ge2B4Rh9
_symmetry_space_group_name_H-M   'P 1'
_cell_length_a   5.50294200
_cell_length_b   5.50294287
_cell_length_c   9.94128600
_cell_angle_alpha   90.00000000
_cell_angle_beta   90.00000000
_cell_angle_gamma   120.00000677
_symmetry_Int_Tables_number   1
_chemical_formula_structural   Er3Ge2B4Rh9
_chemical_formula_sum   'Er3 Ge2 B4 Rh9'
_cell_volume   260.71325400
_cell_formula_units_Z   1
loop_
 _symmetry_equiv_pos_site_id
 _symmetry_equiv_pos_as_xyz
  1  'x, y, z'
loop_
 _atom_site_type_symbol
 _atom_site_label
 _atom_site_symmetry_multiplicity
 _atom_site_fract_x
 _atom_site_fract_y
 _atom_site_fract_z
 _atom_site_occupancy
  Er  Er0  1  0.000000  0.000000  0.000000  1
  Er  Er1  1  0.000000  0.000000  0.660433  1
  Er  Er2  1  0.000000  0.000000  0.339567  1
  Ge  Ge3  1  0.666667  0.333333  0.000000  1
  Ge  Ge4  1  0.333333  0.666667  0.000000  1
  B  B5  1  0.666667  0.333333  0.652903  1
  B  B6  1  0.333333  0.666667  0.652903  1
  B  B7  1  0.333333  0.666667  0.347097  1
  B  B8  1  0.666667  0.333333  0.347097  1
  Rh  Rh9  1  0.500000  0.500000  0.500000  1
  Rh  Rh10  1  0.500000  0.000000  0.500000  1
  Rh  Rh11  1  0.000000  0.500000  0.500000  1
  Rh  Rh12  1  0.500000  0.500000  0.797444  1
  Rh  Rh13  1  0.500000  0.000000  0.797444  1
  Rh  Rh14  1  0.000000  0.500000  0.797444  1
  Rh  Rh15  1  0.500000  0.500000  0.202556  1
  Rh  Rh16  1  0.500000  0.000000  0.202556  1
  Rh  Rh17  1  0.000000  0.500000  0.202556  1
