# generated using pymatgen
data_Ho8Ta4Ti8Si15Ir
_symmetry_space_group_name_H-M   'P 1'
_cell_length_a   7.04741599
_cell_length_b   7.02242010
_cell_length_c   12.98442398
_cell_angle_alpha   89.91500449
_cell_angle_beta   89.83653142
_cell_angle_gamma   89.99247964
_symmetry_Int_Tables_number   1
_chemical_formula_structural   Ho8Ta4Ti8Si15Ir
_chemical_formula_sum   'Ho8 Ta4 Ti8 Si15 Ir1'
_cell_volume   642.59472060
_cell_formula_units_Z   1
loop_
 _symmetry_equiv_pos_site_id
 _symmetry_equiv_pos_as_xyz
  1  'x, y, z'
loop_
 _atom_site_type_symbol
 _atom_site_label
 _atom_site_symmetry_multiplicity
 _atom_site_fract_x
 _atom_site_fract_y
 _atom_site_fract_z
 _atom_site_occupancy
  Ho  Ho0  1  0.337339  0.001133  0.467045  1
  Ho  Ho1  1  0.499284  0.840329  0.717258  1
  Ho  Ho2  1  0.500378  0.160930  0.217456  1
  Ho  Ho3  1  0.840986  0.497811  0.283140  1
  Ho  Ho4  1  0.158837  0.501659  0.783328  1
  Ho  Ho5  1  0.662120  0.999060  0.968303  1
  Ho  Ho6  1  0.001560  0.336948  0.533523  1
  Ho  Ho7  1  0.999713  0.659536  0.032861  1
  Ta  Ta8  1  0.329288  0.327620  0.000896  1
  Ta  Ta9  1  0.173094  0.826956  0.249483  1
  Ta  Ta10  1  0.829663  0.171283  0.748443  1
  Ta  Ta11  1  0.672057  0.672241  0.498868  1
  Ti  Ti12  1  0.158338  0.012266  0.875705  1
  Ti  Ti13  1  0.490332  0.653025  0.126042  1
  Ti  Ti14  1  0.499166  0.342962  0.624967  1
  Ti  Ti15  1  0.656492  0.495632  0.876068  1
  Ti  Ti16  1  0.346051  0.508245  0.373985  1
  Ti  Ti17  1  0.845977  0.990455  0.374801  1
  Ti  Ti18  1  0.009522  0.153742  0.125558  1
  Ti  Ti19  1  0.988444  0.849458  0.619557  1
  Si  Si20  1  0.371445  0.701361  0.935299  1
  Si  Si21  1  0.629572  0.296801  0.433404  1
  Si  Si22  1  0.703371  0.370151  0.066587  1
  Si  Si23  1  0.300624  0.630147  0.563661  1
  Si  Si24  1  0.797088  0.869348  0.183738  1
  Si  Si25  1  0.129783  0.201656  0.315588  1
  Si  Si26  1  0.868709  0.798581  0.815389  1
  Si  Si27  1  0.294147  0.955425  0.065013  1
  Si  Si28  1  0.544712  0.792762  0.313902  1
  Si  Si29  1  0.461382  0.211534  0.815769  1
  Si  Si30  1  0.789542  0.547117  0.685326  1
  Si  Si31  1  0.206947  0.454567  0.185825  1
  Si  Si32  1  0.704286  0.044836  0.562249  1
  Si  Si33  1  0.953866  0.292545  0.938185  1
  Si  Si34  1  0.045899  0.705942  0.433648  1
  Ir  Ir35  1  0.199988  0.125937  0.689128  1
