# generated using pymatgen
data_AcZr2F11
_symmetry_space_group_name_H-M   'P 1'
_cell_length_a   8.71992336
_cell_length_b   8.71992286
_cell_length_c   8.71992319
_cell_angle_alpha   125.80172396
_cell_angle_beta   106.94972655
_cell_angle_gamma   97.09330610
_symmetry_Int_Tables_number   1
_chemical_formula_structural   AcZr2F11
_chemical_formula_sum   'Ac2 Zr4 F22'
_cell_volume   476.02077147
_cell_formula_units_Z   2
loop_
 _symmetry_equiv_pos_site_id
 _symmetry_equiv_pos_as_xyz
  1  'x, y, z'
loop_
 _atom_site_type_symbol
 _atom_site_label
 _atom_site_symmetry_multiplicity
 _atom_site_fract_x
 _atom_site_fract_y
 _atom_site_fract_z
 _atom_site_occupancy
  Ac  Ac0  1  0.750000  0.750000  0.000000  1
  Ac  Ac1  1  0.250000  0.250000  0.000000  1
  Zr  Zr2  1  0.680174  0.130356  0.810530  1
  Zr  Zr3  1  0.319826  0.869644  0.189470  1
  Zr  Zr4  1  0.180174  0.369644  0.549820  1
  Zr  Zr5  1  0.819826  0.630356  0.450180  1
  F  F6  1  0.500000  0.000000  0.500000  1
  F  F7  1  0.000000  0.500000  0.500000  1
  F  F8  1  0.779910  0.369787  0.149697  1
  F  F9  1  0.220090  0.630213  0.850303  1
  F  F10  1  0.279910  0.130213  0.410122  1
  F  F11  1  0.720090  0.869787  0.589878  1
  F  F12  1  0.704833  0.385639  0.838914  1
  F  F13  1  0.546725  0.865919  0.161086  1
  F  F14  1  0.953275  0.114361  0.319194  1
  F  F15  1  0.795167  0.634081  0.680806  1
  F  F16  1  0.295167  0.614361  0.161086  1
  F  F17  1  0.453275  0.134081  0.838914  1
  F  F18  1  0.046725  0.885639  0.680806  1
  F  F19  1  0.204833  0.365919  0.319194  1
  F  F20  1  0.944336  0.236463  0.915685  1
  F  F21  1  0.320778  0.028651  0.084315  1
  F  F22  1  0.179222  0.263537  0.707873  1
  F  F23  1  0.555664  0.471349  0.292127  1
  F  F24  1  0.055664  0.763537  0.084315  1
  F  F25  1  0.679222  0.971349  0.915685  1
  F  F26  1  0.820778  0.736463  0.292127  1
  F  F27  1  0.444336  0.528651  0.707873  1
