# generated using pymatgen
data_Pr2DyTaO7
_symmetry_space_group_name_H-M   'P 1'
_cell_length_a   6.64206057
_cell_length_b   6.61500095
_cell_length_c   7.68570600
_cell_angle_alpha   90.00000000
_cell_angle_beta   90.00000000
_cell_angle_gamma   110.44837829
_symmetry_Int_Tables_number   1
_chemical_formula_structural   Pr2DyTaO7
_chemical_formula_sum   'Pr4 Dy2 Ta2 O14'
_cell_volume   316.41002194
_cell_formula_units_Z   2
loop_
 _symmetry_equiv_pos_site_id
 _symmetry_equiv_pos_as_xyz
  1  'x, y, z'
loop_
 _atom_site_type_symbol
 _atom_site_label
 _atom_site_symmetry_multiplicity
 _atom_site_fract_x
 _atom_site_fract_y
 _atom_site_fract_z
 _atom_site_occupancy
  Pr  Pr0  1  0.000000  0.000000  0.000000  1
  Pr  Pr1  1  0.000000  0.000000  0.500000  1
  Pr  Pr2  1  0.933437  0.477352  0.750000  1
  Pr  Pr3  1  0.066563  0.522648  0.250000  1
  Dy  Dy4  1  0.484605  0.943386  0.750000  1
  Dy  Dy5  1  0.515395  0.056614  0.250000  1
  Ta  Ta6  1  0.500000  0.500000  0.000000  1
  Ta  Ta7  1  0.500000  0.500000  0.500000  1
  O  O8  1  0.561228  0.577893  0.750000  1
  O  O9  1  0.438772  0.422107  0.250000  1
  O  O10  1  0.837532  0.098684  0.750000  1
  O  O11  1  0.162468  0.901316  0.250000  1
  O  O12  1  0.128820  0.848847  0.750000  1
  O  O13  1  0.871180  0.151153  0.250000  1
  O  O14  1  0.468285  0.192460  0.962646  1
  O  O15  1  0.531715  0.807540  0.462646  1
  O  O16  1  0.179323  0.415606  0.968897  1
  O  O17  1  0.820677  0.584394  0.468897  1
  O  O18  1  0.468285  0.192460  0.537354  1
  O  O19  1  0.531715  0.807540  0.037354  1
  O  O20  1  0.820677  0.584394  0.031103  1
  O  O21  1  0.179323  0.415606  0.531103  1
