# generated using pymatgen
data_Ga2SnBr8
_symmetry_space_group_name_H-M   'P 1'
_cell_length_a   8.87968400
_cell_length_b   6.88240867
_cell_length_c   15.76563279
_cell_angle_alpha   85.60178972
_cell_angle_beta   90.00000000
_cell_angle_gamma   90.00000000
_symmetry_Int_Tables_number   1
_chemical_formula_structural   Ga2SnBr8
_chemical_formula_sum   'Ga4 Sn2 Br16'
_cell_volume   960.65745054
_cell_formula_units_Z   2
loop_
 _symmetry_equiv_pos_site_id
 _symmetry_equiv_pos_as_xyz
  1  'x, y, z'
loop_
 _atom_site_type_symbol
 _atom_site_label
 _atom_site_symmetry_multiplicity
 _atom_site_fract_x
 _atom_site_fract_y
 _atom_site_fract_z
 _atom_site_occupancy
  Ga  Ga0  1  0.746904  0.619683  0.909862  1
  Ga  Ga1  1  0.246904  0.380317  0.590138  1
  Ga  Ga2  1  0.253096  0.380317  0.090138  1
  Ga  Ga3  1  0.753096  0.619683  0.409862  1
  Sn  Sn4  1  0.000000  0.000000  0.000000  1
  Sn  Sn5  1  0.500000  0.000000  0.500000  1
  Br  Br6  1  0.033094  0.289411  0.666227  1
  Br  Br7  1  0.257250  0.271241  0.949157  1
  Br  Br8  1  0.527217  0.760635  0.347769  1
  Br  Br9  1  0.263471  0.727891  0.583948  1
  Br  Br10  1  0.742750  0.728759  0.050843  1
  Br  Br11  1  0.533094  0.710589  0.833773  1
  Br  Br12  1  0.763471  0.272109  0.916052  1
  Br  Br13  1  0.466906  0.289411  0.166227  1
  Br  Br14  1  0.736529  0.272109  0.416052  1
  Br  Br15  1  0.242750  0.271241  0.449157  1
  Br  Br16  1  0.472783  0.239365  0.652231  1
  Br  Br17  1  0.236529  0.727891  0.083948  1
  Br  Br18  1  0.757250  0.728759  0.550843  1
  Br  Br19  1  0.027217  0.239365  0.152231  1
  Br  Br20  1  0.972783  0.760635  0.847769  1
  Br  Br21  1  0.966906  0.710589  0.333773  1
