# generated using pymatgen
data_Li4Nd2DyYSi6
_symmetry_space_group_name_H-M   'P 1'
_cell_length_a   9.35332401
_cell_length_b   9.35332322
_cell_length_c   6.79733800
_cell_angle_alpha   90.00000000
_cell_angle_beta   90.00000000
_cell_angle_gamma   153.20575267
_symmetry_Int_Tables_number   1
_chemical_formula_structural   Li4Nd2DyYSi6
_chemical_formula_sum   'Li4 Nd2 Dy1 Y1 Si6'
_cell_volume   268.06681643
_cell_formula_units_Z   1
loop_
 _symmetry_equiv_pos_site_id
 _symmetry_equiv_pos_as_xyz
  1  'x, y, z'
loop_
 _atom_site_type_symbol
 _atom_site_label
 _atom_site_symmetry_multiplicity
 _atom_site_fract_x
 _atom_site_fract_y
 _atom_site_fract_z
 _atom_site_occupancy
  Li  Li0  1  0.190349  0.809651  0.059926  1
  Li  Li1  1  0.190349  0.809651  0.440074  1
  Li  Li2  1  0.809625  0.190375  0.940067  1
  Li  Li3  1  0.809625  0.190375  0.559933  1
  Nd  Nd4  1  0.553768  0.446232  0.250000  1
  Nd  Nd5  1  0.446243  0.553757  0.750000  1
  Dy  Dy6  1  0.344270  0.655730  0.250000  1
  Y  Y7  1  0.655761  0.344239  0.750000  1
  Si  Si8  1  0.723251  0.276749  0.250000  1
  Si  Si9  1  0.276840  0.723160  0.750000  1
  Si  Si10  1  0.059289  0.940711  0.925071  1
  Si  Si11  1  0.940670  0.059330  0.074999  1
  Si  Si12  1  0.940670  0.059330  0.425001  1
  Si  Si13  1  0.059289  0.940711  0.574929  1
