# generated using pymatgen
data_YbLu3(Al3Pt4)2
_symmetry_space_group_name_H-M   'P 1'
_cell_length_a   8.14251738
_cell_length_b   8.14251726
_cell_length_c   7.59460200
_cell_angle_alpha   90.35281823
_cell_angle_beta   89.64718177
_cell_angle_gamma   140.13007540
_symmetry_Int_Tables_number   1
_chemical_formula_structural   YbLu3(Al3Pt4)2
_chemical_formula_sum   'Yb1 Lu3 Al6 Pt8'
_cell_volume   322.77720205
_cell_formula_units_Z   1
loop_
 _symmetry_equiv_pos_site_id
 _symmetry_equiv_pos_as_xyz
  1  'x, y, z'
loop_
 _atom_site_type_symbol
 _atom_site_label
 _atom_site_symmetry_multiplicity
 _atom_site_fract_x
 _atom_site_fract_y
 _atom_site_fract_z
 _atom_site_occupancy
  Yb  Yb0  1  0.105257  0.894743  0.590509  1
  Lu  Lu1  1  0.604437  0.395563  0.906493  1
  Lu  Lu2  1  0.395028  0.604972  0.093317  1
  Lu  Lu3  1  0.895281  0.104719  0.409130  1
  Al  Al4  1  0.500886  0.499114  0.499359  1
  Al  Al5  1  0.999162  0.000838  0.997735  1
  Al  Al6  1  0.521067  0.978100  0.750866  1
  Al  Al7  1  0.977056  0.520111  0.251860  1
  Al  Al8  1  0.479889  0.022944  0.251860  1
  Al  Al9  1  0.021900  0.478933  0.750866  1
  Pt  Pt10  1  0.687451  0.809757  0.750732  1
  Pt  Pt11  1  0.808114  0.690463  0.245505  1
  Pt  Pt12  1  0.309537  0.191886  0.245505  1
  Pt  Pt13  1  0.190243  0.312549  0.750732  1
  Pt  Pt14  1  0.684103  0.315897  0.530665  1
  Pt  Pt15  1  0.318777  0.681223  0.469105  1
  Pt  Pt16  1  0.818624  0.181376  0.031207  1
  Pt  Pt17  1  0.183188  0.816812  0.974553  1
