# generated using pymatgen
data_Nd5YAl25Os7
_symmetry_space_group_name_H-M   'P 1'
_cell_length_a   8.91776023
_cell_length_b   8.91775999
_cell_length_c   9.64909700
_cell_angle_alpha   89.76153888
_cell_angle_beta   90.23845468
_cell_angle_gamma   119.87433750
_symmetry_Int_Tables_number   1
_chemical_formula_structural   Nd5YAl25Os7
_chemical_formula_sum   'Nd5 Y1 Al25 Os7'
_cell_volume   665.38405805
_cell_formula_units_Z   1
loop_
 _symmetry_equiv_pos_site_id
 _symmetry_equiv_pos_as_xyz
  1  'x, y, z'
loop_
 _atom_site_type_symbol
 _atom_site_label
 _atom_site_symmetry_multiplicity
 _atom_site_fract_x
 _atom_site_fract_y
 _atom_site_fract_z
 _atom_site_occupancy
  Nd  Nd0  1  0.191780  0.381434  0.243797  1
  Nd  Nd1  1  0.808198  0.618532  0.755654  1
  Nd  Nd2  1  0.618566  0.808220  0.243797  1
  Nd  Nd3  1  0.381468  0.191802  0.755654  1
  Nd  Nd4  1  0.192317  0.807683  0.255770  1
  Y  Y5  1  0.805550  0.194450  0.743870  1
  Al  Al6  1  0.326118  0.673882  0.016147  1
  Al  Al7  1  0.674566  0.325434  0.980712  1
  Al  Al8  1  0.666572  0.333428  0.515067  1
  Al  Al9  1  0.333973  0.666027  0.487260  1
  Al  Al10  1  0.160985  0.325368  0.570740  1
  Al  Al11  1  0.837468  0.673561  0.430612  1
  Al  Al12  1  0.674632  0.839015  0.570740  1
  Al  Al13  1  0.852408  0.677233  0.080324  1
  Al  Al14  1  0.326439  0.162532  0.430612  1
  Al  Al15  1  0.145597  0.320922  0.918289  1
  Al  Al16  1  0.163411  0.836589  0.576293  1
  Al  Al17  1  0.322767  0.147592  0.080324  1
  Al  Al18  1  0.836865  0.163135  0.426393  1
  Al  Al19  1  0.679078  0.854403  0.918289  1
  Al  Al20  1  0.837123  0.162877  0.074648  1
  Al  Al21  1  0.163025  0.836975  0.923061  1
  Al  Al22  1  0.563750  0.122564  0.249338  1
  Al  Al23  1  0.439131  0.879515  0.750536  1
  Al  Al24  1  0.877436  0.436250  0.249338  1
  Al  Al25  1  0.120485  0.560869  0.750536  1
  Al  Al26  1  0.567158  0.432842  0.260716  1
  Al  Al27  1  0.432878  0.567122  0.739931  1
  Al  Al28  1  0.998406  0.001594  0.250987  1
  Al  Al29  1  0.999369  0.000631  0.749501  1
  Al  Al30  1  0.500154  0.499846  0.000262  1
  Os  Os31  1  0.501469  0.000628  0.998950  1
  Os  Os32  1  0.999372  0.498531  0.998950  1
  Os  Os33  1  0.501436  0.000715  0.501069  1
  Os  Os34  1  0.999285  0.498564  0.501069  1
  Os  Os35  1  0.500347  0.499653  0.500518  1
  Os  Os36  1  0.000276  0.999724  0.999581  1
  Os  Os37  1  0.000141  0.999859  0.500664  1
