# generated using pymatgen
data_Dy2YCo8P6Os
_symmetry_space_group_name_H-M   'P 1'
_cell_length_a   3.71998900
_cell_length_b   10.50659300
_cell_length_c   12.25992200
_cell_angle_alpha   90.00000000
_cell_angle_beta   90.00000000
_cell_angle_gamma   90.00000000
_symmetry_Int_Tables_number   1
_chemical_formula_structural   Dy2YCo8P6Os
_chemical_formula_sum   'Dy4 Y2 Co16 P12 Os2'
_cell_volume   479.17182277
_cell_formula_units_Z   2
loop_
 _symmetry_equiv_pos_site_id
 _symmetry_equiv_pos_as_xyz
  1  'x, y, z'
loop_
 _atom_site_type_symbol
 _atom_site_label
 _atom_site_symmetry_multiplicity
 _atom_site_fract_x
 _atom_site_fract_y
 _atom_site_fract_z
 _atom_site_occupancy
  Dy  Dy0  1  0.500000  0.817007  0.206988  1
  Dy  Dy1  1  0.500000  0.182993  0.206988  1
  Dy  Dy2  1  0.000000  0.682993  0.793012  1
  Dy  Dy3  1  0.000000  0.317007  0.793012  1
  Y  Y4  1  0.000000  0.500000  0.524112  1
  Y  Y5  1  0.500000  0.000000  0.475888  1
  Co  Co6  1  0.500000  0.500000  0.703925  1
  Co  Co7  1  0.000000  0.000000  0.296075  1
  Co  Co8  1  0.000000  0.500000  0.986857  1
  Co  Co9  1  0.500000  0.000000  0.013143  1
  Co  Co10  1  0.500000  0.332564  0.990069  1
  Co  Co11  1  0.500000  0.667436  0.990069  1
  Co  Co12  1  0.000000  0.167436  0.009931  1
  Co  Co13  1  0.000000  0.832564  0.009931  1
  Co  Co14  1  0.500000  0.297635  0.430700  1
  Co  Co15  1  0.500000  0.702365  0.430700  1
  Co  Co16  1  0.000000  0.202365  0.569300  1
  Co  Co17  1  0.000000  0.797635  0.569300  1
  Co  Co18  1  0.500000  0.879566  0.708977  1
  Co  Co19  1  0.500000  0.120434  0.708977  1
  Co  Co20  1  0.000000  0.620434  0.291023  1
  Co  Co21  1  0.000000  0.379566  0.291023  1
  P  P22  1  0.500000  0.500000  0.880998  1
  P  P23  1  0.000000  0.000000  0.119002  1
  P  P24  1  0.500000  0.500000  0.350015  1
  P  P25  1  0.000000  0.000000  0.649985  1
  P  P26  1  0.500000  0.311334  0.616031  1
  P  P27  1  0.500000  0.688666  0.616031  1
  P  P28  1  0.000000  0.188666  0.383969  1
  P  P29  1  0.000000  0.811334  0.383969  1
  P  P30  1  0.500000  0.846487  0.893168  1
  P  P31  1  0.500000  0.153513  0.893168  1
  P  P32  1  0.000000  0.653513  0.106832  1
  P  P33  1  0.000000  0.346487  0.106832  1
  Os  Os34  1  0.500000  0.500000  0.158681  1
  Os  Os35  1  0.000000  0.000000  0.841319  1
