# generated using pymatgen
data_Nd2Al9Pt2Rh
_symmetry_space_group_name_H-M   'P 1'
_cell_length_a   7.65613738
_cell_length_b   7.65613855
_cell_length_c   9.57304100
_cell_angle_alpha   90.00000000
_cell_angle_beta   90.00000000
_cell_angle_gamma   119.59691189
_symmetry_Int_Tables_number   1
_chemical_formula_structural   Nd2Al9Pt2Rh
_chemical_formula_sum   'Nd4 Al18 Pt4 Rh2'
_cell_volume   487.92129246
_cell_formula_units_Z   2
loop_
 _symmetry_equiv_pos_site_id
 _symmetry_equiv_pos_as_xyz
  1  'x, y, z'
loop_
 _atom_site_type_symbol
 _atom_site_label
 _atom_site_symmetry_multiplicity
 _atom_site_fract_x
 _atom_site_fract_y
 _atom_site_fract_z
 _atom_site_occupancy
  Nd  Nd0  1  0.993859  0.666925  0.750000  1
  Nd  Nd1  1  0.006141  0.333075  0.250000  1
  Nd  Nd2  1  0.666925  0.993859  0.750000  1
  Nd  Nd3  1  0.333075  0.006141  0.250000  1
  Al  Al4  1  0.127726  0.127726  0.750000  1
  Al  Al5  1  0.872274  0.872274  0.250000  1
  Al  Al6  1  0.001517  0.330366  0.573447  1
  Al  Al7  1  0.998483  0.669634  0.426553  1
  Al  Al8  1  0.998483  0.669634  0.073447  1
  Al  Al9  1  0.330366  0.001517  0.926553  1
  Al  Al10  1  0.001517  0.330366  0.926553  1
  Al  Al11  1  0.669634  0.998483  0.073447  1
  Al  Al12  1  0.669634  0.998483  0.426553  1
  Al  Al13  1  0.330366  0.001517  0.573447  1
  Al  Al14  1  0.330596  0.330596  0.052142  1
  Al  Al15  1  0.669404  0.669404  0.947858  1
  Al  Al16  1  0.669404  0.669404  0.552142  1
  Al  Al17  1  0.330596  0.330596  0.447858  1
  Al  Al18  1  0.340015  0.543913  0.750000  1
  Al  Al19  1  0.659985  0.456087  0.250000  1
  Al  Al20  1  0.543913  0.340015  0.750000  1
  Al  Al21  1  0.456087  0.659985  0.250000  1
  Pt  Pt22  1  0.671193  0.328807  0.500000  1
  Pt  Pt23  1  0.328807  0.671193  0.500000  1
  Pt  Pt24  1  0.328807  0.671193  0.000000  1
  Pt  Pt25  1  0.671193  0.328807  0.000000  1
  Rh  Rh26  1  0.000000  0.000000  0.500000  1
  Rh  Rh27  1  0.000000  0.000000  0.000000  1
