# generated using pymatgen
data_Tm8Ta3Nb9Ge16
_symmetry_space_group_name_H-M   'P 1'
_cell_length_a   6.96400900
_cell_length_b   7.13481600
_cell_length_c   13.52571600
_cell_angle_alpha   90.00000000
_cell_angle_beta   90.00000000
_cell_angle_gamma   90.00386878
_symmetry_Int_Tables_number   1
_chemical_formula_structural   Tm8Ta3Nb9Ge16
_chemical_formula_sum   'Tm8 Ta3 Nb9 Ge16'
_cell_volume   672.05120645
_cell_formula_units_Z   1
loop_
 _symmetry_equiv_pos_site_id
 _symmetry_equiv_pos_as_xyz
  1  'x, y, z'
loop_
 _atom_site_type_symbol
 _atom_site_label
 _atom_site_symmetry_multiplicity
 _atom_site_fract_x
 _atom_site_fract_y
 _atom_site_fract_z
 _atom_site_occupancy
  Tm  Tm0  1  0.494005  0.674672  0.593781  1
  Tm  Tm1  1  0.993929  0.825184  0.906264  1
  Tm  Tm2  1  0.506072  0.325187  0.093803  1
  Tm  Tm3  1  0.006049  0.174605  0.406153  1
  Tm  Tm4  1  0.506072  0.325187  0.406197  1
  Tm  Tm5  1  0.006049  0.174605  0.093847  1
  Tm  Tm6  1  0.494005  0.674672  0.906219  1
  Tm  Tm7  1  0.993929  0.825184  0.593736  1
  Ta  Ta8  1  0.335343  0.013251  0.750000  1
  Ta  Ta9  1  0.164393  0.513202  0.250000  1
  Ta  Ta10  1  0.664394  0.986941  0.250000  1
  Nb  Nb11  1  0.658963  0.168938  0.626250  1
  Nb  Nb12  1  0.159308  0.330863  0.873708  1
  Nb  Nb13  1  0.340611  0.830817  0.126363  1
  Nb  Nb14  1  0.840863  0.669220  0.373571  1
  Nb  Nb15  1  0.340611  0.830817  0.373637  1
  Nb  Nb16  1  0.840863  0.669220  0.126429  1
  Nb  Nb17  1  0.658963  0.168938  0.873750  1
  Nb  Nb18  1  0.159308  0.330863  0.626292  1
  Nb  Nb19  1  0.835449  0.487724  0.750000  1
  Ge  Ge20  1  0.677417  0.962502  0.458152  1
  Ge  Ge21  1  0.177304  0.537314  0.041793  1
  Ge  Ge22  1  0.322599  0.037456  0.958214  1
  Ge  Ge23  1  0.822834  0.462259  0.541495  1
  Ge  Ge24  1  0.322599  0.037456  0.541786  1
  Ge  Ge25  1  0.822834  0.462259  0.958505  1
  Ge  Ge26  1  0.677417  0.962502  0.041848  1
  Ge  Ge27  1  0.177304  0.537314  0.458207  1
  Ge  Ge28  1  0.459586  0.379899  0.750000  1
  Ge  Ge29  1  0.959266  0.119890  0.750000  1
  Ge  Ge30  1  0.540635  0.620042  0.250000  1
  Ge  Ge31  1  0.040454  0.880273  0.250000  1
  Ge  Ge32  1  0.693895  0.856423  0.750000  1
  Ge  Ge33  1  0.194545  0.644272  0.750000  1
  Ge  Ge34  1  0.306065  0.144398  0.250000  1
  Ge  Ge35  1  0.806067  0.355650  0.250000  1
