# generated using pymatgen
data_Li4TbYb3Si8
_symmetry_space_group_name_H-M   'P 1'
_cell_length_a   3.79951500
_cell_length_b   7.80763677
_cell_length_c   10.48606211
_cell_angle_alpha   90.16007428
_cell_angle_beta   90.00000000
_cell_angle_gamma   90.00000000
_symmetry_Int_Tables_number   1
_chemical_formula_structural   Li4TbYb3Si8
_chemical_formula_sum   'Li4 Tb1 Yb3 Si8'
_cell_volume   311.07026187
_cell_formula_units_Z   1
loop_
 _symmetry_equiv_pos_site_id
 _symmetry_equiv_pos_as_xyz
  1  'x, y, z'
loop_
 _atom_site_type_symbol
 _atom_site_label
 _atom_site_symmetry_multiplicity
 _atom_site_fract_x
 _atom_site_fract_y
 _atom_site_fract_z
 _atom_site_occupancy
  Li  Li0  1  0.250000  0.990760  0.389630  1
  Li  Li1  1  0.250000  0.499167  0.107962  1
  Li  Li2  1  0.750000  0.003101  0.609155  1
  Li  Li3  1  0.750000  0.503367  0.889205  1
  Tb  Tb4  1  0.750000  0.368531  0.366399  1
  Yb  Yb5  1  0.250000  0.137260  0.866686  1
  Yb  Yb6  1  0.250000  0.635003  0.634420  1
  Yb  Yb7  1  0.750000  0.864409  0.135664  1
  Si  Si8  1  0.250000  0.233668  0.564216  1
  Si  Si9  1  0.250000  0.735322  0.931294  1
  Si  Si10  1  0.750000  0.760250  0.432185  1
  Si  Si11  1  0.750000  0.270514  0.072543  1
  Si  Si12  1  0.250000  0.657394  0.322062  1
  Si  Si13  1  0.250000  0.166910  0.182079  1
  Si  Si14  1  0.750000  0.336928  0.673676  1
  Si  Si15  1  0.750000  0.837416  0.822826  1
