# generated using pymatgen
data_Sr3U3(Sb4Pt3)2
_symmetry_space_group_name_H-M   'P 1'
_cell_length_a   8.56569210
_cell_length_b   8.62244680
_cell_length_c   8.62244680
_cell_angle_alpha   110.22382882
_cell_angle_beta   109.39037759
_cell_angle_gamma   109.06521628
_symmetry_Int_Tables_number   1
_chemical_formula_structural   Sr3U3(Sb4Pt3)2
_chemical_formula_sum   'Sr3 U3 Sb8 Pt6'
_cell_volume   488.57755648
_cell_formula_units_Z   1
loop_
 _symmetry_equiv_pos_site_id
 _symmetry_equiv_pos_as_xyz
  1  'x, y, z'
loop_
 _atom_site_type_symbol
 _atom_site_label
 _atom_site_symmetry_multiplicity
 _atom_site_fract_x
 _atom_site_fract_y
 _atom_site_fract_z
 _atom_site_occupancy
  Sr  Sr0  1  0.868639  0.246275  0.120135  1
  Sr  Sr1  1  0.631361  0.751496  0.377636  1
  Sr  Sr2  1  0.250000  0.130594  0.880594  1
  U  U3  1  0.750000  0.377133  0.627133  1
  U  U4  1  0.122493  0.872751  0.249349  1
  U  U5  1  0.377507  0.626855  0.750257  1
  Sb  Sb6  1  0.670446  0.502662  0.995253  1
  Sb  Sb7  1  0.495669  0.993793  0.666054  1
  Sb  Sb8  1  0.004331  0.670385  0.498124  1
  Sb  Sb9  1  0.829554  0.824807  0.832216  1
  Sb  Sb10  1  0.491481  0.991165  0.161912  1
  Sb  Sb11  1  0.174603  0.507708  0.006406  1
  Sb  Sb12  1  0.008519  0.170431  0.499684  1
  Sb  Sb13  1  0.325397  0.331802  0.333104  1
  Pt  Pt14  1  0.390860  0.249633  0.611902  1
  Pt  Pt15  1  0.109140  0.721042  0.858773  1
  Pt  Pt16  1  0.250000  0.629437  0.379437  1
  Pt  Pt17  1  0.750000  0.869773  0.119773  1
  Pt  Pt18  1  0.642967  0.378897  0.296328  1
  Pt  Pt19  1  0.857033  0.153361  0.735930  1
