# generated using pymatgen
data_Tb2Tm7Lu(CoSb2)2
_symmetry_space_group_name_H-M   'P 1'
_cell_length_a   7.78028400
_cell_length_b   8.75084557
_cell_length_c   12.07122178
_cell_angle_alpha   90.04123386
_cell_angle_beta   90.00000000
_cell_angle_gamma   90.00000000
_symmetry_Int_Tables_number   1
_chemical_formula_structural   Tb2Tm7Lu(CoSb2)2
_chemical_formula_sum   'Tb4 Tm14 Lu2 Co4 Sb8'
_cell_volume   821.85762046
_cell_formula_units_Z   2
loop_
 _symmetry_equiv_pos_site_id
 _symmetry_equiv_pos_as_xyz
  1  'x, y, z'
loop_
 _atom_site_type_symbol
 _atom_site_label
 _atom_site_symmetry_multiplicity
 _atom_site_fract_x
 _atom_site_fract_y
 _atom_site_fract_z
 _atom_site_occupancy
  Tb  Tb0  1  0.621930  0.750169  0.306750  1
  Tb  Tb1  1  0.121930  0.249831  0.193250  1
  Tb  Tb2  1  0.377456  0.249676  0.693201  1
  Tb  Tb3  1  0.877456  0.750324  0.806799  1
  Tm  Tm4  1  0.154707  0.750287  0.203827  1
  Tm  Tm5  1  0.654707  0.249713  0.296173  1
  Tm  Tm6  1  0.845092  0.249892  0.796420  1
  Tm  Tm7  1  0.345092  0.750108  0.703580  1
  Tm  Tm8  1  0.449487  0.750240  0.997724  1
  Tm  Tm9  1  0.949487  0.249760  0.502276  1
  Tm  Tm10  1  0.551371  0.249615  0.002401  1
  Tm  Tm11  1  0.051371  0.750385  0.497599  1
  Tm  Tm12  1  0.177178  0.463446  0.934703  1
  Tm  Tm13  1  0.677178  0.536554  0.565297  1
  Tm  Tm14  1  0.176757  0.036619  0.934767  1
  Tm  Tm15  1  0.676757  0.963381  0.565233  1
  Tm  Tm16  1  0.822895  0.536767  0.065464  1
  Tm  Tm17  1  0.322895  0.463233  0.434536  1
  Lu  Lu18  1  0.824663  0.963167  0.065207  1
  Lu  Lu19  1  0.324663  0.036833  0.434793  1
  Co  Co20  1  0.431793  0.750507  0.491095  1
  Co  Co21  1  0.931793  0.249493  0.008905  1
  Co  Co22  1  0.566687  0.249433  0.508553  1
  Co  Co23  1  0.066687  0.750567  0.991447  1
  Sb  Sb24  1  0.930369  0.991554  0.328525  1
  Sb  Sb25  1  0.430369  0.008446  0.171475  1
  Sb  Sb26  1  0.069938  0.491456  0.671515  1
  Sb  Sb27  1  0.569938  0.508544  0.828485  1
  Sb  Sb28  1  0.069783  0.008555  0.671499  1
  Sb  Sb29  1  0.569783  0.991445  0.828501  1
  Sb  Sb30  1  0.929894  0.508536  0.328545  1
  Sb  Sb31  1  0.429894  0.491464  0.171455  1
