# generated using pymatgen
data_SmGd5(RuI3)2
_symmetry_space_group_name_H-M   'P 1'
_cell_length_a   4.24675500
_cell_length_b   8.96725776
_cell_length_c   12.39401700
_cell_angle_alpha   94.05304651
_cell_angle_beta   90.00000000
_cell_angle_gamma   90.00000000
_symmetry_Int_Tables_number   1
_chemical_formula_structural   SmGd5(RuI3)2
_chemical_formula_sum   'Sm1 Gd5 Ru2 I6'
_cell_volume   470.80539833
_cell_formula_units_Z   1
loop_
 _symmetry_equiv_pos_site_id
 _symmetry_equiv_pos_as_xyz
  1  'x, y, z'
loop_
 _atom_site_type_symbol
 _atom_site_label
 _atom_site_symmetry_multiplicity
 _atom_site_fract_x
 _atom_site_fract_y
 _atom_site_fract_z
 _atom_site_occupancy
  Sm  Sm0  1  0.750000  0.271862  0.602900  1
  Gd  Gd1  1  0.250000  0.733201  0.397648  1
  Gd  Gd2  1  0.750000  0.870740  0.624114  1
  Gd  Gd3  1  0.250000  0.130545  0.374811  1
  Gd  Gd4  1  0.750000  0.897233  0.183161  1
  Gd  Gd5  1  0.250000  0.099811  0.817298  1
  Ru  Ru6  1  0.750000  0.943253  0.406512  1
  Ru  Ru7  1  0.250000  0.057494  0.592856  1
  I  I8  1  0.750000  0.425914  0.365061  1
  I  I9  1  0.250000  0.577556  0.634409  1
  I  I10  1  0.750000  0.857165  0.890765  1
  I  I11  1  0.250000  0.138590  0.108176  1
  I  I12  1  0.750000  0.353841  0.865484  1
  I  I13  1  0.250000  0.642794  0.136808  1
