# generated using pymatgen
data_K2SnPt2
_symmetry_space_group_name_H-M   'P 1'
_cell_length_a   6.06208768
_cell_length_b   6.06208994
_cell_length_c   8.16483401
_cell_angle_alpha   98.00681932
_cell_angle_beta   98.00683336
_cell_angle_gamma   68.79933698
_symmetry_Int_Tables_number   1
_chemical_formula_structural   K2SnPt2
_chemical_formula_sum   'K4 Sn2 Pt4'
_cell_volume   275.72655819
_cell_formula_units_Z   2
loop_
 _symmetry_equiv_pos_site_id
 _symmetry_equiv_pos_as_xyz
  1  'x, y, z'
loop_
 _atom_site_type_symbol
 _atom_site_label
 _atom_site_symmetry_multiplicity
 _atom_site_fract_x
 _atom_site_fract_y
 _atom_site_fract_z
 _atom_site_occupancy
  K  K0  1  0.759850  0.522095  0.133493  1
  K  K1  1  0.477905  0.240150  0.366507  1
  K  K2  1  0.522095  0.759850  0.633492  1
  K  K3  1  0.240150  0.477904  0.866507  1
  Sn  Sn4  1  0.057452  0.942548  0.250001  1
  Sn  Sn5  1  0.942547  0.057452  0.750000  1
  Pt  Pt6  1  0.712165  0.007192  0.992855  1
  Pt  Pt7  1  0.992808  0.287834  0.507146  1
  Pt  Pt8  1  0.007192  0.712165  0.492855  1
  Pt  Pt9  1  0.287834  0.992808  0.007145  1
