# generated using pymatgen
data_LiEu2MgSi3
_symmetry_space_group_name_H-M   'P 1'
_cell_length_a   9.77632536
_cell_length_b   9.77632472
_cell_length_c   7.03348800
_cell_angle_alpha   90.00000000
_cell_angle_beta   90.00000000
_cell_angle_gamma   153.27786764
_symmetry_Int_Tables_number   1
_chemical_formula_structural   LiEu2MgSi3
_chemical_formula_sum   'Li2 Eu4 Mg2 Si6'
_cell_volume   302.28054193
_cell_formula_units_Z   2
loop_
 _symmetry_equiv_pos_site_id
 _symmetry_equiv_pos_as_xyz
  1  'x, y, z'
loop_
 _atom_site_type_symbol
 _atom_site_label
 _atom_site_symmetry_multiplicity
 _atom_site_fract_x
 _atom_site_fract_y
 _atom_site_fract_z
 _atom_site_occupancy
  Li  Li0  1  0.808975  0.191025  0.952140  1
  Li  Li1  1  0.191025  0.808975  0.452140  1
  Eu  Eu2  1  0.447711  0.552289  0.748346  1
  Eu  Eu3  1  0.552289  0.447711  0.248346  1
  Eu  Eu4  1  0.652828  0.347172  0.738287  1
  Eu  Eu5  1  0.347172  0.652828  0.238287  1
  Mg  Mg6  1  0.188037  0.811963  0.060137  1
  Mg  Mg7  1  0.811963  0.188037  0.560137  1
  Si  Si8  1  0.279378  0.720622  0.758117  1
  Si  Si9  1  0.720622  0.279378  0.258117  1
  Si  Si10  1  0.945900  0.054100  0.417077  1
  Si  Si11  1  0.055831  0.944169  0.575896  1
  Si  Si12  1  0.944169  0.055831  0.075896  1
  Si  Si13  1  0.054100  0.945900  0.917077  1
