# generated using pymatgen
data_Sc12Zn2RuI16
_symmetry_space_group_name_H-M   'P 1'
_cell_length_a   9.24683623
_cell_length_b   12.19365477
_cell_length_c   12.85233524
_cell_angle_alpha   117.01935240
_cell_angle_beta   101.15972361
_cell_angle_gamma   100.53559633
_symmetry_Int_Tables_number   1
_chemical_formula_structural   Sc12Zn2RuI16
_chemical_formula_sum   'Sc12 Zn2 Ru1 I16'
_cell_volume   1204.24250384
_cell_formula_units_Z   1
loop_
 _symmetry_equiv_pos_site_id
 _symmetry_equiv_pos_as_xyz
  1  'x, y, z'
loop_
 _atom_site_type_symbol
 _atom_site_label
 _atom_site_symmetry_multiplicity
 _atom_site_fract_x
 _atom_site_fract_y
 _atom_site_fract_z
 _atom_site_occupancy
  Sc  Sc0  1  0.089979  0.268520  0.358347  1
  Sc  Sc1  1  0.902139  0.725966  0.638312  1
  Sc  Sc2  1  0.772365  0.535126  0.333520  1
  Sc  Sc3  1  0.222150  0.463562  0.672457  1
  Sc  Sc4  1  0.278622  0.732190  0.641699  1
  Sc  Sc5  1  0.717838  0.273175  0.361411  1
  Sc  Sc6  1  0.145948  0.536843  0.328239  1
  Sc  Sc7  1  0.845782  0.464542  0.665922  1
  Sc  Sc8  1  0.416498  0.364249  0.284485  1
  Sc  Sc9  1  0.597376  0.635710  0.715575  1
  Sc  Sc10  1  0.466952  0.315186  0.518866  1
  Sc  Sc11  1  0.546621  0.684829  0.481044  1
  Zn  Zn12  1  0.993965  0.499877  0.499808  1
  Zn  Zn13  1  0.344640  0.500290  0.499900  1
  Ru  Ru14  1  0.660538  0.499947  0.500299  1
  I  I15  1  0.391513  0.732050  0.871791  1
  I  I16  1  0.609295  0.263683  0.121797  1
  I  I17  1  0.182684  0.954837  0.776625  1
  I  I18  1  0.815175  0.045197  0.223313  1
  I  I19  1  0.338779  0.102133  0.256009  1
  I  I20  1  0.657593  0.897639  0.743853  1
  I  I21  1  0.555924  0.438605  0.793563  1
  I  I22  1  0.437016  0.561548  0.206318  1
  I  I23  1  0.305582  0.817741  0.463241  1
  I  I24  1  0.696327  0.176675  0.537136  1
  I  I25  1  0.170656  0.181708  0.534908  1
  I  I26  1  0.834169  0.823868  0.464870  1
  I  I27  1  0.925876  0.573754  0.165955  1
  I  I28  1  0.071710  0.426214  0.834026  1
  I  I29  1  0.924841  0.735029  0.878179  1
  I  I30  1  0.081448  0.269308  0.128532  1
