# generated using pymatgen
data_YTm3Ni14
_symmetry_space_group_name_H-M   'P 1'
_cell_length_a   4.90305420
_cell_length_b   4.90305351
_cell_length_c   12.37630495
_cell_angle_alpha   101.42484502
_cell_angle_beta   78.57515553
_cell_angle_gamma   120.00000665
_symmetry_Int_Tables_number   1
_chemical_formula_structural   YTm3Ni14
_chemical_formula_sum   'Y1 Tm3 Ni14'
_cell_volume   250.83423936
_cell_formula_units_Z   1
loop_
 _symmetry_equiv_pos_site_id
 _symmetry_equiv_pos_as_xyz
  1  'x, y, z'
loop_
 _atom_site_type_symbol
 _atom_site_label
 _atom_site_symmetry_multiplicity
 _atom_site_fract_x
 _atom_site_fract_y
 _atom_site_fract_z
 _atom_site_occupancy
  Y  Y0  1  0.050578  0.949421  0.848263  1
  Tm  Tm1  1  0.949379  0.050622  0.151867  1
  Tm  Tm2  1  0.853100  0.146901  0.440701  1
  Tm  Tm3  1  0.147355  0.852644  0.557932  1
  Ni  Ni4  1  0.499817  0.000617  0.000983  1
  Ni  Ni5  1  0.999383  0.500183  0.000983  1
  Ni  Ni6  1  0.499817  0.500183  0.000983  1
  Ni  Ni7  1  0.611510  0.388489  0.165469  1
  Ni  Ni8  1  0.277997  0.722002  0.166008  1
  Ni  Ni9  1  0.389187  0.108609  0.330235  1
  Ni  Ni10  1  0.891390  0.610812  0.330235  1
  Ni  Ni11  1  0.389187  0.610813  0.330235  1
  Ni  Ni12  1  0.500058  0.499941  0.499822  1
  Ni  Ni13  1  0.611228  0.388773  0.669062  1
  Ni  Ni14  1  0.108483  0.388773  0.669062  1
  Ni  Ni15  1  0.611228  0.891518  0.669062  1
  Ni  Ni16  1  0.721898  0.278103  0.834307  1
  Ni  Ni17  1  0.388403  0.611595  0.834788  1
