# generated using pymatgen
data_Ho8BeCoB28
_symmetry_space_group_name_H-M   'P 1'
_cell_length_a   7.19725600
_cell_length_b   7.19725600
_cell_length_c   7.41527900
_cell_angle_alpha   90.00000000
_cell_angle_beta   90.00000000
_cell_angle_gamma   90.00000000
_symmetry_Int_Tables_number   1
_chemical_formula_structural   Ho8BeCoB28
_chemical_formula_sum   'Ho8 Be1 Co1 B28'
_cell_volume   384.11511483
_cell_formula_units_Z   1
loop_
 _symmetry_equiv_pos_site_id
 _symmetry_equiv_pos_as_xyz
  1  'x, y, z'
loop_
 _atom_site_type_symbol
 _atom_site_label
 _atom_site_symmetry_multiplicity
 _atom_site_fract_x
 _atom_site_fract_y
 _atom_site_fract_z
 _atom_site_occupancy
  Ho  Ho0  1  0.195911  0.329576  0.000000  1
  Ho  Ho1  1  0.670424  0.195911  0.000000  1
  Ho  Ho2  1  0.329576  0.804089  0.000000  1
  Ho  Ho3  1  0.694057  0.172219  0.500000  1
  Ho  Ho4  1  0.305943  0.827781  0.500000  1
  Ho  Ho5  1  0.804089  0.670424  0.000000  1
  Ho  Ho6  1  0.827781  0.694057  0.500000  1
  Ho  Ho7  1  0.172219  0.305943  0.500000  1
  Be  Be8  1  0.500000  0.500000  0.500000  1
  Co  Co9  1  0.000000  0.000000  0.000000  1
  B  B10  1  0.174004  0.038836  0.229612  1
  B  B11  1  0.961164  0.174004  0.229612  1
  B  B12  1  0.038836  0.825996  0.229612  1
  B  B13  1  0.674556  0.460900  0.271188  1
  B  B14  1  0.325444  0.539100  0.271188  1
  B  B15  1  0.825996  0.961164  0.229612  1
  B  B16  1  0.539100  0.674556  0.271188  1
  B  B17  1  0.460900  0.325444  0.271188  1
  B  B18  1  0.825996  0.961164  0.770388  1
  B  B19  1  0.038836  0.825996  0.770388  1
  B  B20  1  0.961164  0.174004  0.770388  1
  B  B21  1  0.325444  0.539100  0.728812  1
  B  B22  1  0.674556  0.460900  0.728812  1
  B  B23  1  0.174004  0.038836  0.770388  1
  B  B24  1  0.460900  0.325444  0.728812  1
  B  B25  1  0.539100  0.674556  0.728812  1
  B  B26  1  0.089017  0.588548  0.250932  1
  B  B27  1  0.411452  0.089017  0.250932  1
  B  B28  1  0.588548  0.910983  0.250932  1
  B  B29  1  0.910983  0.411452  0.250932  1
  B  B30  1  0.910983  0.411452  0.749068  1
  B  B31  1  0.588548  0.910983  0.749068  1
  B  B32  1  0.411452  0.089017  0.749068  1
  B  B33  1  0.089017  0.588548  0.749068  1
  B  B34  1  0.000000  0.000000  0.388453  1
  B  B35  1  0.500000  0.500000  0.112754  1
  B  B36  1  0.000000  0.000000  0.611547  1
  B  B37  1  0.500000  0.500000  0.887246  1
