# generated using pymatgen
data_CeDySn5Rh3
_symmetry_space_group_name_H-M   'P 1'
_cell_length_a   13.52653435
_cell_length_b   13.52653507
_cell_length_c   7.26297400
_cell_angle_alpha   90.00000000
_cell_angle_beta   90.00000000
_cell_angle_gamma   160.94200303
_symmetry_Int_Tables_number   1
_chemical_formula_structural   CeDySn5Rh3
_chemical_formula_sum   'Ce2 Dy2 Sn10 Rh6'
_cell_volume   433.91447014
_cell_formula_units_Z   2
loop_
 _symmetry_equiv_pos_site_id
 _symmetry_equiv_pos_as_xyz
  1  'x, y, z'
loop_
 _atom_site_type_symbol
 _atom_site_label
 _atom_site_symmetry_multiplicity
 _atom_site_fract_x
 _atom_site_fract_y
 _atom_site_fract_z
 _atom_site_occupancy
  Ce  Ce0  1  0.171116  0.828884  0.757726  1
  Ce  Ce1  1  0.828884  0.171116  0.257726  1
  Dy  Dy2  1  0.476055  0.523945  0.736637  1
  Dy  Dy3  1  0.523945  0.476055  0.236637  1
  Sn  Sn4  1  0.880217  0.119783  0.732002  1
  Sn  Sn5  1  0.119783  0.880217  0.232002  1
  Sn  Sn6  1  0.705202  0.294798  0.050248  1
  Sn  Sn7  1  0.294798  0.705202  0.550248  1
  Sn  Sn8  1  0.595138  0.404862  0.610656  1
  Sn  Sn9  1  0.404862  0.595138  0.110656  1
  Sn  Sn10  1  0.953028  0.046972  0.399167  1
  Sn  Sn11  1  0.046972  0.953028  0.899167  1
  Sn  Sn12  1  0.290745  0.709255  0.977252  1
  Sn  Sn13  1  0.709255  0.290745  0.477252  1
  Rh  Rh14  1  0.050140  0.949860  0.516030  1
  Rh  Rh15  1  0.949860  0.050140  0.016030  1
  Rh  Rh16  1  0.777519  0.222481  0.764765  1
  Rh  Rh17  1  0.222481  0.777519  0.264765  1
  Rh  Rh18  1  0.394444  0.605556  0.483516  1
  Rh  Rh19  1  0.605556  0.394444  0.983516  1
