# generated using pymatgen
data_Ac2NdTh(Zn5Sn)2
_symmetry_space_group_name_H-M   'P 1'
_cell_length_a   8.72940106
_cell_length_b   8.72940206
_cell_length_c   9.20244600
_cell_angle_alpha   90.00000000
_cell_angle_beta   90.00000000
_cell_angle_gamma   149.47825185
_symmetry_Int_Tables_number   1
_chemical_formula_structural   Ac2NdTh(Zn5Sn)2
_chemical_formula_sum   'Ac2 Nd1 Th1 Zn10 Sn2'
_cell_volume   356.14006323
_cell_formula_units_Z   1
loop_
 _symmetry_equiv_pos_site_id
 _symmetry_equiv_pos_as_xyz
  1  'x, y, z'
loop_
 _atom_site_type_symbol
 _atom_site_label
 _atom_site_symmetry_multiplicity
 _atom_site_fract_x
 _atom_site_fract_y
 _atom_site_fract_z
 _atom_site_occupancy
  Ac  Ac0  1  0.000357  0.999643  0.501917  1
  Ac  Ac1  1  0.000357  0.999643  0.998083  1
  Nd  Nd2  1  0.793147  0.206853  0.750000  1
  Th  Th3  1  0.207124  0.792876  0.250000  1
  Zn  Zn4  1  0.811027  0.188973  0.390902  1
  Zn  Zn5  1  0.187805  0.812195  0.609650  1
  Zn  Zn6  1  0.811027  0.188973  0.109098  1
  Zn  Zn7  1  0.187805  0.812195  0.890350  1
  Zn  Zn8  1  0.661157  0.338843  0.483887  1
  Zn  Zn9  1  0.339977  0.660023  0.514655  1
  Zn  Zn10  1  0.661157  0.338843  0.016113  1
  Zn  Zn11  1  0.339977  0.660023  0.985345  1
  Zn  Zn12  1  0.395635  0.604365  0.250000  1
  Zn  Zn13  1  0.604493  0.395507  0.750000  1
  Sn  Sn14  1  0.559963  0.440037  0.250000  1
  Sn  Sn15  1  0.438991  0.561009  0.750000  1
