# generated using pymatgen
data_Sm6Cr2Co15P12Rh
_symmetry_space_group_name_H-M   'P 1'
_cell_length_a   3.73972500
_cell_length_b   10.69868900
_cell_length_c   12.38627500
_cell_angle_alpha   90.00000000
_cell_angle_beta   90.00000000
_cell_angle_gamma   90.00000000
_symmetry_Int_Tables_number   1
_chemical_formula_structural   Sm6Cr2Co15P12Rh
_chemical_formula_sum   'Sm6 Cr2 Co15 P12 Rh1'
_cell_volume   495.57677916
_cell_formula_units_Z   1
loop_
 _symmetry_equiv_pos_site_id
 _symmetry_equiv_pos_as_xyz
  1  'x, y, z'
loop_
 _atom_site_type_symbol
 _atom_site_label
 _atom_site_symmetry_multiplicity
 _atom_site_fract_x
 _atom_site_fract_y
 _atom_site_fract_z
 _atom_site_occupancy
  Sm  Sm0  1  0.000000  0.500000  0.519025  1
  Sm  Sm1  1  0.500000  0.000000  0.477964  1
  Sm  Sm2  1  0.500000  0.818816  0.204690  1
  Sm  Sm3  1  0.500000  0.181184  0.204690  1
  Sm  Sm4  1  0.000000  0.685311  0.796336  1
  Sm  Sm5  1  0.000000  0.314689  0.796336  1
  Cr  Cr6  1  0.500000  0.500000  0.154813  1
  Cr  Cr7  1  0.000000  0.000000  0.845331  1
  Co  Co8  1  0.000000  0.000000  0.295567  1
  Co  Co9  1  0.000000  0.500000  0.990296  1
  Co  Co10  1  0.500000  0.000000  0.012414  1
  Co  Co11  1  0.500000  0.331506  0.995591  1
  Co  Co12  1  0.500000  0.668494  0.995591  1
  Co  Co13  1  0.000000  0.166434  0.006525  1
  Co  Co14  1  0.000000  0.833566  0.006525  1
  Co  Co15  1  0.500000  0.294577  0.428729  1
  Co  Co16  1  0.500000  0.705423  0.428729  1
  Co  Co17  1  0.000000  0.201203  0.567878  1
  Co  Co18  1  0.000000  0.798797  0.567878  1
  Co  Co19  1  0.500000  0.882249  0.710539  1
  Co  Co20  1  0.500000  0.117751  0.710539  1
  Co  Co21  1  0.000000  0.619368  0.289845  1
  Co  Co22  1  0.000000  0.380632  0.289845  1
  P  P23  1  0.500000  0.500000  0.892192  1
  P  P24  1  0.000000  0.000000  0.114930  1
  P  P25  1  0.500000  0.500000  0.342418  1
  P  P26  1  0.000000  0.000000  0.657805  1
  P  P27  1  0.500000  0.300368  0.612249  1
  P  P28  1  0.500000  0.699632  0.612249  1
  P  P29  1  0.000000  0.189782  0.383968  1
  P  P30  1  0.000000  0.810218  0.383968  1
  P  P31  1  0.500000  0.849016  0.894622  1
  P  P32  1  0.500000  0.150984  0.894622  1
  P  P33  1  0.000000  0.653098  0.106570  1
  P  P34  1  0.000000  0.346902  0.106570  1
  Rh  Rh35  1  0.500000  0.500000  0.702162  1
