# generated using pymatgen
data_K7Mn2O8
_symmetry_space_group_name_H-M   'P 1'
_cell_length_a   10.38710700
_cell_length_b   6.36499709
_cell_length_c   20.50006200
_cell_angle_alpha   87.04644129
_cell_angle_beta   90.00000000
_cell_angle_gamma   90.00000000
_symmetry_Int_Tables_number   1
_chemical_formula_structural   K7Mn2O8
_chemical_formula_sum   'K28 Mn8 O32'
_cell_volume   1353.53877265
_cell_formula_units_Z   4
loop_
 _symmetry_equiv_pos_site_id
 _symmetry_equiv_pos_as_xyz
  1  'x, y, z'
loop_
 _atom_site_type_symbol
 _atom_site_label
 _atom_site_symmetry_multiplicity
 _atom_site_fract_x
 _atom_site_fract_y
 _atom_site_fract_z
 _atom_site_occupancy
  K  K0  1  0.549154  0.592789  0.870046  1
  K  K1  1  0.049154  0.407211  0.629954  1
  K  K2  1  0.450846  0.407211  0.129954  1
  K  K3  1  0.950846  0.592789  0.370046  1
  K  K4  1  0.890931  0.806237  0.531548  1
  K  K5  1  0.390931  0.193763  0.968452  1
  K  K6  1  0.109069  0.193763  0.468452  1
  K  K7  1  0.609069  0.806237  0.031548  1
  K  K8  1  0.833761  0.913322  0.886514  1
  K  K9  1  0.333761  0.086678  0.613486  1
  K  K10  1  0.166239  0.086678  0.113486  1
  K  K11  1  0.666239  0.913322  0.386514  1
  K  K12  1  0.834082  0.412265  0.815711  1
  K  K13  1  0.334082  0.587735  0.684289  1
  K  K14  1  0.165918  0.587735  0.184289  1
  K  K15  1  0.665918  0.412265  0.315711  1
  K  K16  1  0.559639  0.732513  0.541291  1
  K  K17  1  0.059639  0.267487  0.958709  1
  K  K18  1  0.440361  0.267487  0.458709  1
  K  K19  1  0.940361  0.732513  0.041291  1
  K  K20  1  0.010065  0.875726  0.711715  1
  K  K21  1  0.510065  0.124274  0.788285  1
  K  K22  1  0.989935  0.124274  0.288285  1
  K  K23  1  0.489935  0.875726  0.211715  1
  K  K24  1  0.702735  0.220591  0.628592  1
  K  K25  1  0.202735  0.779409  0.871408  1
  K  K26  1  0.297265  0.779409  0.371408  1
  K  K27  1  0.797265  0.220591  0.128592  1
  Mn  Mn28  1  0.218426  0.712527  0.526777  1
  Mn  Mn29  1  0.718426  0.287473  0.973223  1
  Mn  Mn30  1  0.781574  0.287473  0.473223  1
  Mn  Mn31  1  0.281574  0.712527  0.026777  1
  Mn  Mn32  1  0.338227  0.285374  0.294144  1
  Mn  Mn33  1  0.161773  0.285374  0.794144  1
  Mn  Mn34  1  0.838227  0.714626  0.205856  1
  Mn  Mn35  1  0.661773  0.714626  0.705856  1
  O  O36  1  0.726444  0.826678  0.773377  1
  O  O37  1  0.226444  0.173322  0.726623  1
  O  O38  1  0.273556  0.173322  0.226623  1
  O  O39  1  0.773556  0.826678  0.273377  1
  O  O40  1  0.780576  0.675344  0.649625  1
  O  O41  1  0.280576  0.324656  0.850375  1
  O  O42  1  0.219424  0.324656  0.350375  1
  O  O43  1  0.719424  0.675344  0.149625  1
  O  O44  1  0.594089  0.474691  0.730683  1
  O  O45  1  0.094089  0.525309  0.769317  1
  O  O46  1  0.405911  0.525309  0.269317  1
  O  O47  1  0.905911  0.474691  0.230683  1
  O  O48  1  0.540719  0.876462  0.673337  1
  O  O49  1  0.040719  0.123538  0.826663  1
  O  O50  1  0.459281  0.123538  0.326663  1
  O  O51  1  0.959281  0.876462  0.173337  1
  O  O52  1  0.790498  0.537419  0.942558  1
  O  O53  1  0.209502  0.462581  0.057442  1
  O  O54  1  0.709502  0.537419  0.442558  1
  O  O55  1  0.336714  0.901410  0.494969  1
  O  O56  1  0.891666  0.271093  0.542123  1
  O  O57  1  0.391666  0.728907  0.957877  1
  O  O58  1  0.108334  0.728907  0.457877  1
  O  O59  1  0.608334  0.271093  0.042123  1
  O  O60  1  0.146504  0.790045  0.603192  1
  O  O61  1  0.646504  0.209955  0.896808  1
  O  O62  1  0.853496  0.209955  0.396808  1
  O  O63  1  0.353496  0.790045  0.103192  1
  O  O64  1  0.163286  0.901410  0.994969  1
  O  O65  1  0.663286  0.098590  0.505031  1
  O  O66  1  0.836714  0.098590  0.005031  1
  O  O67  1  0.290498  0.462581  0.557442  1
