# generated using pymatgen
data_Ga4Hg11(AsI4)4
_symmetry_space_group_name_H-M   'P 1'
_cell_length_a   8.28339717
_cell_length_b   8.28339825
_cell_length_c   23.52127516
_cell_angle_alpha   82.26048247
_cell_angle_beta   82.26048278
_cell_angle_gamma   59.62790621
_symmetry_Int_Tables_number   1
_chemical_formula_structural   Ga4Hg11(AsI4)4
_chemical_formula_sum   'Ga4 Hg11 As4 I16'
_cell_volume   1375.53788749
_cell_formula_units_Z   1
loop_
 _symmetry_equiv_pos_site_id
 _symmetry_equiv_pos_as_xyz
  1  'x, y, z'
loop_
 _atom_site_type_symbol
 _atom_site_label
 _atom_site_symmetry_multiplicity
 _atom_site_fract_x
 _atom_site_fract_y
 _atom_site_fract_z
 _atom_site_occupancy
  Ga  Ga0  1  0.639037  0.639037  0.107760  1
  Ga  Ga1  1  0.360963  0.360963  0.892240  1
  Ga  Ga2  1  0.756758  0.756758  0.612832  1
  Ga  Ga3  1  0.243242  0.243242  0.387168  1
  Hg  Hg4  1  0.030907  0.030907  0.880806  1
  Hg  Hg5  1  0.763924  0.763924  0.283305  1
  Hg  Hg6  1  0.474722  0.474722  0.558661  1
  Hg  Hg7  1  0.734128  0.236449  0.720984  1
  Hg  Hg8  1  0.265872  0.763551  0.279016  1
  Hg  Hg9  1  0.763551  0.265872  0.279016  1
  Hg  Hg10  1  0.236449  0.734128  0.720984  1
  Hg  Hg11  1  0.525278  0.525278  0.441339  1
  Hg  Hg12  1  0.969093  0.969093  0.119194  1
  Hg  Hg13  1  0.000000  0.000000  0.000000  1
  Hg  Hg14  1  0.236076  0.236076  0.716695  1
  As  As15  1  0.940534  0.940534  0.236341  1
  As  As16  1  0.059466  0.059466  0.763659  1
  As  As17  1  0.584452  0.584452  0.326279  1
  As  As18  1  0.415548  0.415548  0.673721  1
  I  I19  1  0.538781  0.040593  0.847686  1
  I  I20  1  0.066272  0.066272  0.423399  1
  I  I21  1  0.537232  0.537232  0.847488  1
  I  I22  1  0.416340  0.931094  0.583514  1
  I  I23  1  0.737392  0.737392  0.722910  1
  I  I24  1  0.333380  0.333380  0.000990  1
  I  I25  1  0.461219  0.959407  0.152314  1
  I  I26  1  0.959407  0.461219  0.152314  1
  I  I27  1  0.462768  0.462768  0.152512  1
  I  I28  1  0.583660  0.068906  0.416486  1
  I  I29  1  0.666620  0.666620  0.999010  1
  I  I30  1  0.931094  0.416340  0.583514  1
  I  I31  1  0.262608  0.262608  0.277090  1
  I  I32  1  0.068906  0.583660  0.416486  1
  I  I33  1  0.933728  0.933728  0.576601  1
  I  I34  1  0.040593  0.538781  0.847686  1
