# generated using pymatgen
data_Ca2Co(PO4)2
_symmetry_space_group_name_H-M   'P 1'
_cell_length_a   4.84944500
_cell_length_b   6.61850811
_cell_length_c   11.09184400
_cell_angle_alpha   91.28331996
_cell_angle_beta   90.00000000
_cell_angle_gamma   90.00000000
_symmetry_Int_Tables_number   1
_chemical_formula_structural   Ca2Co(PO4)2
_chemical_formula_sum   'Ca4 Co2 P4 O16'
_cell_volume   355.91553893
_cell_formula_units_Z   2
loop_
 _symmetry_equiv_pos_site_id
 _symmetry_equiv_pos_as_xyz
  1  'x, y, z'
loop_
 _atom_site_type_symbol
 _atom_site_label
 _atom_site_symmetry_multiplicity
 _atom_site_fract_x
 _atom_site_fract_y
 _atom_site_fract_z
 _atom_site_occupancy
  Ca  Ca0  1  0.529448  0.762806  0.783612  1
  Ca  Ca1  1  0.029448  0.237194  0.716388  1
  Ca  Ca2  1  0.470552  0.237194  0.216388  1
  Ca  Ca3  1  0.970552  0.762806  0.283612  1
  Co  Co4  1  0.500000  0.500000  0.500000  1
  Co  Co5  1  0.000000  0.500000  0.000000  1
  P  P6  1  0.082603  0.727263  0.594458  1
  P  P7  1  0.582603  0.272737  0.905542  1
  P  P8  1  0.917397  0.272737  0.405542  1
  P  P9  1  0.417397  0.727263  0.094458  1
  O  O10  1  0.235744  0.540969  0.652970  1
  O  O11  1  0.735744  0.459031  0.847030  1
  O  O12  1  0.764256  0.459031  0.347030  1
  O  O13  1  0.264256  0.540969  0.152970  1
  O  O14  1  0.162287  0.911040  0.675395  1
  O  O15  1  0.662287  0.088960  0.824605  1
  O  O16  1  0.837713  0.088960  0.324605  1
  O  O17  1  0.337713  0.911040  0.175395  1
  O  O18  1  0.295157  0.736779  0.965517  1
  O  O19  1  0.795157  0.263221  0.534483  1
  O  O20  1  0.733918  0.699425  0.094770  1
  O  O21  1  0.233918  0.300575  0.405230  1
  O  O22  1  0.266082  0.300575  0.905230  1
  O  O23  1  0.766082  0.699425  0.594770  1
  O  O24  1  0.204843  0.736779  0.465517  1
  O  O25  1  0.704843  0.263221  0.034483  1
