# generated using pymatgen
data_Nd11Tl(Hg2Pt)4
_symmetry_space_group_name_H-M   'P 1'
_cell_length_a   13.49607500
_cell_length_b   13.49607434
_cell_length_c   3.79440600
_cell_angle_alpha   90.00000000
_cell_angle_beta   90.00000000
_cell_angle_gamma   111.68952911
_symmetry_Int_Tables_number   1
_chemical_formula_structural   Nd11Tl(Hg2Pt)4
_chemical_formula_sum   'Nd11 Tl1 Hg8 Pt4'
_cell_volume   642.19660309
_cell_formula_units_Z   1
loop_
 _symmetry_equiv_pos_site_id
 _symmetry_equiv_pos_as_xyz
  1  'x, y, z'
loop_
 _atom_site_type_symbol
 _atom_site_label
 _atom_site_symmetry_multiplicity
 _atom_site_fract_x
 _atom_site_fract_y
 _atom_site_fract_z
 _atom_site_occupancy
  Nd  Nd0  1  0.077535  0.417997  0.000000  1
  Nd  Nd1  1  0.922465  0.582003  0.000000  1
  Nd  Nd2  1  0.417997  0.077535  0.000000  1
  Nd  Nd3  1  0.582003  0.922465  0.000000  1
  Nd  Nd4  1  0.629915  0.370085  0.000000  1
  Nd  Nd5  1  0.370085  0.629915  0.000000  1
  Nd  Nd6  1  0.833825  0.166175  0.000000  1
  Nd  Nd7  1  0.166175  0.833825  0.000000  1
  Nd  Nd8  1  0.000000  0.000000  0.000000  1
  Nd  Nd9  1  0.302011  0.302011  0.000000  1
  Nd  Nd10  1  0.697989  0.697989  0.000000  1
  Tl  Tl11  1  0.500000  0.500000  0.500000  1
  Hg  Hg12  1  0.843619  0.366010  0.500000  1
  Hg  Hg13  1  0.156381  0.633990  0.500000  1
  Hg  Hg14  1  0.366010  0.843619  0.500000  1
  Hg  Hg15  1  0.633990  0.156381  0.500000  1
  Hg  Hg16  1  0.066768  0.213961  0.500000  1
  Hg  Hg17  1  0.933232  0.786039  0.500000  1
  Hg  Hg18  1  0.213961  0.066768  0.500000  1
  Hg  Hg19  1  0.786039  0.933232  0.500000  1
  Pt  Pt20  1  0.248083  0.448952  0.500000  1
  Pt  Pt21  1  0.751917  0.551048  0.500000  1
  Pt  Pt22  1  0.448952  0.248083  0.500000  1
  Pt  Pt23  1  0.551048  0.751917  0.500000  1
