# generated using pymatgen
data_Eu4MgMn3O12
_symmetry_space_group_name_H-M   'P 1'
_cell_length_a   5.46257271
_cell_length_b   5.54654684
_cell_length_c   7.73587675
_cell_angle_alpha   90.21964393
_cell_angle_beta   90.17229640
_cell_angle_gamma   89.87900899
_symmetry_Int_Tables_number   1
_chemical_formula_structural   Eu4MgMn3O12
_chemical_formula_sum   'Eu4 Mg1 Mn3 O12'
_cell_volume   234.38150809
_cell_formula_units_Z   1
loop_
 _symmetry_equiv_pos_site_id
 _symmetry_equiv_pos_as_xyz
  1  'x, y, z'
loop_
 _atom_site_type_symbol
 _atom_site_label
 _atom_site_symmetry_multiplicity
 _atom_site_fract_x
 _atom_site_fract_y
 _atom_site_fract_z
 _atom_site_occupancy
  Eu  Eu0  1  0.003144  0.958834  0.755195  1
  Eu  Eu1  1  0.509354  0.545321  0.244314  1
  Eu  Eu2  1  0.490646  0.454679  0.755686  1
  Eu  Eu3  1  0.996856  0.041166  0.244805  1
  Mg  Mg4  1  0.500000  0.000000  0.000000  1
  Mn  Mn5  1  0.500000  0.000000  0.500000  1
  Mn  Mn6  1  0.000000  0.500000  0.500000  1
  Mn  Mn7  1  0.000000  0.500000  0.000000  1
  O  O8  1  0.706285  0.298663  0.457755  1
  O  O9  1  0.202010  0.205756  0.541877  1
  O  O10  1  0.806411  0.786062  0.036782  1
  O  O11  1  0.285215  0.694669  0.963496  1
  O  O12  1  0.293715  0.701337  0.542245  1
  O  O13  1  0.797990  0.794244  0.458123  1
  O  O14  1  0.193589  0.213938  0.963218  1
  O  O15  1  0.714785  0.305331  0.036504  1
  O  O16  1  0.079246  0.480089  0.249940  1
  O  O17  1  0.574160  0.019881  0.740090  1
  O  O18  1  0.425840  0.980119  0.259910  1
  O  O19  1  0.920754  0.519911  0.750060  1
