# generated using pymatgen
data_Hf5Sc(Ti2Si3)2
_symmetry_space_group_name_H-M   'P 1'
_cell_length_a   7.74482500
_cell_length_b   7.74324810
_cell_length_c   5.29846000
_cell_angle_alpha   90.00000000
_cell_angle_beta   90.00000000
_cell_angle_gamma   120.00674114
_symmetry_Int_Tables_number   1
_chemical_formula_structural   Hf5Sc(Ti2Si3)2
_chemical_formula_sum   'Hf5 Sc1 Ti4 Si6'
_cell_volume   275.16017092
_cell_formula_units_Z   1
loop_
 _symmetry_equiv_pos_site_id
 _symmetry_equiv_pos_as_xyz
  1  'x, y, z'
loop_
 _atom_site_type_symbol
 _atom_site_label
 _atom_site_symmetry_multiplicity
 _atom_site_fract_x
 _atom_site_fract_y
 _atom_site_fract_z
 _atom_site_occupancy
  Hf  Hf0  1  0.250017  0.250423  0.750000  1
  Hf  Hf1  1  0.999594  0.749577  0.750000  1
  Hf  Hf2  1  0.998870  0.250072  0.250000  1
  Hf  Hf3  1  0.748798  0.749928  0.250000  1
  Hf  Hf4  1  0.750524  0.000000  0.750000  1
  Sc  Sc5  1  0.250130  0.000000  0.250000  1
  Ti  Ti6  1  0.333803  0.666255  0.999523  1
  Ti  Ti7  1  0.667549  0.333745  0.500477  1
  Ti  Ti8  1  0.667549  0.333745  0.999523  1
  Ti  Ti9  1  0.333803  0.666255  0.500477  1
  Si  Si10  1  0.601734  0.000000  0.250000  1
  Si  Si11  1  0.602558  0.602853  0.750000  1
  Si  Si12  1  0.999705  0.397147  0.750000  1
  Si  Si13  1  0.000440  0.602908  0.250000  1
  Si  Si14  1  0.397533  0.397092  0.250000  1
  Si  Si15  1  0.397394  0.000000  0.750000  1
