# generated using pymatgen
data_La7Y11(TmSi8)2
_symmetry_space_group_name_H-M   'P 1'
_cell_length_a   7.81807641
_cell_length_b   7.81340421
_cell_length_c   14.48364273
_cell_angle_alpha   90.16830331
_cell_angle_beta   89.95921651
_cell_angle_gamma   90.09414643
_symmetry_Int_Tables_number   1
_chemical_formula_structural   La7Y11(TmSi8)2
_chemical_formula_sum   'La7 Y11 Tm2 Si16'
_cell_volume   884.73954199
_cell_formula_units_Z   1
loop_
 _symmetry_equiv_pos_site_id
 _symmetry_equiv_pos_as_xyz
  1  'x, y, z'
loop_
 _atom_site_type_symbol
 _atom_site_label
 _atom_site_symmetry_multiplicity
 _atom_site_fract_x
 _atom_site_fract_y
 _atom_site_fract_z
 _atom_site_occupancy
  La  La0  1  0.007678  0.357207  0.541439  1
  La  La1  1  0.643868  0.992451  0.960503  1
  La  La2  1  0.139798  0.510415  0.793287  1
  La  La3  1  0.857762  0.489340  0.289565  1
  La  La4  1  0.508644  0.140199  0.206334  1
  La  La5  1  0.488956  0.859611  0.709009  1
  La  La6  1  0.357135  0.007120  0.456736  1
  Y  Y7  1  0.360430  0.491384  0.373694  1
  Y  Y8  1  0.860698  0.005943  0.373068  1
  Y  Y9  1  0.994006  0.137337  0.124036  1
  Y  Y10  1  0.008479  0.861441  0.624776  1
  Y  Y11  1  0.640838  0.512308  0.877531  1
  Y  Y12  1  0.490794  0.360416  0.625412  1
  Y  Y13  1  0.510201  0.640544  0.124095  1
  Y  Y14  1  0.136860  0.992309  0.877081  1
  Y  Y15  1  0.998220  0.635127  0.044622  1
  Y  Y16  1  0.680619  0.682291  0.499709  1
  Y  Y17  1  0.816773  0.184512  0.751267  1
  Tm  Tm18  1  0.181491  0.814707  0.249110  1
  Tm  Tm19  1  0.317313  0.319823  0.000141  1
  Si  Si20  1  0.064450  0.709100  0.436883  1
  Si  Si21  1  0.939453  0.295114  0.939880  1
  Si  Si22  1  0.710351  0.065520  0.561544  1
  Si  Si23  1  0.210197  0.437943  0.185885  1
  Si  Si24  1  0.787580  0.566163  0.688074  1
  Si  Si25  1  0.435058  0.212954  0.813854  1
  Si  Si26  1  0.565613  0.787466  0.310919  1
  Si  Si27  1  0.286638  0.931097  0.062939  1
  Si  Si28  1  0.844124  0.799665  0.807666  1
  Si  Si29  1  0.152872  0.202418  0.307682  1
  Si  Si30  1  0.802982  0.842738  0.186578  1
  Si  Si31  1  0.295019  0.652617  0.557764  1
  Si  Si32  1  0.708929  0.352272  0.060581  1
  Si  Si33  1  0.652948  0.294750  0.441203  1
  Si  Si34  1  0.340953  0.701305  0.943893  1
  Si  Si35  1  0.202271  0.154396  0.693242  1
