# generated using pymatgen
data_Ho7Tm9Cd4NiRu3
_symmetry_space_group_name_H-M   'P 1'
_cell_length_a   9.47697569
_cell_length_b   9.53469555
_cell_length_c   9.55932100
_cell_angle_alpha   59.91452401
_cell_angle_beta   59.71214849
_cell_angle_gamma   59.66211773
_symmetry_Int_Tables_number   1
_chemical_formula_structural   Ho7Tm9Cd4NiRu3
_chemical_formula_sum   'Ho7 Tm9 Cd4 Ni1 Ru3'
_cell_volume   607.49091610
_cell_formula_units_Z   1
loop_
 _symmetry_equiv_pos_site_id
 _symmetry_equiv_pos_as_xyz
  1  'x, y, z'
loop_
 _atom_site_type_symbol
 _atom_site_label
 _atom_site_symmetry_multiplicity
 _atom_site_fract_x
 _atom_site_fract_y
 _atom_site_fract_z
 _atom_site_occupancy
  Ho  Ho0  1  0.810405  0.811685  0.188955  1
  Ho  Ho1  1  0.940030  0.559490  0.560292  1
  Ho  Ho2  1  0.558033  0.938166  0.937478  1
  Ho  Ho3  1  0.558033  0.938166  0.566323  1
  Ho  Ho4  1  0.940030  0.559490  0.940187  1
  Ho  Ho5  1  0.557850  0.565883  0.938133  1
  Ho  Ho6  1  0.940014  0.940160  0.559912  1
  Tm  Tm7  1  0.350687  0.345689  0.344954  1
  Tm  Tm8  1  0.350687  0.345689  0.958668  1
  Tm  Tm9  1  0.350565  0.959751  0.344841  1
  Tm  Tm10  1  0.959316  0.346435  0.347125  1
  Tm  Tm11  1  0.810854  0.188510  0.188457  1
  Tm  Tm12  1  0.186809  0.811660  0.812238  1
  Tm  Tm13  1  0.186809  0.811660  0.189291  1
  Tm  Tm14  1  0.810854  0.188510  0.812179  1
  Tm  Tm15  1  0.187116  0.188032  0.812426  1
  Cd  Cd16  1  0.579126  0.580871  0.581431  1
  Cd  Cd17  1  0.579126  0.580871  0.258574  1
  Cd  Cd18  1  0.579540  0.258092  0.581185  1
  Cd  Cd19  1  0.256945  0.580976  0.581041  1
  Ni  Ni20  1  0.577034  0.142840  0.140063  1
  Ru  Ru21  1  0.142956  0.140210  0.138914  1
  Ru  Ru22  1  0.142956  0.140210  0.577921  1
  Ru  Ru23  1  0.144222  0.576953  0.139413  1
