# generated using pymatgen
data_Ho10Lu2InCo4Pt
_symmetry_space_group_name_H-M   'P 1'
_cell_length_a   8.23625175
_cell_length_b   8.23298223
_cell_length_c   8.23625131
_cell_angle_alpha   111.17575314
_cell_angle_beta   110.52798728
_cell_angle_gamma   106.75997507
_symmetry_Int_Tables_number   1
_chemical_formula_structural   Ho10Lu2InCo4Pt
_chemical_formula_sum   'Ho10 Lu2 In1 Co4 Pt1'
_cell_volume   429.10870897
_cell_formula_units_Z   1
loop_
 _symmetry_equiv_pos_site_id
 _symmetry_equiv_pos_as_xyz
  1  'x, y, z'
loop_
 _atom_site_type_symbol
 _atom_site_label
 _atom_site_symmetry_multiplicity
 _atom_site_fract_x
 _atom_site_fract_y
 _atom_site_fract_z
 _atom_site_occupancy
  Ho  Ho0  1  0.315369  0.010866  0.695498  1
  Ho  Ho1  1  0.684631  0.989134  0.304502  1
  Ho  Ho2  1  0.187517  0.292205  0.477759  1
  Ho  Ho3  1  0.812483  0.707795  0.522241  1
  Ho  Ho4  1  0.185554  0.707795  0.895313  1
  Ho  Ho5  1  0.814446  0.292205  0.104687  1
  Ho  Ho6  1  0.414827  0.216992  0.199659  1
  Ho  Ho7  1  0.585173  0.783008  0.800341  1
  Ho  Ho8  1  0.017333  0.216992  0.802165  1
  Ho  Ho9  1  0.982667  0.783008  0.197835  1
  Lu  Lu10  1  0.315843  0.621460  0.305616  1
  Lu  Lu11  1  0.684157  0.378540  0.694384  1
  In  In12  1  0.500000  0.500000  0.000000  1
  Co  Co13  1  0.112656  0.612104  0.499447  1
  Co  Co14  1  0.887344  0.387896  0.500553  1
  Co  Co15  1  0.379328  0.000000  0.379328  1
  Co  Co16  1  0.620672  0.000000  0.620672  1
  Pt  Pt17  1  0.000000  0.000000  0.000000  1
