# generated using pymatgen
data_Pr2Al20ReRh3
_symmetry_space_group_name_H-M   'P 1'
_cell_length_a   6.92211175
_cell_length_b   6.89164405
_cell_length_c   9.21718231
_cell_angle_alpha   90.19171286
_cell_angle_beta   90.26692143
_cell_angle_gamma   97.26263550
_symmetry_Int_Tables_number   1
_chemical_formula_structural   Pr2Al20ReRh3
_chemical_formula_sum   'Pr2 Al20 Re1 Rh3'
_cell_volume   436.16733347
_cell_formula_units_Z   1
loop_
 _symmetry_equiv_pos_site_id
 _symmetry_equiv_pos_as_xyz
  1  'x, y, z'
loop_
 _atom_site_type_symbol
 _atom_site_label
 _atom_site_symmetry_multiplicity
 _atom_site_fract_x
 _atom_site_fract_y
 _atom_site_fract_z
 _atom_site_occupancy
  Pr  Pr0  1  0.869340  0.121390  0.749369  1
  Pr  Pr1  1  0.130660  0.878610  0.250631  1
  Al  Al2  1  0.619845  0.377074  0.547810  1
  Al  Al3  1  0.380155  0.622926  0.452190  1
  Al  Al4  1  0.379096  0.621325  0.050589  1
  Al  Al5  1  0.620904  0.378675  0.949411  1
  Al  Al6  1  0.223786  0.224410  0.499676  1
  Al  Al7  1  0.776214  0.775590  0.500324  1
  Al  Al8  1  0.773381  0.773528  0.998733  1
  Al  Al9  1  0.226619  0.226472  0.001267  1
  Al  Al10  1  0.840303  0.161178  0.104543  1
  Al  Al11  1  0.159697  0.838822  0.895457  1
  Al  Al12  1  0.158963  0.840929  0.602545  1
  Al  Al13  1  0.841037  0.159071  0.397455  1
  Al  Al14  1  0.857092  0.589928  0.749473  1
  Al  Al15  1  0.142908  0.410072  0.250527  1
  Al  Al16  1  0.407834  0.142342  0.749877  1
  Al  Al17  1  0.592166  0.857658  0.250123  1
  Al  Al18  1  0.222476  0.481813  0.750766  1
  Al  Al19  1  0.777524  0.518187  0.249234  1
  Al  Al20  1  0.516619  0.776586  0.745202  1
  Al  Al21  1  0.483381  0.223414  0.254798  1
  Re  Re22  1  0.500000  0.000000  0.500000  1
  Rh  Rh23  1  0.000000  0.500000  0.500000  1
  Rh  Rh24  1  0.000000  0.500000  0.000000  1
  Rh  Rh25  1  0.500000  0.000000  0.000000  1
