# generated using pymatgen
data_Sc2BeB3MoRu4
_symmetry_space_group_name_H-M   'P 1'
_cell_length_a   3.07022000
_cell_length_b   8.61265554
_cell_length_c   10.11458027
_cell_angle_alpha   90.73722322
_cell_angle_beta   90.00000000
_cell_angle_gamma   90.00000000
_symmetry_Int_Tables_number   1
_chemical_formula_structural   Sc2BeB3MoRu4
_chemical_formula_sum   'Sc4 Be2 B6 Mo2 Ru8'
_cell_volume   267.43515026
_cell_formula_units_Z   2
loop_
 _symmetry_equiv_pos_site_id
 _symmetry_equiv_pos_as_xyz
  1  'x, y, z'
loop_
 _atom_site_type_symbol
 _atom_site_label
 _atom_site_symmetry_multiplicity
 _atom_site_fract_x
 _atom_site_fract_y
 _atom_site_fract_z
 _atom_site_occupancy
  Sc  Sc0  1  0.500000  0.841557  0.182725  1
  Sc  Sc1  1  0.500000  0.158443  0.817275  1
  Sc  Sc2  1  0.500000  0.656946  0.681722  1
  Sc  Sc3  1  0.500000  0.343054  0.318278  1
  Be  Be4  1  0.500000  0.963082  0.593868  1
  Be  Be5  1  0.500000  0.036918  0.406132  1
  B  B6  1  0.500000  0.853796  0.897129  1
  B  B7  1  0.500000  0.146204  0.102871  1
  B  B8  1  0.500000  0.653267  0.402044  1
  B  B9  1  0.500000  0.346733  0.597956  1
  B  B10  1  0.500000  0.465330  0.913051  1
  B  B11  1  0.500000  0.534670  0.086949  1
  Mo  Mo12  1  0.000000  0.661347  0.953580  1
  Mo  Mo13  1  0.000000  0.338653  0.046420  1
  Ru  Ru14  1  0.000000  0.832701  0.449189  1
  Ru  Ru15  1  0.000000  0.167299  0.550811  1
  Ru  Ru16  1  0.000000  0.000000  0.000000  1
  Ru  Ru17  1  0.000000  0.405235  0.759927  1
  Ru  Ru18  1  0.000000  0.594765  0.240073  1
  Ru  Ru19  1  0.000000  0.500000  0.500000  1
  Ru  Ru20  1  0.000000  0.898630  0.746090  1
  Ru  Ru21  1  0.000000  0.101370  0.253910  1
