# generated using pymatgen
data_Tm2Lu2ZnPt3
_symmetry_space_group_name_H-M   'P 1'
_cell_length_a   4.51449300
_cell_length_b   5.48264132
_cell_length_c   6.92449899
_cell_angle_alpha   90.37657220
_cell_angle_beta   90.00000000
_cell_angle_gamma   90.00000000
_symmetry_Int_Tables_number   1
_chemical_formula_structural   Tm2Lu2ZnPt3
_chemical_formula_sum   'Tm2 Lu2 Zn1 Pt3'
_cell_volume   171.38696746
_cell_formula_units_Z   1
loop_
 _symmetry_equiv_pos_site_id
 _symmetry_equiv_pos_as_xyz
  1  'x, y, z'
loop_
 _atom_site_type_symbol
 _atom_site_label
 _atom_site_symmetry_multiplicity
 _atom_site_fract_x
 _atom_site_fract_y
 _atom_site_fract_z
 _atom_site_occupancy
  Tm  Tm0  1  0.250000  0.642365  0.186418  1
  Tm  Tm1  1  0.750000  0.369498  0.808613  1
  Lu  Lu2  1  0.750000  0.140278  0.329257  1
  Lu  Lu3  1  0.250000  0.848296  0.677750  1
  Zn  Zn4  1  0.250000  0.138836  0.031448  1
  Pt  Pt5  1  0.750000  0.870932  0.969665  1
  Pt  Pt6  1  0.750000  0.657129  0.453902  1
  Pt  Pt7  1  0.250000  0.332667  0.542948  1
