# generated using pymatgen
data_Ho12ReTc3
_symmetry_space_group_name_H-M   'P 1'
_cell_length_a   6.23064412
_cell_length_b   7.43133108
_cell_length_c   9.10793200
_cell_angle_alpha   90.00000000
_cell_angle_beta   90.00000000
_cell_angle_gamma   89.96831433
_symmetry_Int_Tables_number   1
_chemical_formula_structural   Ho12ReTc3
_chemical_formula_sum   'Ho12 Re1 Tc3'
_cell_volume   421.71521433
_cell_formula_units_Z   1
loop_
 _symmetry_equiv_pos_site_id
 _symmetry_equiv_pos_as_xyz
  1  'x, y, z'
loop_
 _atom_site_type_symbol
 _atom_site_label
 _atom_site_symmetry_multiplicity
 _atom_site_fract_x
 _atom_site_fract_y
 _atom_site_fract_z
 _atom_site_occupancy
  Ho  Ho0  1  0.340921  0.674855  0.061236  1
  Ho  Ho1  1  0.159505  0.175583  0.437322  1
  Ho  Ho2  1  0.660124  0.324456  0.562119  1
  Ho  Ho3  1  0.839548  0.824044  0.936933  1
  Ho  Ho4  1  0.660124  0.324456  0.937881  1
  Ho  Ho5  1  0.839548  0.824044  0.563067  1
  Ho  Ho6  1  0.340921  0.674855  0.438764  1
  Ho  Ho7  1  0.159505  0.175583  0.062678  1
  Ho  Ho8  1  0.873773  0.541548  0.250000  1
  Ho  Ho9  1  0.627301  0.040713  0.250000  1
  Ho  Ho10  1  0.124101  0.458914  0.750000  1
  Ho  Ho11  1  0.373357  0.961220  0.750000  1
  Re  Re12  1  0.543164  0.615312  0.750000  1
  Tc  Tc13  1  0.040212  0.885049  0.250000  1
  Tc  Tc14  1  0.459821  0.384694  0.250000  1
  Tc  Tc15  1  0.958076  0.114674  0.750000  1
