# generated using pymatgen
data_Dy2Si3Ge(PRh4)3
_symmetry_space_group_name_H-M   'P 1'
_cell_length_a   9.73746900
_cell_length_b   9.73746793
_cell_length_c   3.84943700
_cell_angle_alpha   90.00000000
_cell_angle_beta   90.00000000
_cell_angle_gamma   120.00000703
_symmetry_Int_Tables_number   1
_chemical_formula_structural   Dy2Si3Ge(PRh4)3
_chemical_formula_sum   'Dy2 Si3 Ge1 P3 Rh12'
_cell_volume   316.09668827
_cell_formula_units_Z   1
loop_
 _symmetry_equiv_pos_site_id
 _symmetry_equiv_pos_as_xyz
  1  'x, y, z'
loop_
 _atom_site_type_symbol
 _atom_site_label
 _atom_site_symmetry_multiplicity
 _atom_site_fract_x
 _atom_site_fract_y
 _atom_site_fract_z
 _atom_site_occupancy
  Dy  Dy0  1  0.333333  0.666667  0.741123  1
  Dy  Dy1  1  0.666667  0.333333  0.241104  1
  Si  Si2  1  0.402114  0.288574  0.741634  1
  Si  Si3  1  0.711426  0.113541  0.741634  1
  Si  Si4  1  0.886459  0.597886  0.741634  1
  Ge  Ge5  1  0.000000  0.000000  0.669548  1
  P  P6  1  0.597067  0.709121  0.240829  1
  P  P7  1  0.290879  0.887946  0.240829  1
  P  P8  1  0.112054  0.402933  0.240829  1
  Rh  Rh9  1  0.446802  0.066234  0.741958  1
  Rh  Rh10  1  0.933766  0.380568  0.741958  1
  Rh  Rh11  1  0.619432  0.553198  0.741958  1
  Rh  Rh12  1  0.552246  0.936775  0.241264  1
  Rh  Rh13  1  0.063225  0.615470  0.241264  1
  Rh  Rh14  1  0.384530  0.447754  0.241264  1
  Rh  Rh15  1  0.153797  0.282546  0.741630  1
  Rh  Rh16  1  0.717454  0.871253  0.741630  1
  Rh  Rh17  1  0.128747  0.846203  0.741630  1
  Rh  Rh18  1  0.855628  0.741131  0.242094  1
  Rh  Rh19  1  0.258869  0.114496  0.242094  1
  Rh  Rh20  1  0.885504  0.144372  0.242094  1
