# generated using pymatgen
data_Sr3LuHgPb11
_symmetry_space_group_name_H-M   'P 1'
_cell_length_a   10.02377800
_cell_length_b   7.03503191
_cell_length_c   7.02526942
_cell_angle_alpha   88.43217444
_cell_angle_beta   90.00000000
_cell_angle_gamma   90.00000000
_symmetry_Int_Tables_number   1
_chemical_formula_structural   Sr3LuHgPb11
_chemical_formula_sum   'Sr3 Lu1 Hg1 Pb11'
_cell_volume   495.21966384
_cell_formula_units_Z   1
loop_
 _symmetry_equiv_pos_site_id
 _symmetry_equiv_pos_as_xyz
  1  'x, y, z'
loop_
 _atom_site_type_symbol
 _atom_site_label
 _atom_site_symmetry_multiplicity
 _atom_site_fract_x
 _atom_site_fract_y
 _atom_site_fract_z
 _atom_site_occupancy
  Sr  Sr0  1  0.250000  0.496544  0.505598  1
  Sr  Sr1  1  0.750000  0.994874  0.000426  1
  Sr  Sr2  1  0.750000  0.509954  0.498234  1
  Lu  Lu3  1  0.250000  0.010003  0.002716  1
  Hg  Hg4  1  0.750000  0.491824  0.995935  1
  Pb  Pb5  1  0.001952  0.235562  0.744766  1
  Pb  Pb6  1  0.499736  0.251234  0.243856  1
  Pb  Pb7  1  0.493889  0.755786  0.244810  1
  Pb  Pb8  1  0.002627  0.748000  0.761510  1
  Pb  Pb9  1  0.006111  0.755786  0.244810  1
  Pb  Pb10  1  0.497373  0.748000  0.761510  1
  Pb  Pb11  1  0.498048  0.235562  0.744766  1
  Pb  Pb12  1  0.000264  0.251234  0.243856  1
  Pb  Pb13  1  0.250000  0.995378  0.502986  1
  Pb  Pb14  1  0.250000  0.512244  0.005660  1
  Pb  Pb15  1  0.750000  0.008013  0.498560  1
