# generated using pymatgen
data_Sm3ZnGaSi4
_symmetry_space_group_name_H-M   'P 1'
_cell_length_a   4.19377807
_cell_length_b   4.13529067
_cell_length_c   21.29861521
_cell_angle_alpha   84.42900904
_cell_angle_beta   95.65002614
_cell_angle_gamma   90.00000609
_symmetry_Int_Tables_number   1
_chemical_formula_structural   Sm3ZnGaSi4
_chemical_formula_sum   'Sm6 Zn2 Ga2 Si8'
_cell_volume   365.82336307
_cell_formula_units_Z   2
loop_
 _symmetry_equiv_pos_site_id
 _symmetry_equiv_pos_as_xyz
  1  'x, y, z'
loop_
 _atom_site_type_symbol
 _atom_site_label
 _atom_site_symmetry_multiplicity
 _atom_site_fract_x
 _atom_site_fract_y
 _atom_site_fract_z
 _atom_site_occupancy
  Sm  Sm0  1  0.374139  0.875861  0.248278  1
  Sm  Sm1  1  0.039806  0.210194  0.579612  1
  Sm  Sm2  1  0.705311  0.544689  0.910624  1
  Sm  Sm3  1  0.293749  0.456251  0.087496  1
  Sm  Sm4  1  0.959981  0.790019  0.419962  1
  Sm  Sm5  1  0.625943  0.124057  0.751886  1
  Zn  Zn6  1  0.904060  0.345940  0.308120  1
  Zn  Zn7  1  0.569979  0.680021  0.639957  1
  Ga  Ga8  1  0.235604  0.014396  0.971208  1
  Ga  Ga9  1  0.763750  0.986250  0.027499  1
  Si  Si10  1  0.430963  0.319037  0.361927  1
  Si  Si11  1  0.096773  0.653227  0.693546  1
  Si  Si12  1  0.847996  0.402004  0.195993  1
  Si  Si13  1  0.513999  0.736001  0.527998  1
  Si  Si14  1  0.179305  0.070695  0.858608  1
  Si  Si15  1  0.820308  0.929692  0.140617  1
  Si  Si16  1  0.486315  0.263685  0.472631  1
  Si  Si17  1  0.152021  0.597979  0.804040  1
