# generated using pymatgen
data_Ca4SiGe3Pd8
_symmetry_space_group_name_H-M   'P 1'
_cell_length_a   5.63463232
_cell_length_b   7.08161400
_cell_length_c   7.50875920
_cell_angle_alpha   90.00000000
_cell_angle_beta   90.34868854
_cell_angle_gamma   90.00000000
_symmetry_Int_Tables_number   1
_chemical_formula_structural   Ca4SiGe3Pd8
_chemical_formula_sum   'Ca4 Si1 Ge3 Pd8'
_cell_volume   299.61114690
_cell_formula_units_Z   1
loop_
 _symmetry_equiv_pos_site_id
 _symmetry_equiv_pos_as_xyz
  1  'x, y, z'
loop_
 _atom_site_type_symbol
 _atom_site_label
 _atom_site_symmetry_multiplicity
 _atom_site_fract_x
 _atom_site_fract_y
 _atom_site_fract_z
 _atom_site_occupancy
  Ca  Ca0  1  0.371384  0.750000  0.021735  1
  Ca  Ca1  1  0.131669  0.750000  0.523595  1
  Ca  Ca2  1  0.629156  0.250000  0.976831  1
  Ca  Ca3  1  0.867206  0.250000  0.476382  1
  Si  Si4  1  0.127660  0.250000  0.123545  1
  Ge  Ge5  1  0.629305  0.750000  0.374153  1
  Ge  Ge6  1  0.871414  0.750000  0.877629  1
  Ge  Ge7  1  0.368705  0.250000  0.622133  1
  Pd  Pd8  1  0.904179  0.548990  0.173875  1
  Pd  Pd9  1  0.600011  0.946078  0.670533  1
  Pd  Pd10  1  0.105778  0.056211  0.836522  1
  Pd  Pd11  1  0.391781  0.444657  0.321067  1
  Pd  Pd12  1  0.105778  0.443789  0.836522  1
  Pd  Pd13  1  0.391781  0.055343  0.321067  1
  Pd  Pd14  1  0.904179  0.951010  0.173875  1
  Pd  Pd15  1  0.600011  0.553922  0.670533  1
