# generated using pymatgen
data_Yb3Dy3(CoSn6)2
_symmetry_space_group_name_H-M   'P 1'
_cell_length_a   8.41566430
_cell_length_b   8.41566486
_cell_length_c   13.23039955
_cell_angle_alpha   90.03178649
_cell_angle_beta   89.96821485
_cell_angle_gamma   148.01276747
_symmetry_Int_Tables_number   1
_chemical_formula_structural   Yb3Dy3(CoSn6)2
_chemical_formula_sum   'Yb3 Dy3 Co2 Sn12'
_cell_volume   496.36884939
_cell_formula_units_Z   1
loop_
 _symmetry_equiv_pos_site_id
 _symmetry_equiv_pos_as_xyz
  1  'x, y, z'
loop_
 _atom_site_type_symbol
 _atom_site_label
 _atom_site_symmetry_multiplicity
 _atom_site_fract_x
 _atom_site_fract_y
 _atom_site_fract_z
 _atom_site_occupancy
  Yb  Yb0  1  0.100276  0.899724  0.597069  1
  Yb  Yb1  1  0.100617  0.899383  0.903675  1
  Yb  Yb2  1  0.900068  0.099932  0.402757  1
  Dy  Dy3  1  0.898230  0.101770  0.094560  1
  Dy  Dy4  1  0.901173  0.098827  0.753819  1
  Dy  Dy5  1  0.098853  0.901147  0.248076  1
  Co  Co6  1  0.298762  0.701238  0.249486  1
  Co  Co7  1  0.703174  0.296826  0.750272  1
  Sn  Sn8  1  0.758169  0.241831  0.572158  1
  Sn  Sn9  1  0.426010  0.573990  0.578578  1
  Sn  Sn10  1  0.573365  0.426635  0.422604  1
  Sn  Sn11  1  0.733362  0.266638  0.248531  1
  Sn  Sn12  1  0.267148  0.732852  0.750102  1
  Sn  Sn13  1  0.241304  0.758696  0.072010  1
  Sn  Sn14  1  0.242654  0.757346  0.427639  1
  Sn  Sn15  1  0.572164  0.427836  0.075815  1
  Sn  Sn16  1  0.454758  0.545242  0.248737  1
  Sn  Sn17  1  0.545949  0.454051  0.750257  1
  Sn  Sn18  1  0.757347  0.242653  0.929100  1
  Sn  Sn19  1  0.426615  0.573385  0.924756  1
