# generated using pymatgen
data_La3Nd5(IrI6)2
_symmetry_space_group_name_H-M   'P 1'
_cell_length_a   4.38913300
_cell_length_b   14.54778718
_cell_length_c   15.36977400
_cell_angle_alpha   90.10445965
_cell_angle_beta   90.00000000
_cell_angle_gamma   90.00000000
_symmetry_Int_Tables_number   1
_chemical_formula_structural   La3Nd5(IrI6)2
_chemical_formula_sum   'La3 Nd5 Ir2 I12'
_cell_volume   981.39183399
_cell_formula_units_Z   1
loop_
 _symmetry_equiv_pos_site_id
 _symmetry_equiv_pos_as_xyz
  1  'x, y, z'
loop_
 _atom_site_type_symbol
 _atom_site_label
 _atom_site_symmetry_multiplicity
 _atom_site_fract_x
 _atom_site_fract_y
 _atom_site_fract_z
 _atom_site_occupancy
  La  La0  1  0.500000  0.107313  0.358169  1
  La  La1  1  0.500000  0.892644  0.641744  1
  La  La2  1  0.500000  0.607761  0.143069  1
  Nd  Nd3  1  0.500000  0.392998  0.857448  1
  Nd  Nd4  1  0.000000  0.120394  0.581953  1
  Nd  Nd5  1  0.000000  0.880603  0.418972  1
  Nd  Nd6  1  0.000000  0.617308  0.919709  1
  Nd  Nd7  1  0.000000  0.382136  0.079328  1
  Ir  Ir8  1  0.500000  0.000352  0.500241  1
  Ir  Ir9  1  0.500000  0.502588  0.003198  1
  I  I10  1  0.500000  0.242054  0.171745  1
  I  I11  1  0.500000  0.755863  0.825694  1
  I  I12  1  0.500000  0.741189  0.327659  1
  I  I13  1  0.500000  0.258731  0.674159  1
  I  I14  1  0.000000  0.261019  0.422481  1
  I  I15  1  0.000000  0.739050  0.577813  1
  I  I16  1  0.000000  0.761228  0.077805  1
  I  I17  1  0.000000  0.242923  0.916972  1
  I  I18  1  0.000000  0.994195  0.241597  1
  I  I19  1  0.000000  0.005542  0.758827  1
  I  I20  1  0.000000  0.493667  0.259283  1
  I  I21  1  0.000000  0.500446  0.742132  1
