# generated using pymatgen
data_KPmSeS
_symmetry_space_group_name_H-M   'P 1'
_cell_length_a   8.28959505
_cell_length_b   8.36430200
_cell_length_c   7.40528660
_cell_angle_alpha   90.00000000
_cell_angle_beta   106.80654752
_cell_angle_gamma   90.00000000
_symmetry_Int_Tables_number   1
_chemical_formula_structural   KPmSeS
_chemical_formula_sum   'K4 Pm4 Se4 S4'
_cell_volume   491.52635517
_cell_formula_units_Z   4
loop_
 _symmetry_equiv_pos_site_id
 _symmetry_equiv_pos_as_xyz
  1  'x, y, z'
loop_
 _atom_site_type_symbol
 _atom_site_label
 _atom_site_symmetry_multiplicity
 _atom_site_fract_x
 _atom_site_fract_y
 _atom_site_fract_z
 _atom_site_occupancy
  K  K0  1  0.031123  0.751843  0.015500  1
  K  K1  1  0.968876  0.251843  0.484500  1
  K  K2  1  0.031123  0.748158  0.515499  1
  K  K3  1  0.968878  0.248157  0.984502  1
  Pm  Pm4  1  0.514268  0.625925  0.248872  1
  Pm  Pm5  1  0.485732  0.125924  0.251128  1
  Pm  Pm6  1  0.514268  0.874076  0.748871  1
  Pm  Pm7  1  0.485732  0.374075  0.751129  1
  Se  Se8  1  0.720723  0.891132  0.156563  1
  Se  Se9  1  0.279275  0.391131  0.343436  1
  Se  Se10  1  0.720725  0.608869  0.656564  1
  Se  Se11  1  0.279276  0.108868  0.843435  1
  S  S12  1  0.676799  0.367733  0.136740  1
  S  S13  1  0.323201  0.867733  0.363260  1
  S  S14  1  0.676798  0.132266  0.636740  1
  S  S15  1  0.323202  0.632266  0.863259  1
