# generated using pymatgen
data_Th2Fe2Si5Ni
_symmetry_space_group_name_H-M   'P 1'
_cell_length_a   5.68329505
_cell_length_b   8.01271645
_cell_length_c   8.01271676
_cell_angle_alpha   91.52704983
_cell_angle_beta   110.43728533
_cell_angle_gamma   110.43728031
_symmetry_Int_Tables_number   1
_chemical_formula_structural   Th2Fe2Si5Ni
_chemical_formula_sum   'Th4 Fe4 Si10 Ni2'
_cell_volume   315.77805490
_cell_formula_units_Z   2
loop_
 _symmetry_equiv_pos_site_id
 _symmetry_equiv_pos_as_xyz
  1  'x, y, z'
loop_
 _atom_site_type_symbol
 _atom_site_label
 _atom_site_symmetry_multiplicity
 _atom_site_fract_x
 _atom_site_fract_y
 _atom_site_fract_z
 _atom_site_occupancy
  Th  Th0  1  0.235288  0.864774  0.603456  1
  Th  Th1  1  0.264712  0.396544  0.135226  1
  Th  Th2  1  0.766169  0.131926  0.394840  1
  Th  Th3  1  0.733831  0.605160  0.868074  1
  Fe  Fe4  1  0.628739  0.749353  0.472876  1
  Fe  Fe5  1  0.871261  0.527124  0.250647  1
  Fe  Fe6  1  0.250000  0.003864  0.996136  1
  Fe  Fe7  1  0.750000  0.998249  0.001751  1
  Si  Si8  1  0.152489  0.044240  0.248200  1
  Si  Si9  1  0.347511  0.751800  0.955760  1
  Si  Si10  1  0.848595  0.952299  0.744771  1
  Si  Si11  1  0.651405  0.255229  0.047701  1
  Si  Si12  1  0.250000  0.226632  0.773368  1
  Si  Si13  1  0.750000  0.776241  0.223759  1
  Si  Si14  1  0.250000  0.505280  0.494720  1
  Si  Si15  1  0.750000  0.496300  0.503700  1
  Si  Si16  1  0.250000  0.764895  0.235105  1
  Si  Si17  1  0.750000  0.227933  0.772067  1
  Ni  Ni18  1  0.386927  0.249655  0.527495  1
  Ni  Ni19  1  0.113073  0.472505  0.750345  1
