# generated using pymatgen
data_LiNdTmAgPb2
_symmetry_space_group_name_H-M   'P 1'
_cell_length_a   4.82560000
_cell_length_b   4.82560070
_cell_length_c   7.53847400
_cell_angle_alpha   90.00000000
_cell_angle_beta   90.00000000
_cell_angle_gamma   119.99999518
_symmetry_Int_Tables_number   1
_chemical_formula_structural   LiNdTmAgPb2
_chemical_formula_sum   'Li1 Nd1 Tm1 Ag1 Pb2'
_cell_volume   152.02562482
_cell_formula_units_Z   1
loop_
 _symmetry_equiv_pos_site_id
 _symmetry_equiv_pos_as_xyz
  1  'x, y, z'
loop_
 _atom_site_type_symbol
 _atom_site_label
 _atom_site_symmetry_multiplicity
 _atom_site_fract_x
 _atom_site_fract_y
 _atom_site_fract_z
 _atom_site_occupancy
  Li  Li0  1  0.666667  0.333333  0.284809  1
  Nd  Nd1  1  0.000000  0.000000  0.514316  1
  Tm  Tm2  1  0.000000  0.000000  0.011637  1
  Ag  Ag3  1  0.333333  0.666667  0.838452  1
  Pb  Pb4  1  0.333333  0.666667  0.242561  1
  Pb  Pb5  1  0.666667  0.333333  0.735225  1
