# generated using pymatgen
data_Cs2RbScTe3
_symmetry_space_group_name_H-M   'P 1'
_cell_length_a   15.13600600
_cell_length_b   9.36156823
_cell_length_c   12.16497983
_cell_angle_alpha   52.70141559
_cell_angle_beta   90.00000000
_cell_angle_gamma   90.00000000
_symmetry_Int_Tables_number   1
_chemical_formula_structural   Cs2RbScTe3
_chemical_formula_sum   'Cs8 Rb4 Sc4 Te12'
_cell_volume   1371.21378739
_cell_formula_units_Z   4
loop_
 _symmetry_equiv_pos_site_id
 _symmetry_equiv_pos_as_xyz
  1  'x, y, z'
loop_
 _atom_site_type_symbol
 _atom_site_label
 _atom_site_symmetry_multiplicity
 _atom_site_fract_x
 _atom_site_fract_y
 _atom_site_fract_z
 _atom_site_occupancy
  Cs  Cs0  1  0.906186  0.337293  0.391143  1
  Cs  Cs1  1  0.406186  0.662707  0.108857  1
  Cs  Cs2  1  0.093814  0.662707  0.608857  1
  Cs  Cs3  1  0.593814  0.337293  0.891143  1
  Cs  Cs4  1  0.187302  0.144800  0.572779  1
  Cs  Cs5  1  0.687302  0.855200  0.927221  1
  Cs  Cs6  1  0.812698  0.855200  0.427221  1
  Cs  Cs7  1  0.312698  0.144800  0.072779  1
  Rb  Rb8  1  0.621843  0.374140  0.475839  1
  Rb  Rb9  1  0.121843  0.625860  0.024161  1
  Rb  Rb10  1  0.378157  0.625860  0.524161  1
  Rb  Rb11  1  0.878157  0.374140  0.975839  1
  Sc  Sc12  1  0.937485  0.057260  0.844071  1
  Sc  Sc13  1  0.437485  0.942740  0.655929  1
  Sc  Sc14  1  0.062515  0.942740  0.155929  1
  Sc  Sc15  1  0.562515  0.057260  0.344071  1
  Te  Te16  1  0.392204  0.154709  0.371378  1
  Te  Te17  1  0.892204  0.845291  0.128622  1
  Te  Te18  1  0.607796  0.845291  0.628622  1
  Te  Te19  1  0.107796  0.154709  0.871378  1
  Te  Te20  1  0.683237  0.337133  0.195238  1
  Te  Te21  1  0.183237  0.662867  0.304762  1
  Te  Te22  1  0.316763  0.662867  0.804762  1
  Te  Te23  1  0.816763  0.337133  0.695238  1
  Te  Te24  1  0.552774  0.859432  0.245358  1
  Te  Te25  1  0.052774  0.140568  0.254642  1
  Te  Te26  1  0.447226  0.140568  0.754642  1
  Te  Te27  1  0.947226  0.859432  0.745358  1
