# generated using pymatgen
data_Ho3Co3(Ni2B)4
_symmetry_space_group_name_H-M   'P 1'
_cell_length_a   4.97616100
_cell_length_b   4.97616139
_cell_length_c   9.93994700
_cell_angle_alpha   90.00000000
_cell_angle_beta   90.00000000
_cell_angle_gamma   120.00000406
_symmetry_Int_Tables_number   1
_chemical_formula_structural   Ho3Co3(Ni2B)4
_chemical_formula_sum   'Ho3 Co3 Ni8 B4'
_cell_volume   213.15894544
_cell_formula_units_Z   1
loop_
 _symmetry_equiv_pos_site_id
 _symmetry_equiv_pos_as_xyz
  1  'x, y, z'
loop_
 _atom_site_type_symbol
 _atom_site_label
 _atom_site_symmetry_multiplicity
 _atom_site_fract_x
 _atom_site_fract_y
 _atom_site_fract_z
 _atom_site_occupancy
  Ho  Ho0  1  0.000000  0.000000  0.655589  1
  Ho  Ho1  1  0.000000  0.000000  0.344411  1
  Ho  Ho2  1  0.000000  0.000000  0.000000  1
  Co  Co3  1  0.500000  0.500000  0.500000  1
  Co  Co4  1  0.000000  0.500000  0.500000  1
  Co  Co5  1  0.500000  0.000000  0.500000  1
  Ni  Ni6  1  0.500000  0.000000  0.205297  1
  Ni  Ni7  1  0.500000  0.500000  0.205297  1
  Ni  Ni8  1  0.000000  0.500000  0.205297  1
  Ni  Ni9  1  0.500000  0.000000  0.794703  1
  Ni  Ni10  1  0.500000  0.500000  0.794703  1
  Ni  Ni11  1  0.000000  0.500000  0.794703  1
  Ni  Ni12  1  0.333333  0.666667  0.000000  1
  Ni  Ni13  1  0.666667  0.333333  0.000000  1
  B  B14  1  0.333333  0.666667  0.647828  1
  B  B15  1  0.666667  0.333333  0.647828  1
  B  B16  1  0.666667  0.333333  0.352172  1
  B  B17  1  0.333333  0.666667  0.352172  1
