# generated using pymatgen
data_Ca3Pr5(P7Ir8)2
_symmetry_space_group_name_H-M   'P 1'
_cell_length_a   3.97875000
_cell_length_b   12.82004165
_cell_length_c   13.23053400
_cell_angle_alpha   80.98428161
_cell_angle_beta   90.00000000
_cell_angle_gamma   90.00000000
_symmetry_Int_Tables_number   1
_chemical_formula_structural   Ca3Pr5(P7Ir8)2
_chemical_formula_sum   'Ca3 Pr5 P14 Ir16'
_cell_volume   666.52201818
_cell_formula_units_Z   1
loop_
 _symmetry_equiv_pos_site_id
 _symmetry_equiv_pos_as_xyz
  1  'x, y, z'
loop_
 _atom_site_type_symbol
 _atom_site_label
 _atom_site_symmetry_multiplicity
 _atom_site_fract_x
 _atom_site_fract_y
 _atom_site_fract_z
 _atom_site_occupancy
  Ca  Ca0  1  0.750000  0.484515  0.707705  1
  Ca  Ca1  1  0.250000  0.210094  0.437468  1
  Ca  Ca2  1  0.750000  0.789196  0.563726  1
  Pr  Pr3  1  0.250000  0.104659  0.789183  1
  Pr  Pr4  1  0.750000  0.895445  0.210557  1
  Pr  Pr5  1  0.250000  0.280681  0.103765  1
  Pr  Pr6  1  0.750000  0.718737  0.895629  1
  Pr  Pr7  1  0.250000  0.516710  0.291458  1
  P  P8  1  0.250000  0.053375  0.099765  1
  P  P9  1  0.750000  0.947066  0.899958  1
  P  P10  1  0.250000  0.313861  0.687167  1
  P  P11  1  0.750000  0.686685  0.314804  1
  P  P12  1  0.250000  0.610975  0.564151  1
  P  P13  1  0.750000  0.388588  0.439115  1
  P  P14  1  0.250000  0.843444  0.717084  1
  P  P15  1  0.750000  0.156305  0.283134  1
  P  P16  1  0.750000  0.258173  0.917004  1
  P  P17  1  0.250000  0.743284  0.082376  1
  P  P18  1  0.750000  0.090930  0.589347  1
  P  P19  1  0.250000  0.909038  0.411907  1
  P  P20  1  0.750000  0.472561  0.126330  1
  P  P21  1  0.250000  0.527996  0.869543  1
  Ir  Ir22  1  0.250000  0.989346  0.575521  1
  Ir  Ir23  1  0.750000  0.011177  0.424779  1
  Ir  Ir24  1  0.250000  0.662327  0.727852  1
  Ir  Ir25  1  0.750000  0.337727  0.271708  1
  Ir  Ir26  1  0.250000  0.550953  0.046756  1
  Ir  Ir27  1  0.750000  0.447761  0.949531  1
  Ir  Ir28  1  0.250000  0.062236  0.273661  1
  Ir  Ir29  1  0.750000  0.937843  0.726200  1
  Ir  Ir30  1  0.250000  0.421855  0.526988  1
  Ir  Ir31  1  0.750000  0.575493  0.475880  1
  Ir  Ir32  1  0.250000  0.916605  0.997336  1
  Ir  Ir33  1  0.750000  0.084819  0.001653  1
  Ir  Ir34  1  0.250000  0.729348  0.397141  1
  Ir  Ir35  1  0.750000  0.269992  0.605461  1
  Ir  Ir36  1  0.250000  0.341487  0.855776  1
  Ir  Ir37  1  0.750000  0.658717  0.142575  1
