# generated using pymatgen
data_Ho2Tm4P13Rh20
_symmetry_space_group_name_H-M   'P 1'
_cell_length_a   13.32066801
_cell_length_b   13.31676073
_cell_length_c   3.90471200
_cell_angle_alpha   90.00069382
_cell_angle_beta   90.00258168
_cell_angle_gamma   120.00681961
_symmetry_Int_Tables_number   1
_chemical_formula_structural   Ho2Tm4P13Rh20
_chemical_formula_sum   'Ho2 Tm4 P13 Rh20'
_cell_volume   599.81095128
_cell_formula_units_Z   1
loop_
 _symmetry_equiv_pos_site_id
 _symmetry_equiv_pos_as_xyz
  1  'x, y, z'
loop_
 _atom_site_type_symbol
 _atom_site_label
 _atom_site_symmetry_multiplicity
 _atom_site_fract_x
 _atom_site_fract_y
 _atom_site_fract_z
 _atom_site_occupancy
  Ho  Ho0  1  0.529134  0.717302  0.248518  1
  Ho  Ho1  1  0.282621  0.811805  0.248468  1
  Tm  Tm2  1  0.188114  0.470706  0.248545  1
  Tm  Tm3  1  0.470908  0.282714  0.751457  1
  Tm  Tm4  1  0.717273  0.188189  0.751491  1
  Tm  Tm5  1  0.811756  0.529091  0.751506  1
  P  P6  1  0.527117  0.140119  0.250395  1
  P  P7  1  0.859872  0.386983  0.250319  1
  P  P8  1  0.612941  0.472885  0.250342  1
  P  P9  1  0.944491  0.713897  0.254550  1
  P  P10  1  0.286081  0.230497  0.254663  1
  P  P11  1  0.769423  0.055550  0.254545  1
  P  P12  1  0.386763  0.526576  0.749773  1
  P  P13  1  0.473266  0.860265  0.749727  1
  P  P14  1  0.139656  0.612618  0.749719  1
  P  P15  1  0.714478  0.769670  0.745353  1
  P  P16  1  0.230371  0.944826  0.745427  1
  P  P17  1  0.055530  0.286028  0.745390  1
  P  P18  1  0.000029  0.000053  0.000022  1
  Rh  Rh19  1  0.332913  0.666096  0.752229  1
  Rh  Rh20  1  0.920077  0.250330  0.253476  1
  Rh  Rh21  1  0.749841  0.669794  0.253518  1
  Rh  Rh22  1  0.330259  0.080053  0.253501  1
  Rh  Rh23  1  0.438565  0.022402  0.751379  1
  Rh  Rh24  1  0.978130  0.416270  0.751379  1
  Rh  Rh25  1  0.583816  0.561348  0.751436  1
  Rh  Rh26  1  0.666703  0.333360  0.247592  1
  Rh  Rh27  1  0.094573  0.187550  0.247511  1
  Rh  Rh28  1  0.812523  0.907004  0.247595  1
  Rh  Rh29  1  0.092995  0.905474  0.247577  1
  Rh  Rh30  1  0.021602  0.583464  0.248571  1
  Rh  Rh31  1  0.416221  0.437924  0.248530  1
  Rh  Rh32  1  0.562110  0.978538  0.248577  1
  Rh  Rh33  1  0.670402  0.920939  0.746520  1
  Rh  Rh34  1  0.079065  0.749327  0.746573  1
  Rh  Rh35  1  0.250248  0.330132  0.746446  1
  Rh  Rh36  1  0.905686  0.812576  0.752516  1
  Rh  Rh37  1  0.187473  0.093192  0.752407  1
  Rh  Rh38  1  0.906974  0.094454  0.752459  1
