# generated using pymatgen
data_Nd2Mn4Ni8P7
_symmetry_space_group_name_H-M   'P 1'
_cell_length_a   9.19730867
_cell_length_b   9.20071247
_cell_length_c   3.72607800
_cell_angle_alpha   90.00000000
_cell_angle_beta   90.00000000
_cell_angle_gamma   120.10854528
_symmetry_Int_Tables_number   1
_chemical_formula_structural   Nd2Mn4Ni8P7
_chemical_formula_sum   'Nd2 Mn4 Ni8 P7'
_cell_volume   272.76505742
_cell_formula_units_Z   1
loop_
 _symmetry_equiv_pos_site_id
 _symmetry_equiv_pos_as_xyz
  1  'x, y, z'
loop_
 _atom_site_type_symbol
 _atom_site_label
 _atom_site_symmetry_multiplicity
 _atom_site_fract_x
 _atom_site_fract_y
 _atom_site_fract_z
 _atom_site_occupancy
  Nd  Nd0  1  0.665464  0.331894  0.000000  1
  Nd  Nd1  1  0.333982  0.667997  0.500000  1
  Mn  Mn2  1  0.120148  0.846651  0.500000  1
  Mn  Mn3  1  0.217699  0.100115  0.000000  1
  Mn  Mn4  1  0.901990  0.116075  0.000000  1
  Mn  Mn5  1  0.881180  0.781415  0.000000  1
  Ni  Ni6  1  0.432540  0.062115  0.500000  1
  Ni  Ni7  1  0.941031  0.373184  0.500000  1
  Ni  Ni8  1  0.629728  0.569567  0.500000  1
  Ni  Ni9  1  0.151254  0.276408  0.500000  1
  Ni  Ni10  1  0.725821  0.876401  0.500000  1
  Ni  Ni11  1  0.383626  0.432301  0.000000  1
  Ni  Ni12  1  0.567768  0.950849  0.000000  1
  Ni  Ni13  1  0.049441  0.616572  0.000000  1
  P  P14  1  0.106652  0.398603  0.000000  1
  P  P15  1  0.599908  0.707456  0.000000  1
  P  P16  1  0.289591  0.892830  0.000000  1
  P  P17  1  0.002933  0.000153  0.500000  1
  P  P18  1  0.402730  0.295745  0.500000  1
  P  P19  1  0.703246  0.107418  0.500000  1
  P  P20  1  0.893269  0.596250  0.500000  1
