# generated using pymatgen
data_DyNi3BIr
_symmetry_space_group_name_H-M   'P 1'
_cell_length_a   4.97583300
_cell_length_b   5.14706295
_cell_length_c   7.07427500
_cell_angle_alpha   90.00000000
_cell_angle_beta   90.00000000
_cell_angle_gamma   118.90548231
_symmetry_Int_Tables_number   1
_chemical_formula_structural   DyNi3BIr
_chemical_formula_sum   'Dy2 Ni6 B2 Ir2'
_cell_volume   158.60717348
_cell_formula_units_Z   2
loop_
 _symmetry_equiv_pos_site_id
 _symmetry_equiv_pos_as_xyz
  1  'x, y, z'
loop_
 _atom_site_type_symbol
 _atom_site_label
 _atom_site_symmetry_multiplicity
 _atom_site_fract_x
 _atom_site_fract_y
 _atom_site_fract_z
 _atom_site_occupancy
  Dy  Dy0  1  0.500000  0.000000  0.000000  1
  Dy  Dy1  1  0.500000  0.000000  0.500000  1
  Ni  Ni2  1  0.832209  0.664418  0.000000  1
  Ni  Ni3  1  0.167791  0.335582  0.000000  1
  Ni  Ni4  1  0.500000  0.500000  0.708544  1
  Ni  Ni5  1  0.000000  0.500000  0.708544  1
  Ni  Ni6  1  0.500000  0.500000  0.291456  1
  Ni  Ni7  1  0.000000  0.500000  0.291456  1
  B  B8  1  0.826889  0.653776  0.500000  1
  B  B9  1  0.173111  0.346224  0.500000  1
  Ir  Ir10  1  0.000000  0.000000  0.710315  1
  Ir  Ir11  1  0.000000  0.000000  0.289685  1
