# generated using pymatgen
data_Ta2Si2OsPt
_symmetry_space_group_name_H-M   'P 1'
_cell_length_a   3.83649300
_cell_length_b   6.44408887
_cell_length_c   7.37097968
_cell_angle_alpha   88.72813169
_cell_angle_beta   90.00000000
_cell_angle_gamma   90.00000000
_symmetry_Int_Tables_number   1
_chemical_formula_structural   Ta2Si2OsPt
_chemical_formula_sum   'Ta4 Si4 Os2 Pt2'
_cell_volume   182.18563628
_cell_formula_units_Z   2
loop_
 _symmetry_equiv_pos_site_id
 _symmetry_equiv_pos_as_xyz
  1  'x, y, z'
loop_
 _atom_site_type_symbol
 _atom_site_label
 _atom_site_symmetry_multiplicity
 _atom_site_fract_x
 _atom_site_fract_y
 _atom_site_fract_z
 _atom_site_occupancy
  Ta  Ta0  1  0.250000  0.519096  0.180321  1
  Ta  Ta1  1  0.750000  0.480904  0.819679  1
  Ta  Ta2  1  0.750000  0.973108  0.661468  1
  Ta  Ta3  1  0.250000  0.026892  0.338532  1
  Si  Si4  1  0.250000  0.761862  0.871189  1
  Si  Si5  1  0.750000  0.238138  0.128811  1
  Si  Si6  1  0.750000  0.729854  0.378187  1
  Si  Si7  1  0.250000  0.270146  0.621813  1
  Os  Os8  1  0.250000  0.645844  0.562817  1
  Os  Os9  1  0.750000  0.354156  0.437183  1
  Pt  Pt10  1  0.750000  0.853289  0.066432  1
  Pt  Pt11  1  0.250000  0.146711  0.933568  1
