# generated using pymatgen
data_Pr6ScCo16P12Ru
_symmetry_space_group_name_H-M   'P 1'
_cell_length_a   3.79503000
_cell_length_b   10.78198700
_cell_length_c   12.61345900
_cell_angle_alpha   90.00000000
_cell_angle_beta   90.00000000
_cell_angle_gamma   90.00000000
_symmetry_Int_Tables_number   1
_chemical_formula_structural   Pr6ScCo16P12Ru
_chemical_formula_sum   'Pr6 Sc1 Co16 P12 Ru1'
_cell_volume   516.11706285
_cell_formula_units_Z   1
loop_
 _symmetry_equiv_pos_site_id
 _symmetry_equiv_pos_as_xyz
  1  'x, y, z'
loop_
 _atom_site_type_symbol
 _atom_site_label
 _atom_site_symmetry_multiplicity
 _atom_site_fract_x
 _atom_site_fract_y
 _atom_site_fract_z
 _atom_site_occupancy
  Pr  Pr0  1  0.000000  0.500000  0.524230  1
  Pr  Pr1  1  0.500000  0.000000  0.471867  1
  Pr  Pr2  1  0.500000  0.816790  0.205232  1
  Pr  Pr3  1  0.500000  0.183210  0.205232  1
  Pr  Pr4  1  0.000000  0.681245  0.792334  1
  Pr  Pr5  1  0.000000  0.318755  0.792334  1
  Sc  Sc6  1  0.000000  0.000000  0.849125  1
  Co  Co7  1  0.500000  0.500000  0.706681  1
  Co  Co8  1  0.000000  0.000000  0.294032  1
  Co  Co9  1  0.000000  0.500000  0.989059  1
  Co  Co10  1  0.500000  0.000000  0.015523  1
  Co  Co11  1  0.500000  0.338002  0.996547  1
  Co  Co12  1  0.500000  0.661998  0.996547  1
  Co  Co13  1  0.000000  0.173391  0.009857  1
  Co  Co14  1  0.000000  0.826609  0.009857  1
  Co  Co15  1  0.500000  0.299178  0.428557  1
  Co  Co16  1  0.500000  0.700822  0.428557  1
  Co  Co17  1  0.000000  0.205942  0.564476  1
  Co  Co18  1  0.000000  0.794058  0.564476  1
  Co  Co19  1  0.500000  0.880518  0.698684  1
  Co  Co20  1  0.500000  0.119482  0.698684  1
  Co  Co21  1  0.000000  0.617075  0.292258  1
  Co  Co22  1  0.000000  0.382925  0.292258  1
  P  P23  1  0.500000  0.500000  0.887509  1
  P  P24  1  0.000000  0.000000  0.113007  1
  P  P25  1  0.500000  0.500000  0.346285  1
  P  P26  1  0.000000  0.000000  0.646431  1
  P  P27  1  0.500000  0.305750  0.611398  1
  P  P28  1  0.500000  0.694250  0.611398  1
  P  P29  1  0.000000  0.196003  0.384452  1
  P  P30  1  0.000000  0.803997  0.384452  1
  P  P31  1  0.500000  0.839233  0.905382  1
  P  P32  1  0.500000  0.160767  0.905382  1
  P  P33  1  0.000000  0.648019  0.107768  1
  P  P34  1  0.000000  0.351981  0.107768  1
  Ru  Ru35  1  0.500000  0.500000  0.162358  1
