# generated using pymatgen
data_Ho5ErAl24Ru5Pt3
_symmetry_space_group_name_H-M   'P 1'
_cell_length_a   8.80716995
_cell_length_b   8.85006062
_cell_length_c   9.53724096
_cell_angle_alpha   89.81549292
_cell_angle_beta   90.18140348
_cell_angle_gamma   119.81885112
_symmetry_Int_Tables_number   1
_chemical_formula_structural   Ho5ErAl24Ru5Pt3
_chemical_formula_sum   'Ho5 Er1 Al24 Ru5 Pt3'
_cell_volume   644.94534354
_cell_formula_units_Z   1
loop_
 _symmetry_equiv_pos_site_id
 _symmetry_equiv_pos_as_xyz
  1  'x, y, z'
loop_
 _atom_site_type_symbol
 _atom_site_label
 _atom_site_symmetry_multiplicity
 _atom_site_fract_x
 _atom_site_fract_y
 _atom_site_fract_z
 _atom_site_occupancy
  Ho  Ho0  1  0.804243  0.190813  0.748705  1
  Ho  Ho1  1  0.195610  0.809001  0.251232  1
  Ho  Ho2  1  0.388007  0.191240  0.750041  1
  Ho  Ho3  1  0.611894  0.808629  0.249907  1
  Ho  Ho4  1  0.806475  0.614555  0.750128  1
  Er  Er5  1  0.194607  0.387136  0.250152  1
  Al  Al6  1  0.664108  0.327194  0.971415  1
  Al  Al7  1  0.335752  0.672498  0.029031  1
  Al  Al8  1  0.338819  0.669440  0.472320  1
  Al  Al9  1  0.660993  0.330326  0.527244  1
  Al  Al10  1  0.832615  0.158247  0.422466  1
  Al  Al11  1  0.167745  0.841835  0.577131  1
  Al  Al12  1  0.327254  0.164527  0.423422  1
  Al  Al13  1  0.167615  0.842219  0.922096  1
  Al  Al14  1  0.672376  0.835514  0.576165  1
  Al  Al15  1  0.832771  0.157887  0.078237  1
  Al  Al16  1  0.831496  0.675054  0.423999  1
  Al  Al17  1  0.673944  0.841767  0.922298  1
  Al  Al18  1  0.168371  0.324798  0.575499  1
  Al  Al19  1  0.325775  0.158269  0.078001  1
  Al  Al20  1  0.161566  0.322950  0.922254  1
  Al  Al21  1  0.838370  0.676910  0.078268  1
  Al  Al22  1  0.437758  0.562302  0.746291  1
  Al  Al23  1  0.561795  0.437474  0.253637  1
  Al  Al24  1  0.127152  0.563537  0.750473  1
  Al  Al25  1  0.873019  0.436218  0.249550  1
  Al  Al26  1  0.439339  0.877746  0.750481  1
  Al  Al27  1  0.560601  0.122204  0.249498  1
  Al  Al28  1  0.998099  0.997423  0.749814  1
  Al  Al29  1  0.002487  0.003808  0.250168  1
  Ru  Ru30  1  0.499623  0.499822  0.499738  1
  Ru  Ru31  1  0.499921  0.999840  0.000028  1
  Ru  Ru32  1  0.499934  0.999859  0.499960  1
  Ru  Ru33  1  0.999973  0.999936  0.999986  1
  Ru  Ru34  1  0.999964  0.999931  0.500001  1
  Pt  Pt35  1  0.499381  0.499644  0.000356  1
  Pt  Pt36  1  0.000275  0.499709  0.000389  1
  Pt  Pt37  1  0.000276  0.499743  0.499621  1
