# generated using pymatgen
data_Y2Er18Cd6RuRh
_symmetry_space_group_name_H-M   'P 1'
_cell_length_a   9.55950100
_cell_length_b   9.54638258
_cell_length_c   9.72154400
_cell_angle_alpha   90.00000000
_cell_angle_beta   90.00000000
_cell_angle_gamma   119.95461447
_symmetry_Int_Tables_number   1
_chemical_formula_structural   Y2Er18Cd6RuRh
_chemical_formula_sum   'Y2 Er18 Cd6 Ru1 Rh1'
_cell_volume   768.66724033
_cell_formula_units_Z   1
loop_
 _symmetry_equiv_pos_site_id
 _symmetry_equiv_pos_as_xyz
  1  'x, y, z'
loop_
 _atom_site_type_symbol
 _atom_site_label
 _atom_site_symmetry_multiplicity
 _atom_site_fract_x
 _atom_site_fract_y
 _atom_site_fract_z
 _atom_site_occupancy
  Y  Y0  1  0.915713  0.457857  0.250000  1
  Y  Y1  1  0.082369  0.541185  0.750000  1
  Er  Er2  1  0.999943  0.999971  0.499738  1
  Er  Er3  1  0.999943  0.999971  0.000262  1
  Er  Er4  1  0.209703  0.791297  0.440484  1
  Er  Er5  1  0.209703  0.418407  0.440484  1
  Er  Er6  1  0.581648  0.790824  0.440556  1
  Er  Er7  1  0.789793  0.209164  0.559950  1
  Er  Er8  1  0.789793  0.580627  0.559950  1
  Er  Er9  1  0.419348  0.209673  0.559882  1
  Er  Er10  1  0.789793  0.209164  0.940050  1
  Er  Er11  1  0.789793  0.580627  0.940050  1
  Er  Er12  1  0.419348  0.209673  0.940118  1
  Er  Er13  1  0.209703  0.791297  0.059516  1
  Er  Er14  1  0.209703  0.418407  0.059516  1
  Er  Er15  1  0.581648  0.790824  0.059444  1
  Er  Er16  1  0.541815  0.458017  0.250000  1
  Er  Er17  1  0.541815  0.083800  0.250000  1
  Er  Er18  1  0.459162  0.540993  0.750000  1
  Er  Er19  1  0.459162  0.918170  0.750000  1
  Cd  Cd20  1  0.884845  0.114182  0.250000  1
  Cd  Cd21  1  0.884845  0.770665  0.250000  1
  Cd  Cd22  1  0.229863  0.114933  0.250000  1
  Cd  Cd23  1  0.115040  0.885910  0.750000  1
  Cd  Cd24  1  0.115040  0.229128  0.750000  1
  Cd  Cd25  1  0.770371  0.885184  0.750000  1
  Ru  Ru26  1  0.666654  0.333326  0.750000  1
  Rh  Rh27  1  0.333444  0.666723  0.250000  1
