# generated using pymatgen
data_Tb4NbOs7
_symmetry_space_group_name_H-M   'P 1'
_cell_length_a   5.46915800
_cell_length_b   5.46915820
_cell_length_c   8.66323300
_cell_angle_alpha   90.00000000
_cell_angle_beta   90.00000000
_cell_angle_gamma   119.99999877
_symmetry_Int_Tables_number   1
_chemical_formula_structural   Tb4NbOs7
_chemical_formula_sum   'Tb4 Nb1 Os7'
_cell_volume   224.41484821
_cell_formula_units_Z   1
loop_
 _symmetry_equiv_pos_site_id
 _symmetry_equiv_pos_as_xyz
  1  'x, y, z'
loop_
 _atom_site_type_symbol
 _atom_site_label
 _atom_site_symmetry_multiplicity
 _atom_site_fract_x
 _atom_site_fract_y
 _atom_site_fract_z
 _atom_site_occupancy
  Tb  Tb0  1  0.666666  0.333334  0.072102  1
  Tb  Tb1  1  0.666666  0.333334  0.438187  1
  Tb  Tb2  1  0.333333  0.666666  0.561814  1
  Tb  Tb3  1  0.333333  0.666666  0.927898  1
  Nb  Nb4  1  0.000000  0.000000  0.000000  1
  Os  Os5  1  0.173387  0.346772  0.251653  1
  Os  Os6  1  0.173387  0.826613  0.251653  1
  Os  Os7  1  0.653227  0.826613  0.251653  1
  Os  Os8  1  0.000000  0.000000  0.500000  1
  Os  Os9  1  0.346772  0.173388  0.748347  1
  Os  Os10  1  0.826614  0.173388  0.748347  1
  Os  Os11  1  0.826613  0.653229  0.748347  1
