# generated using pymatgen
data_Ta10AlGaSi4
_symmetry_space_group_name_H-M   'P 1'
_cell_length_a   7.60435439
_cell_length_b   7.60435357
_cell_length_c   7.60435278
_cell_angle_alpha   128.42572817
_cell_angle_beta   128.42572192
_cell_angle_gamma   75.93637625
_symmetry_Int_Tables_number   1
_chemical_formula_structural   Ta10AlGaSi4
_chemical_formula_sum   'Ta10 Al1 Ga1 Si4'
_cell_volume   262.42408311
_cell_formula_units_Z   1
loop_
 _symmetry_equiv_pos_site_id
 _symmetry_equiv_pos_as_xyz
  1  'x, y, z'
loop_
 _atom_site_type_symbol
 _atom_site_label
 _atom_site_symmetry_multiplicity
 _atom_site_fract_x
 _atom_site_fract_y
 _atom_site_fract_z
 _atom_site_occupancy
  Ta  Ta0  1  0.014415  0.186856  0.499576  1
  Ta  Ta1  1  0.687280  0.514839  0.500424  1
  Ta  Ta2  1  0.514839  0.014415  0.827560  1
  Ta  Ta3  1  0.186856  0.687280  0.172440  1
  Ta  Ta4  1  0.985161  0.812720  0.499576  1
  Ta  Ta5  1  0.313144  0.485585  0.500424  1
  Ta  Ta6  1  0.485585  0.985161  0.172440  1
  Ta  Ta7  1  0.812720  0.313144  0.827560  1
  Ta  Ta8  1  0.999986  0.999986  0.000000  1
  Ta  Ta9  1  0.500014  0.500014  0.000000  1
  Al  Al10  1  0.750000  0.750000  0.000000  1
  Ga  Ga11  1  0.250000  0.250000  0.000000  1
  Si  Si12  1  0.369901  0.130099  0.500000  1
  Si  Si13  1  0.630099  0.869901  0.500000  1
  Si  Si14  1  0.869901  0.369901  0.239802  1
  Si  Si15  1  0.130099  0.630099  0.760198  1
