# generated using pymatgen
data_Tb8Ho2Co3Ru
_symmetry_space_group_name_H-M   'P 1'
_cell_length_a   6.35108255
_cell_length_b   7.03684071
_cell_length_c   8.61500324
_cell_angle_alpha   96.35463128
_cell_angle_beta   111.95645140
_cell_angle_gamma   89.76641891
_symmetry_Int_Tables_number   1
_chemical_formula_structural   Tb8Ho2Co3Ru
_chemical_formula_sum   'Tb8 Ho2 Co3 Ru1'
_cell_volume   354.60708334
_cell_formula_units_Z   1
loop_
 _symmetry_equiv_pos_site_id
 _symmetry_equiv_pos_as_xyz
  1  'x, y, z'
loop_
 _atom_site_type_symbol
 _atom_site_label
 _atom_site_symmetry_multiplicity
 _atom_site_fract_x
 _atom_site_fract_y
 _atom_site_fract_z
 _atom_site_occupancy
  Tb  Tb0  1  0.976449  0.912144  0.189289  1
  Tb  Tb1  1  0.796327  0.587983  0.811596  1
  Tb  Tb2  1  0.017149  0.087951  0.814314  1
  Tb  Tb3  1  0.201672  0.418479  0.187986  1
  Tb  Tb4  1  0.647735  0.810430  0.432888  1
  Tb  Tb5  1  0.214460  0.684367  0.570280  1
  Tb  Tb6  1  0.356794  0.185473  0.568658  1
  Tb  Tb7  1  0.789317  0.317950  0.431925  1
  Ho  Ho8  1  0.427691  0.745404  0.997440  1
  Ho  Ho9  1  0.572374  0.252963  0.998667  1
  Co  Co10  1  0.822106  0.574065  0.221174  1
  Co  Co11  1  0.602199  0.926025  0.780807  1
  Co  Co12  1  0.177096  0.426548  0.777592  1
  Ru  Ru13  1  0.398630  0.070219  0.217384  1
