# generated using pymatgen
data_DyHoEr4(RuI3)2
_symmetry_space_group_name_H-M   'P 1'
_cell_length_a   4.19639900
_cell_length_b   8.85334966
_cell_length_c   12.29308002
_cell_angle_alpha   94.41327642
_cell_angle_beta   90.00000000
_cell_angle_gamma   90.00000000
_symmetry_Int_Tables_number   1
_chemical_formula_structural   DyHoEr4(RuI3)2
_chemical_formula_sum   'Dy1 Ho1 Er4 Ru2 I6'
_cell_volume   455.36063304
_cell_formula_units_Z   1
loop_
 _symmetry_equiv_pos_site_id
 _symmetry_equiv_pos_as_xyz
  1  'x, y, z'
loop_
 _atom_site_type_symbol
 _atom_site_label
 _atom_site_symmetry_multiplicity
 _atom_site_fract_x
 _atom_site_fract_y
 _atom_site_fract_z
 _atom_site_occupancy
  Dy  Dy0  1  0.750000  0.263959  0.603569  1
  Ho  Ho1  1  0.250000  0.736602  0.396377  1
  Er  Er2  1  0.750000  0.873003  0.625878  1
  Er  Er3  1  0.250000  0.126789  0.373991  1
  Er  Er4  1  0.750000  0.894813  0.186461  1
  Er  Er5  1  0.250000  0.105064  0.813762  1
  Ru  Ru6  1  0.750000  0.943162  0.407321  1
  Ru  Ru7  1  0.250000  0.056528  0.592674  1
  I  I8  1  0.750000  0.422279  0.366244  1
  I  I9  1  0.250000  0.577830  0.633679  1
  I  I10  1  0.750000  0.864608  0.889930  1
  I  I11  1  0.250000  0.135378  0.110066  1
  I  I12  1  0.750000  0.358462  0.866331  1
  I  I13  1  0.250000  0.641523  0.133718  1
