# generated using pymatgen
data_Ho3Lu4Pa(ReB6)4
_symmetry_space_group_name_H-M   'P 1'
_cell_length_a   3.65514000
_cell_length_b   9.09869479
_cell_length_c   11.47496102
_cell_angle_alpha   90.12775927
_cell_angle_beta   90.00000000
_cell_angle_gamma   90.00000000
_symmetry_Int_Tables_number   1
_chemical_formula_structural   Ho3Lu4Pa(ReB6)4
_chemical_formula_sum   'Ho3 Lu4 Pa1 Re4 B24'
_cell_volume   381.62186748
_cell_formula_units_Z   1
loop_
 _symmetry_equiv_pos_site_id
 _symmetry_equiv_pos_as_xyz
  1  'x, y, z'
loop_
 _atom_site_type_symbol
 _atom_site_label
 _atom_site_symmetry_multiplicity
 _atom_site_fract_x
 _atom_site_fract_y
 _atom_site_fract_z
 _atom_site_occupancy
  Ho  Ho0  1  0.000000  0.679979  0.586802  1
  Ho  Ho1  1  0.000000  0.822774  0.085392  1
  Ho  Ho2  1  0.000000  0.176299  0.913454  1
  Lu  Lu3  1  0.000000  0.942872  0.371749  1
  Lu  Lu4  1  0.000000  0.055058  0.629262  1
  Lu  Lu5  1  0.000000  0.443705  0.127442  1
  Lu  Lu6  1  0.000000  0.557055  0.870552  1
  Pa  Pa7  1  0.000000  0.322802  0.414140  1
  Re  Re8  1  0.000000  0.636242  0.321048  1
  Re  Re9  1  0.000000  0.361539  0.677237  1
  Re  Re10  1  0.000000  0.141317  0.182047  1
  Re  Re11  1  0.000000  0.861203  0.820455  1
  B  B12  1  0.500000  0.553111  0.431978  1
  B  B13  1  0.500000  0.445639  0.567305  1
  B  B14  1  0.500000  0.053969  0.067410  1
  B  B15  1  0.500000  0.946704  0.933555  1
  B  B16  1  0.500000  0.750344  0.418453  1
  B  B17  1  0.500000  0.249295  0.581426  1
  B  B18  1  0.500000  0.250232  0.080590  1
  B  B19  1  0.500000  0.749512  0.919010  1
  B  B20  1  0.500000  0.792571  0.265602  1
  B  B21  1  0.500000  0.207265  0.734993  1
  B  B22  1  0.500000  0.292493  0.234397  1
  B  B23  1  0.500000  0.707361  0.765634  1
  B  B24  1  0.500000  0.630548  0.184059  1
  B  B25  1  0.500000  0.370269  0.814970  1
  B  B26  1  0.500000  0.130959  0.315423  1
  B  B27  1  0.500000  0.869530  0.685339  1
  B  B28  1  0.500000  0.981948  0.212763  1
  B  B29  1  0.500000  0.018247  0.787686  1
  B  B30  1  0.500000  0.482318  0.286703  1
  B  B31  1  0.500000  0.518493  0.713448  1
  B  B32  1  0.500000  0.599707  0.027162  1
  B  B33  1  0.500000  0.400324  0.971647  1
  B  B34  1  0.500000  0.101391  0.472125  1
  B  B35  1  0.500000  0.896926  0.528737  1
