# generated using pymatgen
data_Tb2HoEr(SbO4)4
_symmetry_space_group_name_H-M   'P 1'
_cell_length_a   5.39838645
_cell_length_b   7.66525981
_cell_length_c   7.55522704
_cell_angle_alpha   81.14119383
_cell_angle_beta   90.35052423
_cell_angle_gamma   92.28524947
_symmetry_Int_Tables_number   1
_chemical_formula_structural   Tb2HoEr(SbO4)4
_chemical_formula_sum   'Tb2 Ho1 Er1 Sb4 O16'
_cell_volume   308.66040290
_cell_formula_units_Z   1
loop_
 _symmetry_equiv_pos_site_id
 _symmetry_equiv_pos_as_xyz
  1  'x, y, z'
loop_
 _atom_site_type_symbol
 _atom_site_label
 _atom_site_symmetry_multiplicity
 _atom_site_fract_x
 _atom_site_fract_y
 _atom_site_fract_z
 _atom_site_occupancy
  Tb  Tb0  1  0.261571  0.133217  0.614703  1
  Tb  Tb1  1  0.738424  0.866725  0.385359  1
  Ho  Ho2  1  0.211548  0.159050  0.109320  1
  Er  Er3  1  0.788409  0.840875  0.890114  1
  Sb  Sb4  1  0.240216  0.663304  0.193443  1
  Sb  Sb5  1  0.759845  0.336742  0.806394  1
  Sb  Sb6  1  0.724882  0.335955  0.307638  1
  Sb  Sb7  1  0.275161  0.664183  0.692522  1
  O  O8  1  0.087087  0.434192  0.689824  1
  O  O9  1  0.912931  0.565729  0.310222  1
  O  O10  1  0.610871  0.325212  0.560705  1
  O  O11  1  0.389116  0.674867  0.439250  1
  O  O12  1  0.874457  0.332558  0.061347  1
  O  O13  1  0.124513  0.667917  0.938567  1
  O  O14  1  0.399784  0.430283  0.196300  1
  O  O15  1  0.600506  0.570128  0.803885  1
  O  O16  1  0.045271  0.886019  0.171696  1
  O  O17  1  0.953940  0.112954  0.828334  1
  O  O18  1  0.508860  0.111427  0.320390  1
  O  O19  1  0.492053  0.888452  0.680340  1
  O  O20  1  0.462776  0.190965  0.879897  1
  O  O21  1  0.538193  0.809215  0.119152  1
  O  O22  1  0.991293  0.168554  0.379929  1
  O  O23  1  0.008295  0.831477  0.620667  1
