# generated using pymatgen
data_Y2Ho8In8IrPd3
_symmetry_space_group_name_H-M   'P 1'
_cell_length_a   3.62086600
_cell_length_b   8.12126852
_cell_length_c   18.24971617
_cell_angle_alpha   90.07995107
_cell_angle_beta   90.00000000
_cell_angle_gamma   90.00000000
_symmetry_Int_Tables_number   1
_chemical_formula_structural   Y2Ho8In8IrPd3
_chemical_formula_sum   'Y2 Ho8 In8 Ir1 Pd3'
_cell_volume   536.65108874
_cell_formula_units_Z   1
loop_
 _symmetry_equiv_pos_site_id
 _symmetry_equiv_pos_as_xyz
  1  'x, y, z'
loop_
 _atom_site_type_symbol
 _atom_site_label
 _atom_site_symmetry_multiplicity
 _atom_site_fract_x
 _atom_site_fract_y
 _atom_site_fract_z
 _atom_site_occupancy
  Y  Y0  1  0.000000  0.500332  0.499701  1
  Y  Y1  1  0.000000  0.000112  0.000480  1
  Ho  Ho2  1  0.000000  0.730382  0.277275  1
  Ho  Ho3  1  0.000000  0.260403  0.719916  1
  Ho  Ho4  1  0.000000  0.759983  0.779814  1
  Ho  Ho5  1  0.000000  0.252959  0.219734  1
  Ho  Ho6  1  0.000000  0.612477  0.086655  1
  Ho  Ho7  1  0.000000  0.384787  0.916876  1
  Ho  Ho8  1  0.000000  0.884657  0.583156  1
  Ho  Ho9  1  0.000000  0.115642  0.416136  1
  In  In10  1  0.500000  0.710507  0.931653  1
  In  In11  1  0.500000  0.289958  0.068554  1
  In  In12  1  0.500000  0.790196  0.431548  1
  In  In13  1  0.500000  0.210025  0.568375  1
  In  In14  1  0.500000  0.580984  0.649508  1
  In  In15  1  0.500000  0.420018  0.350744  1
  In  In16  1  0.500000  0.920140  0.149827  1
  In  In17  1  0.500000  0.080909  0.850326  1
  Ir  Ir18  1  0.500000  0.520568  0.195658  1
  Pd  Pd19  1  0.500000  0.476241  0.804024  1
  Pd  Pd20  1  0.500000  0.976398  0.696023  1
  Pd  Pd21  1  0.500000  0.022322  0.304018  1
