# generated using pymatgen
data_Nd10Ir5Rh
_symmetry_space_group_name_H-M   'P 1'
_cell_length_a   11.26183800
_cell_length_b   11.26183800
_cell_length_c   6.62461800
_cell_angle_alpha   90.00000000
_cell_angle_beta   90.00000000
_cell_angle_gamma   90.00000000
_symmetry_Int_Tables_number   1
_chemical_formula_structural   Nd10Ir5Rh
_chemical_formula_sum   'Nd20 Ir10 Rh2'
_cell_volume   840.19364411
_cell_formula_units_Z   2
loop_
 _symmetry_equiv_pos_site_id
 _symmetry_equiv_pos_as_xyz
  1  'x, y, z'
loop_
 _atom_site_type_symbol
 _atom_site_label
 _atom_site_symmetry_multiplicity
 _atom_site_fract_x
 _atom_site_fract_y
 _atom_site_fract_z
 _atom_site_occupancy
  Nd  Nd0  1  0.090378  0.291926  0.114889  1
  Nd  Nd1  1  0.791926  0.409622  0.114889  1
  Nd  Nd2  1  0.208074  0.590378  0.114889  1
  Nd  Nd3  1  0.909622  0.708074  0.114889  1
  Nd  Nd4  1  0.409622  0.791926  0.385111  1
  Nd  Nd5  1  0.590378  0.208074  0.385111  1
  Nd  Nd6  1  0.291926  0.090378  0.385111  1
  Nd  Nd7  1  0.708074  0.909622  0.385111  1
  Nd  Nd8  1  0.409919  0.208451  0.882939  1
  Nd  Nd9  1  0.708451  0.090081  0.882939  1
  Nd  Nd10  1  0.291549  0.909919  0.882939  1
  Nd  Nd11  1  0.590081  0.791549  0.882939  1
  Nd  Nd12  1  0.090081  0.708451  0.617061  1
  Nd  Nd13  1  0.909919  0.291549  0.617061  1
  Nd  Nd14  1  0.208451  0.409919  0.617061  1
  Nd  Nd15  1  0.791549  0.590081  0.617061  1
  Nd  Nd16  1  0.000000  0.000000  0.000250  1
  Nd  Nd17  1  0.500000  0.500000  0.000250  1
  Nd  Nd18  1  0.500000  0.500000  0.499750  1
  Nd  Nd19  1  0.000000  0.000000  0.499750  1
  Ir  Ir20  1  0.153892  0.846108  0.250000  1
  Ir  Ir21  1  0.346108  0.346108  0.250000  1
  Ir  Ir22  1  0.653892  0.653892  0.250000  1
  Ir  Ir23  1  0.846108  0.153892  0.250000  1
  Ir  Ir24  1  0.346295  0.653705  0.750000  1
  Ir  Ir25  1  0.153705  0.153705  0.750000  1
  Ir  Ir26  1  0.846295  0.846295  0.750000  1
  Ir  Ir27  1  0.653705  0.346295  0.750000  1
  Ir  Ir28  1  0.500000  0.000000  0.622093  1
  Ir  Ir29  1  0.000000  0.500000  0.877907  1
  Rh  Rh30  1  0.000000  0.500000  0.380378  1
  Rh  Rh31  1  0.500000  0.000000  0.119622  1
