# generated using pymatgen
data_Tb16Tm4Os7Au5
_symmetry_space_group_name_H-M   'P 1'
_cell_length_a   11.18792600
_cell_length_b   11.18792563
_cell_length_c   6.34450400
_cell_angle_alpha   90.00146467
_cell_angle_beta   90.00145955
_cell_angle_gamma   89.79354795
_symmetry_Int_Tables_number   1
_chemical_formula_structural   Tb16Tm4Os7Au5
_chemical_formula_sum   'Tb16 Tm4 Os7 Au5'
_cell_volume   794.13440567
_cell_formula_units_Z   1
loop_
 _symmetry_equiv_pos_site_id
 _symmetry_equiv_pos_as_xyz
  1  'x, y, z'
loop_
 _atom_site_type_symbol
 _atom_site_label
 _atom_site_symmetry_multiplicity
 _atom_site_fract_x
 _atom_site_fract_y
 _atom_site_fract_z
 _atom_site_occupancy
  Tb  Tb0  1  0.300795  0.089230  0.361291  1
  Tb  Tb1  1  0.301665  0.907339  0.859841  1
  Tb  Tb2  1  0.695548  0.078818  0.857672  1
  Tb  Tb3  1  0.696877  0.906493  0.358168  1
  Tb  Tb4  1  0.578087  0.784025  0.872171  1
  Tb  Tb5  1  0.573583  0.205592  0.359797  1
  Tb  Tb6  1  0.419711  0.789051  0.371250  1
  Tb  Tb7  1  0.411952  0.206349  0.874332  1
  Tb  Tb8  1  0.215975  0.421913  0.627829  1
  Tb  Tb9  1  0.210949  0.580289  0.128750  1
  Tb  Tb10  1  0.794408  0.426417  0.140203  1
  Tb  Tb11  1  0.793651  0.588048  0.625668  1
  Tb  Tb12  1  0.910770  0.699205  0.138709  1
  Tb  Tb13  1  0.921182  0.304452  0.642328  1
  Tb  Tb14  1  0.092661  0.698335  0.640159  1
  Tb  Tb15  1  0.093507  0.303123  0.141832  1
  Tm  Tm16  1  0.997992  0.001020  0.498838  1
  Tm  Tm17  1  0.998980  0.002008  0.001162  1
  Tm  Tm18  1  0.495162  0.502698  0.003350  1
  Tm  Tm19  1  0.497302  0.504838  0.496650  1
  Os  Os20  1  0.652938  0.649564  0.248798  1
  Os  Os21  1  0.350436  0.347062  0.251202  1
  Os  Os22  1  0.347127  0.652873  0.750000  1
  Os  Os23  1  0.499241  0.999300  0.112239  1
  Os  Os24  1  0.499292  0.999417  0.615765  1
  Os  Os25  1  0.000583  0.500708  0.884235  1
  Os  Os26  1  0.000700  0.500759  0.387761  1
  Au  Au27  1  0.844878  0.155122  0.250000  1
  Au  Au28  1  0.847047  0.849189  0.751165  1
  Au  Au29  1  0.150811  0.152953  0.748835  1
  Au  Au30  1  0.152047  0.847953  0.250000  1
  Au  Au31  1  0.654142  0.345858  0.750000  1
