# generated using pymatgen
data_Y5Mn4(P4Ir5)3
_symmetry_space_group_name_H-M   'P 1'
_cell_length_a   12.46428786
_cell_length_b   12.54432550
_cell_length_c   3.94914600
_cell_angle_alpha   90.00000000
_cell_angle_beta   90.00000000
_cell_angle_gamma   119.71677283
_symmetry_Int_Tables_number   1
_chemical_formula_structural   Y5Mn4(P4Ir5)3
_chemical_formula_sum   'Y5 Mn4 P12 Ir15'
_cell_volume   536.26692844
_cell_formula_units_Z   1
loop_
 _symmetry_equiv_pos_site_id
 _symmetry_equiv_pos_as_xyz
  1  'x, y, z'
loop_
 _atom_site_type_symbol
 _atom_site_label
 _atom_site_symmetry_multiplicity
 _atom_site_fract_x
 _atom_site_fract_y
 _atom_site_fract_z
 _atom_site_occupancy
  Y  Y0  1  0.672932  0.335726  0.000000  1
  Y  Y1  1  0.331011  0.665285  0.000000  1
  Y  Y2  1  0.816061  0.815692  0.500000  1
  Y  Y3  1  0.182709  0.000278  0.500000  1
  Y  Y4  1  0.998915  0.184310  0.500000  1
  Mn  Mn5  1  0.292247  0.292641  0.500000  1
  Mn  Mn6  1  0.707429  0.000141  0.500000  1
  Mn  Mn7  1  0.997983  0.706615  0.500000  1
  Mn  Mn8  1  0.877071  0.360317  0.500000  1
  P  P9  1  0.699785  0.177345  0.500000  1
  P  P10  1  0.839848  0.514957  0.500000  1
  P  P11  1  0.478803  0.311173  0.500000  1
  P  P12  1  0.164582  0.688647  0.500000  1
  P  P13  1  0.523315  0.834532  0.500000  1
  P  P14  1  0.308827  0.476311  0.500000  1
  P  P15  1  0.639768  0.638945  0.000000  1
  P  P16  1  0.360793  0.001013  0.000000  1
  P  P17  1  0.989907  0.360402  0.000000  1
  P  P18  1  0.182416  0.183802  0.000000  1
  P  P19  1  0.816066  0.999059  0.000000  1
  P  P20  1  0.997693  0.816351  0.000000  1
  Ir  Ir21  1  0.801892  0.177118  0.000000  1
  Ir  Ir22  1  0.819957  0.625565  0.000000  1
  Ir  Ir23  1  0.376179  0.196840  0.000000  1
  Ir  Ir24  1  0.178767  0.805530  0.000000  1
  Ir  Ir25  1  0.623777  0.819535  0.000000  1
  Ir  Ir26  1  0.191320  0.373774  0.000000  1
  Ir  Ir27  1  0.453563  0.453797  0.000000  1
  Ir  Ir28  1  0.544921  0.998338  0.000000  1
  Ir  Ir29  1  0.999045  0.548790  0.000000  1
  Ir  Ir30  1  0.640581  0.506897  0.500000  1
  Ir  Ir31  1  0.495236  0.131287  0.500000  1
  Ir  Ir32  1  0.360492  0.869187  0.500000  1
  Ir  Ir33  1  0.508112  0.637653  0.500000  1
  Ir  Ir34  1  0.127451  0.491509  0.500000  1
  Ir  Ir35  1  0.000543  0.000638  0.000000  1
