# generated using pymatgen
data_Zr6Si12PtRh5
_symmetry_space_group_name_H-M   'P 1'
_cell_length_a   10.02759159
_cell_length_b   10.02556326
_cell_length_c   10.03507194
_cell_angle_alpha   148.69897438
_cell_angle_beta   133.67181775
_cell_angle_gamma   56.96273321
_symmetry_Int_Tables_number   1
_chemical_formula_structural   Zr6Si12PtRh5
_chemical_formula_sum   'Zr6 Si12 Pt1 Rh5'
_cell_volume   376.39979998
_cell_formula_units_Z   1
loop_
 _symmetry_equiv_pos_site_id
 _symmetry_equiv_pos_as_xyz
  1  'x, y, z'
loop_
 _atom_site_type_symbol
 _atom_site_label
 _atom_site_symmetry_multiplicity
 _atom_site_fract_x
 _atom_site_fract_y
 _atom_site_fract_z
 _atom_site_occupancy
  Zr  Zr0  1  0.347395  0.094984  0.254646  1
  Zr  Zr1  1  0.652605  0.905016  0.745354  1
  Zr  Zr2  1  0.160294  0.906521  0.253576  1
  Zr  Zr3  1  0.839706  0.093479  0.746424  1
  Zr  Zr4  1  0.637745  0.637434  0.999059  1
  Zr  Zr5  1  0.362255  0.362566  0.000941  1
  Si  Si6  1  0.000145  0.778894  0.778540  1
  Si  Si7  1  0.999855  0.221106  0.221460  1
  Si  Si8  1  0.499895  0.228244  0.728422  1
  Si  Si9  1  0.500105  0.771756  0.271578  1
  Si  Si10  1  0.198617  0.195801  0.990435  1
  Si  Si11  1  0.801383  0.804199  0.009565  1
  Si  Si12  1  0.292551  0.800179  0.501418  1
  Si  Si13  1  0.707449  0.199821  0.498582  1
  Si  Si14  1  0.720117  0.359754  0.347803  1
  Si  Si15  1  0.279883  0.640246  0.652197  1
  Si  Si16  1  0.989373  0.637121  0.351973  1
  Si  Si17  1  0.010627  0.362879  0.648027  1
  Pt  Pt18  1  0.500000  0.500000  0.500000  1
  Rh  Rh19  1  0.500000  0.000000  0.000000  1
  Rh  Rh20  1  0.000000  0.000000  0.500000  1
  Rh  Rh21  1  0.000000  0.500000  0.000000  1
  Rh  Rh22  1  0.243570  0.499759  0.744932  1
  Rh  Rh23  1  0.756430  0.500241  0.255068  1
