# generated using pymatgen
data_Er2Lu2B12IrRu
_symmetry_space_group_name_H-M   'P 1'
_cell_length_a   3.60872800
_cell_length_b   9.08434687
_cell_length_c   11.41316112
_cell_angle_alpha   90.05036953
_cell_angle_beta   90.00000000
_cell_angle_gamma   90.00000000
_symmetry_Int_Tables_number   1
_chemical_formula_structural   Er2Lu2B12IrRu
_chemical_formula_sum   'Er4 Lu4 B24 Ir2 Ru2'
_cell_volume   374.15679612
_cell_formula_units_Z   2
loop_
 _symmetry_equiv_pos_site_id
 _symmetry_equiv_pos_as_xyz
  1  'x, y, z'
loop_
 _atom_site_type_symbol
 _atom_site_label
 _atom_site_symmetry_multiplicity
 _atom_site_fract_x
 _atom_site_fract_y
 _atom_site_fract_z
 _atom_site_occupancy
  Er  Er0  1  0.000000  0.318356  0.412387  1
  Er  Er1  1  0.000000  0.681644  0.587613  1
  Er  Er2  1  0.000000  0.822132  0.084896  1
  Er  Er3  1  0.000000  0.177868  0.915104  1
  Lu  Lu4  1  0.000000  0.945814  0.372898  1
  Lu  Lu5  1  0.000000  0.054186  0.627102  1
  Lu  Lu6  1  0.000000  0.442252  0.125808  1
  Lu  Lu7  1  0.000000  0.557748  0.874192  1
  B  B8  1  0.500000  0.553509  0.434060  1
  B  B9  1  0.500000  0.446491  0.565940  1
  B  B10  1  0.500000  0.054317  0.066775  1
  B  B11  1  0.500000  0.945683  0.933225  1
  B  B12  1  0.500000  0.751584  0.420408  1
  B  B13  1  0.500000  0.248416  0.579592  1
  B  B14  1  0.500000  0.249432  0.080110  1
  B  B15  1  0.500000  0.750568  0.919890  1
  B  B16  1  0.500000  0.793245  0.265040  1
  B  B17  1  0.500000  0.206755  0.734960  1
  B  B18  1  0.500000  0.292532  0.234959  1
  B  B19  1  0.500000  0.707468  0.765041  1
  B  B20  1  0.500000  0.630706  0.183111  1
  B  B21  1  0.500000  0.369294  0.816889  1
  B  B22  1  0.500000  0.131116  0.315778  1
  B  B23  1  0.500000  0.868884  0.684222  1
  B  B24  1  0.500000  0.982641  0.213355  1
  B  B25  1  0.500000  0.017359  0.786645  1
  B  B26  1  0.500000  0.481116  0.286133  1
  B  B27  1  0.500000  0.518884  0.713867  1
  B  B28  1  0.500000  0.605999  0.029191  1
  B  B29  1  0.500000  0.394001  0.970809  1
  B  B30  1  0.500000  0.106043  0.471414  1
  B  B31  1  0.500000  0.893957  0.528586  1
  Ir  Ir32  1  0.000000  0.638002  0.321116  1
  Ir  Ir33  1  0.000000  0.361998  0.678884  1
  Ru  Ru34  1  0.000000  0.138339  0.179802  1
  Ru  Ru35  1  0.000000  0.861661  0.820198  1
