# generated using pymatgen
data_Hf3MnIn4(PO4)6
_symmetry_space_group_name_H-M   'P 1'
_cell_length_a   10.33796100
_cell_length_b   10.36818700
_cell_length_c   10.35326615
_cell_angle_alpha   90.00810979
_cell_angle_beta   90.00000000
_cell_angle_gamma   90.00000000
_symmetry_Int_Tables_number   1
_chemical_formula_structural   Hf3MnIn4(PO4)6
_chemical_formula_sum   'Hf6 Mn2 In8 P12 O48'
_cell_volume   1109.72427256
_cell_formula_units_Z   2
loop_
 _symmetry_equiv_pos_site_id
 _symmetry_equiv_pos_as_xyz
  1  'x, y, z'
loop_
 _atom_site_type_symbol
 _atom_site_label
 _atom_site_symmetry_multiplicity
 _atom_site_fract_x
 _atom_site_fract_y
 _atom_site_fract_z
 _atom_site_occupancy
  Hf  Hf0  1  0.908281  0.161781  0.589730  1
  Hf  Hf1  1  0.408281  0.838219  0.410270  1
  Hf  Hf2  1  0.086219  0.663193  0.913531  1
  Hf  Hf3  1  0.859144  0.607801  0.358283  1
  Hf  Hf4  1  0.359144  0.392199  0.641717  1
  Hf  Hf5  1  0.586219  0.336807  0.086469  1
  Mn  Mn6  1  0.147753  0.098578  0.147949  1
  Mn  Mn7  1  0.647753  0.901422  0.852051  1
  In  In8  1  0.575654  0.164171  0.419853  1
  In  In9  1  0.301926  0.035473  0.824630  1
  In  In10  1  0.801926  0.964527  0.175370  1
  In  In11  1  0.075654  0.835829  0.580147  1
  In  In12  1  0.452323  0.706201  0.049156  1
  In  In13  1  0.704530  0.578211  0.723690  1
  In  In14  1  0.204530  0.421789  0.276310  1
  In  In15  1  0.952323  0.293799  0.950844  1
  P  P16  1  0.620826  0.210977  0.771643  1
  P  P17  1  0.227900  0.128057  0.463086  1
  P  P18  1  0.462748  0.020538  0.123821  1
  P  P19  1  0.962748  0.979462  0.876179  1
  P  P20  1  0.727900  0.871943  0.536914  1
  P  P21  1  0.120826  0.789023  0.228357  1
  P  P22  1  0.370301  0.712322  0.727574  1
  P  P23  1  0.773668  0.619471  0.040849  1
  P  P24  1  0.537922  0.523343  0.372846  1
  P  P25  1  0.037922  0.476657  0.627154  1
  P  P26  1  0.273668  0.380529  0.959151  1
  P  P27  1  0.870301  0.287678  0.272426  1
  O  O28  1  0.855008  0.239406  0.413682  1
  O  O29  1  0.750804  0.220755  0.696139  1
  O  O30  1  0.298112  0.225874  0.553235  1
  O  O31  1  0.968992  0.209167  0.195349  1
  O  O32  1  0.231145  0.179957  0.324131  1
  O  O33  1  0.506423  0.163336  0.143850  1
  O  O34  1  0.086955  0.107693  0.511490  1
  O  O35  1  0.566905  0.073832  0.768156  1
  O  O36  1  0.965900  0.044508  0.739676  1
  O  O37  1  0.058123  0.053952  0.962130  1
  O  O38  1  0.324849  0.016520  0.067389  1
  O  O39  1  0.800391  0.002890  0.524820  1
  O  O40  1  0.300391  0.997110  0.475180  1
  O  O41  1  0.824849  0.983480  0.932611  1
  O  O42  1  0.558123  0.946048  0.037870  1
  O  O43  1  0.465900  0.955492  0.260324  1
  O  O44  1  0.066905  0.926168  0.231844  1
  O  O45  1  0.586955  0.892307  0.488510  1
  O  O46  1  0.006423  0.836664  0.856150  1
  O  O47  1  0.731145  0.820043  0.675869  1
  O  O48  1  0.468992  0.790833  0.804651  1
  O  O49  1  0.798112  0.774126  0.446765  1
  O  O50  1  0.250804  0.779245  0.303861  1
  O  O51  1  0.355008  0.760594  0.586318  1
  O  O52  1  0.142601  0.742313  0.087208  1
  O  O53  1  0.236036  0.726181  0.794112  1
  O  O54  1  0.699924  0.714232  0.954024  1
  O  O55  1  0.025438  0.694017  0.295966  1
  O  O56  1  0.774703  0.664900  0.183995  1
  O  O57  1  0.489322  0.663473  0.355540  1
  O  O58  1  0.915403  0.602505  0.994511  1
  O  O59  1  0.410820  0.567794  0.724792  1
  O  O60  1  0.021697  0.553172  0.754516  1
  O  O61  1  0.955153  0.545846  0.523025  1
  O  O62  1  0.681898  0.525061  0.414384  1
  O  O63  1  0.204201  0.513042  0.967625  1
  O  O64  1  0.704201  0.486958  0.032375  1
  O  O65  1  0.181898  0.474939  0.585616  1
  O  O66  1  0.455153  0.454154  0.476975  1
  O  O67  1  0.521697  0.446828  0.245484  1
  O  O68  1  0.910820  0.432206  0.275208  1
  O  O69  1  0.415403  0.397495  0.005489  1
  O  O70  1  0.989322  0.336527  0.644460  1
  O  O71  1  0.274703  0.335100  0.816005  1
  O  O72  1  0.525438  0.305983  0.704034  1
  O  O73  1  0.199924  0.285768  0.045976  1
  O  O74  1  0.736036  0.273819  0.205888  1
  O  O75  1  0.642601  0.257687  0.912792  1
