# generated using pymatgen
data_KH9Ru
_symmetry_space_group_name_H-M   'P 1'
_cell_length_a   7.69616100
_cell_length_b   7.69616094
_cell_length_c   7.50462400
_cell_angle_alpha   90.00000000
_cell_angle_beta   90.00000000
_cell_angle_gamma   120.00001316
_symmetry_Int_Tables_number   1
_chemical_formula_structural   KH9Ru
_chemical_formula_sum   'K3 H27 Ru3'
_cell_volume   384.95307864
_cell_formula_units_Z   3
loop_
 _symmetry_equiv_pos_site_id
 _symmetry_equiv_pos_as_xyz
  1  'x, y, z'
loop_
 _atom_site_type_symbol
 _atom_site_label
 _atom_site_symmetry_multiplicity
 _atom_site_fract_x
 _atom_site_fract_y
 _atom_site_fract_z
 _atom_site_occupancy
  K  K0  1  0.666667  0.333333  0.507301  1
  K  K1  1  0.333333  0.666667  0.178886  1
  K  K2  1  0.000000  0.000000  0.808496  1
  H  H3  1  0.457441  0.123228  0.011003  1
  H  H4  1  0.665787  0.542559  0.011003  1
  H  H5  1  0.876772  0.334213  0.011003  1
  H  H6  1  0.649224  0.170113  0.158948  1
  H  H7  1  0.520889  0.350776  0.158948  1
  H  H8  1  0.829887  0.479111  0.158948  1
  H  H9  1  0.686517  0.188596  0.860349  1
  H  H10  1  0.502078  0.313483  0.860349  1
  H  H11  1  0.811404  0.497922  0.860349  1
  H  H12  1  0.110744  0.472121  0.684581  1
  H  H13  1  0.361376  0.889256  0.684581  1
  H  H14  1  0.527879  0.638624  0.684581  1
  H  H15  1  0.218675  0.019037  0.300338  1
  H  H16  1  0.800362  0.781325  0.300338  1
  H  H17  1  0.980963  0.199638  0.300338  1
  H  H18  1  0.304245  0.499646  0.832487  1
  H  H19  1  0.195401  0.695755  0.832487  1
  H  H20  1  0.500354  0.804599  0.832487  1
  H  H21  1  0.026075  0.860306  0.153843  1
  H  H22  1  0.834232  0.973925  0.153843  1
  H  H23  1  0.139694  0.165768  0.153843  1
  H  H24  1  0.322357  0.506942  0.532517  1
  H  H25  1  0.184584  0.677643  0.532517  1
  H  H26  1  0.493058  0.815416  0.532517  1
  H  H27  1  0.000285  0.844788  0.453362  1
  H  H28  1  0.844502  0.999715  0.453362  1
  H  H29  1  0.155212  0.155498  0.453362  1
  Ru  Ru30  1  0.666667  0.333333  0.009650  1
  Ru  Ru31  1  0.333333  0.666667  0.682653  1
  Ru  Ru32  1  0.000000  0.000000  0.303737  1
