# generated using pymatgen
data_Nd2DySi2
_symmetry_space_group_name_H-M   'P 1'
_cell_length_a   7.62484600
_cell_length_b   7.62484600
_cell_length_c   4.39760100
_cell_angle_alpha   90.00000000
_cell_angle_beta   90.00000000
_cell_angle_gamma   90.00000000
_symmetry_Int_Tables_number   1
_chemical_formula_structural   Nd2DySi2
_chemical_formula_sum   'Nd4 Dy2 Si4'
_cell_volume   255.66894298
_cell_formula_units_Z   2
loop_
 _symmetry_equiv_pos_site_id
 _symmetry_equiv_pos_as_xyz
  1  'x, y, z'
loop_
 _atom_site_type_symbol
 _atom_site_label
 _atom_site_symmetry_multiplicity
 _atom_site_fract_x
 _atom_site_fract_y
 _atom_site_fract_z
 _atom_site_occupancy
  Nd  Nd0  1  0.677130  0.177130  0.500000  1
  Nd  Nd1  1  0.322870  0.822870  0.500000  1
  Nd  Nd2  1  0.177130  0.322870  0.500000  1
  Nd  Nd3  1  0.822870  0.677130  0.500000  1
  Dy  Dy4  1  0.500000  0.500000  0.000000  1
  Dy  Dy5  1  0.000000  0.000000  0.000000  1
  Si  Si6  1  0.113507  0.613507  0.000000  1
  Si  Si7  1  0.886493  0.386493  0.000000  1
  Si  Si8  1  0.613507  0.886493  0.000000  1
  Si  Si9  1  0.386493  0.113507  0.000000  1
