# generated using pymatgen
data_Dy12CoTc3
_symmetry_space_group_name_H-M   'P 1'
_cell_length_a   6.27695016
_cell_length_b   7.32293125
_cell_length_c   9.21702200
_cell_angle_alpha   90.00000000
_cell_angle_beta   90.00000000
_cell_angle_gamma   90.06832754
_symmetry_Int_Tables_number   1
_chemical_formula_structural   Dy12CoTc3
_chemical_formula_sum   'Dy12 Co1 Tc3'
_cell_volume   423.66633175
_cell_formula_units_Z   1
loop_
 _symmetry_equiv_pos_site_id
 _symmetry_equiv_pos_as_xyz
  1  'x, y, z'
loop_
 _atom_site_type_symbol
 _atom_site_label
 _atom_site_symmetry_multiplicity
 _atom_site_fract_x
 _atom_site_fract_y
 _atom_site_fract_z
 _atom_site_occupancy
  Dy  Dy0  1  0.128264  0.457783  0.750000  1
  Dy  Dy1  1  0.669726  0.322550  0.934957  1
  Dy  Dy2  1  0.373101  0.957580  0.750000  1
  Dy  Dy3  1  0.857051  0.543969  0.250000  1
  Dy  Dy4  1  0.627700  0.049199  0.250000  1
  Dy  Dy5  1  0.168293  0.178259  0.436098  1
  Dy  Dy6  1  0.836290  0.823350  0.562016  1
  Dy  Dy7  1  0.168293  0.178259  0.063902  1
  Dy  Dy8  1  0.836290  0.823350  0.937984  1
  Dy  Dy9  1  0.669726  0.322550  0.565043  1
  Dy  Dy10  1  0.333896  0.673271  0.064902  1
  Dy  Dy11  1  0.333896  0.673271  0.435098  1
  Co  Co12  1  0.460921  0.385799  0.250000  1
  Tc  Tc13  1  0.540279  0.610206  0.750000  1
  Tc  Tc14  1  0.960954  0.112064  0.750000  1
  Tc  Tc15  1  0.035322  0.888541  0.250000  1
