# generated using pymatgen
data_Ho9Sc(Zn2Bi)2
_symmetry_space_group_name_H-M   'P 1'
_cell_length_a   8.53997482
_cell_length_b   8.53997506
_cell_length_c   8.53997406
_cell_angle_alpha   123.30184003
_cell_angle_beta   123.30184285
_cell_angle_gamma   84.37025824
_symmetry_Int_Tables_number   1
_chemical_formula_structural   Ho9Sc(Zn2Bi)2
_chemical_formula_sum   'Ho9 Sc1 Zn4 Bi2'
_cell_volume   416.23087179
_cell_formula_units_Z   1
loop_
 _symmetry_equiv_pos_site_id
 _symmetry_equiv_pos_as_xyz
  1  'x, y, z'
loop_
 _atom_site_type_symbol
 _atom_site_label
 _atom_site_symmetry_multiplicity
 _atom_site_fract_x
 _atom_site_fract_y
 _atom_site_fract_z
 _atom_site_occupancy
  Ho  Ho0  1  0.000000  0.000000  0.000000  1
  Ho  Ho1  1  0.012972  0.509690  0.805419  1
  Ho  Ho2  1  0.704271  0.207554  0.194581  1
  Ho  Ho3  1  0.509690  0.704271  0.496717  1
  Ho  Ho4  1  0.207554  0.012972  0.503283  1
  Ho  Ho5  1  0.987028  0.490310  0.194581  1
  Ho  Ho6  1  0.295729  0.792446  0.805419  1
  Ho  Ho7  1  0.490310  0.295729  0.503283  1
  Ho  Ho8  1  0.792446  0.987028  0.496717  1
  Sc  Sc9  1  0.500000  0.500000  0.000000  1
  Zn  Zn10  1  0.638549  0.143867  0.782414  1
  Zn  Zn11  1  0.361451  0.856133  0.217586  1
  Zn  Zn12  1  0.143867  0.361451  0.505317  1
  Zn  Zn13  1  0.856133  0.638549  0.494683  1
  Bi  Bi14  1  0.746437  0.746437  0.000000  1
  Bi  Bi15  1  0.253563  0.253563  0.000000  1
