# generated using pymatgen
data_Np2Ag(Br3O)2
_symmetry_space_group_name_H-M   'P 1'
_cell_length_a   7.99441453
_cell_length_b   7.99441386
_cell_length_c   12.08842161
_cell_angle_alpha   68.41475366
_cell_angle_beta   68.41475531
_cell_angle_gamma   29.82648124
_symmetry_Int_Tables_number   1
_chemical_formula_structural   Np2Ag(Br3O)2
_chemical_formula_sum   'Np2 Ag1 Br6 O2'
_cell_volume   355.32465960
_cell_formula_units_Z   1
loop_
 _symmetry_equiv_pos_site_id
 _symmetry_equiv_pos_as_xyz
  1  'x, y, z'
loop_
 _atom_site_type_symbol
 _atom_site_label
 _atom_site_symmetry_multiplicity
 _atom_site_fract_x
 _atom_site_fract_y
 _atom_site_fract_z
 _atom_site_occupancy
  Np  Np0  1  0.094318  0.094318  0.809720  1
  Np  Np1  1  0.911199  0.911199  0.182536  1
  Ag  Ag2  1  0.253111  0.253111  0.478244  1
  Br  Br3  1  0.286047  0.286047  0.685688  1
  Br  Br4  1  0.720497  0.720497  0.323230  1
  Br  Br5  1  0.108511  0.108511  0.041226  1
  Br  Br6  1  0.895979  0.895979  0.953150  1
  Br  Br7  1  0.057320  0.057320  0.606044  1
  Br  Br8  1  0.934065  0.934065  0.393993  1
  O  O9  1  0.592031  0.592031  0.816936  1
  O  O10  1  0.412323  0.412323  0.176934  1
