# generated using pymatgen
data_LiTm3Ag2Pb3
_symmetry_space_group_name_H-M   'P 1'
_cell_length_a   7.38422036
_cell_length_b   7.38422095
_cell_length_c   4.59202200
_cell_angle_alpha   90.00000000
_cell_angle_beta   90.00000000
_cell_angle_gamma   120.43970591
_symmetry_Int_Tables_number   1
_chemical_formula_structural   LiTm3Ag2Pb3
_chemical_formula_sum   'Li1 Tm3 Ag2 Pb3'
_cell_volume   215.87510540
_cell_formula_units_Z   1
loop_
 _symmetry_equiv_pos_site_id
 _symmetry_equiv_pos_as_xyz
  1  'x, y, z'
loop_
 _atom_site_type_symbol
 _atom_site_label
 _atom_site_symmetry_multiplicity
 _atom_site_fract_x
 _atom_site_fract_y
 _atom_site_fract_z
 _atom_site_occupancy
  Li  Li0  1  0.772702  0.772702  0.000000  1
  Tm  Tm1  1  0.561428  0.006123  0.500000  1
  Tm  Tm2  1  0.420234  0.420234  0.500000  1
  Tm  Tm3  1  0.006123  0.561428  0.500000  1
  Ag  Ag4  1  0.998380  0.241168  0.000000  1
  Ag  Ag5  1  0.241168  0.998380  0.000000  1
  Pb  Pb6  1  0.978099  0.978099  0.500000  1
  Pb  Pb7  1  0.351164  0.670703  0.000000  1
  Pb  Pb8  1  0.670703  0.351164  0.000000  1
