# generated using pymatgen
data_DyHo15Mg2(CdPt2)2
_symmetry_space_group_name_H-M   'P 1'
_cell_length_a   9.67471580
_cell_length_b   9.67471545
_cell_length_c   9.68948100
_cell_angle_alpha   59.94949743
_cell_angle_beta   59.94949864
_cell_angle_gamma   59.81189347
_symmetry_Int_Tables_number   1
_chemical_formula_structural   DyHo15Mg2(CdPt2)2
_chemical_formula_sum   'Dy1 Ho15 Mg2 Cd2 Pt4'
_cell_volume   639.89650061
_cell_formula_units_Z   1
loop_
 _symmetry_equiv_pos_site_id
 _symmetry_equiv_pos_as_xyz
  1  'x, y, z'
loop_
 _atom_site_type_symbol
 _atom_site_label
 _atom_site_symmetry_multiplicity
 _atom_site_fract_x
 _atom_site_fract_y
 _atom_site_fract_z
 _atom_site_occupancy
  Dy  Dy0  1  0.936217  0.936217  0.563782  1
  Ho  Ho1  1  0.351174  0.351174  0.349655  1
  Ho  Ho2  1  0.351174  0.351174  0.947997  1
  Ho  Ho3  1  0.351953  0.946735  0.350656  1
  Ho  Ho4  1  0.946735  0.351953  0.350656  1
  Ho  Ho5  1  0.810983  0.189454  0.189005  1
  Ho  Ho6  1  0.189454  0.810983  0.810559  1
  Ho  Ho7  1  0.189454  0.810983  0.189005  1
  Ho  Ho8  1  0.810983  0.189454  0.810559  1
  Ho  Ho9  1  0.191592  0.191592  0.808408  1
  Ho  Ho10  1  0.812480  0.812480  0.187520  1
  Ho  Ho11  1  0.936622  0.565068  0.564936  1
  Ho  Ho12  1  0.565068  0.936622  0.933374  1
  Ho  Ho13  1  0.565068  0.936622  0.564936  1
  Ho  Ho14  1  0.936622  0.565067  0.933374  1
  Ho  Ho15  1  0.567277  0.567277  0.932723  1
  Mg  Mg16  1  0.576299  0.576299  0.581411  1
  Mg  Mg17  1  0.576299  0.576299  0.265990  1
  Cd  Cd18  1  0.582070  0.252884  0.582523  1
  Cd  Cd19  1  0.252884  0.582070  0.582523  1
  Pt  Pt20  1  0.142988  0.142988  0.143203  1
  Pt  Pt21  1  0.142988  0.142988  0.570822  1
  Pt  Pt22  1  0.142024  0.571592  0.143193  1
  Pt  Pt23  1  0.571592  0.142024  0.143193  1
