# generated using pymatgen
data_Y10Sn6PCl
_symmetry_space_group_name_H-M   'P 1'
_cell_length_a   9.07556300
_cell_length_b   9.07556489
_cell_length_c   6.70069900
_cell_angle_alpha   90.00000000
_cell_angle_beta   90.00000000
_cell_angle_gamma   119.99999677
_symmetry_Int_Tables_number   1
_chemical_formula_structural   Y10Sn6PCl
_chemical_formula_sum   'Y10 Sn6 P1 Cl1'
_cell_volume   477.96709296
_cell_formula_units_Z   1
loop_
 _symmetry_equiv_pos_site_id
 _symmetry_equiv_pos_as_xyz
  1  'x, y, z'
loop_
 _atom_site_type_symbol
 _atom_site_label
 _atom_site_symmetry_multiplicity
 _atom_site_fract_x
 _atom_site_fract_y
 _atom_site_fract_z
 _atom_site_occupancy
  Y  Y0  1  0.666667  0.333333  0.000000  1
  Y  Y1  1  0.333333  0.666667  0.000000  1
  Y  Y2  1  0.333333  0.666667  0.500000  1
  Y  Y3  1  0.666667  0.333333  0.500000  1
  Y  Y4  1  0.751127  0.751127  0.738616  1
  Y  Y5  1  0.248873  0.000000  0.738616  1
  Y  Y6  1  0.000000  0.248873  0.738616  1
  Y  Y7  1  0.248873  0.248873  0.261384  1
  Y  Y8  1  0.751127  0.000000  0.261384  1
  Y  Y9  1  0.000000  0.751127  0.261384  1
  Sn  Sn10  1  0.396968  0.396968  0.749861  1
  Sn  Sn11  1  0.603032  0.000000  0.749861  1
  Sn  Sn12  1  0.000000  0.603032  0.749861  1
  Sn  Sn13  1  0.603032  0.603032  0.250139  1
  Sn  Sn14  1  0.396968  0.000000  0.250139  1
  Sn  Sn15  1  0.000000  0.396968  0.250139  1
  P  P16  1  0.000000  0.000000  0.500000  1
  Cl  Cl17  1  0.000000  0.000000  0.000000  1
