# generated using pymatgen
data_EuCuF6
_symmetry_space_group_name_H-M   'P 1'
_cell_length_a   5.78945913
_cell_length_b   5.78184939
_cell_length_c   5.70463129
_cell_angle_alpha   54.70991594
_cell_angle_beta   55.32459812
_cell_angle_gamma   55.34780420
_symmetry_Int_Tables_number   1
_chemical_formula_structural   EuCuF6
_chemical_formula_sum   'Eu1 Cu1 F6'
_cell_volume   119.71505115
_cell_formula_units_Z   1
loop_
 _symmetry_equiv_pos_site_id
 _symmetry_equiv_pos_as_xyz
  1  'x, y, z'
loop_
 _atom_site_type_symbol
 _atom_site_label
 _atom_site_symmetry_multiplicity
 _atom_site_fract_x
 _atom_site_fract_y
 _atom_site_fract_z
 _atom_site_occupancy
  Eu  Eu0  1  0.500000  0.500000  0.500000  1
  Cu  Cu1  1  0.000000  0.000000  0.000000  1
  F  F2  1  0.782426  0.355424  0.093581  1
  F  F3  1  0.642072  0.909908  0.220231  1
  F  F4  1  0.090491  0.775155  0.365743  1
  F  F5  1  0.909508  0.224845  0.634257  1
  F  F6  1  0.357928  0.090091  0.779768  1
  F  F7  1  0.217573  0.644575  0.906418  1
