# generated using pymatgen
data_SrCdInPt
_symmetry_space_group_name_H-M   'P 1'
_cell_length_a   5.88385069
_cell_length_b   5.88385087
_cell_length_c   8.41369600
_cell_angle_alpha   90.00000000
_cell_angle_beta   90.00000000
_cell_angle_gamma   136.55715617
_symmetry_Int_Tables_number   1
_chemical_formula_structural   SrCdInPt
_chemical_formula_sum   'Sr2 Cd2 In2 Pt2'
_cell_volume   200.29279525
_cell_formula_units_Z   2
loop_
 _symmetry_equiv_pos_site_id
 _symmetry_equiv_pos_as_xyz
  1  'x, y, z'
loop_
 _atom_site_type_symbol
 _atom_site_label
 _atom_site_symmetry_multiplicity
 _atom_site_fract_x
 _atom_site_fract_y
 _atom_site_fract_z
 _atom_site_occupancy
  Sr  Sr0  1  0.937819  0.062181  0.750000  1
  Sr  Sr1  1  0.064264  0.935736  0.250000  1
  Cd  Cd2  1  0.647319  0.352681  0.944585  1
  Cd  Cd3  1  0.647319  0.352681  0.555415  1
  In  In4  1  0.346857  0.653143  0.051240  1
  In  In5  1  0.346857  0.653143  0.448760  1
  Pt  Pt6  1  0.227315  0.772685  0.750000  1
  Pt  Pt7  1  0.782250  0.217750  0.250000  1
