# generated using pymatgen
data_K3Rb13(ThSb4)2
_symmetry_space_group_name_H-M   'P 1'
_cell_length_a   12.22459018
_cell_length_b   12.20241579
_cell_length_c   12.20226100
_cell_angle_alpha   60.00042235
_cell_angle_beta   60.06040708
_cell_angle_gamma   60.06076551
_symmetry_Int_Tables_number   1
_chemical_formula_structural   K3Rb13(ThSb4)2
_chemical_formula_sum   'K3 Rb13 Th2 Sb8'
_cell_volume   1288.26121769
_cell_formula_units_Z   1
loop_
 _symmetry_equiv_pos_site_id
 _symmetry_equiv_pos_as_xyz
  1  'x, y, z'
loop_
 _atom_site_type_symbol
 _atom_site_label
 _atom_site_symmetry_multiplicity
 _atom_site_fract_x
 _atom_site_fract_y
 _atom_site_fract_z
 _atom_site_occupancy
  K  K0  1  0.625000  0.125000  0.625000  1
  K  K1  1  0.625000  0.625000  0.125000  1
  K  K2  1  0.625000  0.625000  0.625000  1
  Rb  Rb3  1  0.125000  0.625000  0.625000  1
  Rb  Rb4  1  0.029636  0.030293  0.470036  1
  Rb  Rb5  1  0.779670  0.220220  0.220221  1
  Rb  Rb6  1  0.220375  0.779950  0.779966  1
  Rb  Rb7  1  0.779677  0.779873  0.220225  1
  Rb  Rb8  1  0.779670  0.220220  0.779889  1
  Rb  Rb9  1  0.220375  0.779950  0.219709  1
  Rb  Rb10  1  0.470330  0.029780  0.470111  1
  Rb  Rb11  1  0.470330  0.029780  0.029779  1
  Rb  Rb12  1  0.029625  0.470050  0.470034  1
  Rb  Rb13  1  0.029625  0.470050  0.030291  1
  Rb  Rb14  1  0.220364  0.219707  0.779964  1
  Rb  Rb15  1  0.470323  0.470127  0.029775  1
  Th  Th16  1  0.749136  0.750288  0.750288  1
  Th  Th17  1  0.500864  0.499712  0.499712  1
  Sb  Sb18  1  0.397507  0.810520  0.395987  1
  Sb  Sb19  1  0.852495  0.854012  0.439480  1
  Sb  Sb20  1  0.439916  0.853362  0.853362  1
  Sb  Sb21  1  0.852495  0.854012  0.854013  1
  Sb  Sb22  1  0.810084  0.396638  0.396638  1
  Sb  Sb23  1  0.397505  0.395988  0.395987  1
  Sb  Sb24  1  0.397505  0.395988  0.810520  1
  Sb  Sb25  1  0.852493  0.439480  0.854013  1
