# generated using pymatgen
data_ErSc4In4CuRh
_symmetry_space_group_name_H-M   'P 1'
_cell_length_a   3.44381600
_cell_length_b   7.75467324
_cell_length_c   17.57906430
_cell_angle_alpha   89.96496610
_cell_angle_beta   90.00000000
_cell_angle_gamma   90.00000000
_symmetry_Int_Tables_number   1
_chemical_formula_structural   ErSc4In4CuRh
_chemical_formula_sum   'Er2 Sc8 In8 Cu2 Rh2'
_cell_volume   469.46056350
_cell_formula_units_Z   2
loop_
 _symmetry_equiv_pos_site_id
 _symmetry_equiv_pos_as_xyz
  1  'x, y, z'
loop_
 _atom_site_type_symbol
 _atom_site_label
 _atom_site_symmetry_multiplicity
 _atom_site_fract_x
 _atom_site_fract_y
 _atom_site_fract_z
 _atom_site_occupancy
  Er  Er0  1  0.000000  0.739329  0.780209  1
  Er  Er1  1  0.000000  0.260671  0.219791  1
  Sc  Sc2  1  0.000000  0.000000  0.000000  1
  Sc  Sc3  1  0.000000  0.500000  0.500000  1
  Sc  Sc4  1  0.000000  0.257308  0.721146  1
  Sc  Sc5  1  0.000000  0.742692  0.278854  1
  Sc  Sc6  1  0.000000  0.874867  0.582124  1
  Sc  Sc7  1  0.000000  0.125133  0.417876  1
  Sc  Sc8  1  0.000000  0.374079  0.915163  1
  Sc  Sc9  1  0.000000  0.625921  0.084837  1
  In  In10  1  0.500000  0.797833  0.432894  1
  In  In11  1  0.500000  0.202167  0.567106  1
  In  In12  1  0.500000  0.298675  0.064077  1
  In  In13  1  0.500000  0.701325  0.935923  1
  In  In14  1  0.500000  0.925475  0.150523  1
  In  In15  1  0.500000  0.074525  0.849477  1
  In  In16  1  0.500000  0.430124  0.354222  1
  In  In17  1  0.500000  0.569876  0.645778  1
  Cu  Cu18  1  0.500000  0.968709  0.694490  1
  Cu  Cu19  1  0.500000  0.031291  0.305510  1
  Rh  Rh20  1  0.500000  0.454054  0.805211  1
  Rh  Rh21  1  0.500000  0.545946  0.194789  1
