# generated using pymatgen
data_Sn3Sb9OsPt3
_symmetry_space_group_name_H-M   'P 1'
_cell_length_a   8.24692026
_cell_length_b   8.23441219
_cell_length_c   9.43233733
_cell_angle_alpha   54.79657973
_cell_angle_beta   54.66456187
_cell_angle_gamma   70.94103191
_symmetry_Int_Tables_number   1
_chemical_formula_structural   Sn3Sb9OsPt3
_chemical_formula_sum   'Sn3 Sb9 Os1 Pt3'
_cell_volume   426.94750484
_cell_formula_units_Z   1
loop_
 _symmetry_equiv_pos_site_id
 _symmetry_equiv_pos_as_xyz
  1  'x, y, z'
loop_
 _atom_site_type_symbol
 _atom_site_label
 _atom_site_symmetry_multiplicity
 _atom_site_fract_x
 _atom_site_fract_y
 _atom_site_fract_z
 _atom_site_occupancy
  Sn  Sn0  1  0.335199  0.343500  0.811742  1
  Sn  Sn1  1  0.662255  0.654379  0.189466  1
  Sn  Sn2  1  0.661214  0.660204  0.493849  1
  Sb  Sb3  1  0.343525  0.344114  0.504449  1
  Sb  Sb4  1  0.182146  0.506541  0.150464  1
  Sb  Sb5  1  0.815646  0.492560  0.851246  1
  Sb  Sb6  1  0.501957  0.189467  0.153412  1
  Sb  Sb7  1  0.497235  0.806973  0.847794  1
  Sb  Sb8  1  0.846149  0.154261  0.657416  1
  Sb  Sb9  1  0.152712  0.846804  0.341661  1
  Sb  Sb10  1  0.848191  0.159658  0.333118  1
  Sb  Sb11  1  0.152820  0.840656  0.665403  1
  Os  Os12  1  0.000255  0.500745  0.999547  1
  Pt  Pt13  1  0.499660  0.999180  0.999604  1
  Pt  Pt14  1  0.001643  0.499490  0.500422  1
  Pt  Pt15  1  0.499391  0.001468  0.500411  1
