# generated using pymatgen
data_Yb5HoCuNi13B4
_symmetry_space_group_name_H-M   'P 1'
_cell_length_a   5.02515300
_cell_length_b   5.02515311
_cell_length_c   14.11170100
_cell_angle_alpha   90.00000000
_cell_angle_beta   90.00000000
_cell_angle_gamma   120.00000583
_symmetry_Int_Tables_number   1
_chemical_formula_structural   Yb5HoCuNi13B4
_chemical_formula_sum   'Yb5 Ho1 Cu1 Ni13 B4'
_cell_volume   308.60898098
_cell_formula_units_Z   1
loop_
 _symmetry_equiv_pos_site_id
 _symmetry_equiv_pos_as_xyz
  1  'x, y, z'
loop_
 _atom_site_type_symbol
 _atom_site_label
 _atom_site_symmetry_multiplicity
 _atom_site_fract_x
 _atom_site_fract_y
 _atom_site_fract_z
 _atom_site_occupancy
  Yb  Yb0  1  0.333333  0.666667  0.462735  1
  Yb  Yb1  1  0.333333  0.666667  0.037409  1
  Yb  Yb2  1  0.666667  0.333333  0.752448  1
  Yb  Yb3  1  0.666667  0.333333  0.963978  1
  Yb  Yb4  1  0.333333  0.666667  0.250856  1
  Ho  Ho5  1  0.666667  0.333333  0.534071  1
  Cu  Cu6  1  0.000000  0.000000  0.000087  1
  Ni  Ni7  1  0.165626  0.331251  0.650637  1
  Ni  Ni8  1  0.331633  0.165816  0.349008  1
  Ni  Ni9  1  0.332628  0.166314  0.151103  1
  Ni  Ni10  1  0.166338  0.833662  0.849278  1
  Ni  Ni11  1  0.834184  0.668367  0.349008  1
  Ni  Ni12  1  0.833686  0.166314  0.151103  1
  Ni  Ni13  1  0.668749  0.834374  0.650637  1
  Ni  Ni14  1  0.667324  0.833662  0.849278  1
  Ni  Ni15  1  0.165626  0.834374  0.650637  1
  Ni  Ni16  1  0.833686  0.667372  0.151103  1
  Ni  Ni17  1  0.166338  0.332676  0.849278  1
  Ni  Ni18  1  0.834184  0.165816  0.349008  1
  Ni  Ni19  1  0.000000  0.000000  0.499120  1
  B  B20  1  0.666667  0.333333  0.249542  1
  B  B21  1  0.000000  0.000000  0.750156  1
  B  B22  1  0.333333  0.666667  0.750136  1
  B  B23  1  0.000000  0.000000  0.249385  1
