# generated using pymatgen
data_Li4La2DyPb4
_symmetry_space_group_name_H-M   'P 1'
_cell_length_a   4.81928493
_cell_length_b   7.14210724
_cell_length_c   8.91810900
_cell_angle_alpha   113.60488749
_cell_angle_beta   105.67598576
_cell_angle_gamma   89.99999433
_symmetry_Int_Tables_number   1
_chemical_formula_structural   Li4La2DyPb4
_chemical_formula_sum   'Li4 La2 Dy1 Pb4'
_cell_volume   268.77000373
_cell_formula_units_Z   1
loop_
 _symmetry_equiv_pos_site_id
 _symmetry_equiv_pos_as_xyz
  1  'x, y, z'
loop_
 _atom_site_type_symbol
 _atom_site_label
 _atom_site_symmetry_multiplicity
 _atom_site_fract_x
 _atom_site_fract_y
 _atom_site_fract_z
 _atom_site_occupancy
  Li  Li0  1  0.672740  0.982589  0.345483  1
  Li  Li1  1  0.327260  0.017411  0.654517  1
  Li  Li2  1  0.327260  0.637107  0.654517  1
  Li  Li3  1  0.672740  0.362893  0.345483  1
  La  La4  1  0.129837  0.629837  0.259673  1
  La  La5  1  0.870163  0.370163  0.740327  1
  Dy  Dy6  1  0.000000  0.000000  0.000000  1
  Pb  Pb7  1  0.500000  0.713170  0.000000  1
  Pb  Pb8  1  0.500000  0.286830  0.000000  1
  Pb  Pb9  1  0.790029  0.790029  0.580058  1
  Pb  Pb10  1  0.209971  0.209971  0.419942  1
