# generated using pymatgen
data_Tb5Dy(Lu2Sn3)2
_symmetry_space_group_name_H-M   'P 1'
_cell_length_a   8.93378493
_cell_length_b   8.93378532
_cell_length_c   6.46753500
_cell_angle_alpha   90.00000000
_cell_angle_beta   90.00000000
_cell_angle_gamma   119.92579401
_symmetry_Int_Tables_number   1
_chemical_formula_structural   Tb5Dy(Lu2Sn3)2
_chemical_formula_sum   'Tb5 Dy1 Lu4 Sn6'
_cell_volume   447.36775921
_cell_formula_units_Z   1
loop_
 _symmetry_equiv_pos_site_id
 _symmetry_equiv_pos_as_xyz
  1  'x, y, z'
loop_
 _atom_site_type_symbol
 _atom_site_label
 _atom_site_symmetry_multiplicity
 _atom_site_fract_x
 _atom_site_fract_y
 _atom_site_fract_z
 _atom_site_occupancy
  Tb  Tb0  1  0.238895  0.999874  0.750000  1
  Tb  Tb1  1  0.999874  0.238895  0.750000  1
  Tb  Tb2  1  0.241261  0.241261  0.250000  1
  Tb  Tb3  1  0.761182  0.999679  0.250000  1
  Tb  Tb4  1  0.999679  0.761182  0.250000  1
  Dy  Dy5  1  0.760144  0.760144  0.750000  1
  Lu  Lu6  1  0.666690  0.332927  0.999740  1
  Lu  Lu7  1  0.332927  0.666690  0.999740  1
  Lu  Lu8  1  0.332927  0.666690  0.500260  1
  Lu  Lu9  1  0.666690  0.332927  0.500260  1
  Sn  Sn10  1  0.397693  0.397693  0.750000  1
  Sn  Sn11  1  0.602845  0.999298  0.750000  1
  Sn  Sn12  1  0.999298  0.602845  0.750000  1
  Sn  Sn13  1  0.602840  0.602840  0.250000  1
  Sn  Sn14  1  0.397289  0.999767  0.250000  1
  Sn  Sn15  1  0.999767  0.397289  0.250000  1
