# generated using pymatgen
data_Zn5GeRh6
_symmetry_space_group_name_H-M   'P 1'
_cell_length_a   3.02911700
_cell_length_b   4.28545500
_cell_length_c   12.85329516
_cell_angle_alpha   90.07845645
_cell_angle_beta   90.00000000
_cell_angle_gamma   90.00000000
_symmetry_Int_Tables_number   1
_chemical_formula_structural   Zn5GeRh6
_chemical_formula_sum   'Zn5 Ge1 Rh6'
_cell_volume   166.85032660
_cell_formula_units_Z   1
loop_
 _symmetry_equiv_pos_site_id
 _symmetry_equiv_pos_as_xyz
  1  'x, y, z'
loop_
 _atom_site_type_symbol
 _atom_site_label
 _atom_site_symmetry_multiplicity
 _atom_site_fract_x
 _atom_site_fract_y
 _atom_site_fract_z
 _atom_site_occupancy
  Zn  Zn0  1  0.000000  0.248756  0.256148  1
  Zn  Zn1  1  0.000000  0.751323  0.750510  1
  Zn  Zn2  1  0.000000  0.255898  0.583234  1
  Zn  Zn3  1  0.000000  0.753052  0.416389  1
  Zn  Zn4  1  0.000000  0.244859  0.910361  1
  Ge  Ge5  1  0.000000  0.745818  0.083403  1
  Rh  Rh6  1  0.500000  0.748526  0.241160  1
  Rh  Rh7  1  0.500000  0.251437  0.749416  1
  Rh  Rh8  1  0.500000  0.756040  0.583443  1
  Rh  Rh9  1  0.500000  0.253051  0.417093  1
  Rh  Rh10  1  0.500000  0.745064  0.925583  1
  Rh  Rh11  1  0.500000  0.246176  0.083259  1
