# generated using pymatgen
data_Zr2Ta2Fe3Co5P6
_symmetry_space_group_name_H-M   'P 1'
_cell_length_a   12.00462573
_cell_length_b   11.97982861
_cell_length_c   3.62716000
_cell_angle_alpha   90.00000000
_cell_angle_beta   90.00000000
_cell_angle_gamma   120.29780616
_symmetry_Int_Tables_number   1
_chemical_formula_structural   Zr2Ta2Fe3Co5P6
_chemical_formula_sum   'Zr4 Ta4 Fe6 Co10 P12'
_cell_volume   450.38660545
_cell_formula_units_Z   2
loop_
 _symmetry_equiv_pos_site_id
 _symmetry_equiv_pos_as_xyz
  1  'x, y, z'
loop_
 _atom_site_type_symbol
 _atom_site_label
 _atom_site_symmetry_multiplicity
 _atom_site_fract_x
 _atom_site_fract_y
 _atom_site_fract_z
 _atom_site_occupancy
  Zr  Zr0  1  0.666601  0.333444  0.000000  1
  Zr  Zr1  1  0.330441  0.665143  0.000000  1
  Zr  Zr2  1  0.178262  0.000000  0.500000  1
  Zr  Zr3  1  0.001401  0.180885  0.500000  1
  Ta  Ta4  1  0.443978  0.444858  0.000000  1
  Ta  Ta5  1  0.556317  0.999644  0.000000  1
  Ta  Ta6  1  0.999639  0.556907  0.000000  1
  Ta  Ta7  1  0.823272  0.821695  0.500000  1
  Fe  Fe8  1  0.197784  0.373159  0.000000  1
  Fe  Fe9  1  0.176725  0.804300  0.000000  1
  Fe  Fe10  1  0.822378  0.629930  0.000000  1
  Fe  Fe11  1  0.803790  0.175867  0.000000  1
  Fe  Fe12  1  0.375102  0.197020  0.000000  1
  Fe  Fe13  1  0.123762  0.481488  0.500000  1
  Co  Co14  1  0.356971  0.873271  0.500000  1
  Co  Co15  1  0.518885  0.645905  0.500000  1
  Co  Co16  1  0.643773  0.519377  0.500000  1
  Co  Co17  1  0.871245  0.357657  0.500000  1
  Co  Co18  1  0.484586  0.126080  0.500000  1
  Co  Co19  1  0.996416  0.996106  0.000000  1
  Co  Co20  1  0.719677  0.994792  0.500000  1
  Co  Co21  1  0.997323  0.721014  0.500000  1
  Co  Co22  1  0.630988  0.822162  0.000000  1
  Co  Co23  1  0.280343  0.279101  0.500000  1
  P  P24  1  0.654064  0.652213  0.000000  1
  P  P25  1  0.348855  0.000135  0.000000  1
  P  P26  1  0.002484  0.351119  0.000000  1
  P  P27  1  0.480773  0.309356  0.500000  1
  P  P28  1  0.691711  0.170885  0.500000  1
  P  P29  1  0.828170  0.519717  0.500000  1
  P  P30  1  0.516494  0.827864  0.500000  1
  P  P31  1  0.169694  0.689368  0.500000  1
  P  P32  1  0.825937  0.001071  0.000000  1
  P  P33  1  0.999574  0.823873  0.000000  1
  P  P34  1  0.307677  0.480134  0.500000  1
  P  P35  1  0.174910  0.174461  0.000000  1
