# generated using pymatgen
data_Tb20CuRh11
_symmetry_space_group_name_H-M   'P 1'
_cell_length_a   10.86737536
_cell_length_b   10.86737611
_cell_length_c   6.40706500
_cell_angle_alpha   90.02873389
_cell_angle_beta   90.02869699
_cell_angle_gamma   89.67693065
_symmetry_Int_Tables_number   1
_chemical_formula_structural   Tb20CuRh11
_chemical_formula_sum   'Tb20 Cu1 Rh11'
_cell_volume   756.66123220
_cell_formula_units_Z   1
loop_
 _symmetry_equiv_pos_site_id
 _symmetry_equiv_pos_as_xyz
  1  'x, y, z'
loop_
 _atom_site_type_symbol
 _atom_site_label
 _atom_site_symmetry_multiplicity
 _atom_site_fract_x
 _atom_site_fract_y
 _atom_site_fract_z
 _atom_site_occupancy
  Tb  Tb0  1  0.291276  0.090528  0.378658  1
  Tb  Tb1  1  0.290728  0.915456  0.877325  1
  Tb  Tb2  1  0.709807  0.090010  0.878727  1
  Tb  Tb3  1  0.709947  0.910864  0.379603  1
  Tb  Tb4  1  0.594095  0.793179  0.879586  1
  Tb  Tb5  1  0.589341  0.209150  0.376268  1
  Tb  Tb6  1  0.413746  0.792685  0.371626  1
  Tb  Tb7  1  0.411091  0.211183  0.877374  1
  Tb  Tb8  1  0.206820  0.405905  0.620414  1
  Tb  Tb9  1  0.207315  0.586254  0.128374  1
  Tb  Tb10  1  0.790850  0.410659  0.123732  1
  Tb  Tb11  1  0.788817  0.588908  0.622626  1
  Tb  Tb12  1  0.909472  0.708724  0.121342  1
  Tb  Tb13  1  0.909990  0.290193  0.621273  1
  Tb  Tb14  1  0.084544  0.709271  0.622675  1
  Tb  Tb15  1  0.089136  0.290053  0.120397  1
  Tb  Tb16  1  0.001203  0.000432  0.498915  1
  Tb  Tb17  1  0.999568  0.998797  0.001085  1
  Tb  Tb18  1  0.501816  0.500692  0.997656  1
  Tb  Tb19  1  0.499308  0.498184  0.502344  1
  Cu  Cu20  1  0.344501  0.655499  0.750000  1
  Rh  Rh21  1  0.845881  0.154119  0.250000  1
  Rh  Rh22  1  0.846992  0.845590  0.749162  1
  Rh  Rh23  1  0.154410  0.153009  0.750837  1
  Rh  Rh24  1  0.156508  0.843493  0.250000  1
  Rh  Rh25  1  0.655128  0.344872  0.750000  1
  Rh  Rh26  1  0.651403  0.654198  0.250529  1
  Rh  Rh27  1  0.345802  0.348597  0.249471  1
  Rh  Rh28  1  0.499593  0.999852  0.122314  1
  Rh  Rh29  1  0.500119  0.999355  0.625055  1
  Rh  Rh30  1  0.000645  0.499880  0.874945  1
  Rh  Rh31  1  0.000148  0.500407  0.377686  1
