# generated using pymatgen
data_FeTcClO4
_symmetry_space_group_name_H-M   'P 1'
_cell_length_a   5.93786435
_cell_length_b   5.94858148
_cell_length_c   8.46950527
_cell_angle_alpha   105.38172144
_cell_angle_beta   109.20283569
_cell_angle_gamma   94.22378633
_symmetry_Int_Tables_number   1
_chemical_formula_structural   FeTcClO4
_chemical_formula_sum   'Fe2 Tc2 Cl2 O8'
_cell_volume   268.10753731
_cell_formula_units_Z   2
loop_
 _symmetry_equiv_pos_site_id
 _symmetry_equiv_pos_as_xyz
  1  'x, y, z'
loop_
 _atom_site_type_symbol
 _atom_site_label
 _atom_site_symmetry_multiplicity
 _atom_site_fract_x
 _atom_site_fract_y
 _atom_site_fract_z
 _atom_site_occupancy
  Fe  Fe0  1  0.999984  0.999937  0.999875  1
  Fe  Fe1  1  0.500072  0.500081  0.500081  1
  Tc  Tc2  1  0.627196  0.939224  0.267454  1
  Tc  Tc3  1  0.372806  0.060774  0.732557  1
  Cl  Cl4  1  0.154800  0.384022  0.223091  1
  Cl  Cl5  1  0.845172  0.615984  0.776899  1
  O  O6  1  0.338017  0.877530  0.107540  1
  O  O7  1  0.841837  0.885045  0.169092  1
  O  O8  1  0.684533  0.237640  0.388436  1
  O  O9  1  0.641273  0.764726  0.405734  1
  O  O10  1  0.358727  0.235260  0.594270  1
  O  O11  1  0.315471  0.762356  0.611594  1
  O  O12  1  0.158143  0.114951  0.830908  1
  O  O13  1  0.661972  0.122469  0.892468  1
