# generated using pymatgen
data_Tm5NiTe4
_symmetry_space_group_name_H-M   'P 1'
_cell_length_a   7.50393540
_cell_length_b   7.50393561
_cell_length_c   10.64058081
_cell_angle_alpha   60.83872089
_cell_angle_beta   60.83871915
_cell_angle_gamma   32.06874488
_symmetry_Int_Tables_number   1
_chemical_formula_structural   Tm5NiTe4
_chemical_formula_sum   'Tm5 Ni1 Te4'
_cell_volume   274.20033852
_cell_formula_units_Z   1
loop_
 _symmetry_equiv_pos_site_id
 _symmetry_equiv_pos_as_xyz
  1  'x, y, z'
loop_
 _atom_site_type_symbol
 _atom_site_label
 _atom_site_symmetry_multiplicity
 _atom_site_fract_x
 _atom_site_fract_y
 _atom_site_fract_z
 _atom_site_occupancy
  Tm  Tm0  1  0.000000  0.000000  0.500000  1
  Tm  Tm1  1  0.576368  0.576368  0.081056  1
  Tm  Tm2  1  0.176960  0.176960  0.743438  1
  Tm  Tm3  1  0.823040  0.823040  0.256562  1
  Tm  Tm4  1  0.423632  0.423632  0.918944  1
  Ni  Ni5  1  0.000000  0.000000  0.000000  1
  Te  Te6  1  0.614381  0.614381  0.578442  1
  Te  Te7  1  0.188701  0.188701  0.193836  1
  Te  Te8  1  0.811299  0.811299  0.806164  1
  Te  Te9  1  0.385619  0.385619  0.421558  1
