# generated using pymatgen
data_Cs4Zr5Sc3Te16
_symmetry_space_group_name_H-M   'P 1'
_cell_length_a   7.20651500
_cell_length_b   8.31336300
_cell_length_c   18.29973100
_cell_angle_alpha   90.00000000
_cell_angle_beta   90.00135159
_cell_angle_gamma   90.00000000
_symmetry_Int_Tables_number   1
_chemical_formula_structural   Cs4Zr5Sc3Te16
_chemical_formula_sum   'Cs4 Zr5 Sc3 Te16'
_cell_volume   1096.34374954
_cell_formula_units_Z   1
loop_
 _symmetry_equiv_pos_site_id
 _symmetry_equiv_pos_as_xyz
  1  'x, y, z'
loop_
 _atom_site_type_symbol
 _atom_site_label
 _atom_site_symmetry_multiplicity
 _atom_site_fract_x
 _atom_site_fract_y
 _atom_site_fract_z
 _atom_site_occupancy
  Cs  Cs0  1  0.346876  0.000008  0.001390  1
  Cs  Cs1  1  0.653625  0.500011  0.498247  1
  Cs  Cs2  1  0.018123  0.999980  0.498405  1
  Cs  Cs3  1  0.982076  0.499993  0.001734  1
  Zr  Zr4  1  0.997237  0.499992  0.749298  1
  Zr  Zr5  1  0.499917  0.249963  0.250024  1
  Zr  Zr6  1  0.499771  0.752245  0.750139  1
  Zr  Zr7  1  0.499915  0.750034  0.250028  1
  Zr  Zr8  1  0.499954  0.247778  0.750173  1
  Sc  Sc9  1  0.003161  0.000009  0.249324  1
  Sc  Sc10  1  0.002629  0.000002  0.750566  1
  Sc  Sc11  1  0.996841  0.499998  0.250670  1
  Te  Te12  1  0.832449  0.248644  0.341825  1
  Te  Te13  1  0.832843  0.750742  0.657172  1
  Te  Te14  1  0.167612  0.748670  0.158158  1
  Te  Te15  1  0.166803  0.252051  0.842886  1
  Te  Te16  1  0.167611  0.251322  0.158159  1
  Te  Te17  1  0.166735  0.747938  0.842902  1
  Te  Te18  1  0.832449  0.751353  0.341825  1
  Te  Te19  1  0.832889  0.249257  0.657151  1
  Te  Te20  1  0.671566  0.999994  0.157495  1
  Te  Te21  1  0.671949  0.999983  0.843424  1
  Te  Te22  1  0.328328  0.500002  0.342571  1
  Te  Te23  1  0.327280  0.499973  0.656877  1
  Te  Te24  1  0.339660  0.000002  0.342253  1
  Te  Te25  1  0.338041  0.000021  0.656984  1
  Te  Te26  1  0.660274  0.500007  0.157802  1
  Te  Te27  1  0.663389  0.500029  0.842519  1
