# generated using pymatgen
data_Sc7CCl12
_symmetry_space_group_name_H-M   'P 1'
_cell_length_a   8.17034311
_cell_length_b   8.17034308
_cell_length_c   8.17034370
_cell_angle_alpha   107.58707184
_cell_angle_beta   107.58707058
_cell_angle_gamma   107.58707249
_symmetry_Int_Tables_number   1
_chemical_formula_structural   Sc7CCl12
_chemical_formula_sum   'Sc7 C1 Cl12'
_cell_volume   446.74663065
_cell_formula_units_Z   1
loop_
 _symmetry_equiv_pos_site_id
 _symmetry_equiv_pos_as_xyz
  1  'x, y, z'
loop_
 _atom_site_type_symbol
 _atom_site_label
 _atom_site_symmetry_multiplicity
 _atom_site_fract_x
 _atom_site_fract_y
 _atom_site_fract_z
 _atom_site_occupancy
  Sc  Sc0  1  0.302406  0.029335  0.100891  1
  Sc  Sc1  1  0.029335  0.100891  0.302406  1
  Sc  Sc2  1  0.100891  0.302406  0.029335  1
  Sc  Sc3  1  0.697594  0.970665  0.899109  1
  Sc  Sc4  1  0.970665  0.899109  0.697594  1
  Sc  Sc5  1  0.899109  0.697594  0.970665  1
  Sc  Sc6  1  0.500000  0.500000  0.500000  1
  C  C7  1  0.000000  0.000000  0.000000  1
  Cl  Cl8  1  0.459314  0.381740  0.155817  1
  Cl  Cl9  1  0.381740  0.155817  0.459314  1
  Cl  Cl10  1  0.155817  0.459314  0.381740  1
  Cl  Cl11  1  0.540686  0.618260  0.844183  1
  Cl  Cl12  1  0.618260  0.844183  0.540686  1
  Cl  Cl13  1  0.844183  0.540686  0.618260  1
  Cl  Cl14  1  0.221717  0.689300  0.076023  1
  Cl  Cl15  1  0.076023  0.221717  0.689300  1
  Cl  Cl16  1  0.689300  0.076023  0.221717  1
  Cl  Cl17  1  0.778283  0.310700  0.923977  1
  Cl  Cl18  1  0.923977  0.778283  0.310700  1
  Cl  Cl19  1  0.310700  0.923977  0.778283  1
