# generated using pymatgen
data_La2Zn2HgIr
_symmetry_space_group_name_H-M   'P 1'
_cell_length_a   4.46959600
_cell_length_b   7.37329223
_cell_length_c   8.52693951
_cell_angle_alpha   82.75843880
_cell_angle_beta   90.00000000
_cell_angle_gamma   90.00000000
_symmetry_Int_Tables_number   1
_chemical_formula_structural   La2Zn2HgIr
_chemical_formula_sum   'La4 Zn4 Hg2 Ir2'
_cell_volume   278.76925238
_cell_formula_units_Z   2
loop_
 _symmetry_equiv_pos_site_id
 _symmetry_equiv_pos_as_xyz
  1  'x, y, z'
loop_
 _atom_site_type_symbol
 _atom_site_label
 _atom_site_symmetry_multiplicity
 _atom_site_fract_x
 _atom_site_fract_y
 _atom_site_fract_z
 _atom_site_occupancy
  La  La0  1  0.250000  0.512230  0.175236  1
  La  La1  1  0.750000  0.487770  0.824764  1
  La  La2  1  0.750000  0.988972  0.720951  1
  La  La3  1  0.250000  0.011028  0.279049  1
  Zn  Zn4  1  0.250000  0.706096  0.606547  1
  Zn  Zn5  1  0.750000  0.293904  0.393453  1
  Zn  Zn6  1  0.750000  0.842698  0.070435  1
  Zn  Zn7  1  0.250000  0.157302  0.929565  1
  Hg  Hg8  1  0.750000  0.688635  0.420129  1
  Hg  Hg9  1  0.250000  0.311365  0.579871  1
  Ir  Ir10  1  0.250000  0.772736  0.906714  1
  Ir  Ir11  1  0.750000  0.227264  0.093286  1
