# generated using pymatgen
data_Sm2DyEr17Bi12
_symmetry_space_group_name_H-M   'P 1'
_cell_length_a   8.24511820
_cell_length_b   9.48799700
_cell_length_c   12.01339701
_cell_angle_alpha   90.00000000
_cell_angle_beta   90.01035977
_cell_angle_gamma   90.00000000
_symmetry_Int_Tables_number   1
_chemical_formula_structural   Sm2DyEr17Bi12
_chemical_formula_sum   'Sm2 Dy1 Er17 Bi12'
_cell_volume   939.80390924
_cell_formula_units_Z   1
loop_
 _symmetry_equiv_pos_site_id
 _symmetry_equiv_pos_as_xyz
  1  'x, y, z'
loop_
 _atom_site_type_symbol
 _atom_site_label
 _atom_site_symmetry_multiplicity
 _atom_site_fract_x
 _atom_site_fract_y
 _atom_site_fract_z
 _atom_site_occupancy
  Sm  Sm0  1  0.685574  0.750000  0.780646  1
  Sm  Sm1  1  0.185473  0.750000  0.719344  1
  Dy  Dy2  1  0.813340  0.250000  0.281957  1
  Er  Er3  1  0.353112  0.750000  0.217269  1
  Er  Er4  1  0.853158  0.750000  0.282807  1
  Er  Er5  1  0.647062  0.250000  0.783195  1
  Er  Er6  1  0.147252  0.250000  0.716619  1
  Er  Er7  1  0.692429  0.565097  0.059810  1
  Er  Er8  1  0.192087  0.934784  0.440122  1
  Er  Er9  1  0.308045  0.065218  0.940847  1
  Er  Er10  1  0.808261  0.434613  0.559217  1
  Er  Er11  1  0.308045  0.434782  0.940847  1
  Er  Er12  1  0.808261  0.065387  0.559217  1
  Er  Er13  1  0.692429  0.934903  0.059810  1
  Er  Er14  1  0.192087  0.565216  0.440122  1
  Er  Er15  1  0.475952  0.250000  0.488098  1
  Er  Er16  1  0.976209  0.250000  0.012062  1
  Er  Er17  1  0.523719  0.750000  0.510717  1
  Er  Er18  1  0.023947  0.750000  0.989310  1
  Er  Er19  1  0.312841  0.250000  0.217705  1
  Bi  Bi20  1  0.404629  0.750000  0.960568  1
  Bi  Bi21  1  0.904387  0.750000  0.539404  1
  Bi  Bi22  1  0.594054  0.250000  0.042390  1
  Bi  Bi23  1  0.095074  0.250000  0.457924  1
  Bi  Bi24  1  0.565346  0.995504  0.325832  1
  Bi  Bi25  1  0.066700  0.504511  0.174023  1
  Bi  Bi26  1  0.434666  0.492609  0.673017  1
  Bi  Bi27  1  0.934573  0.007496  0.827122  1
  Bi  Bi28  1  0.434666  0.007391  0.673017  1
  Bi  Bi29  1  0.934573  0.492504  0.827122  1
  Bi  Bi30  1  0.565346  0.504496  0.325832  1
  Bi  Bi31  1  0.066700  0.995489  0.174023  1
