# generated using pymatgen
data_Tb2YSn3GeRh2
_symmetry_space_group_name_H-M   'P 1'
_cell_length_a   7.42874007
_cell_length_b   7.43096364
_cell_length_c   4.17203200
_cell_angle_alpha   90.00000000
_cell_angle_beta   90.00000000
_cell_angle_gamma   120.00614427
_symmetry_Int_Tables_number   1
_chemical_formula_structural   Tb2YSn3GeRh2
_chemical_formula_sum   'Tb2 Y1 Sn3 Ge1 Rh2'
_cell_volume   199.43972639
_cell_formula_units_Z   1
loop_
 _symmetry_equiv_pos_site_id
 _symmetry_equiv_pos_as_xyz
  1  'x, y, z'
loop_
 _atom_site_type_symbol
 _atom_site_label
 _atom_site_symmetry_multiplicity
 _atom_site_fract_x
 _atom_site_fract_y
 _atom_site_fract_z
 _atom_site_occupancy
  Tb  Tb0  1  0.413571  0.008723  0.500000  1
  Tb  Tb1  1  0.991427  0.404946  0.500000  1
  Y  Y2  1  0.595026  0.586710  0.500000  1
  Sn  Sn3  1  0.758433  0.015896  0.000000  1
  Sn  Sn4  1  0.983754  0.742386  0.000000  1
  Sn  Sn5  1  0.257694  0.241714  0.000000  1
  Ge  Ge6  1  0.333425  0.666504  0.000000  1
  Rh  Rh7  1  0.666724  0.333045  0.000000  1
  Rh  Rh8  1  0.999946  0.000076  0.500000  1
