# generated using pymatgen
data_DyTh2(Ni3As2)3
_symmetry_space_group_name_H-M   'P 1'
_cell_length_a   3.99852300
_cell_length_b   10.87527400
_cell_length_c   12.85314900
_cell_angle_alpha   90.00000000
_cell_angle_beta   90.00000000
_cell_angle_gamma   90.00000000
_symmetry_Int_Tables_number   1
_chemical_formula_structural   DyTh2(Ni3As2)3
_chemical_formula_sum   'Dy2 Th4 Ni18 As12'
_cell_volume   558.91961125
_cell_formula_units_Z   2
loop_
 _symmetry_equiv_pos_site_id
 _symmetry_equiv_pos_as_xyz
  1  'x, y, z'
loop_
 _atom_site_type_symbol
 _atom_site_label
 _atom_site_symmetry_multiplicity
 _atom_site_fract_x
 _atom_site_fract_y
 _atom_site_fract_z
 _atom_site_occupancy
  Dy  Dy0  1  0.000000  0.687208  0.794226  1
  Dy  Dy1  1  0.000000  0.312792  0.794226  1
  Th  Th2  1  0.000000  0.500000  0.521762  1
  Th  Th3  1  0.500000  0.000000  0.482430  1
  Th  Th4  1  0.500000  0.811532  0.206177  1
  Th  Th5  1  0.500000  0.188468  0.206177  1
  Ni  Ni6  1  0.500000  0.500000  0.150010  1
  Ni  Ni7  1  0.000000  0.000000  0.851457  1
  Ni  Ni8  1  0.500000  0.500000  0.694657  1
  Ni  Ni9  1  0.000000  0.000000  0.302691  1
  Ni  Ni10  1  0.000000  0.500000  0.971136  1
  Ni  Ni11  1  0.500000  0.000000  0.020697  1
  Ni  Ni12  1  0.500000  0.335910  0.994597  1
  Ni  Ni13  1  0.500000  0.664090  0.994597  1
  Ni  Ni14  1  0.000000  0.168627  0.002282  1
  Ni  Ni15  1  0.000000  0.831373  0.002282  1
  Ni  Ni16  1  0.500000  0.304635  0.427418  1
  Ni  Ni17  1  0.500000  0.695365  0.427418  1
  Ni  Ni18  1  0.000000  0.195459  0.577468  1
  Ni  Ni19  1  0.000000  0.804541  0.577468  1
  Ni  Ni20  1  0.500000  0.880398  0.711394  1
  Ni  Ni21  1  0.500000  0.119602  0.711394  1
  Ni  Ni22  1  0.000000  0.619196  0.289164  1
  Ni  Ni23  1  0.000000  0.380804  0.289164  1
  As  As24  1  0.500000  0.500000  0.871082  1
  As  As25  1  0.000000  0.000000  0.121011  1
  As  As26  1  0.500000  0.500000  0.336435  1
  As  As27  1  0.000000  0.000000  0.667157  1
  As  As28  1  0.500000  0.308034  0.615877  1
  As  As29  1  0.500000  0.691966  0.615877  1
  As  As30  1  0.000000  0.191376  0.390416  1
  As  As31  1  0.000000  0.808624  0.390416  1
  As  As32  1  0.500000  0.847336  0.893635  1
  As  As33  1  0.500000  0.152664  0.893635  1
  As  As34  1  0.000000  0.646250  0.102084  1
  As  As35  1  0.000000  0.353750  0.102084  1
