# generated using pymatgen
data_Zr3Ti(PN3)4
_symmetry_space_group_name_H-M   'P 1'
_cell_length_a   6.57917033
_cell_length_b   6.57917025
_cell_length_c   5.24849764
_cell_angle_alpha   78.57990151
_cell_angle_beta   78.57990590
_cell_angle_gamma   83.27834660
_symmetry_Int_Tables_number   1
_chemical_formula_structural   Zr3Ti(PN3)4
_chemical_formula_sum   'Zr3 Ti1 P4 N12'
_cell_volume   217.55957896
_cell_formula_units_Z   1
loop_
 _symmetry_equiv_pos_site_id
 _symmetry_equiv_pos_as_xyz
  1  'x, y, z'
loop_
 _atom_site_type_symbol
 _atom_site_label
 _atom_site_symmetry_multiplicity
 _atom_site_fract_x
 _atom_site_fract_y
 _atom_site_fract_z
 _atom_site_occupancy
  Zr  Zr0  1  0.676182  0.323818  0.750000  1
  Zr  Zr1  1  0.904011  0.095989  0.250000  1
  Zr  Zr2  1  0.320740  0.679260  0.250000  1
  Ti  Ti3  1  0.109439  0.890561  0.750000  1
  P  P4  1  0.194949  0.383690  0.758090  1
  P  P5  1  0.381189  0.196451  0.260649  1
  P  P6  1  0.803549  0.618811  0.239351  1
  P  P7  1  0.616310  0.805051  0.741910  1
  N  N8  1  0.322925  0.386035  0.005886  1
  N  N9  1  0.017940  0.221017  0.839195  1
  N  N10  1  0.988905  0.774887  0.137448  1
  N  N11  1  0.385272  0.331687  0.501676  1
  N  N12  1  0.613513  0.122042  0.138885  1
  N  N13  1  0.376611  0.875868  0.854121  1
  N  N14  1  0.877958  0.386487  0.361115  1
  N  N15  1  0.668313  0.614728  0.998324  1
  N  N16  1  0.778983  0.982060  0.660805  1
  N  N17  1  0.124132  0.623389  0.645879  1
  N  N18  1  0.225113  0.011095  0.362552  1
  N  N19  1  0.613965  0.677075  0.494114  1
