# generated using pymatgen
data_Ho2Sc2Si4OsRh3
_symmetry_space_group_name_H-M   'P 1'
_cell_length_a   4.20071100
_cell_length_b   6.76361479
_cell_length_c   7.25760403
_cell_angle_alpha   89.95586974
_cell_angle_beta   90.00000000
_cell_angle_gamma   90.00000000
_symmetry_Int_Tables_number   1
_chemical_formula_structural   Ho2Sc2Si4OsRh3
_chemical_formula_sum   'Ho2 Sc2 Si4 Os1 Rh3'
_cell_volume   206.20291969
_cell_formula_units_Z   1
loop_
 _symmetry_equiv_pos_site_id
 _symmetry_equiv_pos_as_xyz
  1  'x, y, z'
loop_
 _atom_site_type_symbol
 _atom_site_label
 _atom_site_symmetry_multiplicity
 _atom_site_fract_x
 _atom_site_fract_y
 _atom_site_fract_z
 _atom_site_occupancy
  Ho  Ho0  1  0.750000  0.499266  0.315822  1
  Ho  Ho1  1  0.750000  0.994949  0.181720  1
  Sc  Sc2  1  0.250000  0.498877  0.694943  1
  Sc  Sc3  1  0.250000  0.996923  0.805684  1
  Si  Si4  1  0.250000  0.291463  0.099933  1
  Si  Si5  1  0.750000  0.704430  0.877999  1
  Si  Si6  1  0.250000  0.794252  0.407521  1
  Si  Si7  1  0.750000  0.203784  0.616836  1
  Os  Os8  1  0.750000  0.848904  0.572552  1
  Rh  Rh9  1  0.250000  0.160967  0.440962  1
  Rh  Rh10  1  0.750000  0.347366  0.926620  1
  Rh  Rh11  1  0.250000  0.658819  0.059409  1
