# generated using pymatgen
data_Ho16In4Ir3Ru
_symmetry_space_group_name_H-M   'P 1'
_cell_length_a   9.61703764
_cell_length_b   9.62636460
_cell_length_c   9.62636600
_cell_angle_alpha   60.00000206
_cell_angle_beta   59.96791491
_cell_angle_gamma   59.96791312
_symmetry_Int_Tables_number   1
_chemical_formula_structural   Ho16In4Ir3Ru
_chemical_formula_sum   'Ho16 In4 Ir3 Ru1'
_cell_volume   629.85445673
_cell_formula_units_Z   1
loop_
 _symmetry_equiv_pos_site_id
 _symmetry_equiv_pos_as_xyz
  1  'x, y, z'
loop_
 _atom_site_type_symbol
 _atom_site_label
 _atom_site_symmetry_multiplicity
 _atom_site_fract_x
 _atom_site_fract_y
 _atom_site_fract_z
 _atom_site_occupancy
  Ho  Ho0  1  0.439383  0.440550  0.060034  1
  Ho  Ho1  1  0.650276  0.651203  0.047318  1
  Ho  Ho2  1  0.192124  0.809158  0.189559  1
  Ho  Ho3  1  0.060301  0.439603  0.060494  1
  Ho  Ho4  1  0.192124  0.809158  0.809158  1
  Ho  Ho5  1  0.060301  0.439603  0.439603  1
  Ho  Ho6  1  0.809230  0.191031  0.191031  1
  Ho  Ho7  1  0.650276  0.651203  0.651203  1
  Ho  Ho8  1  0.809230  0.191031  0.808709  1
  Ho  Ho9  1  0.192124  0.189559  0.809158  1
  Ho  Ho10  1  0.048114  0.650629  0.650629  1
  Ho  Ho11  1  0.439383  0.060034  0.060034  1
  Ho  Ho12  1  0.060301  0.060494  0.439603  1
  Ho  Ho13  1  0.650276  0.047318  0.651203  1
  Ho  Ho14  1  0.809230  0.808709  0.191031  1
  Ho  Ho15  1  0.439383  0.060034  0.440550  1
  In  In16  1  0.416632  0.416713  0.416713  1
  In  In17  1  0.416632  0.416713  0.749944  1
  In  In18  1  0.416632  0.749944  0.416713  1
  In  In19  1  0.749241  0.416920  0.416920  1
  Ir  Ir20  1  0.858698  0.858774  0.858774  1
  Ir  Ir21  1  0.858698  0.423754  0.858774  1
  Ir  Ir22  1  0.858698  0.858774  0.423754  1
  Ru  Ru23  1  0.422714  0.859095  0.859095  1
