# generated using pymatgen
data_Nd4SmHo3(Si3Rh)4
_symmetry_space_group_name_H-M   'P 1'
_cell_length_a   8.22867900
_cell_length_b   8.22867784
_cell_length_c   8.13303700
_cell_angle_alpha   90.00000000
_cell_angle_beta   90.00000000
_cell_angle_gamma   120.00000065
_symmetry_Int_Tables_number   1
_chemical_formula_structural   Nd4SmHo3(Si3Rh)4
_chemical_formula_sum   'Nd4 Sm1 Ho3 Si12 Rh4'
_cell_volume   476.91782787
_cell_formula_units_Z   1
loop_
 _symmetry_equiv_pos_site_id
 _symmetry_equiv_pos_as_xyz
  1  'x, y, z'
loop_
 _atom_site_type_symbol
 _atom_site_label
 _atom_site_symmetry_multiplicity
 _atom_site_fract_x
 _atom_site_fract_y
 _atom_site_fract_z
 _atom_site_occupancy
  Nd  Nd0  1  0.000000  0.000000  0.250000  1
  Nd  Nd1  1  0.505284  0.494716  0.250000  1
  Nd  Nd2  1  0.505284  0.010569  0.250000  1
  Nd  Nd3  1  0.989431  0.494716  0.250000  1
  Sm  Sm4  1  0.000000  0.000000  0.750000  1
  Ho  Ho5  1  0.492273  0.507727  0.750000  1
  Ho  Ho6  1  0.492273  0.984545  0.750000  1
  Ho  Ho7  1  0.015455  0.507727  0.750000  1
  Si  Si8  1  0.166533  0.833467  0.507447  1
  Si  Si9  1  0.166533  0.333065  0.507447  1
  Si  Si10  1  0.666935  0.833467  0.507447  1
  Si  Si11  1  0.831946  0.168054  0.505045  1
  Si  Si12  1  0.831946  0.663894  0.505045  1
  Si  Si13  1  0.336106  0.168054  0.505045  1
  Si  Si14  1  0.831946  0.168054  0.994955  1
  Si  Si15  1  0.831946  0.663894  0.994955  1
  Si  Si16  1  0.336106  0.168054  0.994955  1
  Si  Si17  1  0.166533  0.833467  0.992553  1
  Si  Si18  1  0.166533  0.333065  0.992553  1
  Si  Si19  1  0.666935  0.833467  0.992553  1
  Rh  Rh20  1  0.333333  0.666667  0.489605  1
  Rh  Rh21  1  0.666667  0.333333  0.545204  1
  Rh  Rh22  1  0.666667  0.333333  0.954796  1
  Rh  Rh23  1  0.333333  0.666667  0.010395  1
