# generated using pymatgen
data_HfZrSb2RuPt
_symmetry_space_group_name_H-M   'P 1'
_cell_length_a   6.36687857
_cell_length_b   6.36634969
_cell_length_c   7.77873414
_cell_angle_alpha   65.84477587
_cell_angle_beta   65.84292411
_cell_angle_gamma   90.00168322
_symmetry_Int_Tables_number   1
_chemical_formula_structural   HfZrSb2RuPt
_chemical_formula_sum   'Hf2 Zr2 Sb4 Ru2 Pt2'
_cell_volume   257.13220197
_cell_formula_units_Z   2
loop_
 _symmetry_equiv_pos_site_id
 _symmetry_equiv_pos_as_xyz
  1  'x, y, z'
loop_
 _atom_site_type_symbol
 _atom_site_label
 _atom_site_symmetry_multiplicity
 _atom_site_fract_x
 _atom_site_fract_y
 _atom_site_fract_z
 _atom_site_occupancy
  Hf  Hf0  1  0.371725  0.875006  0.750003  1
  Hf  Hf1  1  0.878288  0.374998  0.749996  1
  Zr  Zr2  1  0.125002  0.121626  0.250002  1
  Zr  Zr3  1  0.624998  0.628379  0.249997  1
  Sb  Sb4  1  0.625001  0.115162  0.250013  1
  Sb  Sb5  1  0.124993  0.634831  0.249998  1
  Sb  Sb6  1  0.364122  0.374995  0.750008  1
  Sb  Sb7  1  0.885876  0.874999  0.750000  1
  Ru  Ru8  1  0.001068  0.001082  0.997843  1
  Ru  Ru9  1  0.248938  0.748927  0.502146  1
  Pt  Pt10  1  0.501549  0.501543  0.996902  1
  Pt  Pt11  1  0.748445  0.248451  0.503090  1
