# generated using pymatgen
data_Tm2Be2Fe(SiO5)2
_symmetry_space_group_name_H-M   'P 1'
_cell_length_a   9.96079009
_cell_length_b   7.48816300
_cell_length_c   4.75418812
_cell_angle_alpha   90.00000000
_cell_angle_beta   89.13319720
_cell_angle_gamma   90.00000000
_symmetry_Int_Tables_number   1
_chemical_formula_structural   Tm2Be2Fe(SiO5)2
_chemical_formula_sum   'Tm4 Be4 Fe2 Si4 O20'
_cell_volume   354.56489883
_cell_formula_units_Z   2
loop_
 _symmetry_equiv_pos_site_id
 _symmetry_equiv_pos_as_xyz
  1  'x, y, z'
loop_
 _atom_site_type_symbol
 _atom_site_label
 _atom_site_symmetry_multiplicity
 _atom_site_fract_x
 _atom_site_fract_y
 _atom_site_fract_z
 _atom_site_occupancy
  Tm  Tm0  1  0.329416  0.104390  0.002802  1
  Tm  Tm1  1  0.829416  0.395611  0.002802  1
  Tm  Tm2  1  0.170584  0.604389  0.997198  1
  Tm  Tm3  1  0.670584  0.895610  0.997198  1
  Be  Be4  1  0.166596  0.913269  0.463640  1
  Be  Be5  1  0.666596  0.586732  0.463640  1
  Be  Be6  1  0.833404  0.086731  0.536360  1
  Be  Be7  1  0.333403  0.413268  0.536362  1
  Fe  Fe8  1  0.000000  0.000000  0.000000  1
  Fe  Fe9  1  0.500000  0.499999  0.000000  1
  Si  Si10  1  0.077374  0.281821  0.482202  1
  Si  Si11  1  0.577373  0.218178  0.482202  1
  Si  Si12  1  0.422626  0.781822  0.517797  1
  Si  Si13  1  0.922626  0.718179  0.517798  1
  O  O14  1  0.829076  0.087919  0.201898  1
  O  O15  1  0.329076  0.412080  0.201900  1
  O  O16  1  0.027647  0.416796  0.236788  1
  O  O17  1  0.527647  0.083205  0.236789  1
  O  O18  1  0.305697  0.849216  0.302313  1
  O  O19  1  0.805697  0.650785  0.302313  1
  O  O20  1  0.143325  0.108702  0.311409  1
  O  O21  1  0.643325  0.391299  0.311409  1
  O  O22  1  0.050901  0.785415  0.320897  1
  O  O23  1  0.550901  0.714586  0.320898  1
  O  O24  1  0.449099  0.285414  0.679102  1
  O  O25  1  0.949099  0.214585  0.679102  1
  O  O26  1  0.356675  0.608701  0.688590  1
  O  O27  1  0.856675  0.891298  0.688590  1
  O  O28  1  0.194303  0.349215  0.697686  1
  O  O29  1  0.694303  0.150785  0.697686  1
  O  O30  1  0.472354  0.916795  0.763211  1
  O  O31  1  0.972354  0.583204  0.763211  1
  O  O32  1  0.170923  0.912081  0.798101  1
  O  O33  1  0.670923  0.587920  0.798102  1
