# generated using pymatgen
data_Sm5Y2FeBr12
_symmetry_space_group_name_H-M   'P 1'
_cell_length_a   9.37505681
_cell_length_b   9.25327281
_cell_length_c   9.39737906
_cell_angle_alpha   106.98241179
_cell_angle_beta   106.94678902
_cell_angle_gamma   106.93689136
_symmetry_Int_Tables_number   1
_chemical_formula_structural   Sm5Y2FeBr12
_chemical_formula_sum   'Sm5 Y2 Fe1 Br12'
_cell_volume   679.74977024
_cell_formula_units_Z   1
loop_
 _symmetry_equiv_pos_site_id
 _symmetry_equiv_pos_as_xyz
  1  'x, y, z'
loop_
 _atom_site_type_symbol
 _atom_site_label
 _atom_site_symmetry_multiplicity
 _atom_site_fract_x
 _atom_site_fract_y
 _atom_site_fract_z
 _atom_site_occupancy
  Sm  Sm0  1  0.521502  0.601056  0.808831  1
  Sm  Sm1  1  0.189229  0.477837  0.399695  1
  Sm  Sm2  1  0.477560  0.399934  0.191584  1
  Sm  Sm3  1  0.596773  0.797067  0.524066  1
  Sm  Sm4  1  0.405463  0.204277  0.477024  1
  Y  Y5  1  0.805150  0.522436  0.598728  1
  Y  Y6  1  0.001600  0.998490  0.999941  1
  Fe  Fe7  1  0.499564  0.501170  0.500243  1
  Br  Br8  1  0.726703  0.187299  0.573644  1
  Br  Br9  1  0.963473  0.884048  0.671044  1
  Br  Br10  1  0.574225  0.726531  0.185105  1
  Br  Br11  1  0.111998  0.329826  0.035384  1
  Br  Br12  1  0.674639  0.966961  0.889132  1
  Br  Br13  1  0.886719  0.665266  0.959070  1
  Br  Br14  1  0.037250  0.109830  0.327330  1
  Br  Br15  1  0.818340  0.429182  0.282278  1
  Br  Br16  1  0.329057  0.033673  0.111689  1
  Br  Br17  1  0.278240  0.819703  0.428116  1
  Br  Br18  1  0.175780  0.570908  0.721774  1
  Br  Br19  1  0.426734  0.274504  0.815323  1
