# generated using pymatgen
data_Lu8ReTc2B24Ru
_symmetry_space_group_name_H-M   'P 1'
_cell_length_a   3.61083300
_cell_length_b   9.04863014
_cell_length_c   11.40665724
_cell_angle_alpha   89.94551718
_cell_angle_beta   90.00000000
_cell_angle_gamma   90.00000000
_symmetry_Int_Tables_number   1
_chemical_formula_structural   Lu8ReTc2B24Ru
_chemical_formula_sum   'Lu8 Re1 Tc2 B24 Ru1'
_cell_volume   372.69059642
_cell_formula_units_Z   1
loop_
 _symmetry_equiv_pos_site_id
 _symmetry_equiv_pos_as_xyz
  1  'x, y, z'
loop_
 _atom_site_type_symbol
 _atom_site_label
 _atom_site_symmetry_multiplicity
 _atom_site_fract_x
 _atom_site_fract_y
 _atom_site_fract_z
 _atom_site_occupancy
  Lu  Lu0  1  0.000000  0.322941  0.413864  1
  Lu  Lu1  1  0.000000  0.675773  0.584058  1
  Lu  Lu2  1  0.000000  0.821626  0.087527  1
  Lu  Lu3  1  0.000000  0.179131  0.914010  1
  Lu  Lu4  1  0.000000  0.942107  0.371316  1
  Lu  Lu5  1  0.000000  0.057740  0.630110  1
  Lu  Lu6  1  0.000000  0.444039  0.129360  1
  Lu  Lu7  1  0.000000  0.557723  0.869647  1
  Re  Re8  1  0.000000  0.137691  0.178264  1
  Tc  Tc9  1  0.000000  0.638545  0.320351  1
  Tc  Tc10  1  0.000000  0.361667  0.680190  1
  B  B11  1  0.500000  0.552621  0.433521  1
  B  B12  1  0.500000  0.447132  0.566215  1
  B  B13  1  0.500000  0.052373  0.065791  1
  B  B14  1  0.500000  0.946353  0.933346  1
  B  B15  1  0.500000  0.749464  0.419704  1
  B  B16  1  0.500000  0.249874  0.580480  1
  B  B17  1  0.500000  0.250773  0.080180  1
  B  B18  1  0.500000  0.750429  0.919338  1
  B  B19  1  0.500000  0.792572  0.265117  1
  B  B20  1  0.500000  0.207385  0.735774  1
  B  B21  1  0.500000  0.292959  0.235209  1
  B  B22  1  0.500000  0.708387  0.764590  1
  B  B23  1  0.500000  0.630501  0.184514  1
  B  B24  1  0.500000  0.369638  0.816071  1
  B  B25  1  0.500000  0.129808  0.315423  1
  B  B26  1  0.500000  0.869284  0.684576  1
  B  B27  1  0.500000  0.979840  0.212038  1
  B  B28  1  0.500000  0.018181  0.788181  1
  B  B29  1  0.500000  0.480686  0.287886  1
  B  B30  1  0.500000  0.519489  0.711857  1
  B  B31  1  0.500000  0.601410  0.027636  1
  B  B32  1  0.500000  0.400625  0.971950  1
  B  B33  1  0.500000  0.100518  0.472400  1
  B  B34  1  0.500000  0.898965  0.528685  1
  Ru  Ru35  1  0.000000  0.861752  0.820819  1
