# generated using pymatgen
data_MgScB2SbRh5
_symmetry_space_group_name_H-M   'P 1'
_cell_length_a   9.39530300
_cell_length_b   9.39216000
_cell_length_c   3.19074800
_cell_angle_alpha   90.00000000
_cell_angle_beta   90.00000000
_cell_angle_gamma   90.00000000
_symmetry_Int_Tables_number   1
_chemical_formula_structural   MgScB2SbRh5
_chemical_formula_sum   'Mg2 Sc2 B4 Sb2 Rh10'
_cell_volume   281.55858815
_cell_formula_units_Z   2
loop_
 _symmetry_equiv_pos_site_id
 _symmetry_equiv_pos_as_xyz
  1  'x, y, z'
loop_
 _atom_site_type_symbol
 _atom_site_label
 _atom_site_symmetry_multiplicity
 _atom_site_fract_x
 _atom_site_fract_y
 _atom_site_fract_z
 _atom_site_occupancy
  Mg  Mg0  1  0.825557  0.324751  0.000000  1
  Mg  Mg1  1  0.325557  0.175249  0.000000  1
  Sc  Sc2  1  0.672976  0.828464  0.000000  1
  Sc  Sc3  1  0.172976  0.671536  0.000000  1
  B  B4  1  0.622859  0.123791  0.000000  1
  B  B5  1  0.122859  0.376209  0.000000  1
  B  B6  1  0.878191  0.620901  0.000000  1
  B  B7  1  0.378191  0.879099  0.000000  1
  Sb  Sb8  1  0.000341  0.000592  0.000000  1
  Sb  Sb9  1  0.500341  0.499408  0.000000  1
  Rh  Rh10  1  0.073614  0.221956  0.500000  1
  Rh  Rh11  1  0.221052  0.923587  0.500000  1
  Rh  Rh12  1  0.777892  0.070173  0.500000  1
  Rh  Rh13  1  0.928293  0.779191  0.500000  1
  Rh  Rh14  1  0.428293  0.720809  0.500000  1
  Rh  Rh15  1  0.573614  0.278044  0.500000  1
  Rh  Rh16  1  0.721052  0.576413  0.500000  1
  Rh  Rh17  1  0.277892  0.429827  0.500000  1
  Rh  Rh18  1  0.499226  0.999556  0.500000  1
  Rh  Rh19  1  0.999226  0.500444  0.500000  1
