# generated using pymatgen
data_Er3Al3ZnCoGe
_symmetry_space_group_name_H-M   'P 1'
_cell_length_a   6.90270100
_cell_length_b   6.90270039
_cell_length_c   4.16033900
_cell_angle_alpha   90.00000000
_cell_angle_beta   90.00000000
_cell_angle_gamma   119.99999815
_symmetry_Int_Tables_number   1
_chemical_formula_structural   Er3Al3ZnCoGe
_chemical_formula_sum   'Er3 Al3 Zn1 Co1 Ge1'
_cell_volume   171.67120067
_cell_formula_units_Z   1
loop_
 _symmetry_equiv_pos_site_id
 _symmetry_equiv_pos_as_xyz
  1  'x, y, z'
loop_
 _atom_site_type_symbol
 _atom_site_label
 _atom_site_symmetry_multiplicity
 _atom_site_fract_x
 _atom_site_fract_y
 _atom_site_fract_z
 _atom_site_occupancy
  Er  Er0  1  0.405110  0.000515  0.000000  1
  Er  Er1  1  0.999485  0.404596  0.000000  1
  Er  Er2  1  0.595405  0.594891  0.000000  1
  Al  Al3  1  0.775156  0.005637  0.500001  1
  Al  Al4  1  0.230479  0.224843  0.500001  1
  Al  Al5  1  0.994363  0.769520  0.500001  1
  Zn  Zn6  1  0.666666  0.333333  0.500001  1
  Co  Co7  1  0.000000  0.000000  0.000000  1
  Ge  Ge8  1  0.333333  0.666666  0.500001  1
