# generated using pymatgen
data_Ho16TlIn3RuRh3
_symmetry_space_group_name_H-M   'P 1'
_cell_length_a   9.61710955
_cell_length_b   9.61773835
_cell_length_c   9.61711079
_cell_angle_alpha   59.96597855
_cell_angle_beta   59.96083262
_cell_angle_gamma   59.96598007
_symmetry_Int_Tables_number   1
_chemical_formula_structural   Ho16TlIn3RuRh3
_chemical_formula_sum   'Ho16 Tl1 In3 Ru1 Rh3'
_cell_volume   628.48517791
_cell_formula_units_Z   1
loop_
 _symmetry_equiv_pos_site_id
 _symmetry_equiv_pos_as_xyz
  1  'x, y, z'
loop_
 _atom_site_type_symbol
 _atom_site_label
 _atom_site_symmetry_multiplicity
 _atom_site_fract_x
 _atom_site_fract_y
 _atom_site_fract_z
 _atom_site_occupancy
  Ho  Ho0  1  0.188733  0.189543  0.810588  1
  Ho  Ho1  1  0.600314  0.601316  0.202235  1
  Ho  Ho2  1  0.439806  0.057201  0.439806  1
  Ho  Ho3  1  0.439332  0.440053  0.059229  1
  Ho  Ho4  1  0.812246  0.189642  0.812246  1
  Ho  Ho5  1  0.190715  0.811598  0.190715  1
  Ho  Ho6  1  0.437129  0.057607  0.061960  1
  Ho  Ho7  1  0.189222  0.814236  0.809418  1
  Ho  Ho8  1  0.059320  0.437881  0.059320  1
  Ho  Ho9  1  0.809418  0.814236  0.189222  1
  Ho  Ho10  1  0.202235  0.601316  0.600314  1
  Ho  Ho11  1  0.059229  0.440053  0.439332  1
  Ho  Ho12  1  0.061960  0.057607  0.437129  1
  Ho  Ho13  1  0.810588  0.189543  0.188733  1
  Ho  Ho14  1  0.601053  0.200589  0.601053  1
  Ho  Ho15  1  0.596874  0.598942  0.596874  1
  Tl  Tl16  1  0.834843  0.835748  0.834843  1
  In  In17  1  0.832513  0.832231  0.500781  1
  In  In18  1  0.500781  0.832231  0.832513  1
  In  In19  1  0.831673  0.501666  0.831673  1
  Ru  Ru20  1  0.391570  0.824925  0.391570  1
  Rh  Rh21  1  0.392766  0.390810  0.392766  1
  Rh  Rh22  1  0.826068  0.390514  0.391609  1
  Rh  Rh23  1  0.391609  0.390514  0.826068  1
