# generated using pymatgen
data_Y2MnRu3
_symmetry_space_group_name_H-M   'P 1'
_cell_length_a   5.25968968
_cell_length_b   5.25968949
_cell_length_c   5.25969047
_cell_angle_alpha   61.90982678
_cell_angle_beta   61.90982698
_cell_angle_gamma   61.90983405
_symmetry_Int_Tables_number   1
_chemical_formula_structural   Y2MnRu3
_chemical_formula_sum   'Y2 Mn1 Ru3'
_cell_volume   107.28623017
_cell_formula_units_Z   1
loop_
 _symmetry_equiv_pos_site_id
 _symmetry_equiv_pos_as_xyz
  1  'x, y, z'
loop_
 _atom_site_type_symbol
 _atom_site_label
 _atom_site_symmetry_multiplicity
 _atom_site_fract_x
 _atom_site_fract_y
 _atom_site_fract_z
 _atom_site_occupancy
  Y  Y0  1  0.624674  0.624674  0.624674  1
  Y  Y1  1  0.375326  0.375326  0.375326  1
  Mn  Mn2  1  0.000000  0.000000  0.000000  1
  Ru  Ru3  1  0.000000  0.500000  0.000000  1
  Ru  Ru4  1  0.500000  0.000000  0.000000  1
  Ru  Ru5  1  0.000000  0.000000  0.500000  1
