# generated using pymatgen
data_TbPrFe3Tc14C3
_symmetry_space_group_name_H-M   'P 1'
_cell_length_a   6.90953428
_cell_length_b   6.90953399
_cell_length_c   6.90953331
_cell_angle_alpha   82.65917008
_cell_angle_beta   82.65917132
_cell_angle_gamma   82.65917014
_symmetry_Int_Tables_number   1
_chemical_formula_structural   TbPrFe3Tc14C3
_chemical_formula_sum   'Tb1 Pr1 Fe3 Tc14 C3'
_cell_volume   322.39799394
_cell_formula_units_Z   1
loop_
 _symmetry_equiv_pos_site_id
 _symmetry_equiv_pos_as_xyz
  1  'x, y, z'
loop_
 _atom_site_type_symbol
 _atom_site_label
 _atom_site_symmetry_multiplicity
 _atom_site_fract_x
 _atom_site_fract_y
 _atom_site_fract_z
 _atom_site_occupancy
  Tb  Tb0  1  0.347987  0.347987  0.347987  1
  Pr  Pr1  1  0.649796  0.649796  0.649796  1
  Fe  Fe2  1  0.999265  0.999265  0.500488  1
  Fe  Fe3  1  0.500488  0.999265  0.999265  1
  Fe  Fe4  1  0.999265  0.500488  0.999265  1
  Tc  Tc5  1  0.723871  0.275534  0.000646  1
  Tc  Tc6  1  0.000646  0.723871  0.275534  1
  Tc  Tc7  1  0.275534  0.000646  0.723871  1
  Tc  Tc8  1  0.000646  0.275534  0.723871  1
  Tc  Tc9  1  0.723871  0.000646  0.275534  1
  Tc  Tc10  1  0.275534  0.723871  0.000646  1
  Tc  Tc11  1  0.346516  0.346516  0.864729  1
  Tc  Tc12  1  0.864729  0.346516  0.346516  1
  Tc  Tc13  1  0.346516  0.864729  0.346516  1
  Tc  Tc14  1  0.652027  0.652027  0.139599  1
  Tc  Tc15  1  0.139599  0.652027  0.652027  1
  Tc  Tc16  1  0.652027  0.139599  0.652027  1
  Tc  Tc17  1  0.900019  0.900019  0.900019  1
  Tc  Tc18  1  0.100671  0.100671  0.100671  1
  C  C19  1  0.496550  0.496550  0.007890  1
  C  C20  1  0.007890  0.496550  0.496550  1
  C  C21  1  0.496550  0.007890  0.496550  1
