# generated using pymatgen
data_Rb6DyYF12
_symmetry_space_group_name_H-M   'P 1'
_cell_length_a   6.90216335
_cell_length_b   6.64969752
_cell_length_c   11.53998068
_cell_angle_alpha   55.32083934
_cell_angle_beta   90.09068159
_cell_angle_gamma   90.01861317
_symmetry_Int_Tables_number   1
_chemical_formula_structural   Rb6DyYF12
_chemical_formula_sum   'Rb6 Dy1 Y1 F12'
_cell_volume   435.56081606
_cell_formula_units_Z   1
loop_
 _symmetry_equiv_pos_site_id
 _symmetry_equiv_pos_as_xyz
  1  'x, y, z'
loop_
 _atom_site_type_symbol
 _atom_site_label
 _atom_site_symmetry_multiplicity
 _atom_site_fract_x
 _atom_site_fract_y
 _atom_site_fract_z
 _atom_site_occupancy
  Rb  Rb0  1  0.500000  0.500000  0.000000  1
  Rb  Rb1  1  0.000000  0.500000  0.500000  1
  Rb  Rb2  1  0.051047  0.729839  0.756191  1
  Rb  Rb3  1  0.948953  0.270161  0.243809  1
  Rb  Rb4  1  0.551157  0.266168  0.748515  1
  Rb  Rb5  1  0.448843  0.733832  0.251485  1
  Dy  Dy6  1  0.500000  0.000000  0.500000  1
  Y  Y7  1  0.000000  0.000000  0.000000  1
  F  F8  1  0.763610  0.772652  0.568284  1
  F  F9  1  0.236390  0.227348  0.431716  1
  F  F10  1  0.262772  0.229507  0.933919  1
  F  F11  1  0.737228  0.770493  0.066081  1
  F  F12  1  0.445752  0.892357  0.715985  1
  F  F13  1  0.554248  0.107643  0.284015  1
  F  F14  1  0.946212  0.108677  0.783319  1
  F  F15  1  0.053788  0.891323  0.216681  1
  F  F16  1  0.331827  0.680449  0.548815  1
  F  F17  1  0.668173  0.319551  0.451185  1
  F  F18  1  0.827575  0.316445  0.953128  1
  F  F19  1  0.172425  0.683555  0.046872  1
