# generated using pymatgen
data_LiGd6CoI12
_symmetry_space_group_name_H-M   'P 1'
_cell_length_a   9.77674910
_cell_length_b   9.77674769
_cell_length_c   9.77674800
_cell_angle_alpha   106.90170274
_cell_angle_beta   106.90170023
_cell_angle_gamma   106.90169877
_symmetry_Int_Tables_number   1
_chemical_formula_structural   LiGd6CoI12
_chemical_formula_sum   'Li1 Gd6 Co1 I12'
_cell_volume   780.34521628
_cell_formula_units_Z   1
loop_
 _symmetry_equiv_pos_site_id
 _symmetry_equiv_pos_as_xyz
  1  'x, y, z'
loop_
 _atom_site_type_symbol
 _atom_site_label
 _atom_site_symmetry_multiplicity
 _atom_site_fract_x
 _atom_site_fract_y
 _atom_site_fract_z
 _atom_site_occupancy
  Li  Li0  1  0.500000  0.500000  0.500000  1
  Gd  Gd1  1  0.308007  0.104314  0.029903  1
  Gd  Gd2  1  0.029903  0.308007  0.104314  1
  Gd  Gd3  1  0.104314  0.029903  0.308007  1
  Gd  Gd4  1  0.691993  0.895686  0.970097  1
  Gd  Gd5  1  0.970097  0.691993  0.895686  1
  Gd  Gd6  1  0.895686  0.970097  0.691993  1
  Co  Co7  1  0.000000  0.000000  0.000000  1
  I  I8  1  0.457225  0.159584  0.380864  1
  I  I9  1  0.380864  0.457225  0.159584  1
  I  I10  1  0.159584  0.380864  0.457225  1
  I  I11  1  0.542775  0.840416  0.619136  1
  I  I12  1  0.619136  0.542775  0.840416  1
  I  I13  1  0.840416  0.619136  0.542775  1
  I  I14  1  0.320491  0.775582  0.929538  1
  I  I15  1  0.929538  0.320491  0.775582  1
  I  I16  1  0.775582  0.929538  0.320491  1
  I  I17  1  0.679509  0.224418  0.070462  1
  I  I18  1  0.070462  0.679509  0.224418  1
  I  I19  1  0.224418  0.070462  0.679509  1
