# generated using pymatgen
data_Cs6Si2S6O
_symmetry_space_group_name_H-M   'P 1'
_cell_length_a   12.79112100
_cell_length_b   9.14786844
_cell_length_c   9.42140781
_cell_angle_alpha   67.97897415
_cell_angle_beta   90.00000000
_cell_angle_gamma   90.00000000
_symmetry_Int_Tables_number   1
_chemical_formula_structural   Cs6Si2S6O
_chemical_formula_sum   'Cs12 Si4 S12 O2'
_cell_volume   1021.98790466
_cell_formula_units_Z   2
loop_
 _symmetry_equiv_pos_site_id
 _symmetry_equiv_pos_as_xyz
  1  'x, y, z'
loop_
 _atom_site_type_symbol
 _atom_site_label
 _atom_site_symmetry_multiplicity
 _atom_site_fract_x
 _atom_site_fract_y
 _atom_site_fract_z
 _atom_site_occupancy
  Cs  Cs0  1  0.326595  0.990145  0.007907  1
  Cs  Cs1  1  0.220663  0.693114  0.453630  1
  Cs  Cs2  1  0.560410  0.278078  0.227539  1
  Cs  Cs3  1  0.826595  0.509855  0.992093  1
  Cs  Cs4  1  0.439590  0.721922  0.772461  1
  Cs  Cs5  1  0.779337  0.306886  0.546370  1
  Cs  Cs6  1  0.060410  0.221922  0.772461  1
  Cs  Cs7  1  0.939590  0.778078  0.227539  1
  Cs  Cs8  1  0.279337  0.193114  0.453630  1
  Cs  Cs9  1  0.720663  0.806886  0.546370  1
  Cs  Cs10  1  0.673405  0.009855  0.992093  1
  Cs  Cs11  1  0.173405  0.490145  0.007907  1
  Si  Si12  1  0.490810  0.358959  0.673693  1
  Si  Si13  1  0.990810  0.141041  0.326307  1
  Si  Si14  1  0.509190  0.641041  0.326307  1
  Si  Si15  1  0.009190  0.858959  0.673693  1
  S  S16  1  0.980251  0.634176  0.658953  1
  S  S17  1  0.892935  0.910481  0.812798  1
  S  S18  1  0.834439  0.127709  0.248926  1
  S  S19  1  0.607065  0.410481  0.812798  1
  S  S20  1  0.334439  0.372291  0.751074  1
  S  S21  1  0.107065  0.089519  0.187202  1
  S  S22  1  0.480251  0.865824  0.341047  1
  S  S23  1  0.392935  0.589519  0.187202  1
  S  S24  1  0.019749  0.365824  0.341047  1
  S  S25  1  0.665561  0.627709  0.248926  1
  S  S26  1  0.519749  0.134176  0.658953  1
  S  S27  1  0.165561  0.872291  0.751074  1
  O  O28  1  0.500000  0.500000  0.500000  1
  O  O29  1  0.000000  0.000000  0.500000  1
