# generated using pymatgen
data_YbZrB6Ru
_symmetry_space_group_name_H-M   'P 1'
_cell_length_a   3.56436400
_cell_length_b   9.02299600
_cell_length_c   11.38429500
_cell_angle_alpha   90.00000000
_cell_angle_beta   90.00000000
_cell_angle_gamma   90.00000000
_symmetry_Int_Tables_number   1
_chemical_formula_structural   YbZrB6Ru
_chemical_formula_sum   'Yb4 Zr4 B24 Ru4'
_cell_volume   366.13306780
_cell_formula_units_Z   4
loop_
 _symmetry_equiv_pos_site_id
 _symmetry_equiv_pos_as_xyz
  1  'x, y, z'
loop_
 _atom_site_type_symbol
 _atom_site_label
 _atom_site_symmetry_multiplicity
 _atom_site_fract_x
 _atom_site_fract_y
 _atom_site_fract_z
 _atom_site_occupancy
  Yb  Yb0  1  0.000000  0.323115  0.413939  1
  Yb  Yb1  1  0.000000  0.676885  0.586061  1
  Yb  Yb2  1  0.000000  0.823115  0.086061  1
  Yb  Yb3  1  0.000000  0.176885  0.913939  1
  Zr  Zr4  1  0.000000  0.944565  0.372611  1
  Zr  Zr5  1  0.000000  0.055435  0.627389  1
  Zr  Zr6  1  0.000000  0.444565  0.127389  1
  Zr  Zr7  1  0.000000  0.555435  0.872611  1
  B  B8  1  0.500000  0.554306  0.433108  1
  B  B9  1  0.500000  0.445694  0.566892  1
  B  B10  1  0.500000  0.054306  0.066892  1
  B  B11  1  0.500000  0.945694  0.933108  1
  B  B12  1  0.500000  0.750546  0.417349  1
  B  B13  1  0.500000  0.249454  0.582651  1
  B  B14  1  0.500000  0.250546  0.082651  1
  B  B15  1  0.500000  0.749454  0.917349  1
  B  B16  1  0.500000  0.793385  0.263507  1
  B  B17  1  0.500000  0.206615  0.736493  1
  B  B18  1  0.500000  0.293385  0.236493  1
  B  B19  1  0.500000  0.706615  0.763507  1
  B  B20  1  0.500000  0.631074  0.182975  1
  B  B21  1  0.500000  0.368926  0.817025  1
  B  B22  1  0.500000  0.131074  0.317025  1
  B  B23  1  0.500000  0.868926  0.682975  1
  B  B24  1  0.500000  0.983192  0.212753  1
  B  B25  1  0.500000  0.016808  0.787247  1
  B  B26  1  0.500000  0.483192  0.287247  1
  B  B27  1  0.500000  0.516808  0.712753  1
  B  B28  1  0.500000  0.600946  0.026847  1
  B  B29  1  0.500000  0.399054  0.973153  1
  B  B30  1  0.500000  0.100946  0.473153  1
  B  B31  1  0.500000  0.899054  0.526847  1
  Ru  Ru32  1  0.000000  0.640737  0.318066  1
  Ru  Ru33  1  0.000000  0.359263  0.681934  1
  Ru  Ru34  1  0.000000  0.140737  0.181934  1
  Ru  Ru35  1  0.000000  0.859263  0.818066  1
