# generated using pymatgen
data_Dy7Ho2Er11(CoBi2)4
_symmetry_space_group_name_H-M   'P 1'
_cell_length_a   7.93904347
_cell_length_b   8.85832000
_cell_length_c   12.35798082
_cell_angle_alpha   90.00000000
_cell_angle_beta   90.07630709
_cell_angle_gamma   90.00000000
_symmetry_Int_Tables_number   1
_chemical_formula_structural   Dy7Ho2Er11(CoBi2)4
_chemical_formula_sum   'Dy7 Ho2 Er11 Co4 Bi8'
_cell_volume   869.09384944
_cell_formula_units_Z   1
loop_
 _symmetry_equiv_pos_site_id
 _symmetry_equiv_pos_as_xyz
  1  'x, y, z'
loop_
 _atom_site_type_symbol
 _atom_site_label
 _atom_site_symmetry_multiplicity
 _atom_site_fract_x
 _atom_site_fract_y
 _atom_site_fract_z
 _atom_site_occupancy
  Dy  Dy0  1  0.152392  0.750000  0.200229  1
  Dy  Dy1  1  0.884828  0.750000  0.811102  1
  Dy  Dy2  1  0.115208  0.250000  0.188990  1
  Dy  Dy3  1  0.384722  0.250000  0.688985  1
  Dy  Dy4  1  0.615763  0.750000  0.311078  1
  Dy  Dy5  1  0.053367  0.750000  0.498112  1
  Dy  Dy6  1  0.447204  0.750000  0.997585  1
  Ho  Ho7  1  0.946243  0.250000  0.502282  1
  Ho  Ho8  1  0.553751  0.250000  0.002147  1
  Er  Er9  1  0.347919  0.750000  0.699511  1
  Er  Er10  1  0.652316  0.250000  0.300280  1
  Er  Er11  1  0.847731  0.250000  0.800029  1
  Er  Er12  1  0.674546  0.538069  0.563262  1
  Er  Er13  1  0.325543  0.461852  0.436828  1
  Er  Er14  1  0.174517  0.461660  0.936484  1
  Er  Er15  1  0.325543  0.038148  0.436828  1
  Er  Er16  1  0.824950  0.537609  0.063013  1
  Er  Er17  1  0.674546  0.961931  0.563262  1
  Er  Er18  1  0.824950  0.962391  0.063013  1
  Er  Er19  1  0.174517  0.038340  0.936484  1
  Co  Co20  1  0.065286  0.750000  0.992291  1
  Co  Co21  1  0.934235  0.250000  0.007236  1
  Co  Co22  1  0.565480  0.250000  0.507471  1
  Co  Co23  1  0.434384  0.750000  0.492627  1
  Bi  Bi24  1  0.571408  0.509102  0.826482  1
  Bi  Bi25  1  0.429535  0.489555  0.173426  1
  Bi  Bi26  1  0.071295  0.490069  0.673609  1
  Bi  Bi27  1  0.429535  0.010445  0.173426  1
  Bi  Bi28  1  0.927790  0.508531  0.326919  1
  Bi  Bi29  1  0.571408  0.990898  0.826482  1
  Bi  Bi30  1  0.927790  0.991469  0.326919  1
  Bi  Bi31  1  0.071295  0.009931  0.673609  1
