# generated using pymatgen
data_Ca20(Zn3Pb)3
_symmetry_space_group_name_H-M   'P 1'
_cell_length_a   7.99161500
_cell_length_b   7.99161500
_cell_length_c   15.14946800
_cell_angle_alpha   90.00000000
_cell_angle_beta   90.00000000
_cell_angle_gamma   90.00000000
_symmetry_Int_Tables_number   1
_chemical_formula_structural   Ca20(Zn3Pb)3
_chemical_formula_sum   'Ca20 Zn9 Pb3'
_cell_volume   967.53456451
_cell_formula_units_Z   1
loop_
 _symmetry_equiv_pos_site_id
 _symmetry_equiv_pos_as_xyz
  1  'x, y, z'
loop_
 _atom_site_type_symbol
 _atom_site_label
 _atom_site_symmetry_multiplicity
 _atom_site_fract_x
 _atom_site_fract_y
 _atom_site_fract_z
 _atom_site_occupancy
  Ca  Ca0  1  0.678312  0.169208  0.103536  1
  Ca  Ca1  1  0.174894  0.673887  0.607062  1
  Ca  Ca2  1  0.321688  0.830792  0.103536  1
  Ca  Ca3  1  0.825106  0.326113  0.607062  1
  Ca  Ca4  1  0.830792  0.678312  0.103536  1
  Ca  Ca5  1  0.326113  0.174894  0.607062  1
  Ca  Ca6  1  0.169208  0.321688  0.103536  1
  Ca  Ca7  1  0.673887  0.825106  0.607062  1
  Ca  Ca8  1  0.830792  0.321688  0.896464  1
  Ca  Ca9  1  0.326113  0.825106  0.392938  1
  Ca  Ca10  1  0.169208  0.678312  0.896464  1
  Ca  Ca11  1  0.673887  0.174894  0.392938  1
  Ca  Ca12  1  0.678312  0.830792  0.896464  1
  Ca  Ca13  1  0.174894  0.326113  0.392938  1
  Ca  Ca14  1  0.321688  0.169208  0.896464  1
  Ca  Ca15  1  0.825106  0.673887  0.392938  1
  Ca  Ca16  1  0.500000  0.500000  0.758734  1
  Ca  Ca17  1  0.000000  0.000000  0.251867  1
  Ca  Ca18  1  0.000000  0.000000  0.748133  1
  Ca  Ca19  1  0.500000  0.500000  0.241266  1
  Zn  Zn20  1  0.613221  0.113448  0.751927  1
  Zn  Zn21  1  0.113448  0.613221  0.248073  1
  Zn  Zn22  1  0.886552  0.386779  0.248073  1
  Zn  Zn23  1  0.386779  0.886552  0.751927  1
  Zn  Zn24  1  0.886552  0.613221  0.751927  1
  Zn  Zn25  1  0.386779  0.113448  0.248073  1
  Zn  Zn26  1  0.113448  0.386779  0.751927  1
  Zn  Zn27  1  0.613221  0.886552  0.248073  1
  Zn  Zn28  1  0.000000  0.000000  0.000000  1
  Pb  Pb29  1  0.500000  0.500000  0.500000  1
  Pb  Pb30  1  0.500000  0.500000  0.000000  1
  Pb  Pb31  1  0.000000  0.000000  0.500000  1
