# generated using pymatgen
data_Li8Y8Si7Te
_symmetry_space_group_name_H-M   'P 1'
_cell_length_a   8.85135770
_cell_length_b   8.85135803
_cell_length_c   7.11542400
_cell_angle_alpha   90.18809585
_cell_angle_beta   89.81190414
_cell_angle_gamma   120.05535285
_symmetry_Int_Tables_number   1
_chemical_formula_structural   Li8Y8Si7Te
_chemical_formula_sum   'Li8 Y8 Si7 Te1'
_cell_volume   482.50918965
_cell_formula_units_Z   1
loop_
 _symmetry_equiv_pos_site_id
 _symmetry_equiv_pos_as_xyz
  1  'x, y, z'
loop_
 _atom_site_type_symbol
 _atom_site_label
 _atom_site_symmetry_multiplicity
 _atom_site_fract_x
 _atom_site_fract_y
 _atom_site_fract_z
 _atom_site_occupancy
  Li  Li0  1  0.165751  0.834249  0.213755  1
  Li  Li1  1  0.340880  0.179022  0.683568  1
  Li  Li2  1  0.820978  0.659120  0.683568  1
  Li  Li3  1  0.171397  0.336968  0.195931  1
  Li  Li4  1  0.663032  0.828603  0.195931  1
  Li  Li5  1  0.833578  0.166422  0.707947  1
  Li  Li6  1  0.339879  0.660121  0.826477  1
  Li  Li7  1  0.664530  0.335470  0.318759  1
  Y  Y8  1  0.516588  0.483412  0.990854  1
  Y  Y9  1  0.019752  0.497584  0.484270  1
  Y  Y10  1  0.502416  0.980248  0.484270  1
  Y  Y11  1  0.522668  0.031914  0.996178  1
  Y  Y12  1  0.968086  0.477332  0.996178  1
  Y  Y13  1  0.483305  0.516695  0.487574  1
  Y  Y14  1  0.993609  0.006391  0.987374  1
  Y  Y15  1  0.993428  0.006572  0.476103  1
  Si  Si16  1  0.332953  0.165616  0.255030  1
  Si  Si17  1  0.834384  0.667047  0.255030  1
  Si  Si18  1  0.166103  0.333073  0.752932  1
  Si  Si19  1  0.666927  0.833897  0.752932  1
  Si  Si20  1  0.833184  0.166816  0.249249  1
  Si  Si21  1  0.331216  0.668784  0.223449  1
  Si  Si22  1  0.668457  0.331543  0.722886  1
  Te  Te23  1  0.166899  0.833101  0.749760  1
