# generated using pymatgen
data_Rb3CaRh2O9
_symmetry_space_group_name_H-M   'P 1'
_cell_length_a   6.16650766
_cell_length_b   6.16650802
_cell_length_c   14.65184828
_cell_angle_alpha   89.77101497
_cell_angle_beta   89.77101571
_cell_angle_gamma   119.96715264
_symmetry_Int_Tables_number   1
_chemical_formula_structural   Rb3CaRh2O9
_chemical_formula_sum   'Rb6 Ca2 Rh4 O18'
_cell_volume   482.64900280
_cell_formula_units_Z   2
loop_
 _symmetry_equiv_pos_site_id
 _symmetry_equiv_pos_as_xyz
  1  'x, y, z'
loop_
 _atom_site_type_symbol
 _atom_site_label
 _atom_site_symmetry_multiplicity
 _atom_site_fract_x
 _atom_site_fract_y
 _atom_site_fract_z
 _atom_site_occupancy
  Rb  Rb0  1  0.002969  0.997031  0.250000  1
  Rb  Rb1  1  0.336091  0.672087  0.898992  1
  Rb  Rb2  1  0.327913  0.663909  0.601008  1
  Rb  Rb3  1  0.672087  0.336091  0.398992  1
  Rb  Rb4  1  0.663909  0.327913  0.101008  1
  Rb  Rb5  1  0.997031  0.002969  0.750000  1
  Ca  Ca6  1  0.000000  0.000000  0.000000  1
  Ca  Ca7  1  0.000000  0.000000  0.500000  1
  Rh  Rh8  1  0.329008  0.659518  0.152857  1
  Rh  Rh9  1  0.659518  0.329008  0.652857  1
  Rh  Rh10  1  0.340482  0.670992  0.347143  1
  Rh  Rh11  1  0.670992  0.340482  0.847143  1
  O  O12  1  0.933518  0.468844  0.747370  1
  O  O13  1  0.174080  0.808019  0.087787  1
  O  O14  1  0.808019  0.174080  0.587787  1
  O  O15  1  0.826320  0.647570  0.908783  1
  O  O16  1  0.066482  0.531156  0.252630  1
  O  O17  1  0.173680  0.352430  0.091217  1
  O  O18  1  0.468844  0.933518  0.247370  1
  O  O19  1  0.193064  0.371320  0.415088  1
  O  O20  1  0.530911  0.469089  0.750000  1
  O  O21  1  0.628680  0.806936  0.084912  1
  O  O22  1  0.647570  0.826320  0.408783  1
  O  O23  1  0.825920  0.191981  0.912213  1
  O  O24  1  0.531156  0.066482  0.752630  1
  O  O25  1  0.371320  0.193064  0.915088  1
  O  O26  1  0.806936  0.628680  0.584912  1
  O  O27  1  0.352430  0.173680  0.591217  1
  O  O28  1  0.191981  0.825920  0.412213  1
  O  O29  1  0.469089  0.530911  0.250000  1
