# generated using pymatgen
data_Hf2AlRh5
_symmetry_space_group_name_H-M   'P 1'
_cell_length_a   4.12549000
_cell_length_b   5.52269000
_cell_length_c   10.89626400
_cell_angle_alpha   90.00000000
_cell_angle_beta   90.00000000
_cell_angle_gamma   90.00000000
_symmetry_Int_Tables_number   1
_chemical_formula_structural   Hf2AlRh5
_chemical_formula_sum   'Hf4 Al2 Rh10'
_cell_volume   248.25832553
_cell_formula_units_Z   2
loop_
 _symmetry_equiv_pos_site_id
 _symmetry_equiv_pos_as_xyz
  1  'x, y, z'
loop_
 _atom_site_type_symbol
 _atom_site_label
 _atom_site_symmetry_multiplicity
 _atom_site_fract_x
 _atom_site_fract_y
 _atom_site_fract_z
 _atom_site_occupancy
  Hf  Hf0  1  0.500000  0.176776  0.640263  1
  Hf  Hf1  1  0.500000  0.823224  0.359737  1
  Hf  Hf2  1  0.500000  0.676776  0.859737  1
  Hf  Hf3  1  0.500000  0.323224  0.140263  1
  Al  Al4  1  0.000000  0.500000  0.500000  1
  Al  Al5  1  0.000000  0.000000  0.000000  1
  Rh  Rh6  1  0.500000  0.184794  0.893149  1
  Rh  Rh7  1  0.500000  0.815206  0.106851  1
  Rh  Rh8  1  0.500000  0.684794  0.606851  1
  Rh  Rh9  1  0.500000  0.315206  0.393149  1
  Rh  Rh10  1  0.000000  0.427036  0.744262  1
  Rh  Rh11  1  0.000000  0.572964  0.255738  1
  Rh  Rh12  1  0.000000  0.000000  0.500000  1
  Rh  Rh13  1  0.000000  0.500000  0.000000  1
  Rh  Rh14  1  0.000000  0.072964  0.244262  1
  Rh  Rh15  1  0.000000  0.927036  0.755738  1
