# generated using pymatgen
data_HoEr(GaHg)2
_symmetry_space_group_name_H-M   'P 1'
_cell_length_a   4.61387100
_cell_length_b   4.61387082
_cell_length_c   7.28025400
_cell_angle_alpha   90.00000000
_cell_angle_beta   90.00000000
_cell_angle_gamma   120.00000846
_symmetry_Int_Tables_number   1
_chemical_formula_structural   HoEr(GaHg)2
_chemical_formula_sum   'Ho1 Er1 Ga2 Hg2'
_cell_volume   134.21714767
_cell_formula_units_Z   1
loop_
 _symmetry_equiv_pos_site_id
 _symmetry_equiv_pos_as_xyz
  1  'x, y, z'
loop_
 _atom_site_type_symbol
 _atom_site_label
 _atom_site_symmetry_multiplicity
 _atom_site_fract_x
 _atom_site_fract_y
 _atom_site_fract_z
 _atom_site_occupancy
  Ho  Ho0  1  0.000000  0.000000  0.496686  1
  Er  Er1  1  0.000000  0.000000  0.996804  1
  Ga  Ga2  1  0.666667  0.333333  0.788459  1
  Ga  Ga3  1  0.333333  0.666667  0.287334  1
  Hg  Hg4  1  0.666667  0.333333  0.208238  1
  Hg  Hg5  1  0.333333  0.666667  0.710079  1
