# generated using pymatgen
data_Yb5SmDy2(Cu2Sn5)2
_symmetry_space_group_name_H-M   'P 1'
_cell_length_a   4.44731700
_cell_length_b   8.77631100
_cell_length_c   14.08155700
_cell_angle_alpha   90.00000000
_cell_angle_beta   90.00000000
_cell_angle_gamma   90.00000000
_symmetry_Int_Tables_number   1
_chemical_formula_structural   Yb5SmDy2(Cu2Sn5)2
_chemical_formula_sum   'Yb5 Sm1 Dy2 Cu4 Sn10'
_cell_volume   549.61777380
_cell_formula_units_Z   1
loop_
 _symmetry_equiv_pos_site_id
 _symmetry_equiv_pos_as_xyz
  1  'x, y, z'
loop_
 _atom_site_type_symbol
 _atom_site_label
 _atom_site_symmetry_multiplicity
 _atom_site_fract_x
 _atom_site_fract_y
 _atom_site_fract_z
 _atom_site_occupancy
  Yb  Yb0  1  0.500000  0.792195  0.741695  1
  Yb  Yb1  1  0.000000  0.205521  0.754205  1
  Yb  Yb2  1  0.000000  0.205521  0.245795  1
  Yb  Yb3  1  0.000000  0.866574  0.500000  1
  Yb  Yb4  1  0.500000  0.792195  0.258305  1
  Sm  Sm5  1  0.500000  0.138036  0.000000  1
  Dy  Dy6  1  0.500000  0.696045  0.000000  1
  Dy  Dy7  1  0.000000  0.297289  0.500000  1
  Cu  Cu8  1  0.500000  0.378738  0.644028  1
  Cu  Cu9  1  0.000000  0.622987  0.854797  1
  Cu  Cu10  1  0.000000  0.622987  0.145203  1
  Cu  Cu11  1  0.500000  0.378738  0.355972  1
  Sn  Sn12  1  0.500000  0.084034  0.395654  1
  Sn  Sn13  1  0.000000  0.553927  0.662761  1
  Sn  Sn14  1  0.000000  0.410734  0.000000  1
  Sn  Sn15  1  0.500000  0.443505  0.164128  1
  Sn  Sn16  1  0.500000  0.594764  0.500000  1
  Sn  Sn17  1  0.500000  0.443505  0.835872  1
  Sn  Sn18  1  0.000000  0.917371  0.896193  1
  Sn  Sn19  1  0.000000  0.553927  0.337239  1
  Sn  Sn20  1  0.500000  0.084034  0.604346  1
  Sn  Sn21  1  0.000000  0.917371  0.103807  1
