# generated using pymatgen
data_NaNbPd6
_symmetry_space_group_name_H-M   'P 1'
_cell_length_a   5.73560413
_cell_length_b   5.73560400
_cell_length_c   3.89661300
_cell_angle_alpha   90.00000000
_cell_angle_beta   90.00000000
_cell_angle_gamma   89.93172180
_symmetry_Int_Tables_number   1
_chemical_formula_structural   NaNbPd6
_chemical_formula_sum   'Na1 Nb1 Pd6'
_cell_volume   128.18738697
_cell_formula_units_Z   1
loop_
 _symmetry_equiv_pos_site_id
 _symmetry_equiv_pos_as_xyz
  1  'x, y, z'
loop_
 _atom_site_type_symbol
 _atom_site_label
 _atom_site_symmetry_multiplicity
 _atom_site_fract_x
 _atom_site_fract_y
 _atom_site_fract_z
 _atom_site_occupancy
  Na  Na0  1  0.873617  0.126383  0.500000  1
  Nb  Nb1  1  0.375719  0.624281  0.500000  1
  Pd  Pd2  1  0.373940  0.124228  0.500000  1
  Pd  Pd3  1  0.875772  0.626060  0.500000  1
  Pd  Pd4  1  0.134230  0.383665  0.000000  1
  Pd  Pd5  1  0.616335  0.865770  0.000000  1
  Pd  Pd6  1  0.615294  0.384706  0.000000  1
  Pd  Pd7  1  0.135098  0.864902  0.000000  1
