# generated using pymatgen
data_Yb2BN2Cl
_symmetry_space_group_name_H-M   'P 1'
_cell_length_a   3.85234000
_cell_length_b   8.95022600
_cell_length_c   11.60281300
_cell_angle_alpha   90.00000000
_cell_angle_beta   90.00000000
_cell_angle_gamma   90.00000000
_symmetry_Int_Tables_number   1
_chemical_formula_structural   Yb2BN2Cl
_chemical_formula_sum   'Yb8 B4 N8 Cl4'
_cell_volume   400.05702840
_cell_formula_units_Z   4
loop_
 _symmetry_equiv_pos_site_id
 _symmetry_equiv_pos_as_xyz
  1  'x, y, z'
loop_
 _atom_site_type_symbol
 _atom_site_label
 _atom_site_symmetry_multiplicity
 _atom_site_fract_x
 _atom_site_fract_y
 _atom_site_fract_z
 _atom_site_occupancy
  Yb  Yb0  1  0.250000  0.889904  0.589306  1
  Yb  Yb1  1  0.250000  0.610096  0.089306  1
  Yb  Yb2  1  0.750000  0.389904  0.910694  1
  Yb  Yb3  1  0.750000  0.110096  0.410694  1
  Yb  Yb4  1  0.750000  0.952249  0.829534  1
  Yb  Yb5  1  0.250000  0.047751  0.170466  1
  Yb  Yb6  1  0.250000  0.452249  0.670466  1
  Yb  Yb7  1  0.750000  0.547751  0.329534  1
  B  B8  1  0.750000  0.319084  0.165696  1
  B  B9  1  0.250000  0.680916  0.834304  1
  B  B10  1  0.250000  0.819084  0.334304  1
  B  B11  1  0.750000  0.180916  0.665696  1
  N  N12  1  0.750000  0.316914  0.713146  1
  N  N13  1  0.250000  0.683086  0.286854  1
  N  N14  1  0.250000  0.816914  0.786854  1
  N  N15  1  0.750000  0.460061  0.123622  1
  N  N16  1  0.750000  0.039939  0.623622  1
  N  N17  1  0.250000  0.960061  0.376378  1
  N  N18  1  0.250000  0.539939  0.876378  1
  N  N19  1  0.750000  0.183086  0.213146  1
  Cl  Cl20  1  0.750000  0.846803  0.061113  1
  Cl  Cl21  1  0.250000  0.346803  0.438887  1
  Cl  Cl22  1  0.250000  0.153197  0.938887  1
  Cl  Cl23  1  0.750000  0.653197  0.561113  1
