# generated using pymatgen
data_La4PrCo2
_symmetry_space_group_name_H-M   'P 1'
_cell_length_a   9.15323193
_cell_length_b   9.15323284
_cell_length_c   7.09632187
_cell_angle_alpha   86.46568495
_cell_angle_beta   86.46567824
_cell_angle_gamma   42.51673659
_symmetry_Int_Tables_number   1
_chemical_formula_structural   La4PrCo2
_chemical_formula_sum   'La8 Pr2 Co4'
_cell_volume   400.91455669
_cell_formula_units_Z   2
loop_
 _symmetry_equiv_pos_site_id
 _symmetry_equiv_pos_as_xyz
  1  'x, y, z'
loop_
 _atom_site_type_symbol
 _atom_site_label
 _atom_site_symmetry_multiplicity
 _atom_site_fract_x
 _atom_site_fract_y
 _atom_site_fract_z
 _atom_site_occupancy
  La  La0  1  0.013570  0.798714  0.899362  1
  La  La1  1  0.201286  0.986430  0.600638  1
  La  La2  1  0.986430  0.201286  0.100638  1
  La  La3  1  0.798714  0.013570  0.399362  1
  La  La4  1  0.360925  0.218141  0.833027  1
  La  La5  1  0.781859  0.639075  0.666973  1
  La  La6  1  0.639075  0.781859  0.166973  1
  La  La7  1  0.218141  0.360925  0.333027  1
  Pr  Pr8  1  0.571664  0.428336  0.750000  1
  Pr  Pr9  1  0.428336  0.571664  0.250000  1
  Co  Co10  1  0.176307  0.601864  0.582146  1
  Co  Co11  1  0.398136  0.823693  0.917854  1
  Co  Co12  1  0.823693  0.398136  0.417854  1
  Co  Co13  1  0.601864  0.176307  0.082146  1
