# generated using pymatgen
data_DyHo3ErIr3
_symmetry_space_group_name_H-M   'P 1'
_cell_length_a   10.84479100
_cell_length_b   10.84399500
_cell_length_c   6.35130800
_cell_angle_alpha   90.00000000
_cell_angle_beta   90.00000000
_cell_angle_gamma   90.00000000
_symmetry_Int_Tables_number   1
_chemical_formula_structural   DyHo3ErIr3
_chemical_formula_sum   'Dy4 Ho12 Er4 Ir12'
_cell_volume   746.91927899
_cell_formula_units_Z   4
loop_
 _symmetry_equiv_pos_site_id
 _symmetry_equiv_pos_as_xyz
  1  'x, y, z'
loop_
 _atom_site_type_symbol
 _atom_site_label
 _atom_site_symmetry_multiplicity
 _atom_site_fract_x
 _atom_site_fract_y
 _atom_site_fract_z
 _atom_site_occupancy
  Dy  Dy0  1  0.290951  0.087952  0.377630  1
  Dy  Dy1  1  0.290951  0.912048  0.877630  1
  Dy  Dy2  1  0.709049  0.087952  0.877630  1
  Dy  Dy3  1  0.709049  0.912048  0.377630  1
  Ho  Ho4  1  0.587909  0.790946  0.877688  1
  Ho  Ho5  1  0.587909  0.209054  0.377688  1
  Ho  Ho6  1  0.412091  0.790946  0.377688  1
  Ho  Ho7  1  0.412091  0.209054  0.877688  1
  Ho  Ho8  1  0.208974  0.412113  0.622303  1
  Ho  Ho9  1  0.208974  0.587887  0.122303  1
  Ho  Ho10  1  0.791026  0.412113  0.122303  1
  Ho  Ho11  1  0.791026  0.587887  0.622303  1
  Ho  Ho12  1  0.912136  0.708960  0.122257  1
  Ho  Ho13  1  0.912136  0.291040  0.622257  1
  Ho  Ho14  1  0.087864  0.708960  0.622257  1
  Ho  Ho15  1  0.087864  0.291040  0.122257  1
  Er  Er16  1  0.000000  0.000000  0.500048  1
  Er  Er17  1  0.000000  0.000000  0.000048  1
  Er  Er18  1  0.500000  0.500000  0.000040  1
  Er  Er19  1  0.500000  0.500000  0.500040  1
  Ir  Ir20  1  0.846987  0.153147  0.250094  1
  Ir  Ir21  1  0.846987  0.846853  0.750094  1
  Ir  Ir22  1  0.153013  0.153147  0.750094  1
  Ir  Ir23  1  0.153013  0.846853  0.250094  1
  Ir  Ir24  1  0.653048  0.346993  0.749958  1
  Ir  Ir25  1  0.653048  0.653007  0.249958  1
  Ir  Ir26  1  0.346952  0.346993  0.249958  1
  Ir  Ir27  1  0.346952  0.653007  0.749958  1
  Ir  Ir28  1  0.500000  0.000000  0.121972  1
  Ir  Ir29  1  0.500000  0.000000  0.621972  1
  Ir  Ir30  1  0.000000  0.500000  0.878079  1
  Ir  Ir31  1  0.000000  0.500000  0.378079  1
