# generated using pymatgen
data_Ho2Mn3Co(SiC)2
_symmetry_space_group_name_H-M   'P 1'
_cell_length_a   5.57886760
_cell_length_b   5.57886877
_cell_length_c   6.93877056
_cell_angle_alpha   89.29740507
_cell_angle_beta   90.70259422
_cell_angle_gamma   141.43670824
_symmetry_Int_Tables_number   1
_chemical_formula_structural   Ho2Mn3Co(SiC)2
_chemical_formula_sum   'Ho2 Mn3 Co1 Si2 C2'
_cell_volume   134.61395431
_cell_formula_units_Z   1
loop_
 _symmetry_equiv_pos_site_id
 _symmetry_equiv_pos_as_xyz
  1  'x, y, z'
loop_
 _atom_site_type_symbol
 _atom_site_label
 _atom_site_symmetry_multiplicity
 _atom_site_fract_x
 _atom_site_fract_y
 _atom_site_fract_z
 _atom_site_occupancy
  Ho  Ho0  1  0.545803  0.454197  0.251003  1
  Ho  Ho1  1  0.454456  0.545544  0.747918  1
  Mn  Mn2  1  0.831527  0.168473  0.057948  1
  Mn  Mn3  1  0.169922  0.830078  0.939782  1
  Mn  Mn4  1  0.162989  0.837011  0.560530  1
  Co  Co5  1  0.831971  0.168029  0.440826  1
  Si  Si6  1  0.268611  0.731389  0.258059  1
  Si  Si7  1  0.734586  0.265414  0.743882  1
  C  C8  1  0.000628  0.999372  0.000228  1
  C  C9  1  0.999507  0.000493  0.499825  1
