# generated using pymatgen
data_La12Ge11Pd12Se
_symmetry_space_group_name_H-M   'P 1'
_cell_length_a   4.57067400
_cell_length_b   7.75400905
_cell_length_c   22.51505900
_cell_angle_alpha   89.86969167
_cell_angle_beta   90.00000000
_cell_angle_gamma   90.00000000
_symmetry_Int_Tables_number   1
_chemical_formula_structural   La12Ge11Pd12Se
_chemical_formula_sum   'La12 Ge11 Pd12 Se1'
_cell_volume   797.95521352
_cell_formula_units_Z   1
loop_
 _symmetry_equiv_pos_site_id
 _symmetry_equiv_pos_as_xyz
  1  'x, y, z'
loop_
 _atom_site_type_symbol
 _atom_site_label
 _atom_site_symmetry_multiplicity
 _atom_site_fract_x
 _atom_site_fract_y
 _atom_site_fract_z
 _atom_site_occupancy
  La  La0  1  0.250000  0.713971  0.333197  1
  La  La1  1  0.750000  0.280788  0.665250  1
  La  La2  1  0.750000  0.212546  0.167789  1
  La  La3  1  0.250000  0.772728  0.830302  1
  La  La4  1  0.250000  0.791479  0.167551  1
  La  La5  1  0.750000  0.225656  0.832160  1
  La  La6  1  0.750000  0.290220  0.333792  1
  La  La7  1  0.250000  0.720145  0.664766  1
  La  La8  1  0.250000  0.722403  0.002856  1
  La  La9  1  0.750000  0.281884  0.001572  1
  La  La10  1  0.750000  0.217555  0.497391  1
  La  La11  1  0.250000  0.786461  0.501544  1
  Ge  Ge12  1  0.250000  0.089253  0.069234  1
  Ge  Ge13  1  0.750000  0.917720  0.918587  1
  Ge  Ge14  1  0.750000  0.588701  0.431098  1
  Ge  Ge15  1  0.250000  0.415730  0.572720  1
  Ge  Ge16  1  0.250000  0.085366  0.270761  1
  Ge  Ge17  1  0.750000  0.914738  0.732440  1
  Ge  Ge18  1  0.750000  0.584666  0.230622  1
  Ge  Ge19  1  0.250000  0.411129  0.750116  1
  Ge  Ge20  1  0.250000  0.084291  0.395706  1
  Ge  Ge21  1  0.750000  0.915208  0.602400  1
  Ge  Ge22  1  0.750000  0.584811  0.105240  1
  Pd  Pd23  1  0.250000  0.419293  0.239113  1
  Pd  Pd24  1  0.750000  0.578417  0.760118  1
  Pd  Pd25  1  0.750000  0.919169  0.261580  1
  Pd  Pd26  1  0.250000  0.078139  0.741032  1
  Pd  Pd27  1  0.250000  0.417850  0.431372  1
  Pd  Pd28  1  0.750000  0.579098  0.562809  1
  Pd  Pd29  1  0.750000  0.917376  0.073506  1
  Pd  Pd30  1  0.250000  0.063100  0.940316  1
  Pd  Pd31  1  0.250000  0.421736  0.095173  1
  Pd  Pd32  1  0.750000  0.591788  0.910006  1
  Pd  Pd33  1  0.750000  0.920534  0.407151  1
  Pd  Pd34  1  0.250000  0.081447  0.589360  1
  Se  Se35  1  0.250000  0.404607  0.911368  1
