# generated using pymatgen
data_Dy12Si8Ni5Rh7
_symmetry_space_group_name_H-M   'P 1'
_cell_length_a   5.57647178
_cell_length_b   7.39997425
_cell_length_c   14.68750220
_cell_angle_alpha   90.14695335
_cell_angle_beta   89.85549524
_cell_angle_gamma   90.68318953
_symmetry_Int_Tables_number   1
_chemical_formula_structural   Dy12Si8Ni5Rh7
_chemical_formula_sum   'Dy12 Si8 Ni5 Rh7'
_cell_volume   606.04379691
_cell_formula_units_Z   1
loop_
 _symmetry_equiv_pos_site_id
 _symmetry_equiv_pos_as_xyz
  1  'x, y, z'
loop_
 _atom_site_type_symbol
 _atom_site_label
 _atom_site_symmetry_multiplicity
 _atom_site_fract_x
 _atom_site_fract_y
 _atom_site_fract_z
 _atom_site_occupancy
  Dy  Dy0  1  0.884153  0.833188  0.751960  1
  Dy  Dy1  1  0.855583  0.528657  0.391489  1
  Dy  Dy2  1  0.362441  0.972057  0.609204  1
  Dy  Dy3  1  0.148619  0.469644  0.893477  1
  Dy  Dy4  1  0.637325  0.028898  0.108681  1
  Dy  Dy5  1  0.112441  0.169998  0.249551  1
  Dy  Dy6  1  0.144246  0.472164  0.607920  1
  Dy  Dy7  1  0.636835  0.027795  0.390790  1
  Dy  Dy8  1  0.377743  0.664872  0.248594  1
  Dy  Dy9  1  0.357383  0.968974  0.892358  1
  Dy  Dy10  1  0.624699  0.333341  0.749800  1
  Dy  Dy11  1  0.858863  0.527998  0.107146  1
  Si  Si12  1  0.649848  0.621944  0.898662  1
  Si  Si13  1  0.874617  0.119594  0.601313  1
  Si  Si14  1  0.126005  0.877980  0.097993  1
  Si  Si15  1  0.125548  0.880604  0.399900  1
  Si  Si16  1  0.645673  0.629996  0.600209  1
  Si  Si17  1  0.861902  0.125507  0.902372  1
  Si  Si18  1  0.359246  0.367363  0.095662  1
  Si  Si19  1  0.355174  0.371562  0.399822  1
  Ni  Ni20  1  0.603744  0.333701  0.964912  1
  Ni  Ni21  1  0.091205  0.165864  0.464918  1
  Ni  Ni22  1  0.086912  0.163847  0.035019  1
  Ni  Ni23  1  0.893387  0.837621  0.965728  1
  Ni  Ni24  1  0.906774  0.836374  0.534915  1
  Rh  Rh25  1  0.410106  0.681597  0.751470  1
  Rh  Rh26  1  0.589486  0.316006  0.249005  1
  Rh  Rh27  1  0.908544  0.818264  0.248783  1
  Rh  Rh28  1  0.599959  0.328079  0.536449  1
  Rh  Rh29  1  0.402679  0.673017  0.463780  1
  Rh  Rh30  1  0.096375  0.182195  0.752097  1
  Rh  Rh31  1  0.412487  0.671299  0.036021  1
