# generated using pymatgen
data_La3Pr(Ho3Pb4)2
_symmetry_space_group_name_H-M   'P 1'
_cell_length_a   8.28166800
_cell_length_b   8.39661927
_cell_length_c   15.81592100
_cell_angle_alpha   90.01439795
_cell_angle_beta   90.00000000
_cell_angle_gamma   90.00000000
_symmetry_Int_Tables_number   1
_chemical_formula_structural   La3Pr(Ho3Pb4)2
_chemical_formula_sum   'La6 Pr2 Ho12 Pb16'
_cell_volume   1099.80768658
_cell_formula_units_Z   2
loop_
 _symmetry_equiv_pos_site_id
 _symmetry_equiv_pos_as_xyz
  1  'x, y, z'
loop_
 _atom_site_type_symbol
 _atom_site_label
 _atom_site_symmetry_multiplicity
 _atom_site_fract_x
 _atom_site_fract_y
 _atom_site_fract_z
 _atom_site_occupancy
  La  La0  1  0.477168  0.678090  0.596985  1
  La  La1  1  0.977168  0.821910  0.903015  1
  La  La2  1  0.522960  0.322242  0.096734  1
  La  La3  1  0.022960  0.177758  0.403266  1
  La  La4  1  0.522965  0.322157  0.403172  1
  La  La5  1  0.022965  0.177843  0.096828  1
  Pr  Pr6  1  0.476622  0.678374  0.902280  1
  Pr  Pr7  1  0.976622  0.821626  0.597720  1
  Ho  Ho8  1  0.635816  0.158117  0.622984  1
  Ho  Ho9  1  0.135816  0.341883  0.877016  1
  Ho  Ho10  1  0.364854  0.841351  0.122451  1
  Ho  Ho11  1  0.864854  0.658649  0.377549  1
  Ho  Ho12  1  0.364681  0.841509  0.377486  1
  Ho  Ho13  1  0.864681  0.658491  0.122514  1
  Ho  Ho14  1  0.634806  0.158626  0.877224  1
  Ho  Ho15  1  0.134806  0.341374  0.622776  1
  Ho  Ho16  1  0.801353  0.495003  0.750049  1
  Ho  Ho17  1  0.301353  0.004997  0.749951  1
  Ho  Ho18  1  0.198641  0.505461  0.249901  1
  Ho  Ho19  1  0.698641  0.994539  0.250099  1
  Pb  Pb20  1  0.704145  0.958189  0.456799  1
  Pb  Pb21  1  0.204145  0.541811  0.043201  1
  Pb  Pb22  1  0.297335  0.040930  0.956213  1
  Pb  Pb23  1  0.797335  0.459070  0.543787  1
  Pb  Pb24  1  0.296152  0.040685  0.544140  1
  Pb  Pb25  1  0.796152  0.459315  0.955860  1
  Pb  Pb26  1  0.702688  0.958163  0.043566  1
  Pb  Pb27  1  0.202688  0.541837  0.456434  1
  Pb  Pb28  1  0.439144  0.370526  0.750097  1
  Pb  Pb29  1  0.939144  0.129474  0.749903  1
  Pb  Pb30  1  0.560555  0.629904  0.250053  1
  Pb  Pb31  1  0.060555  0.870096  0.249947  1
  Pb  Pb32  1  0.665804  0.851207  0.750356  1
  Pb  Pb33  1  0.165804  0.648793  0.749644  1
  Pb  Pb34  1  0.334311  0.148208  0.250026  1
  Pb  Pb35  1  0.834311  0.351792  0.249974  1
