# generated using pymatgen
data_Tm8ReOs3C8
_symmetry_space_group_name_H-M   'P 1'
_cell_length_a   5.02989800
_cell_length_b   6.44548683
_cell_length_c   9.68070073
_cell_angle_alpha   89.91379090
_cell_angle_beta   90.00000000
_cell_angle_gamma   90.00000000
_symmetry_Int_Tables_number   1
_chemical_formula_structural   Tm8ReOs3C8
_chemical_formula_sum   'Tm8 Re1 Os3 C8'
_cell_volume   313.84933045
_cell_formula_units_Z   1
loop_
 _symmetry_equiv_pos_site_id
 _symmetry_equiv_pos_as_xyz
  1  'x, y, z'
loop_
 _atom_site_type_symbol
 _atom_site_label
 _atom_site_symmetry_multiplicity
 _atom_site_fract_x
 _atom_site_fract_y
 _atom_site_fract_z
 _atom_site_occupancy
  Tm  Tm0  1  0.250000  0.823416  0.944889  1
  Tm  Tm1  1  0.250000  0.324140  0.555031  1
  Tm  Tm2  1  0.750000  0.177716  0.055354  1
  Tm  Tm3  1  0.750000  0.680105  0.444119  1
  Tm  Tm4  1  0.250000  0.470280  0.217226  1
  Tm  Tm5  1  0.250000  0.968686  0.281420  1
  Tm  Tm6  1  0.750000  0.530141  0.785351  1
  Tm  Tm7  1  0.750000  0.029918  0.714983  1
  Re  Re8  1  0.750000  0.220624  0.368225  1
  Os  Os9  1  0.250000  0.279661  0.866263  1
  Os  Os10  1  0.250000  0.779997  0.633687  1
  Os  Os11  1  0.750000  0.721273  0.131439  1
  C  C12  1  0.250000  0.044932  0.741380  1
  C  C13  1  0.250000  0.544927  0.758485  1
  C  C14  1  0.750000  0.954039  0.260159  1
  C  C15  1  0.750000  0.455064  0.241239  1
  C  C16  1  0.250000  0.672199  0.444815  1
  C  C17  1  0.250000  0.171073  0.055307  1
  C  C18  1  0.750000  0.325449  0.556850  1
  C  C19  1  0.750000  0.826359  0.943775  1
