# generated using pymatgen
data_Y2Tm2Ni13C4
_symmetry_space_group_name_H-M   'P 1'
_cell_length_a   3.85733500
_cell_length_b   8.36818254
_cell_length_c   8.36818212
_cell_angle_alpha   91.09479834
_cell_angle_beta   90.00000000
_cell_angle_gamma   90.00000000
_symmetry_Int_Tables_number   1
_chemical_formula_structural   Y2Tm2Ni13C4
_chemical_formula_sum   'Y2 Tm2 Ni13 C4'
_cell_volume   270.06626564
_cell_formula_units_Z   1
loop_
 _symmetry_equiv_pos_site_id
 _symmetry_equiv_pos_as_xyz
  1  'x, y, z'
loop_
 _atom_site_type_symbol
 _atom_site_label
 _atom_site_symmetry_multiplicity
 _atom_site_fract_x
 _atom_site_fract_y
 _atom_site_fract_z
 _atom_site_occupancy
  Y  Y0  1  0.500000  0.651713  0.651713  1
  Y  Y1  1  0.500000  0.348287  0.348287  1
  Tm  Tm2  1  0.500000  0.187216  0.812784  1
  Tm  Tm3  1  0.500000  0.812784  0.187216  1
  Ni  Ni4  1  0.500000  0.000000  0.500000  1
  Ni  Ni5  1  0.500000  0.500000  0.000000  1
  Ni  Ni6  1  0.000000  0.000000  0.000000  1
  Ni  Ni7  1  0.000000  0.785102  0.429252  1
  Ni  Ni8  1  0.000000  0.214898  0.570748  1
  Ni  Ni9  1  0.000000  0.570748  0.214898  1
  Ni  Ni10  1  0.000000  0.429252  0.785102  1
  Ni  Ni11  1  0.000000  0.927249  0.709649  1
  Ni  Ni12  1  0.000000  0.072751  0.290351  1
  Ni  Ni13  1  0.000000  0.290351  0.072751  1
  Ni  Ni14  1  0.000000  0.709649  0.927249  1
  Ni  Ni15  1  0.500000  0.878273  0.878273  1
  Ni  Ni16  1  0.500000  0.121727  0.121727  1
  C  C17  1  0.000000  0.557030  0.442970  1
  C  C18  1  0.000000  0.442970  0.557030  1
  C  C19  1  0.000000  0.000000  0.500000  1
  C  C20  1  0.000000  0.500000  0.000000  1
