# generated using pymatgen
data_TmLu3(Ga3Pt)2
_symmetry_space_group_name_H-M   'P 1'
_cell_length_a   8.79807102
_cell_length_b   8.79807124
_cell_length_c   6.91247800
_cell_angle_alpha   90.00000000
_cell_angle_beta   90.00000000
_cell_angle_gamma   120.00812963
_symmetry_Int_Tables_number   1
_chemical_formula_structural   TmLu3(Ga3Pt)2
_chemical_formula_sum   'Tm2 Lu6 Ga12 Pt4'
_cell_volume   463.34421835
_cell_formula_units_Z   2
loop_
 _symmetry_equiv_pos_site_id
 _symmetry_equiv_pos_as_xyz
  1  'x, y, z'
loop_
 _atom_site_type_symbol
 _atom_site_label
 _atom_site_symmetry_multiplicity
 _atom_site_fract_x
 _atom_site_fract_y
 _atom_site_fract_z
 _atom_site_occupancy
  Tm  Tm0  1  0.000153  0.999847  0.250000  1
  Tm  Tm1  1  0.999847  0.000153  0.750000  1
  Lu  Lu2  1  0.520644  0.041371  0.250000  1
  Lu  Lu3  1  0.520484  0.479516  0.250000  1
  Lu  Lu4  1  0.958629  0.479356  0.250000  1
  Lu  Lu5  1  0.479356  0.958629  0.750000  1
  Lu  Lu6  1  0.479516  0.520484  0.750000  1
  Lu  Lu7  1  0.041371  0.520644  0.750000  1
  Ga  Ga8  1  0.166462  0.333091  0.047477  1
  Ga  Ga9  1  0.166722  0.833278  0.452529  1
  Ga  Ga10  1  0.666909  0.833538  0.452523  1
  Ga  Ga11  1  0.666909  0.833538  0.047477  1
  Ga  Ga12  1  0.166722  0.833278  0.047471  1
  Ga  Ga13  1  0.833538  0.666909  0.952523  1
  Ga  Ga14  1  0.833278  0.166722  0.952529  1
  Ga  Ga15  1  0.333091  0.166462  0.952523  1
  Ga  Ga16  1  0.166462  0.333091  0.452523  1
  Ga  Ga17  1  0.333091  0.166462  0.547477  1
  Ga  Ga18  1  0.833538  0.666909  0.547477  1
  Ga  Ga19  1  0.833278  0.166722  0.547471  1
  Pt  Pt20  1  0.333386  0.666614  0.027949  1
  Pt  Pt21  1  0.333386  0.666614  0.472051  1
  Pt  Pt22  1  0.666614  0.333386  0.972051  1
  Pt  Pt23  1  0.666614  0.333386  0.527949  1
