# generated using pymatgen
data_Ca3(AcSn2)2
_symmetry_space_group_name_H-M   'P 1'
_cell_length_a   8.21377700
_cell_length_b   8.73538100
_cell_length_c   16.56589100
_cell_angle_alpha   90.00000000
_cell_angle_beta   90.00000000
_cell_angle_gamma   90.00000000
_symmetry_Int_Tables_number   1
_chemical_formula_structural   Ca3(AcSn2)2
_chemical_formula_sum   'Ca12 Ac8 Sn16'
_cell_volume   1188.61049080
_cell_formula_units_Z   4
loop_
 _symmetry_equiv_pos_site_id
 _symmetry_equiv_pos_as_xyz
  1  'x, y, z'
loop_
 _atom_site_type_symbol
 _atom_site_label
 _atom_site_symmetry_multiplicity
 _atom_site_fract_x
 _atom_site_fract_y
 _atom_site_fract_z
 _atom_site_occupancy
  Ca  Ca0  1  0.329732  0.826484  0.876342  1
  Ca  Ca1  1  0.829732  0.673516  0.623658  1
  Ca  Ca2  1  0.670268  0.173516  0.376342  1
  Ca  Ca3  1  0.170268  0.326484  0.123658  1
  Ca  Ca4  1  0.670268  0.173516  0.123658  1
  Ca  Ca5  1  0.170268  0.326484  0.376342  1
  Ca  Ca6  1  0.329732  0.826484  0.623658  1
  Ca  Ca7  1  0.829732  0.673516  0.876342  1
  Ca  Ca8  1  0.159444  0.502278  0.750000  1
  Ca  Ca9  1  0.659444  0.997722  0.750000  1
  Ca  Ca10  1  0.840556  0.497722  0.250000  1
  Ca  Ca11  1  0.340556  0.002278  0.250000  1
  Ac  Ac12  1  0.492011  0.317142  0.904034  1
  Ac  Ac13  1  0.992011  0.182858  0.595966  1
  Ac  Ac14  1  0.507989  0.682858  0.404034  1
  Ac  Ac15  1  0.007989  0.817142  0.095966  1
  Ac  Ac16  1  0.507989  0.682858  0.095966  1
  Ac  Ac17  1  0.007989  0.817142  0.404034  1
  Ac  Ac18  1  0.492011  0.317142  0.595966  1
  Ac  Ac19  1  0.992011  0.182858  0.904034  1
  Sn  Sn20  1  0.337368  0.035017  0.039502  1
  Sn  Sn21  1  0.837368  0.464983  0.460498  1
  Sn  Sn22  1  0.662632  0.964983  0.539502  1
  Sn  Sn23  1  0.162632  0.535017  0.960498  1
  Sn  Sn24  1  0.662632  0.964983  0.960498  1
  Sn  Sn25  1  0.162632  0.535017  0.539502  1
  Sn  Sn26  1  0.337368  0.035017  0.460498  1
  Sn  Sn27  1  0.837368  0.464983  0.039502  1
  Sn  Sn28  1  0.531427  0.606904  0.750000  1
  Sn  Sn29  1  0.031427  0.893096  0.750000  1
  Sn  Sn30  1  0.468573  0.393096  0.250000  1
  Sn  Sn31  1  0.968573  0.106904  0.250000  1
  Sn  Sn32  1  0.284932  0.133923  0.750000  1
  Sn  Sn33  1  0.784932  0.366077  0.750000  1
  Sn  Sn34  1  0.715068  0.866077  0.250000  1
  Sn  Sn35  1  0.215068  0.633923  0.250000  1
