# generated using pymatgen
data_Y8Ho12(Bi3Sb)3
_symmetry_space_group_name_H-M   'P 1'
_cell_length_a   8.18890428
_cell_length_b   9.45547900
_cell_length_c   12.02512841
_cell_angle_alpha   90.00000000
_cell_angle_beta   90.03001139
_cell_angle_gamma   90.00000000
_symmetry_Int_Tables_number   1
_chemical_formula_structural   Y8Ho12(Bi3Sb)3
_chemical_formula_sum   'Y8 Ho12 Bi9 Sb3'
_cell_volume   931.10571508
_cell_formula_units_Z   1
loop_
 _symmetry_equiv_pos_site_id
 _symmetry_equiv_pos_as_xyz
  1  'x, y, z'
loop_
 _atom_site_type_symbol
 _atom_site_label
 _atom_site_symmetry_multiplicity
 _atom_site_fract_x
 _atom_site_fract_y
 _atom_site_fract_z
 _atom_site_occupancy
  Y  Y0  1  0.183933  0.750000  0.718333  1
  Y  Y1  1  0.683765  0.750000  0.781569  1
  Y  Y2  1  0.812560  0.250000  0.279264  1
  Y  Y3  1  0.317361  0.250000  0.217138  1
  Y  Y4  1  0.353995  0.750000  0.212991  1
  Y  Y5  1  0.854004  0.750000  0.286931  1
  Y  Y6  1  0.646149  0.250000  0.786996  1
  Y  Y7  1  0.146745  0.250000  0.715793  1
  Ho  Ho8  1  0.028632  0.750000  0.988633  1
  Ho  Ho9  1  0.528989  0.750000  0.511542  1
  Ho  Ho10  1  0.971484  0.250000  0.011302  1
  Ho  Ho11  1  0.474714  0.250000  0.488832  1
  Ho  Ho12  1  0.310087  0.437811  0.941623  1
  Ho  Ho13  1  0.807553  0.060164  0.559581  1
  Ho  Ho14  1  0.689956  0.937644  0.058460  1
  Ho  Ho15  1  0.191076  0.565705  0.441426  1
  Ho  Ho16  1  0.689956  0.562356  0.058460  1
  Ho  Ho17  1  0.191076  0.934295  0.441426  1
  Ho  Ho18  1  0.310087  0.062189  0.941623  1
  Ho  Ho19  1  0.807553  0.439836  0.559581  1
  Bi  Bi20  1  0.433419  0.003909  0.673340  1
  Bi  Bi21  1  0.933476  0.496300  0.826821  1
  Bi  Bi22  1  0.566320  0.503996  0.326709  1
  Bi  Bi23  1  0.066473  0.996250  0.173261  1
  Bi  Bi24  1  0.566320  0.996004  0.326709  1
  Bi  Bi25  1  0.066473  0.503750  0.173261  1
  Bi  Bi26  1  0.433419  0.496091  0.673340  1
  Bi  Bi27  1  0.933476  0.003700  0.826821  1
  Bi  Bi28  1  0.091297  0.250000  0.457615  1
  Sb  Sb29  1  0.409069  0.750000  0.959013  1
  Sb  Sb30  1  0.909321  0.750000  0.540846  1
  Sb  Sb31  1  0.591259  0.250000  0.040759  1
