# generated using pymatgen
data_Ta2TiP6WO24
_symmetry_space_group_name_H-M   'P 1'
_cell_length_a   8.71762435
_cell_length_b   8.71497259
_cell_length_c   9.03355900
_cell_angle_alpha   90.10448711
_cell_angle_beta   118.69467225
_cell_angle_gamma   119.99698413
_symmetry_Int_Tables_number   1
_chemical_formula_structural   Ta2TiP6WO24
_chemical_formula_sum   'Ta2 Ti1 P6 W1 O24'
_cell_volume   494.25613598
_cell_formula_units_Z   1
loop_
 _symmetry_equiv_pos_site_id
 _symmetry_equiv_pos_as_xyz
  1  'x, y, z'
loop_
 _atom_site_type_symbol
 _atom_site_label
 _atom_site_symmetry_multiplicity
 _atom_site_fract_x
 _atom_site_fract_y
 _atom_site_fract_z
 _atom_site_occupancy
  Ta  Ta0  1  0.213820  0.357765  0.570290  1
  Ta  Ta1  1  0.785504  0.141166  0.928189  1
  Ti  Ti2  1  0.215391  0.859360  0.075360  1
  P  P3  1  0.002519  0.965440  0.247419  1
  P  P4  1  0.281984  0.537841  0.249508  1
  P  P5  1  0.280357  0.750860  0.750773  1
  P  P6  1  0.710464  0.242737  0.251067  1
  P  P7  1  0.722557  0.471498  0.752996  1
  P  P8  1  0.005189  0.033016  0.755046  1
  W  W9  1  0.786411  0.640240  0.430831  1
  O  O10  1  0.285217  0.711510  0.218097  1
  O  O11  1  0.870431  0.998830  0.077623  1
  O  O12  1  0.851728  0.860105  0.591281  1
  O  O13  1  0.847200  0.801212  0.272125  1
  O  O14  1  0.149272  0.933976  0.224843  1
  O  O15  1  0.476620  0.553718  0.275952  1
  O  O16  1  0.100923  0.738202  0.579467  1
  O  O17  1  0.912608  0.643505  0.915829  1
  O  O18  1  0.273660  0.777017  0.913573  1
  O  O19  1  0.492414  0.916443  0.781468  1
  O  O20  1  0.728804  0.475431  0.587471  1
  O  O21  1  0.716010  0.420291  0.267505  1
  O  O22  1  0.273979  0.571485  0.718933  1
  O  O23  1  0.269479  0.508919  0.414210  1
  O  O24  1  0.508436  0.072533  0.224326  1
  O  O25  1  0.718573  0.207770  0.087809  1
  O  O26  1  0.082287  0.364771  0.085574  1
  O  O27  1  0.908368  0.268609  0.418321  1
  O  O28  1  0.513873  0.444760  0.713196  1
  O  O29  1  0.867515  0.080147  0.780454  1
  O  O30  1  0.149216  0.202503  0.717061  1
  O  O31  1  0.144981  0.145867  0.408412  1
  O  O32  1  0.147183  0.010303  0.923333  1
  O  O33  1  0.707023  0.292170  0.791660  1
