# generated using pymatgen
data_Hf5Pa3(InNi2)4
_symmetry_space_group_name_H-M   'P 1'
_cell_length_a   7.19988611
_cell_length_b   7.19988611
_cell_length_c   6.87176800
_cell_angle_alpha   90.00000000
_cell_angle_beta   90.00000000
_cell_angle_gamma   91.42553057
_symmetry_Int_Tables_number   1
_chemical_formula_structural   Hf5Pa3(InNi2)4
_chemical_formula_sum   'Hf5 Pa3 In4 Ni8'
_cell_volume   356.11093388
_cell_formula_units_Z   1
loop_
 _symmetry_equiv_pos_site_id
 _symmetry_equiv_pos_as_xyz
  1  'x, y, z'
loop_
 _atom_site_type_symbol
 _atom_site_label
 _atom_site_symmetry_multiplicity
 _atom_site_fract_x
 _atom_site_fract_y
 _atom_site_fract_z
 _atom_site_occupancy
  Hf  Hf0  1  0.178284  0.821716  0.500000  1
  Hf  Hf1  1  0.318100  0.319577  0.000000  1
  Hf  Hf2  1  0.823373  0.176627  0.500000  1
  Hf  Hf3  1  0.680423  0.681900  0.000000  1
  Hf  Hf4  1  0.843749  0.156251  0.000000  1
  Pa  Pa5  1  0.648395  0.645732  0.500000  1
  Pa  Pa6  1  0.149836  0.850164  0.000000  1
  Pa  Pa7  1  0.354268  0.351605  0.500000  1
  In  In8  1  0.506063  0.002402  0.753645  1
  In  In9  1  0.997598  0.493937  0.246355  1
  In  In10  1  0.997598  0.493937  0.753645  1
  In  In11  1  0.506063  0.002402  0.246355  1
  Ni  Ni12  1  0.131009  0.128103  0.285220  1
  Ni  Ni13  1  0.871897  0.868991  0.714780  1
  Ni  Ni14  1  0.871897  0.868991  0.285220  1
  Ni  Ni15  1  0.131009  0.128103  0.714780  1
  Ni  Ni16  1  0.366956  0.633044  0.208951  1
  Ni  Ni17  1  0.628264  0.371736  0.792387  1
  Ni  Ni18  1  0.366956  0.633044  0.791049  1
  Ni  Ni19  1  0.628264  0.371736  0.207613  1
