# generated using pymatgen
data_TbDy6YPt4
_symmetry_space_group_name_H-M   'P 1'
_cell_length_a   4.76689100
_cell_length_b   7.17841819
_cell_length_c   8.83366847
_cell_angle_alpha   89.93394179
_cell_angle_beta   90.00000000
_cell_angle_gamma   90.00000000
_symmetry_Int_Tables_number   1
_chemical_formula_structural   TbDy6YPt4
_chemical_formula_sum   'Tb1 Dy6 Y1 Pt4'
_cell_volume   302.27677782
_cell_formula_units_Z   1
loop_
 _symmetry_equiv_pos_site_id
 _symmetry_equiv_pos_as_xyz
  1  'x, y, z'
loop_
 _atom_site_type_symbol
 _atom_site_label
 _atom_site_symmetry_multiplicity
 _atom_site_fract_x
 _atom_site_fract_y
 _atom_site_fract_z
 _atom_site_occupancy
  Tb  Tb0  1  0.750000  0.009675  0.668505  1
  Dy  Dy1  1  0.250000  0.855282  0.920162  1
  Dy  Dy2  1  0.250000  0.355137  0.580068  1
  Dy  Dy3  1  0.750000  0.144630  0.080572  1
  Dy  Dy4  1  0.750000  0.644740  0.419518  1
  Dy  Dy5  1  0.250000  0.990290  0.332086  1
  Dy  Dy6  1  0.250000  0.490249  0.167657  1
  Y  Y7  1  0.750000  0.509833  0.831331  1
  Pt  Pt8  1  0.250000  0.258302  0.907300  1
  Pt  Pt9  1  0.250000  0.758455  0.592686  1
  Pt  Pt10  1  0.750000  0.741912  0.093674  1
  Pt  Pt11  1  0.750000  0.241494  0.406441  1
