# generated using pymatgen
data_ErTm7Sc12Si15Ag
_symmetry_space_group_name_H-M   'P 1'
_cell_length_a   7.08737940
_cell_length_b   7.33175966
_cell_length_c   13.99717123
_cell_angle_alpha   89.88183680
_cell_angle_beta   89.52816966
_cell_angle_gamma   90.15553655
_symmetry_Int_Tables_number   1
_chemical_formula_structural   ErTm7Sc12Si15Ag
_chemical_formula_sum   'Er1 Tm7 Sc12 Si15 Ag1'
_cell_volume   727.30556029
_cell_formula_units_Z   1
loop_
 _symmetry_equiv_pos_site_id
 _symmetry_equiv_pos_as_xyz
  1  'x, y, z'
loop_
 _atom_site_type_symbol
 _atom_site_label
 _atom_site_symmetry_multiplicity
 _atom_site_fract_x
 _atom_site_fract_y
 _atom_site_fract_z
 _atom_site_occupancy
  Er  Er0  1  0.012132  0.175803  0.097447  1
  Tm  Tm1  1  0.987911  0.825290  0.904152  1
  Tm  Tm2  1  0.487332  0.677814  0.903995  1
  Tm  Tm3  1  0.989428  0.830322  0.597550  1
  Tm  Tm4  1  0.511957  0.322736  0.096417  1
  Tm  Tm5  1  0.008265  0.172019  0.398855  1
  Tm  Tm6  1  0.511065  0.321914  0.400453  1
  Tm  Tm7  1  0.494409  0.679002  0.599651  1
  Sc  Sc8  1  0.163742  0.502702  0.753069  1
  Sc  Sc9  1  0.837186  0.497849  0.251004  1
  Sc  Sc10  1  0.337068  0.000848  0.248951  1
  Sc  Sc11  1  0.665542  0.995330  0.751201  1
  Sc  Sc12  1  0.342310  0.173427  0.626849  1
  Sc  Sc13  1  0.663894  0.823342  0.373576  1
  Sc  Sc14  1  0.166562  0.675165  0.371752  1
  Sc  Sc15  1  0.669420  0.824361  0.124801  1
  Sc  Sc16  1  0.827034  0.325573  0.625400  1
  Sc  Sc17  1  0.328896  0.175207  0.876245  1
  Sc  Sc18  1  0.830830  0.322820  0.875982  1
  Sc  Sc19  1  0.168976  0.676258  0.125209  1
  Si  Si20  1  0.036305  0.119095  0.750076  1
  Si  Si21  1  0.965023  0.885248  0.248511  1
  Si  Si22  1  0.466692  0.612723  0.248038  1
  Si  Si23  1  0.534309  0.388049  0.752389  1
  Si  Si24  1  0.285721  0.871892  0.751061  1
  Si  Si25  1  0.712279  0.129536  0.248429  1
  Si  Si26  1  0.214270  0.368428  0.248339  1
  Si  Si27  1  0.788562  0.629973  0.752647  1
  Si  Si28  1  0.832932  0.536914  0.459444  1
  Si  Si29  1  0.335050  0.962160  0.460979  1
  Si  Si30  1  0.842241  0.534879  0.039162  1
  Si  Si31  1  0.661810  0.035748  0.537667  1
  Si  Si32  1  0.156897  0.465069  0.961988  1
  Si  Si33  1  0.658617  0.034500  0.960751  1
  Si  Si34  1  0.341582  0.964975  0.039934  1
  Ag  Ag35  1  0.163751  0.463024  0.538026  1
