# generated using pymatgen
data_KGaPt3O8
_symmetry_space_group_name_H-M   'P 1'
_cell_length_a   6.33354721
_cell_length_b   7.32279607
_cell_length_c   7.44155500
_cell_angle_alpha   87.39005216
_cell_angle_beta   77.56365460
_cell_angle_gamma   77.01336035
_symmetry_Int_Tables_number   1
_chemical_formula_structural   KGaPt3O8
_chemical_formula_sum   'K2 Ga2 Pt6 O16'
_cell_volume   328.41363988
_cell_formula_units_Z   2
loop_
 _symmetry_equiv_pos_site_id
 _symmetry_equiv_pos_as_xyz
  1  'x, y, z'
loop_
 _atom_site_type_symbol
 _atom_site_label
 _atom_site_symmetry_multiplicity
 _atom_site_fract_x
 _atom_site_fract_y
 _atom_site_fract_z
 _atom_site_occupancy
  K  K0  1  0.748880  0.986553  0.021530  1
  K  K1  1  0.262273  0.990117  0.964372  1
  Ga  Ga2  1  0.431449  0.802584  0.514180  1
  Ga  Ga3  1  0.828036  0.517561  0.196084  1
  Pt  Pt4  1  0.921839  0.816448  0.519433  1
  Pt  Pt5  1  0.179319  0.483579  0.820621  1
  Pt  Pt6  1  0.682317  0.481455  0.819861  1
  Pt  Pt7  1  0.329920  0.518427  0.182042  1
  Pt  Pt8  1  0.092384  0.181997  0.479811  1
  Pt  Pt9  1  0.588219  0.183395  0.480730  1
  O  O10  1  0.101700  0.951967  0.647411  1
  O  O11  1  0.611012  0.955253  0.650348  1
  O  O12  1  0.913225  0.635623  0.731201  1
  O  O13  1  0.420196  0.627287  0.717146  1
  O  O14  1  0.931530  0.354351  0.950610  1
  O  O15  1  0.433450  0.348026  0.949164  1
  O  O16  1  0.238573  0.703321  0.389261  1
  O  O17  1  0.730522  0.714791  0.376342  1
  O  O18  1  0.278243  0.275836  0.629508  1
  O  O19  1  0.778357  0.325819  0.584874  1
  O  O20  1  0.082225  0.649523  0.048802  1
  O  O21  1  0.580312  0.646183  0.050524  1
  O  O22  1  0.088380  0.379320  0.282153  1
  O  O23  1  0.592999  0.379226  0.282282  1
  O  O24  1  0.908115  0.048026  0.349662  1
  O  O25  1  0.406125  0.043329  0.362052  1
