# generated using pymatgen
data_Tb6Ho10Cd4Ir3Pt
_symmetry_space_group_name_H-M   'P 1'
_cell_length_a   9.61271672
_cell_length_b   9.61271744
_cell_length_c   9.61271700
_cell_angle_alpha   60.14326657
_cell_angle_beta   60.14326096
_cell_angle_gamma   60.14326707
_symmetry_Int_Tables_number   1
_chemical_formula_structural   Tb6Ho10Cd4Ir3Pt
_chemical_formula_sum   'Tb6 Ho10 Cd4 Ir3 Pt1'
_cell_volume   630.13061719
_cell_formula_units_Z   1
loop_
 _symmetry_equiv_pos_site_id
 _symmetry_equiv_pos_as_xyz
  1  'x, y, z'
loop_
 _atom_site_type_symbol
 _atom_site_label
 _atom_site_symmetry_multiplicity
 _atom_site_fract_x
 _atom_site_fract_y
 _atom_site_fract_z
 _atom_site_occupancy
  Tb  Tb0  1  0.188669  0.812421  0.812421  1
  Tb  Tb1  1  0.813166  0.187976  0.187976  1
  Tb  Tb2  1  0.812421  0.188669  0.812421  1
  Tb  Tb3  1  0.187976  0.813166  0.187976  1
  Tb  Tb4  1  0.812421  0.812421  0.188669  1
  Tb  Tb5  1  0.187976  0.187976  0.813166  1
  Ho  Ho6  1  0.597826  0.597826  0.597826  1
  Ho  Ho7  1  0.602010  0.602010  0.200044  1
  Ho  Ho8  1  0.602010  0.200044  0.602010  1
  Ho  Ho9  1  0.200044  0.602010  0.602010  1
  Ho  Ho10  1  0.056537  0.440077  0.440077  1
  Ho  Ho11  1  0.437311  0.060862  0.060862  1
  Ho  Ho12  1  0.440077  0.056537  0.440077  1
  Ho  Ho13  1  0.060862  0.437311  0.060862  1
  Ho  Ho14  1  0.440077  0.440077  0.056537  1
  Ho  Ho15  1  0.060862  0.060862  0.437311  1
  Cd  Cd16  1  0.830729  0.830729  0.830729  1
  Cd  Cd17  1  0.830749  0.830749  0.507086  1
  Cd  Cd18  1  0.830749  0.507086  0.830749  1
  Cd  Cd19  1  0.507086  0.830749  0.830749  1
  Ir  Ir20  1  0.391566  0.391566  0.824683  1
  Ir  Ir21  1  0.391566  0.824683  0.391566  1
  Ir  Ir22  1  0.824683  0.391566  0.391566  1
  Pt  Pt23  1  0.392627  0.392627  0.392627  1
