# generated using pymatgen
data_Er2Sc2ReB12Ru
_symmetry_space_group_name_H-M   'P 1'
_cell_length_a   3.56441600
_cell_length_b   8.96343679
_cell_length_c   11.34471218
_cell_angle_alpha   90.10025709
_cell_angle_beta   90.00000000
_cell_angle_gamma   90.00000000
_symmetry_Int_Tables_number   1
_chemical_formula_structural   Er2Sc2ReB12Ru
_chemical_formula_sum   'Er4 Sc4 Re2 B24 Ru2'
_cell_volume   362.45639110
_cell_formula_units_Z   2
loop_
 _symmetry_equiv_pos_site_id
 _symmetry_equiv_pos_as_xyz
  1  'x, y, z'
loop_
 _atom_site_type_symbol
 _atom_site_label
 _atom_site_symmetry_multiplicity
 _atom_site_fract_x
 _atom_site_fract_y
 _atom_site_fract_z
 _atom_site_occupancy
  Er  Er0  1  0.000000  0.319157  0.413269  1
  Er  Er1  1  0.000000  0.680843  0.586731  1
  Er  Er2  1  0.000000  0.822233  0.085194  1
  Er  Er3  1  0.000000  0.177767  0.914806  1
  Sc  Sc4  1  0.000000  0.944641  0.371732  1
  Sc  Sc5  1  0.000000  0.055359  0.628268  1
  Sc  Sc6  1  0.000000  0.443030  0.128327  1
  Sc  Sc7  1  0.000000  0.556970  0.871673  1
  Re  Re8  1  0.000000  0.139588  0.181685  1
  Re  Re9  1  0.000000  0.860412  0.818315  1
  B  B10  1  0.500000  0.554420  0.433121  1
  B  B11  1  0.500000  0.445580  0.566879  1
  B  B12  1  0.500000  0.053545  0.066864  1
  B  B13  1  0.500000  0.946455  0.933136  1
  B  B14  1  0.500000  0.752881  0.418692  1
  B  B15  1  0.500000  0.247119  0.581308  1
  B  B16  1  0.500000  0.253225  0.081122  1
  B  B17  1  0.500000  0.746775  0.918878  1
  B  B18  1  0.500000  0.792946  0.265229  1
  B  B19  1  0.500000  0.207054  0.734771  1
  B  B20  1  0.500000  0.294433  0.235679  1
  B  B21  1  0.500000  0.705567  0.764321  1
  B  B22  1  0.500000  0.628462  0.183349  1
  B  B23  1  0.500000  0.371538  0.816651  1
  B  B24  1  0.500000  0.128828  0.317475  1
  B  B25  1  0.500000  0.871172  0.682525  1
  B  B26  1  0.500000  0.980204  0.214204  1
  B  B27  1  0.500000  0.019796  0.785796  1
  B  B28  1  0.500000  0.481269  0.286584  1
  B  B29  1  0.500000  0.518731  0.713416  1
  B  B30  1  0.500000  0.597576  0.026744  1
  B  B31  1  0.500000  0.402424  0.973256  1
  B  B32  1  0.500000  0.098241  0.473510  1
  B  B33  1  0.500000  0.901759  0.526490  1
  Ru  Ru34  1  0.000000  0.639338  0.319199  1
  Ru  Ru35  1  0.000000  0.360662  0.680801  1
