# generated using pymatgen
data_LaCuAu(SO4)4
_symmetry_space_group_name_H-M   'P 1'
_cell_length_a   6.48542555
_cell_length_b   6.48542445
_cell_length_c   8.87411902
_cell_angle_alpha   74.72848789
_cell_angle_beta   74.72848716
_cell_angle_gamma   88.13766905
_symmetry_Int_Tables_number   1
_chemical_formula_structural   LaCuAu(SO4)4
_chemical_formula_sum   'La1 Cu1 Au1 S4 O16'
_cell_volume   347.08438459
_cell_formula_units_Z   1
loop_
 _symmetry_equiv_pos_site_id
 _symmetry_equiv_pos_as_xyz
  1  'x, y, z'
loop_
 _atom_site_type_symbol
 _atom_site_label
 _atom_site_symmetry_multiplicity
 _atom_site_fract_x
 _atom_site_fract_y
 _atom_site_fract_z
 _atom_site_occupancy
  La  La0  1  0.000000  0.000000  0.000000  1
  Cu  Cu1  1  0.500000  0.500000  0.500000  1
  Au  Au2  1  0.000000  0.000000  0.500000  1
  S  S3  1  0.091246  0.587855  0.737772  1
  S  S4  1  0.587855  0.091246  0.737772  1
  S  S5  1  0.908754  0.412145  0.262228  1
  S  S6  1  0.412145  0.908754  0.262228  1
  O  O7  1  0.326693  0.622095  0.668998  1
  O  O8  1  0.622095  0.326693  0.668998  1
  O  O9  1  0.673307  0.377905  0.331002  1
  O  O10  1  0.377905  0.673307  0.331002  1
  O  O11  1  0.021636  0.702673  0.863365  1
  O  O12  1  0.702673  0.021636  0.863365  1
  O  O13  1  0.978364  0.297327  0.136635  1
  O  O14  1  0.297327  0.978364  0.136635  1
  O  O15  1  0.979179  0.677536  0.601115  1
  O  O16  1  0.677536  0.979179  0.601115  1
  O  O17  1  0.020821  0.322464  0.398885  1
  O  O18  1  0.322464  0.020821  0.398885  1
  O  O19  1  0.026531  0.359924  0.793489  1
  O  O20  1  0.359924  0.026531  0.793489  1
  O  O21  1  0.973469  0.640076  0.206511  1
  O  O22  1  0.640076  0.973469  0.206511  1
