# generated using pymatgen
data_Eu4Ge3MoO14
_symmetry_space_group_name_H-M   'P 1'
_cell_length_a   7.23836701
_cell_length_b   7.23836666
_cell_length_c   7.28504352
_cell_angle_alpha   60.21172203
_cell_angle_beta   60.21172145
_cell_angle_gamma   60.00000677
_symmetry_Int_Tables_number   1
_chemical_formula_structural   Eu4Ge3MoO14
_chemical_formula_sum   'Eu4 Ge3 Mo1 O14'
_cell_volume   270.75767941
_cell_formula_units_Z   1
loop_
 _symmetry_equiv_pos_site_id
 _symmetry_equiv_pos_as_xyz
  1  'x, y, z'
loop_
 _atom_site_type_symbol
 _atom_site_label
 _atom_site_symmetry_multiplicity
 _atom_site_fract_x
 _atom_site_fract_y
 _atom_site_fract_z
 _atom_site_occupancy
  Eu  Eu0  1  0.625000  0.125000  0.125000  1
  Eu  Eu1  1  0.125000  0.625000  0.125000  1
  Eu  Eu2  1  0.125000  0.125000  0.625000  1
  Eu  Eu3  1  0.125000  0.125000  0.125000  1
  Ge  Ge4  1  0.125000  0.625000  0.625000  1
  Ge  Ge5  1  0.625000  0.125000  0.625000  1
  Ge  Ge6  1  0.625000  0.625000  0.625000  1
  Mo  Mo7  1  0.625000  0.625000  0.125000  1
  O  O8  1  0.249771  0.249771  0.250687  1
  O  O9  1  0.000229  0.000229  0.999313  1
  O  O10  1  0.700784  0.700784  0.303564  1
  O  O11  1  0.302966  0.302966  0.693546  1
  O  O12  1  0.700522  0.302966  0.693546  1
  O  O13  1  0.294868  0.700784  0.303564  1
  O  O14  1  0.302966  0.700522  0.693546  1
  O  O15  1  0.700784  0.294868  0.303564  1
  O  O16  1  0.549216  0.549216  0.946436  1
  O  O17  1  0.947034  0.947034  0.556454  1
  O  O18  1  0.549478  0.947034  0.556454  1
  O  O19  1  0.955132  0.549216  0.946436  1
  O  O20  1  0.947034  0.549478  0.556454  1
  O  O21  1  0.549216  0.955132  0.946436  1
