# generated using pymatgen
data_Lu20Tc3IrAu8
_symmetry_space_group_name_H-M   'P 1'
_cell_length_a   11.07091100
_cell_length_b   11.07091100
_cell_length_c   6.26464500
_cell_angle_alpha   90.00000000
_cell_angle_beta   90.00000000
_cell_angle_gamma   90.00000000
_symmetry_Int_Tables_number   1
_chemical_formula_structural   Lu20Tc3IrAu8
_chemical_formula_sum   'Lu20 Tc3 Ir1 Au8'
_cell_volume   767.82665527
_cell_formula_units_Z   1
loop_
 _symmetry_equiv_pos_site_id
 _symmetry_equiv_pos_as_xyz
  1  'x, y, z'
loop_
 _atom_site_type_symbol
 _atom_site_label
 _atom_site_symmetry_multiplicity
 _atom_site_fract_x
 _atom_site_fract_y
 _atom_site_fract_z
 _atom_site_occupancy
  Lu  Lu0  1  0.300745  0.082004  0.347615  1
  Lu  Lu1  1  0.300898  0.918381  0.848021  1
  Lu  Lu2  1  0.699102  0.081619  0.848021  1
  Lu  Lu3  1  0.699255  0.917996  0.347615  1
  Lu  Lu4  1  0.581619  0.800898  0.848021  1
  Lu  Lu5  1  0.582004  0.199255  0.347615  1
  Lu  Lu6  1  0.417996  0.800745  0.347615  1
  Lu  Lu7  1  0.418381  0.199102  0.848021  1
  Lu  Lu8  1  0.200501  0.417660  0.653790  1
  Lu  Lu9  1  0.199549  0.582531  0.149230  1
  Lu  Lu10  1  0.800451  0.417469  0.149230  1
  Lu  Lu11  1  0.799499  0.582340  0.653790  1
  Lu  Lu12  1  0.917469  0.699549  0.149230  1
  Lu  Lu13  1  0.917660  0.299499  0.653790  1
  Lu  Lu14  1  0.082340  0.700501  0.653790  1
  Lu  Lu15  1  0.082531  0.300451  0.149230  1
  Lu  Lu16  1  0.000000  0.000000  0.499190  1
  Lu  Lu17  1  0.000000  0.000000  0.998955  1
  Lu  Lu18  1  0.500000  0.500000  0.998955  1
  Lu  Lu19  1  0.500000  0.500000  0.499190  1
  Tc  Tc20  1  0.500000  0.000000  0.101644  1
  Tc  Tc21  1  0.500000  0.000000  0.601053  1
  Tc  Tc22  1  0.000000  0.500000  0.899431  1
  Ir  Ir23  1  0.000000  0.500000  0.402316  1
  Au  Au24  1  0.845489  0.156223  0.250656  1
  Au  Au25  1  0.844738  0.844045  0.750503  1
  Au  Au26  1  0.155262  0.155955  0.750503  1
  Au  Au27  1  0.154511  0.843777  0.250656  1
  Au  Au28  1  0.655955  0.344738  0.750503  1
  Au  Au29  1  0.656223  0.654511  0.250656  1
  Au  Au30  1  0.343777  0.345489  0.250656  1
  Au  Au31  1  0.344045  0.655262  0.750503  1
