# generated using pymatgen
data_LaAuCl6
_symmetry_space_group_name_H-M   'P 1'
_cell_length_a   7.71823305
_cell_length_b   10.24743167
_cell_length_c   14.66911171
_cell_angle_alpha   103.81262126
_cell_angle_beta   96.29742495
_cell_angle_gamma   111.67058921
_symmetry_Int_Tables_number   1
_chemical_formula_structural   LaAuCl6
_chemical_formula_sum   'La4 Au4 Cl24'
_cell_volume   1021.55631985
_cell_formula_units_Z   4
loop_
 _symmetry_equiv_pos_site_id
 _symmetry_equiv_pos_as_xyz
  1  'x, y, z'
loop_
 _atom_site_type_symbol
 _atom_site_label
 _atom_site_symmetry_multiplicity
 _atom_site_fract_x
 _atom_site_fract_y
 _atom_site_fract_z
 _atom_site_occupancy
  La  La0  1  0.581594  0.923292  0.621001  1
  La  La1  1  0.026362  0.687721  0.128700  1
  La  La2  1  0.418406  0.076708  0.378999  1
  La  La3  1  0.973638  0.312279  0.871300  1
  Au  Au4  1  0.294376  0.632190  0.765550  1
  Au  Au5  1  0.500000  0.500000  0.500000  1
  Au  Au6  1  0.705624  0.367810  0.234450  1
  Au  Au7  1  0.000000  0.000000  0.000000  1
  Cl  Cl8  1  0.774275  0.092748  0.968600  1
  Cl  Cl9  1  0.725655  0.157820  0.258464  1
  Cl  Cl10  1  0.274345  0.842180  0.741536  1
  Cl  Cl11  1  0.769327  0.800500  0.028598  1
  Cl  Cl12  1  0.612204  0.190102  0.742684  1
  Cl  Cl13  1  0.314701  0.418880  0.785228  1
  Cl  Cl14  1  0.685299  0.581120  0.214772  1
  Cl  Cl15  1  0.298402  0.621353  0.497879  1
  Cl  Cl16  1  0.230673  0.199500  0.971402  1
  Cl  Cl17  1  0.757743  0.721858  0.521150  1
  Cl  Cl18  1  0.225725  0.907252  0.031400  1
  Cl  Cl19  1  0.732306  0.051786  0.483255  1
  Cl  Cl20  1  0.608660  0.724689  0.748560  1
  Cl  Cl21  1  0.959105  0.058389  0.729138  1
  Cl  Cl22  1  0.242257  0.278142  0.478850  1
  Cl  Cl23  1  0.387796  0.809898  0.257316  1
  Cl  Cl24  1  0.977943  0.541978  0.779665  1
  Cl  Cl25  1  0.757261  0.436715  0.977507  1
  Cl  Cl26  1  0.242739  0.563285  0.022493  1
  Cl  Cl27  1  0.022057  0.458022  0.220335  1
  Cl  Cl28  1  0.391340  0.275311  0.251440  1
  Cl  Cl29  1  0.267694  0.948214  0.516745  1
  Cl  Cl30  1  0.701598  0.378647  0.502121  1
  Cl  Cl31  1  0.040895  0.941611  0.270862  1
