# generated using pymatgen
data_Dy3Y7Os4
_symmetry_space_group_name_H-M   'P 1'
_cell_length_a   6.41181307
_cell_length_b   7.37009279
_cell_length_c   8.48308324
_cell_angle_alpha   96.76740300
_cell_angle_beta   112.14739598
_cell_angle_gamma   89.92448124
_symmetry_Int_Tables_number   1
_chemical_formula_structural   Dy3Y7Os4
_chemical_formula_sum   'Dy3 Y7 Os4'
_cell_volume   368.30397061
_cell_formula_units_Z   1
loop_
 _symmetry_equiv_pos_site_id
 _symmetry_equiv_pos_as_xyz
  1  'x, y, z'
loop_
 _atom_site_type_symbol
 _atom_site_label
 _atom_site_symmetry_multiplicity
 _atom_site_fract_x
 _atom_site_fract_y
 _atom_site_fract_z
 _atom_site_occupancy
  Dy  Dy0  1  0.359808  0.681353  0.564545  1
  Dy  Dy1  1  0.422447  0.249334  0.999600  1
  Dy  Dy2  1  0.577236  0.750603  0.000279  1
  Y  Y3  1  0.795205  0.083610  0.816475  1
  Y  Y4  1  0.977447  0.416552  0.183540  1
  Y  Y5  1  0.205607  0.916792  0.184108  1
  Y  Y6  1  0.022498  0.583542  0.816964  1
  Y  Y7  1  0.204236  0.182048  0.565046  1
  Y  Y8  1  0.640445  0.318209  0.436048  1
  Y  Y9  1  0.796078  0.817891  0.434707  1
  Os  Os10  1  0.601390  0.423347  0.780172  1
  Os  Os11  1  0.820241  0.077816  0.217901  1
  Os  Os12  1  0.397316  0.577325  0.219613  1
  Os  Os13  1  0.180046  0.921578  0.781002  1
