# generated using pymatgen
data_Pr3Nd3Al24ZnOs7
_symmetry_space_group_name_H-M   'P 1'
_cell_length_a   8.95680656
_cell_length_b   8.95475226
_cell_length_c   9.66905662
_cell_angle_alpha   90.09363025
_cell_angle_beta   89.89686697
_cell_angle_gamma   119.89183474
_symmetry_Int_Tables_number   1
_chemical_formula_structural   Pr3Nd3Al24ZnOs7
_chemical_formula_sum   'Pr3 Nd3 Al24 Zn1 Os7'
_cell_volume   672.34622407
_cell_formula_units_Z   1
loop_
 _symmetry_equiv_pos_site_id
 _symmetry_equiv_pos_as_xyz
  1  'x, y, z'
loop_
 _atom_site_type_symbol
 _atom_site_label
 _atom_site_symmetry_multiplicity
 _atom_site_fract_x
 _atom_site_fract_y
 _atom_site_fract_z
 _atom_site_occupancy
  Pr  Pr0  1  0.190943  0.382665  0.246567  1
  Pr  Pr1  1  0.808944  0.617204  0.753436  1
  Pr  Pr2  1  0.617313  0.809081  0.246575  1
  Nd  Nd3  1  0.382760  0.190862  0.753360  1
  Nd  Nd4  1  0.192341  0.807634  0.254770  1
  Nd  Nd5  1  0.807538  0.192389  0.745211  1
  Al  Al6  1  0.328498  0.671522  0.013051  1
  Al  Al7  1  0.671326  0.328415  0.986726  1
  Al  Al8  1  0.666013  0.333725  0.511834  1
  Al  Al9  1  0.333810  0.666182  0.488369  1
  Al  Al10  1  0.162746  0.326040  0.571937  1
  Al  Al11  1  0.837380  0.673889  0.428146  1
  Al  Al12  1  0.673909  0.837381  0.571881  1
  Al  Al13  1  0.850431  0.677707  0.079846  1
  Al  Al14  1  0.326121  0.162616  0.428349  1
  Al  Al15  1  0.149690  0.322224  0.920068  1
  Al  Al16  1  0.163090  0.837207  0.574960  1
  Al  Al17  1  0.322302  0.149573  0.079666  1
  Al  Al18  1  0.837014  0.162978  0.425123  1
  Al  Al19  1  0.677732  0.850444  0.920131  1
  Al  Al20  1  0.836660  0.163317  0.074230  1
  Al  Al21  1  0.163462  0.836883  0.925679  1
  Al  Al22  1  0.562140  0.122875  0.249138  1
  Al  Al23  1  0.437820  0.877427  0.750850  1
  Al  Al24  1  0.877126  0.437861  0.249161  1
  Al  Al25  1  0.122877  0.562143  0.750843  1
  Al  Al26  1  0.565178  0.434793  0.256539  1
  Al  Al27  1  0.434777  0.564882  0.743500  1
  Al  Al28  1  0.998960  0.001037  0.250696  1
  Al  Al29  1  0.001348  0.999128  0.749307  1
  Zn  Zn30  1  0.499957  0.499926  0.999928  1
  Os  Os31  1  0.499906  0.000115  0.999839  1
  Os  Os32  1  0.999961  0.499963  0.999967  1
  Os  Os33  1  0.499932  0.000085  0.500136  1
  Os  Os34  1  0.999945  0.499965  0.500044  1
  Os  Os35  1  0.499926  0.499799  0.500138  1
  Os  Os36  1  0.000070  0.000036  0.999934  1
  Os  Os37  1  0.000056  0.000027  0.500068  1
