# generated using pymatgen
data_Tb3MgAl2Si2Pd
_symmetry_space_group_name_H-M   'P 1'
_cell_length_a   7.04329600
_cell_length_b   6.97155127
_cell_length_c   4.30484200
_cell_angle_alpha   90.00000000
_cell_angle_beta   90.00000000
_cell_angle_gamma   120.34101382
_symmetry_Int_Tables_number   1
_chemical_formula_structural   Tb3MgAl2Si2Pd
_chemical_formula_sum   'Tb3 Mg1 Al2 Si2 Pd1'
_cell_volume   182.42761309
_cell_formula_units_Z   1
loop_
 _symmetry_equiv_pos_site_id
 _symmetry_equiv_pos_as_xyz
  1  'x, y, z'
loop_
 _atom_site_type_symbol
 _atom_site_label
 _atom_site_symmetry_multiplicity
 _atom_site_fract_x
 _atom_site_fract_y
 _atom_site_fract_z
 _atom_site_occupancy
  Tb  Tb0  1  0.416493  0.000000  0.000000  1
  Tb  Tb1  1  0.998509  0.418434  0.000000  1
  Tb  Tb2  1  0.580075  0.581565  0.000000  1
  Mg  Mg3  1  0.760442  0.000000  0.500000  1
  Al  Al4  1  0.241425  0.237461  0.500000  1
  Al  Al5  1  0.003965  0.762539  0.500000  1
  Si  Si6  1  0.663167  0.341283  0.500000  1
  Si  Si7  1  0.321884  0.658716  0.500000  1
  Pd  Pd8  1  0.014038  0.000000  0.000000  1
