# generated using pymatgen
data_Ho5U3(Si3Pt)4
_symmetry_space_group_name_H-M   'P 1'
_cell_length_a   8.18546500
_cell_length_b   8.18546545
_cell_length_c   7.91436300
_cell_angle_alpha   90.00000000
_cell_angle_beta   90.00000000
_cell_angle_gamma   120.02668634
_symmetry_Int_Tables_number   1
_chemical_formula_structural   Ho5U3(Si3Pt)4
_chemical_formula_sum   'Ho5 U3 Si12 Pt4'
_cell_volume   459.10971652
_cell_formula_units_Z   1
loop_
 _symmetry_equiv_pos_site_id
 _symmetry_equiv_pos_as_xyz
  1  'x, y, z'
loop_
 _atom_site_type_symbol
 _atom_site_label
 _atom_site_symmetry_multiplicity
 _atom_site_fract_x
 _atom_site_fract_y
 _atom_site_fract_z
 _atom_site_occupancy
  Ho  Ho0  1  0.503235  0.007590  0.250000  1
  Ho  Ho1  1  0.992410  0.496765  0.250000  1
  Ho  Ho2  1  0.496068  0.503932  0.750000  1
  Ho  Ho3  1  0.496118  0.991993  0.750000  1
  Ho  Ho4  1  0.008007  0.503882  0.750000  1
  U  U5  1  0.999847  0.000153  0.250000  1
  U  U6  1  0.999882  0.000118  0.750000  1
  U  U7  1  0.504098  0.495902  0.250000  1
  Si  Si8  1  0.165006  0.834994  0.498124  1
  Si  Si9  1  0.164615  0.328574  0.498659  1
  Si  Si10  1  0.671426  0.835385  0.498659  1
  Si  Si11  1  0.835152  0.164848  0.500874  1
  Si  Si12  1  0.835593  0.671792  0.501810  1
  Si  Si13  1  0.328208  0.164407  0.501810  1
  Si  Si14  1  0.835152  0.164848  0.999126  1
  Si  Si15  1  0.835593  0.671792  0.998190  1
  Si  Si16  1  0.328208  0.164407  0.998190  1
  Si  Si17  1  0.165006  0.834994  0.001876  1
  Si  Si18  1  0.164615  0.328574  0.001341  1
  Si  Si19  1  0.671426  0.835385  0.001341  1
  Pt  Pt20  1  0.333713  0.666287  0.488135  1
  Pt  Pt21  1  0.666455  0.333545  0.511370  1
  Pt  Pt22  1  0.666455  0.333545  0.988630  1
  Pt  Pt23  1  0.333713  0.666287  0.011865  1
