# generated using pymatgen
data_NdIn2Cu2Ni7
_symmetry_space_group_name_H-M   'P 1'
_cell_length_a   4.92895300
_cell_length_b   8.27613300
_cell_length_c   8.27538400
_cell_angle_alpha   90.00000000
_cell_angle_beta   90.00000000
_cell_angle_gamma   90.00000000
_symmetry_Int_Tables_number   1
_chemical_formula_structural   NdIn2Cu2Ni7
_chemical_formula_sum   'Nd2 In4 Cu4 Ni14'
_cell_volume   337.57501342
_cell_formula_units_Z   2
loop_
 _symmetry_equiv_pos_site_id
 _symmetry_equiv_pos_as_xyz
  1  'x, y, z'
loop_
 _atom_site_type_symbol
 _atom_site_label
 _atom_site_symmetry_multiplicity
 _atom_site_fract_x
 _atom_site_fract_y
 _atom_site_fract_z
 _atom_site_occupancy
  Nd  Nd0  1  0.000000  0.500000  0.500000  1
  Nd  Nd1  1  0.000000  0.000000  0.000000  1
  In  In2  1  0.000000  0.621932  0.126635  1
  In  In3  1  0.000000  0.378068  0.873365  1
  In  In4  1  0.000000  0.878068  0.626635  1
  In  In5  1  0.000000  0.121932  0.373365  1
  Cu  Cu6  1  0.500000  0.705586  0.564787  1
  Cu  Cu7  1  0.500000  0.294414  0.435213  1
  Cu  Cu8  1  0.500000  0.794414  0.064787  1
  Cu  Cu9  1  0.500000  0.205586  0.935213  1
  Ni  Ni10  1  0.753488  0.175312  0.675516  1
  Ni  Ni11  1  0.753488  0.824688  0.324484  1
  Ni  Ni12  1  0.753488  0.324688  0.175516  1
  Ni  Ni13  1  0.753488  0.675312  0.824484  1
  Ni  Ni14  1  0.246512  0.824688  0.324484  1
  Ni  Ni15  1  0.246512  0.175312  0.675516  1
  Ni  Ni16  1  0.246512  0.675312  0.824484  1
  Ni  Ni17  1  0.246512  0.324688  0.175516  1
  Ni  Ni18  1  0.500000  0.566672  0.290413  1
  Ni  Ni19  1  0.500000  0.433328  0.709587  1
  Ni  Ni20  1  0.500000  0.066672  0.209587  1
  Ni  Ni21  1  0.500000  0.933328  0.790413  1
  Ni  Ni22  1  0.500000  0.000000  0.500000  1
  Ni  Ni23  1  0.500000  0.500000  0.000000  1
