# generated using pymatgen
data_La3PrHoIr3
_symmetry_space_group_name_H-M   'P 1'
_cell_length_a   11.32679400
_cell_length_b   11.36116200
_cell_length_c   6.56123600
_cell_angle_alpha   90.00000000
_cell_angle_beta   90.00000000
_cell_angle_gamma   90.00000000
_symmetry_Int_Tables_number   1
_chemical_formula_structural   La3PrHoIr3
_chemical_formula_sum   'La12 Pr4 Ho4 Ir12'
_cell_volume   844.33620806
_cell_formula_units_Z   4
loop_
 _symmetry_equiv_pos_site_id
 _symmetry_equiv_pos_as_xyz
  1  'x, y, z'
loop_
 _atom_site_type_symbol
 _atom_site_label
 _atom_site_symmetry_multiplicity
 _atom_site_fract_x
 _atom_site_fract_y
 _atom_site_fract_z
 _atom_site_occupancy
  La  La0  1  0.287478  0.088025  0.383623  1
  La  La1  1  0.287478  0.911975  0.883623  1
  La  La2  1  0.712522  0.088025  0.883623  1
  La  La3  1  0.712522  0.911975  0.383623  1
  La  La4  1  0.588771  0.787691  0.884289  1
  La  La5  1  0.588771  0.212309  0.384289  1
  La  La6  1  0.411229  0.787691  0.384289  1
  La  La7  1  0.411229  0.212309  0.884289  1
  La  La8  1  0.210809  0.412263  0.615696  1
  La  La9  1  0.210809  0.587737  0.115696  1
  La  La10  1  0.789191  0.412263  0.115696  1
  La  La11  1  0.789191  0.587737  0.615696  1
  Pr  Pr12  1  0.913147  0.712350  0.116636  1
  Pr  Pr13  1  0.913147  0.287650  0.616636  1
  Pr  Pr14  1  0.086853  0.712350  0.616636  1
  Pr  Pr15  1  0.086853  0.287650  0.116636  1
  Ho  Ho16  1  0.000000  0.000000  0.499886  1
  Ho  Ho17  1  0.000000  0.000000  0.999886  1
  Ho  Ho18  1  0.500000  0.500000  0.000886  1
  Ho  Ho19  1  0.500000  0.500000  0.500886  1
  Ir  Ir20  1  0.851498  0.146984  0.248320  1
  Ir  Ir21  1  0.851498  0.853016  0.748320  1
  Ir  Ir22  1  0.148502  0.146984  0.748320  1
  Ir  Ir23  1  0.148502  0.853016  0.248320  1
  Ir  Ir24  1  0.647900  0.351803  0.750334  1
  Ir  Ir25  1  0.647900  0.648197  0.250334  1
  Ir  Ir26  1  0.352100  0.351803  0.250334  1
  Ir  Ir27  1  0.352100  0.648197  0.750334  1
  Ir  Ir28  1  0.500000  0.000000  0.117893  1
  Ir  Ir29  1  0.500000  0.000000  0.617893  1
  Ir  Ir30  1  0.000000  0.500000  0.883537  1
  Ir  Ir31  1  0.000000  0.500000  0.383537  1
