# generated using pymatgen
data_Nd5InBi2Se
_symmetry_space_group_name_H-M   'P 1'
_cell_length_a   9.58549667
_cell_length_b   9.54016813
_cell_length_c   6.94142500
_cell_angle_alpha   90.00000000
_cell_angle_beta   90.00000000
_cell_angle_gamma   119.84369188
_symmetry_Int_Tables_number   1
_chemical_formula_structural   Nd5InBi2Se
_chemical_formula_sum   'Nd10 In2 Bi4 Se2'
_cell_volume   550.59442013
_cell_formula_units_Z   2
loop_
 _symmetry_equiv_pos_site_id
 _symmetry_equiv_pos_as_xyz
  1  'x, y, z'
loop_
 _atom_site_type_symbol
 _atom_site_label
 _atom_site_symmetry_multiplicity
 _atom_site_fract_x
 _atom_site_fract_y
 _atom_site_fract_z
 _atom_site_occupancy
  Nd  Nd0  1  0.662722  0.330413  0.999312  1
  Nd  Nd1  1  0.337278  0.667691  0.999312  1
  Nd  Nd2  1  0.337278  0.667691  0.500688  1
  Nd  Nd3  1  0.662722  0.330413  0.500688  1
  Nd  Nd4  1  0.745928  0.749551  0.750000  1
  Nd  Nd5  1  0.254072  0.003624  0.750000  1
  Nd  Nd6  1  0.000000  0.250484  0.750000  1
  Nd  Nd7  1  0.250474  0.251482  0.250000  1
  Nd  Nd8  1  0.749526  0.001008  0.250000  1
  Nd  Nd9  1  0.000000  0.749366  0.250000  1
  In  In10  1  0.393803  0.393311  0.750000  1
  In  In11  1  0.606197  0.999508  0.750000  1
  Bi  Bi12  1  0.000000  0.607474  0.750000  1
  Bi  Bi13  1  0.605957  0.606409  0.250000  1
  Bi  Bi14  1  0.394043  0.000451  0.250000  1
  Bi  Bi15  1  0.000000  0.392405  0.250000  1
  Se  Se16  1  0.000000  0.999359  0.000085  1
  Se  Se17  1  0.000000  0.999359  0.499915  1
