# generated using pymatgen
data_Sc6Zn23N
_symmetry_space_group_name_H-M   'P 1'
_cell_length_a   8.72644074
_cell_length_b   8.72643927
_cell_length_c   8.72643900
_cell_angle_alpha   59.99998964
_cell_angle_beta   59.99999522
_cell_angle_gamma   59.99999343
_symmetry_Int_Tables_number   1
_chemical_formula_structural   Sc6Zn23N
_chemical_formula_sum   'Sc6 Zn23 N1'
_cell_volume   469.88999969
_cell_formula_units_Z   1
loop_
 _symmetry_equiv_pos_site_id
 _symmetry_equiv_pos_as_xyz
  1  'x, y, z'
loop_
 _atom_site_type_symbol
 _atom_site_label
 _atom_site_symmetry_multiplicity
 _atom_site_fract_x
 _atom_site_fract_y
 _atom_site_fract_z
 _atom_site_occupancy
  Sc  Sc0  1  0.685868  0.314132  0.314132  1
  Sc  Sc1  1  0.314132  0.685868  0.685868  1
  Sc  Sc2  1  0.314132  0.685868  0.314132  1
  Sc  Sc3  1  0.685868  0.314132  0.685868  1
  Sc  Sc4  1  0.314132  0.314132  0.685868  1
  Sc  Sc5  1  0.685868  0.685868  0.314132  1
  Zn  Zn6  1  0.121080  0.121080  0.121080  1
  Zn  Zn7  1  0.878920  0.878920  0.878920  1
  Zn  Zn8  1  0.121080  0.121080  0.636764  1
  Zn  Zn9  1  0.121080  0.636764  0.121080  1
  Zn  Zn10  1  0.878920  0.878920  0.363236  1
  Zn  Zn11  1  0.878920  0.363236  0.878920  1
  Zn  Zn12  1  0.636764  0.121080  0.121080  1
  Zn  Zn13  1  0.363236  0.878920  0.878920  1
  Zn  Zn14  1  0.500000  0.000000  0.000000  1
  Zn  Zn15  1  0.000000  0.500000  0.500000  1
  Zn  Zn16  1  0.000000  0.500000  0.000000  1
  Zn  Zn17  1  0.500000  0.000000  0.500000  1
  Zn  Zn18  1  0.000000  0.000000  0.500000  1
  Zn  Zn19  1  0.500000  0.500000  0.000000  1
  Zn  Zn20  1  0.331323  0.331323  0.331323  1
  Zn  Zn21  1  0.668677  0.668677  0.668677  1
  Zn  Zn22  1  0.331323  0.331323  0.006031  1
  Zn  Zn23  1  0.331323  0.006031  0.331323  1
  Zn  Zn24  1  0.668677  0.668677  0.993969  1
  Zn  Zn25  1  0.668677  0.993969  0.668677  1
  Zn  Zn26  1  0.006031  0.331323  0.331323  1
  Zn  Zn27  1  0.993969  0.668677  0.668677  1
  Zn  Zn28  1  0.000000  0.000000  0.000000  1
  N  N29  1  0.500000  0.500000  0.500000  1
