# generated using pymatgen
data_Pr(PaSe3)2
_symmetry_space_group_name_H-M   'P 1'
_cell_length_a   7.80753600
_cell_length_b   7.80753678
_cell_length_c   4.15688300
_cell_angle_alpha   90.00000000
_cell_angle_beta   90.00000000
_cell_angle_gamma   119.99998820
_symmetry_Int_Tables_number   1
_chemical_formula_structural   Pr(PaSe3)2
_chemical_formula_sum   'Pr1 Pa2 Se6'
_cell_volume   219.44541876
_cell_formula_units_Z   1
loop_
 _symmetry_equiv_pos_site_id
 _symmetry_equiv_pos_as_xyz
  1  'x, y, z'
loop_
 _atom_site_type_symbol
 _atom_site_label
 _atom_site_symmetry_multiplicity
 _atom_site_fract_x
 _atom_site_fract_y
 _atom_site_fract_z
 _atom_site_occupancy
  Pr  Pr0  1  0.333333  0.666667  0.500000  1
  Pa  Pa1  1  0.666667  0.333333  0.500000  1
  Pa  Pa2  1  0.000000  0.000000  0.000000  1
  Se  Se3  1  0.745444  0.744022  0.500000  1
  Se  Se4  1  0.255978  0.001423  0.500000  1
  Se  Se5  1  0.998577  0.254556  0.500000  1
  Se  Se6  1  0.409289  0.392953  0.000000  1
  Se  Se7  1  0.607047  0.016336  0.000000  1
  Se  Se8  1  0.983664  0.590711  0.000000  1
