# generated using pymatgen
data_YbHoCd2(Ru2O7)2
_symmetry_space_group_name_H-M   'P 1'
_cell_length_a   7.33049586
_cell_length_b   7.23450972
_cell_length_c   7.23450862
_cell_angle_alpha   59.35657358
_cell_angle_beta   59.65075399
_cell_angle_gamma   59.65075659
_symmetry_Int_Tables_number   1
_chemical_formula_structural   YbHoCd2(Ru2O7)2
_chemical_formula_sum   'Yb1 Ho1 Cd2 Ru4 O14'
_cell_volume   268.52797453
_cell_formula_units_Z   1
loop_
 _symmetry_equiv_pos_site_id
 _symmetry_equiv_pos_as_xyz
  1  'x, y, z'
loop_
 _atom_site_type_symbol
 _atom_site_label
 _atom_site_symmetry_multiplicity
 _atom_site_fract_x
 _atom_site_fract_y
 _atom_site_fract_z
 _atom_site_occupancy
  Yb  Yb0  1  0.125000  0.125000  0.125000  1
  Ho  Ho1  1  0.625000  0.125000  0.125000  1
  Cd  Cd2  1  0.125000  0.625000  0.125000  1
  Cd  Cd3  1  0.125000  0.125000  0.625000  1
  Ru  Ru4  1  0.625000  0.125000  0.625000  1
  Ru  Ru5  1  0.625000  0.625000  0.125000  1
  Ru  Ru6  1  0.125000  0.625000  0.625000  1
  Ru  Ru7  1  0.625000  0.625000  0.625000  1
  O  O8  1  0.695631  0.703425  0.299227  1
  O  O9  1  0.940163  0.559835  0.559835  1
  O  O10  1  0.541224  0.961198  0.961198  1
  O  O11  1  0.944192  0.947958  0.554300  1
  O  O12  1  0.944192  0.554300  0.947958  1
  O  O13  1  0.554369  0.950773  0.546575  1
  O  O14  1  0.305808  0.695700  0.302042  1
  O  O15  1  0.309837  0.690165  0.690165  1
  O  O16  1  0.708776  0.288802  0.288802  1
  O  O17  1  0.695631  0.299227  0.703425  1
  O  O18  1  0.554369  0.546575  0.950773  1
  O  O19  1  0.305808  0.302042  0.695700  1
  O  O20  1  0.252469  0.254430  0.254430  1
  O  O21  1  0.997531  0.995570  0.995570  1
