# generated using pymatgen
data_DyY4Tm3(P3Ir4)4
_symmetry_space_group_name_H-M   'P 1'
_cell_length_a   12.95935100
_cell_length_b   12.95935196
_cell_length_c   3.99913300
_cell_angle_alpha   90.00000000
_cell_angle_beta   90.00000000
_cell_angle_gamma   120.00000011
_symmetry_Int_Tables_number   1
_chemical_formula_structural   DyY4Tm3(P3Ir4)4
_chemical_formula_sum   'Dy1 Y4 Tm3 P12 Ir16'
_cell_volume   581.65171994
_cell_formula_units_Z   1
loop_
 _symmetry_equiv_pos_site_id
 _symmetry_equiv_pos_as_xyz
  1  'x, y, z'
loop_
 _atom_site_type_symbol
 _atom_site_label
 _atom_site_symmetry_multiplicity
 _atom_site_fract_x
 _atom_site_fract_y
 _atom_site_fract_z
 _atom_site_occupancy
  Dy  Dy0  1  0.666667  0.333333  0.500000  1
  Y  Y1  1  0.333333  0.666667  0.500000  1
  Y  Y2  1  0.999991  0.814310  0.000000  1
  Y  Y3  1  0.185690  0.185681  0.000000  1
  Y  Y4  1  0.814319  0.000009  0.000000  1
  Tm  Tm5  1  0.999974  0.446136  0.500000  1
  Tm  Tm6  1  0.553864  0.553838  0.500000  1
  Tm  Tm7  1  0.446162  0.000026  0.500000  1
  P  P8  1  0.000006  0.651894  0.500000  1
  P  P9  1  0.348106  0.348112  0.500000  1
  P  P10  1  0.651888  0.999994  0.500000  1
  P  P11  1  0.516895  0.688366  0.000000  1
  P  P12  1  0.311634  0.828529  0.000000  1
  P  P13  1  0.171471  0.483105  0.000000  1
  P  P14  1  0.483189  0.171553  0.000000  1
  P  P15  1  0.688364  0.516811  0.000000  1
  P  P16  1  0.828447  0.311636  0.000000  1
  P  P17  1  0.999997  0.176580  0.500000  1
  P  P18  1  0.823420  0.823417  0.500000  1
  P  P19  1  0.176583  0.000003  0.500000  1
  Ir  Ir20  1  0.509357  0.866103  0.000000  1
  Ir  Ir21  1  0.133897  0.643254  0.000000  1
  Ir  Ir22  1  0.356746  0.490643  0.000000  1
  Ir  Ir23  1  0.490760  0.356733  0.000000  1
  Ir  Ir24  1  0.865973  0.509240  0.000000  1
  Ir  Ir25  1  0.643267  0.134027  0.000000  1
  Ir  Ir26  1  0.999995  0.275291  0.000000  1
  Ir  Ir27  1  0.724709  0.724704  0.000000  1
  Ir  Ir28  1  0.275296  0.000005  0.000000  1
  Ir  Ir29  1  0.629995  0.808777  0.500000  1
  Ir  Ir30  1  0.191223  0.821218  0.500000  1
  Ir  Ir31  1  0.178782  0.370005  0.500000  1
  Ir  Ir32  1  0.370052  0.178809  0.500000  1
  Ir  Ir33  1  0.808758  0.629948  0.500000  1
  Ir  Ir34  1  0.821191  0.191242  0.500000  1
  Ir  Ir35  1  0.000000  0.000000  0.500000  1
