# generated using pymatgen
data_Ti8TcOs4Ru3
_symmetry_space_group_name_H-M   'P 1'
_cell_length_a   6.18595800
_cell_length_b   4.37480500
_cell_length_c   8.75174400
_cell_angle_alpha   90.00000000
_cell_angle_beta   89.99996184
_cell_angle_gamma   90.00000000
_symmetry_Int_Tables_number   1
_chemical_formula_structural   Ti8TcOs4Ru3
_chemical_formula_sum   'Ti8 Tc1 Os4 Ru3'
_cell_volume   236.84284665
_cell_formula_units_Z   1
loop_
 _symmetry_equiv_pos_site_id
 _symmetry_equiv_pos_as_xyz
  1  'x, y, z'
loop_
 _atom_site_type_symbol
 _atom_site_label
 _atom_site_symmetry_multiplicity
 _atom_site_fract_x
 _atom_site_fract_y
 _atom_site_fract_z
 _atom_site_occupancy
  Ti  Ti0  1  0.000804  0.749999  0.123820  1
  Ti  Ti1  1  0.499225  0.749999  0.123825  1
  Ti  Ti2  1  0.000134  0.249999  0.374996  1
  Ti  Ti3  1  0.499897  0.249999  0.375000  1
  Ti  Ti4  1  0.499200  0.749999  0.626180  1
  Ti  Ti5  1  0.000767  0.749999  0.626185  1
  Ti  Ti6  1  0.498198  0.249999  0.875000  1
  Ti  Ti7  1  0.001770  0.249999  0.875004  1
  Tc  Tc8  1  0.249979  0.749999  0.875002  1
  Os  Os9  1  0.250017  0.249999  0.126474  1
  Os  Os10  1  0.750010  0.749999  0.375004  1
  Os  Os11  1  0.249983  0.249999  0.623530  1
  Os  Os12  1  0.749988  0.749999  0.875003  1
  Ru  Ru13  1  0.750018  0.249999  0.125702  1
  Ru  Ru14  1  0.250022  0.749999  0.375031  1
  Ru  Ru15  1  0.749986  0.249999  0.624246  1
