# generated using pymatgen
data_CaAc(TlPd)2
_symmetry_space_group_name_H-M   'P 1'
_cell_length_a   4.42919700
_cell_length_b   7.63757100
_cell_length_c   8.84720600
_cell_angle_alpha   90.00000000
_cell_angle_beta   90.00000000
_cell_angle_gamma   90.00000000
_symmetry_Int_Tables_number   1
_chemical_formula_structural   CaAc(TlPd)2
_chemical_formula_sum   'Ca2 Ac2 Tl4 Pd4'
_cell_volume   299.28599677
_cell_formula_units_Z   2
loop_
 _symmetry_equiv_pos_site_id
 _symmetry_equiv_pos_as_xyz
  1  'x, y, z'
loop_
 _atom_site_type_symbol
 _atom_site_label
 _atom_site_symmetry_multiplicity
 _atom_site_fract_x
 _atom_site_fract_y
 _atom_site_fract_z
 _atom_site_occupancy
  Ca  Ca0  1  0.750000  0.538205  0.187927  1
  Ca  Ca1  1  0.250000  0.961795  0.687927  1
  Ac  Ac2  1  0.750000  0.037574  0.322083  1
  Ac  Ac3  1  0.250000  0.462426  0.822083  1
  Tl  Tl4  1  0.250000  0.845112  0.057366  1
  Tl  Tl5  1  0.250000  0.363292  0.436363  1
  Tl  Tl6  1  0.750000  0.654888  0.557366  1
  Tl  Tl7  1  0.750000  0.136708  0.936363  1
  Pd  Pd8  1  0.250000  0.745907  0.366427  1
  Pd  Pd9  1  0.750000  0.257052  0.629835  1
  Pd  Pd10  1  0.750000  0.754093  0.866427  1
  Pd  Pd11  1  0.250000  0.242948  0.129835  1
