# generated using pymatgen
data_Nd4ReTc3Br2
_symmetry_space_group_name_H-M   'P 1'
_cell_length_a   4.15217400
_cell_length_b   4.15217336
_cell_length_c   17.60519000
_cell_angle_alpha   90.00000000
_cell_angle_beta   90.00000000
_cell_angle_gamma   119.99998919
_symmetry_Int_Tables_number   1
_chemical_formula_structural   Nd4ReTc3Br2
_chemical_formula_sum   'Nd4 Re1 Tc3 Br2'
_cell_volume   262.85873743
_cell_formula_units_Z   1
loop_
 _symmetry_equiv_pos_site_id
 _symmetry_equiv_pos_as_xyz
  1  'x, y, z'
loop_
 _atom_site_type_symbol
 _atom_site_label
 _atom_site_symmetry_multiplicity
 _atom_site_fract_x
 _atom_site_fract_y
 _atom_site_fract_z
 _atom_site_occupancy
  Nd  Nd0  1  0.000000  0.000000  0.118738  1
  Nd  Nd1  1  0.000000  0.000000  0.380929  1
  Nd  Nd2  1  0.000000  0.000000  0.619214  1
  Nd  Nd3  1  0.000000  0.000000  0.881148  1
  Re  Re4  1  0.333334  0.666667  0.516378  1
  Tc  Tc5  1  0.666666  0.333332  0.016188  1
  Tc  Tc6  1  0.333334  0.666667  0.983816  1
  Tc  Tc7  1  0.666666  0.333332  0.483574  1
  Br  Br8  1  0.333334  0.666667  0.249936  1
  Br  Br9  1  0.666666  0.333332  0.750080  1
