# generated using pymatgen
data_FePd8
_symmetry_space_group_name_H-M   'P 1'
_cell_length_a   6.22460621
_cell_length_b   6.22460568
_cell_length_c   6.22457802
_cell_angle_alpha   95.62548341
_cell_angle_beta   95.62314342
_cell_angle_gamma   143.51286536
_symmetry_Int_Tables_number   1
_chemical_formula_structural   FePd8
_chemical_formula_sum   'Fe1 Pd8'
_cell_volume   136.20446140
_cell_formula_units_Z   1
loop_
 _symmetry_equiv_pos_site_id
 _symmetry_equiv_pos_as_xyz
  1  'x, y, z'
loop_
 _atom_site_type_symbol
 _atom_site_label
 _atom_site_symmetry_multiplicity
 _atom_site_fract_x
 _atom_site_fract_y
 _atom_site_fract_z
 _atom_site_occupancy
  Fe  Fe0  1  0.000000  0.000000  0.000000  1
  Pd  Pd1  1  0.663447  0.336551  0.999998  1
  Pd  Pd2  1  0.336554  0.663450  0.000002  1
  Pd  Pd3  1  0.663451  0.663454  0.326904  1
  Pd  Pd4  1  0.329563  0.000005  0.329567  1
  Pd  Pd5  1  0.000004  0.329557  0.329561  1
  Pd  Pd6  1  0.670437  0.999995  0.670433  1
  Pd  Pd7  1  0.999996  0.670443  0.670439  1
  Pd  Pd8  1  0.336550  0.336547  0.673096  1
