# generated using pymatgen
data_PrNd3(P4O13)2
_symmetry_space_group_name_H-M   'P 1'
_cell_length_a   9.73228170
_cell_length_b   9.72498540
_cell_length_c   8.84639791
_cell_angle_alpha   89.93302832
_cell_angle_beta   90.06336374
_cell_angle_gamma   135.86208526
_symmetry_Int_Tables_number   1
_chemical_formula_structural   PrNd3(P4O13)2
_chemical_formula_sum   'Pr1 Nd3 P8 O26'
_cell_volume   583.07035212
_cell_formula_units_Z   1
loop_
 _symmetry_equiv_pos_site_id
 _symmetry_equiv_pos_as_xyz
  1  'x, y, z'
loop_
 _atom_site_type_symbol
 _atom_site_label
 _atom_site_symmetry_multiplicity
 _atom_site_fract_x
 _atom_site_fract_y
 _atom_site_fract_z
 _atom_site_occupancy
  Pr  Pr0  1  0.394978  0.103010  0.643182  1
  Nd  Nd1  1  0.895896  0.604319  0.856541  1
  Nd  Nd2  1  0.604868  0.897017  0.143394  1
  Nd  Nd3  1  0.104107  0.395728  0.356440  1
  P  P4  1  0.416442  0.098854  0.000957  1
  P  P5  1  0.099224  0.417129  0.000018  1
  P  P6  1  0.583678  0.901825  0.500695  1
  P  P7  1  0.901141  0.582781  0.499228  1
  P  P8  1  0.272970  0.145698  0.267579  1
  P  P9  1  0.146190  0.273493  0.731924  1
  P  P10  1  0.726646  0.853277  0.767670  1
  P  P11  1  0.853194  0.726741  0.231520  1
  O  O12  1  0.480849  0.028629  0.102636  1
  O  O13  1  0.029213  0.481966  0.898701  1
  O  O14  1  0.520519  0.971115  0.604731  1
  O  O15  1  0.970823  0.518447  0.397174  1
  O  O16  1  0.231083  0.934080  0.904837  1
  O  O17  1  0.935042  0.232101  0.096807  1
  O  O18  1  0.767774  0.066751  0.403541  1
  O  O19  1  0.065390  0.767444  0.596007  1
  O  O20  1  0.574468  0.262664  0.888243  1
  O  O21  1  0.263499  0.574337  0.112875  1
  O  O22  1  0.425468  0.739302  0.387296  1
  O  O23  1  0.738329  0.425616  0.612707  1
  O  O24  1  0.086095  0.912974  0.248729  1
  O  O25  1  0.913874  0.085917  0.749269  1
  O  O26  1  0.798320  0.627543  0.395167  1
  O  O27  1  0.628191  0.797800  0.603553  1
  O  O28  1  0.201073  0.372279  0.895475  1
  O  O29  1  0.371681  0.202235  0.103807  1
  O  O30  1  0.748736  0.786337  0.212055  1
  O  O31  1  0.784203  0.747034  0.788150  1
  O  O32  1  0.252071  0.215642  0.712555  1
  O  O33  1  0.214059  0.250448  0.289750  1
  O  O34  1  0.825479  0.600676  0.110043  1
  O  O35  1  0.602088  0.828072  0.889082  1
  O  O36  1  0.172587  0.399130  0.610533  1
  O  O37  1  0.399754  0.171584  0.387129  1
