# generated using pymatgen
data_Zr5Pa(PbC2)2
_symmetry_space_group_name_H-M   'P 1'
_cell_length_a   3.39257100
_cell_length_b   3.39257017
_cell_length_c   21.06518500
_cell_angle_alpha   90.00000000
_cell_angle_beta   90.00000000
_cell_angle_gamma   119.99999835
_symmetry_Int_Tables_number   1
_chemical_formula_structural   Zr5Pa(PbC2)2
_chemical_formula_sum   'Zr5 Pa1 Pb2 C4'
_cell_volume   209.96828499
_cell_formula_units_Z   1
loop_
 _symmetry_equiv_pos_site_id
 _symmetry_equiv_pos_as_xyz
  1  'x, y, z'
loop_
 _atom_site_type_symbol
 _atom_site_label
 _atom_site_symmetry_multiplicity
 _atom_site_fract_x
 _atom_site_fract_y
 _atom_site_fract_z
 _atom_site_occupancy
  Zr  Zr0  1  0.000000  0.000000  0.990805  1
  Zr  Zr1  1  0.666667  0.333332  0.383848  1
  Zr  Zr2  1  0.000000  0.000000  0.505194  1
  Zr  Zr3  1  0.333334  0.666667  0.626304  1
  Zr  Zr4  1  0.333334  0.666667  0.868486  1
  Pa  Pa5  1  0.666667  0.333332  0.125392  1
  Pb  Pb6  1  0.000000  0.000000  0.261780  1
  Pb  Pb7  1  0.000000  0.000000  0.747325  1
  C  C8  1  0.333334  0.666667  0.057298  1
  C  C9  1  0.333334  0.666667  0.438167  1
  C  C10  1  0.666667  0.333332  0.571567  1
  C  C11  1  0.666667  0.333332  0.923832  1
