# generated using pymatgen
data_Zr3Al2CoC
_symmetry_space_group_name_H-M   'P 1'
_cell_length_a   8.57819630
_cell_length_b   8.57819627
_cell_length_c   8.57819700
_cell_angle_alpha   60.00000106
_cell_angle_beta   60.00000115
_cell_angle_gamma   60.00000067
_symmetry_Int_Tables_number   1
_chemical_formula_structural   Zr3Al2CoC
_chemical_formula_sum   'Zr12 Al8 Co4 C4'
_cell_volume   446.34737649
_cell_formula_units_Z   4
loop_
 _symmetry_equiv_pos_site_id
 _symmetry_equiv_pos_as_xyz
  1  'x, y, z'
loop_
 _atom_site_type_symbol
 _atom_site_label
 _atom_site_symmetry_multiplicity
 _atom_site_fract_x
 _atom_site_fract_y
 _atom_site_fract_z
 _atom_site_occupancy
  Zr  Zr0  1  0.552130  0.947870  0.552130  1
  Zr  Zr1  1  0.302130  0.697870  0.697870  1
  Zr  Zr2  1  0.697870  0.302130  0.302130  1
  Zr  Zr3  1  0.302130  0.697870  0.302130  1
  Zr  Zr4  1  0.697870  0.697870  0.302130  1
  Zr  Zr5  1  0.302130  0.302130  0.697870  1
  Zr  Zr6  1  0.552130  0.552130  0.947870  1
  Zr  Zr7  1  0.947870  0.552130  0.552130  1
  Zr  Zr8  1  0.552130  0.947870  0.947870  1
  Zr  Zr9  1  0.947870  0.947870  0.552130  1
  Zr  Zr10  1  0.697870  0.302130  0.697870  1
  Zr  Zr11  1  0.947870  0.552130  0.947870  1
  Al  Al12  1  0.921382  0.921382  0.921382  1
  Al  Al13  1  0.014146  0.328618  0.328618  1
  Al  Al14  1  0.328618  0.014146  0.328618  1
  Al  Al15  1  0.328618  0.328618  0.014146  1
  Al  Al16  1  0.921382  0.235854  0.921382  1
  Al  Al17  1  0.921382  0.921382  0.235854  1
  Al  Al18  1  0.235854  0.921382  0.921382  1
  Al  Al19  1  0.328618  0.328618  0.328618  1
  Co  Co20  1  0.125000  0.125000  0.125000  1
  Co  Co21  1  0.625000  0.125000  0.125000  1
  Co  Co22  1  0.125000  0.625000  0.125000  1
  Co  Co23  1  0.125000  0.125000  0.625000  1
  C  C24  1  0.625000  0.625000  0.625000  1
  C  C25  1  0.125000  0.625000  0.625000  1
  C  C26  1  0.625000  0.125000  0.625000  1
  C  C27  1  0.625000  0.625000  0.125000  1
