# generated using pymatgen
data_Tb3Ho(Tm3Pt4)2
_symmetry_space_group_name_H-M   'P 1'
_cell_length_a   7.45827600
_cell_length_b   7.53963505
_cell_length_c   14.69886100
_cell_angle_alpha   89.99342662
_cell_angle_beta   90.00000000
_cell_angle_gamma   90.00000000
_symmetry_Int_Tables_number   1
_chemical_formula_structural   Tb3Ho(Tm3Pt4)2
_chemical_formula_sum   'Tb6 Ho2 Tm12 Pt16'
_cell_volume   826.55632889
_cell_formula_units_Z   2
loop_
 _symmetry_equiv_pos_site_id
 _symmetry_equiv_pos_as_xyz
  1  'x, y, z'
loop_
 _atom_site_type_symbol
 _atom_site_label
 _atom_site_symmetry_multiplicity
 _atom_site_fract_x
 _atom_site_fract_y
 _atom_site_fract_z
 _atom_site_occupancy
  Tb  Tb0  1  0.501107  0.679324  0.592911  1
  Tb  Tb1  1  0.001107  0.820676  0.907089  1
  Tb  Tb2  1  0.498925  0.321421  0.092779  1
  Tb  Tb3  1  0.998925  0.178579  0.407221  1
  Tb  Tb4  1  0.498839  0.320914  0.407019  1
  Tb  Tb5  1  0.998839  0.179086  0.092981  1
  Ho  Ho6  1  0.501716  0.679664  0.906741  1
  Ho  Ho7  1  0.001716  0.820336  0.593259  1
  Tm  Tm8  1  0.656850  0.167519  0.622690  1
  Tm  Tm9  1  0.156850  0.332481  0.877310  1
  Tm  Tm10  1  0.343945  0.831933  0.122467  1
  Tm  Tm11  1  0.843945  0.668067  0.377533  1
  Tm  Tm12  1  0.343489  0.832418  0.377303  1
  Tm  Tm13  1  0.843489  0.667582  0.122697  1
  Tm  Tm14  1  0.656374  0.167709  0.877224  1
  Tm  Tm15  1  0.156374  0.332291  0.622776  1
  Tm  Tm16  1  0.819458  0.510733  0.750032  1
  Tm  Tm17  1  0.319458  0.989267  0.749968  1
  Tm  Tm18  1  0.180436  0.489575  0.250018  1
  Tm  Tm19  1  0.680436  0.010425  0.249982  1
  Pt  Pt20  1  0.682683  0.965679  0.458429  1
  Pt  Pt21  1  0.182683  0.534321  0.041571  1
  Pt  Pt22  1  0.317947  0.032822  0.957599  1
  Pt  Pt23  1  0.817947  0.467178  0.542401  1
  Pt  Pt24  1  0.316234  0.032911  0.542239  1
  Pt  Pt25  1  0.816234  0.467089  0.957761  1
  Pt  Pt26  1  0.682345  0.965496  0.041713  1
  Pt  Pt27  1  0.182345  0.534504  0.458287  1
  Pt  Pt28  1  0.453625  0.384715  0.750241  1
  Pt  Pt29  1  0.953625  0.115285  0.749759  1
  Pt  Pt30  1  0.546407  0.616017  0.250047  1
  Pt  Pt31  1  0.046407  0.883983  0.249953  1
  Pt  Pt32  1  0.682091  0.857592  0.750377  1
  Pt  Pt33  1  0.182091  0.642408  0.749623  1
  Pt  Pt34  1  0.317529  0.141872  0.249971  1
  Pt  Pt35  1  0.817529  0.358128  0.250029  1
