# generated using pymatgen
data_CsPaS3
_symmetry_space_group_name_H-M   'P 1'
_cell_length_a   7.64238200
_cell_length_b   7.64238167
_cell_length_c   7.06680200
_cell_angle_alpha   90.00000000
_cell_angle_beta   90.00000000
_cell_angle_gamma   120.00001008
_symmetry_Int_Tables_number   1
_chemical_formula_structural   CsPaS3
_chemical_formula_sum   'Cs2 Pa2 S6'
_cell_volume   357.44643983
_cell_formula_units_Z   2
loop_
 _symmetry_equiv_pos_site_id
 _symmetry_equiv_pos_as_xyz
  1  'x, y, z'
loop_
 _atom_site_type_symbol
 _atom_site_label
 _atom_site_symmetry_multiplicity
 _atom_site_fract_x
 _atom_site_fract_y
 _atom_site_fract_z
 _atom_site_occupancy
  Cs  Cs0  1  0.666667  0.333333  0.249402  1
  Cs  Cs1  1  0.333333  0.666667  0.749402  1
  Pa  Pa2  1  0.000000  0.000000  0.508827  1
  Pa  Pa3  1  0.000000  0.000000  0.008827  1
  S  S4  1  0.301805  0.150902  0.758490  1
  S  S5  1  0.849098  0.698195  0.758490  1
  S  S6  1  0.849098  0.150902  0.758490  1
  S  S7  1  0.698195  0.849098  0.258490  1
  S  S8  1  0.150902  0.301805  0.258490  1
  S  S9  1  0.150902  0.849098  0.258490  1
