# generated using pymatgen
data_HfZrGeH
_symmetry_space_group_name_H-M   'P 1'
_cell_length_a   5.46181235
_cell_length_b   5.46181018
_cell_length_c   5.44289648
_cell_angle_alpha   105.17484156
_cell_angle_beta   105.17485353
_cell_angle_gamma   118.57326371
_symmetry_Int_Tables_number   1
_chemical_formula_structural   HfZrGeH
_chemical_formula_sum   'Hf2 Zr2 Ge2 H2'
_cell_volume   122.44171048
_cell_formula_units_Z   2
loop_
 _symmetry_equiv_pos_site_id
 _symmetry_equiv_pos_as_xyz
  1  'x, y, z'
loop_
 _atom_site_type_symbol
 _atom_site_label
 _atom_site_symmetry_multiplicity
 _atom_site_fract_x
 _atom_site_fract_y
 _atom_site_fract_z
 _atom_site_occupancy
  Hf  Hf0  1  0.337714  0.162286  0.500000  1
  Hf  Hf1  1  0.662286  0.837714  0.500000  1
  Zr  Zr2  1  0.161082  0.661082  0.822164  1
  Zr  Zr3  1  0.838918  0.338918  0.177836  1
  Ge  Ge4  1  0.250000  0.250000  0.000000  1
  Ge  Ge5  1  0.750000  0.750000  0.000000  1
  H  H6  1  0.740724  0.240724  0.500000  1
  H  H7  1  0.259276  0.759276  0.500000  1
