# generated using pymatgen
data_DyLuOs3Ru
_symmetry_space_group_name_H-M   'P 1'
_cell_length_a   5.26272200
_cell_length_b   5.26272291
_cell_length_c   8.93372000
_cell_angle_alpha   90.00000000
_cell_angle_beta   90.00000000
_cell_angle_gamma   119.99999426
_symmetry_Int_Tables_number   1
_chemical_formula_structural   DyLuOs3Ru
_chemical_formula_sum   'Dy2 Lu2 Os6 Ru2'
_cell_volume   214.28112980
_cell_formula_units_Z   2
loop_
 _symmetry_equiv_pos_site_id
 _symmetry_equiv_pos_as_xyz
  1  'x, y, z'
loop_
 _atom_site_type_symbol
 _atom_site_label
 _atom_site_symmetry_multiplicity
 _atom_site_fract_x
 _atom_site_fract_y
 _atom_site_fract_z
 _atom_site_occupancy
  Dy  Dy0  1  0.333333  0.666667  0.433771  1
  Dy  Dy1  1  0.666667  0.333333  0.566229  1
  Lu  Lu2  1  0.666667  0.333333  0.934678  1
  Lu  Lu3  1  0.333333  0.666667  0.065322  1
  Os  Os4  1  0.170737  0.341477  0.752743  1
  Os  Os5  1  0.170737  0.829263  0.752743  1
  Os  Os6  1  0.341477  0.170737  0.247257  1
  Os  Os7  1  0.829263  0.658523  0.247257  1
  Os  Os8  1  0.658523  0.829263  0.752743  1
  Os  Os9  1  0.829263  0.170737  0.247257  1
  Ru  Ru10  1  0.000000  0.000000  0.000000  1
  Ru  Ru11  1  0.000000  0.000000  0.500000  1
