# generated using pymatgen
data_Gd5Ga2Pb
_symmetry_space_group_name_H-M   'P 1'
_cell_length_a   7.89726700
_cell_length_b   7.89726700
_cell_length_c   13.95677200
_cell_angle_alpha   90.00000000
_cell_angle_beta   90.00000000
_cell_angle_gamma   90.00000000
_symmetry_Int_Tables_number   1
_chemical_formula_structural   Gd5Ga2Pb
_chemical_formula_sum   'Gd20 Ga8 Pb4'
_cell_volume   870.43957181
_cell_formula_units_Z   4
loop_
 _symmetry_equiv_pos_site_id
 _symmetry_equiv_pos_as_xyz
  1  'x, y, z'
loop_
 _atom_site_type_symbol
 _atom_site_label
 _atom_site_symmetry_multiplicity
 _atom_site_fract_x
 _atom_site_fract_y
 _atom_site_fract_z
 _atom_site_occupancy
  Gd  Gd0  1  0.838481  0.836989  0.894238  1
  Gd  Gd1  1  0.163011  0.161519  0.605762  1
  Gd  Gd2  1  0.838481  0.163011  0.394238  1
  Gd  Gd3  1  0.161519  0.836989  0.394238  1
  Gd  Gd4  1  0.336989  0.338481  0.394238  1
  Gd  Gd5  1  0.836989  0.161519  0.105762  1
  Gd  Gd6  1  0.336989  0.661519  0.894238  1
  Gd  Gd7  1  0.163011  0.838481  0.105762  1
  Gd  Gd8  1  0.500000  0.000000  0.751767  1
  Gd  Gd9  1  0.000000  0.500000  0.248233  1
  Gd  Gd10  1  0.338481  0.663011  0.605762  1
  Gd  Gd11  1  0.661519  0.663011  0.105762  1
  Gd  Gd12  1  0.661519  0.336989  0.605762  1
  Gd  Gd13  1  0.000000  0.500000  0.748233  1
  Gd  Gd14  1  0.836989  0.838481  0.605762  1
  Gd  Gd15  1  0.663011  0.338481  0.894238  1
  Gd  Gd16  1  0.161519  0.163011  0.894238  1
  Gd  Gd17  1  0.500000  0.000000  0.251767  1
  Gd  Gd18  1  0.663011  0.661519  0.394238  1
  Gd  Gd19  1  0.338481  0.336989  0.105762  1
  Ga  Ga20  1  0.628329  0.371671  0.250000  1
  Ga  Ga21  1  0.371671  0.628329  0.250000  1
  Ga  Ga22  1  0.128329  0.128329  0.250000  1
  Ga  Ga23  1  0.371671  0.371671  0.750000  1
  Ga  Ga24  1  0.128329  0.871671  0.750000  1
  Ga  Ga25  1  0.871671  0.871671  0.250000  1
  Ga  Ga26  1  0.628329  0.628329  0.750000  1
  Ga  Ga27  1  0.871671  0.128329  0.750000  1
  Pb  Pb28  1  0.000000  0.500000  0.000182  1
  Pb  Pb29  1  0.500000  0.000000  0.999818  1
  Pb  Pb30  1  0.500000  0.000000  0.499818  1
  Pb  Pb31  1  0.000000  0.500000  0.500182  1
