# generated using pymatgen
data_Ho5Tm11In4Ir3Ru
_symmetry_space_group_name_H-M   'P 1'
_cell_length_a   9.55697925
_cell_length_b   9.56207477
_cell_length_c   9.58965100
_cell_angle_alpha   59.90455832
_cell_angle_beta   59.88685160
_cell_angle_gamma   59.93555423
_symmetry_Int_Tables_number   1
_chemical_formula_structural   Ho5Tm11In4Ir3Ru
_chemical_formula_sum   'Ho5 Tm11 In4 Ir3 Ru1'
_cell_volume   618.39052916
_cell_formula_units_Z   1
loop_
 _symmetry_equiv_pos_site_id
 _symmetry_equiv_pos_as_xyz
  1  'x, y, z'
loop_
 _atom_site_type_symbol
 _atom_site_label
 _atom_site_symmetry_multiplicity
 _atom_site_fract_x
 _atom_site_fract_y
 _atom_site_fract_z
 _atom_site_occupancy
  Ho  Ho0  1  0.438435  0.060528  0.059282  1
  Ho  Ho1  1  0.058230  0.060105  0.440832  1
  Ho  Ho2  1  0.648839  0.046297  0.652432  1
  Ho  Ho3  1  0.809936  0.807949  0.191058  1
  Ho  Ho4  1  0.438435  0.060528  0.441754  1
  Tm  Tm5  1  0.438729  0.443159  0.059056  1
  Tm  Tm6  1  0.650514  0.651609  0.044711  1
  Tm  Tm7  1  0.194174  0.808451  0.189573  1
  Tm  Tm8  1  0.059011  0.440920  0.059666  1
  Tm  Tm9  1  0.194174  0.808451  0.807803  1
  Tm  Tm10  1  0.059011  0.440920  0.440402  1
  Tm  Tm11  1  0.809538  0.192675  0.190958  1
  Tm  Tm12  1  0.650514  0.651609  0.653167  1
  Tm  Tm13  1  0.809538  0.192675  0.806829  1
  Tm  Tm14  1  0.192348  0.189923  0.808864  1
  Tm  Tm15  1  0.047592  0.649028  0.651691  1
  In  In16  1  0.416465  0.417323  0.415825  1
  In  In17  1  0.416465  0.417323  0.750388  1
  In  In18  1  0.417122  0.748165  0.417357  1
  In  In19  1  0.748532  0.418282  0.416593  1
  Ir  Ir20  1  0.861503  0.857607  0.859017  1
  Ir  Ir21  1  0.858751  0.422070  0.859588  1
  Ir  Ir22  1  0.861503  0.857607  0.421872  1
  Ru  Ru23  1  0.420641  0.856794  0.861282  1
