# generated using pymatgen
data_Ce2Ni3Ru
_symmetry_space_group_name_H-M   'P 1'
_cell_length_a   5.26876779
_cell_length_b   5.26876761
_cell_length_c   5.26876748
_cell_angle_alpha   56.97655682
_cell_angle_beta   56.97655659
_cell_angle_gamma   56.97655750
_symmetry_Int_Tables_number   1
_chemical_formula_structural   Ce2Ni3Ru
_chemical_formula_sum   'Ce2 Ni3 Ru1'
_cell_volume   96.21106252
_cell_formula_units_Z   1
loop_
 _symmetry_equiv_pos_site_id
 _symmetry_equiv_pos_as_xyz
  1  'x, y, z'
loop_
 _atom_site_type_symbol
 _atom_site_label
 _atom_site_symmetry_multiplicity
 _atom_site_fract_x
 _atom_site_fract_y
 _atom_site_fract_z
 _atom_site_occupancy
  Ce  Ce0  1  0.751783  0.751783  0.751783  1
  Ce  Ce1  1  0.498217  0.498217  0.498217  1
  Ni  Ni2  1  0.125000  0.125000  0.625000  1
  Ni  Ni3  1  0.125000  0.625000  0.125000  1
  Ni  Ni4  1  0.625000  0.125000  0.125000  1
  Ru  Ru5  1  0.125000  0.125000  0.125000  1
