# generated using pymatgen
data_YbTh3(ReB2)6
_symmetry_space_group_name_H-M   'P 1'
_cell_length_a   6.32630054
_cell_length_b   6.31721831
_cell_length_c   7.61629567
_cell_angle_alpha   90.57042805
_cell_angle_beta   90.72057098
_cell_angle_gamma   114.80677379
_symmetry_Int_Tables_number   1
_chemical_formula_structural   YbTh3(ReB2)6
_chemical_formula_sum   'Yb1 Th3 Re6 B12'
_cell_volume   276.23561235
_cell_formula_units_Z   1
loop_
 _symmetry_equiv_pos_site_id
 _symmetry_equiv_pos_as_xyz
  1  'x, y, z'
loop_
 _atom_site_type_symbol
 _atom_site_label
 _atom_site_symmetry_multiplicity
 _atom_site_fract_x
 _atom_site_fract_y
 _atom_site_fract_z
 _atom_site_occupancy
  Yb  Yb0  1  0.438159  0.097566  0.819590  1
  Th  Th1  1  0.095445  0.440549  0.326926  1
  Th  Th2  1  0.558514  0.910902  0.167604  1
  Th  Th3  1  0.903938  0.557771  0.676423  1
  Re  Re4  1  0.587746  0.414322  0.251163  1
  Re  Re5  1  0.411928  0.585871  0.749456  1
  Re  Re6  1  0.991398  0.805558  0.086672  1
  Re  Re7  1  0.193332  0.008975  0.411765  1
  Re  Re8  1  0.010654  0.194211  0.914496  1
  Re  Re9  1  0.806735  0.993081  0.588687  1
  B  B10  1  0.251084  0.151525  0.126669  1
  B  B11  1  0.846509  0.753729  0.367319  1
  B  B12  1  0.756251  0.847410  0.866075  1
  B  B13  1  0.155985  0.245884  0.635350  1
  B  B14  1  0.579918  0.158873  0.485252  1
  B  B15  1  0.837210  0.410515  0.020376  1
  B  B16  1  0.415692  0.841047  0.523809  1
  B  B17  1  0.160863  0.583203  0.981420  1
  B  B18  1  0.442642  0.349110  0.536131  1
  B  B19  1  0.649231  0.554782  0.966119  1
  B  B20  1  0.555818  0.652045  0.466441  1
  B  B21  1  0.350950  0.443071  0.032258  1
