# generated using pymatgen
data_Te2PbO5
_symmetry_space_group_name_H-M   'P 1'
_cell_length_a   6.22359700
_cell_length_b   9.93571772
_cell_length_c   11.62574116
_cell_angle_alpha   65.57602748
_cell_angle_beta   90.00000000
_cell_angle_gamma   90.00000000
_symmetry_Int_Tables_number   1
_chemical_formula_structural   Te2PbO5
_chemical_formula_sum   'Te8 Pb4 O20'
_cell_volume   654.55542832
_cell_formula_units_Z   4
loop_
 _symmetry_equiv_pos_site_id
 _symmetry_equiv_pos_as_xyz
  1  'x, y, z'
loop_
 _atom_site_type_symbol
 _atom_site_label
 _atom_site_symmetry_multiplicity
 _atom_site_fract_x
 _atom_site_fract_y
 _atom_site_fract_z
 _atom_site_occupancy
  Te  Te0  1  0.816095  0.261624  0.784641  1
  Te  Te1  1  0.316095  0.738376  0.715359  1
  Te  Te2  1  0.183905  0.738376  0.215359  1
  Te  Te3  1  0.683905  0.261624  0.284641  1
  Te  Te4  1  0.380133  0.351970  0.510688  1
  Te  Te5  1  0.880133  0.648030  0.989312  1
  Te  Te6  1  0.619867  0.648030  0.489312  1
  Te  Te7  1  0.119867  0.351970  0.010688  1
  Pb  Pb8  1  0.194904  0.020772  0.357025  1
  Pb  Pb9  1  0.694904  0.979228  0.142975  1
  Pb  Pb10  1  0.805096  0.979228  0.642975  1
  Pb  Pb11  1  0.305096  0.020772  0.857025  1
  O  O12  1  0.888799  0.479912  0.915288  1
  O  O13  1  0.388799  0.520088  0.584712  1
  O  O14  1  0.111201  0.520088  0.084712  1
  O  O15  1  0.611201  0.479912  0.415288  1
  O  O16  1  0.526844  0.214958  0.653582  1
  O  O17  1  0.026844  0.785042  0.846418  1
  O  O18  1  0.473156  0.785042  0.346418  1
  O  O19  1  0.973156  0.214958  0.153582  1
  O  O20  1  0.058985  0.233850  0.903997  1
  O  O21  1  0.558985  0.766150  0.596003  1
  O  O22  1  0.941015  0.766150  0.096003  1
  O  O23  1  0.441015  0.233850  0.403997  1
  O  O24  1  0.520562  0.157478  0.210996  1
  O  O25  1  0.020562  0.842522  0.289004  1
  O  O26  1  0.479438  0.842522  0.789004  1
  O  O27  1  0.979438  0.157478  0.710996  1
  O  O28  1  0.851346  0.112201  0.407300  1
  O  O29  1  0.351346  0.887799  0.092700  1
  O  O30  1  0.148654  0.887799  0.592700  1
  O  O31  1  0.648654  0.112201  0.907300  1
