# generated using pymatgen
data_Nb9Ga6B2Os
_symmetry_space_group_name_H-M   'P 1'
_cell_length_a   7.81363000
_cell_length_b   7.81363043
_cell_length_c   5.30985600
_cell_angle_alpha   90.00000000
_cell_angle_beta   90.00000000
_cell_angle_gamma   120.00000663
_symmetry_Int_Tables_number   1
_chemical_formula_structural   Nb9Ga6B2Os
_chemical_formula_sum   'Nb9 Ga6 B2 Os1'
_cell_volume   280.74954081
_cell_formula_units_Z   1
loop_
 _symmetry_equiv_pos_site_id
 _symmetry_equiv_pos_as_xyz
  1  'x, y, z'
loop_
 _atom_site_type_symbol
 _atom_site_label
 _atom_site_symmetry_multiplicity
 _atom_site_fract_x
 _atom_site_fract_y
 _atom_site_fract_z
 _atom_site_occupancy
  Nb  Nb0  1  0.333333  0.666667  0.500000  1
  Nb  Nb1  1  0.333333  0.666667  0.000000  1
  Nb  Nb2  1  0.666667  0.333333  0.000000  1
  Nb  Nb3  1  0.756659  0.759004  0.244856  1
  Nb  Nb4  1  0.240996  0.997656  0.244856  1
  Nb  Nb5  1  0.002344  0.243341  0.244856  1
  Nb  Nb6  1  0.240996  0.243341  0.755144  1
  Nb  Nb7  1  0.756659  0.997656  0.755144  1
  Nb  Nb8  1  0.002344  0.759004  0.755144  1
  Ga  Ga9  1  0.403957  0.400237  0.259136  1
  Ga  Ga10  1  0.599763  0.003721  0.259136  1
  Ga  Ga11  1  0.996279  0.596043  0.259136  1
  Ga  Ga12  1  0.599763  0.596043  0.740864  1
  Ga  Ga13  1  0.403957  0.003721  0.740864  1
  Ga  Ga14  1  0.996279  0.400237  0.740864  1
  B  B15  1  0.000000  0.000000  0.500000  1
  B  B16  1  0.000000  0.000000  0.000000  1
  Os  Os17  1  0.666667  0.333333  0.500000  1
