# generated using pymatgen
data_Zr8Mn5Tc11
_symmetry_space_group_name_H-M   'P 1'
_cell_length_a   5.20096227
_cell_length_b   5.25080395
_cell_length_c   17.02722878
_cell_angle_alpha   90.11967464
_cell_angle_beta   89.85587723
_cell_angle_gamma   120.01238390
_symmetry_Int_Tables_number   1
_chemical_formula_structural   Zr8Mn5Tc11
_chemical_formula_sum   'Zr8 Mn5 Tc11'
_cell_volume   402.65057818
_cell_formula_units_Z   1
loop_
 _symmetry_equiv_pos_site_id
 _symmetry_equiv_pos_as_xyz
  1  'x, y, z'
loop_
 _atom_site_type_symbol
 _atom_site_label
 _atom_site_symmetry_multiplicity
 _atom_site_fract_x
 _atom_site_fract_y
 _atom_site_fract_z
 _atom_site_occupancy
  Zr  Zr0  1  0.999969  0.997318  0.092595  1
  Zr  Zr1  1  0.000875  0.001106  0.594108  1
  Zr  Zr2  1  0.999153  0.001042  0.907707  1
  Zr  Zr3  1  0.998540  0.996810  0.405493  1
  Zr  Zr4  1  0.330699  0.664616  0.846367  1
  Zr  Zr5  1  0.667507  0.332870  0.344247  1
  Zr  Zr6  1  0.668800  0.332717  0.153841  1
  Zr  Zr7  1  0.331792  0.663949  0.655764  1
  Mn  Mn8  1  0.500911  0.001402  0.000469  1
  Mn  Mn9  1  0.000415  0.500000  0.999956  1
  Mn  Mn10  1  0.500409  0.001287  0.499673  1
  Mn  Mn11  1  0.163223  0.837966  0.248324  1
  Mn  Mn12  1  0.836364  0.673045  0.751320  1
  Tc  Tc13  1  0.333111  0.668832  0.122437  1
  Tc  Tc14  1  0.666722  0.330188  0.626187  1
  Tc  Tc15  1  0.666487  0.332265  0.877650  1
  Tc  Tc16  1  0.332606  0.669870  0.373655  1
  Tc  Tc17  1  0.499645  0.500902  0.500049  1
  Tc  Tc18  1  0.999933  0.499877  0.500091  1
  Tc  Tc19  1  0.498969  0.499293  0.999696  1
  Tc  Tc20  1  0.163030  0.326808  0.248470  1
  Tc  Tc21  1  0.839218  0.163714  0.751942  1
  Tc  Tc22  1  0.324338  0.163288  0.750894  1
  Tc  Tc23  1  0.677282  0.840835  0.249067  1
