# generated using pymatgen
data_Y2Ta3P7Rh9
_symmetry_space_group_name_H-M   'P 1'
_cell_length_a   3.92409000
_cell_length_b   9.62889628
_cell_length_c   9.62916200
_cell_angle_alpha   120.00092575
_cell_angle_beta   89.99996462
_cell_angle_gamma   89.99980718
_symmetry_Int_Tables_number   1
_chemical_formula_structural   Y2Ta3P7Rh9
_chemical_formula_sum   'Y2 Ta3 P7 Rh9'
_cell_volume   315.08704123
_cell_formula_units_Z   1
loop_
 _symmetry_equiv_pos_site_id
 _symmetry_equiv_pos_as_xyz
  1  'x, y, z'
loop_
 _atom_site_type_symbol
 _atom_site_label
 _atom_site_symmetry_multiplicity
 _atom_site_fract_x
 _atom_site_fract_y
 _atom_site_fract_z
 _atom_site_occupancy
  Y  Y0  1  0.261528  0.666685  0.333351  1
  Y  Y1  1  0.762104  0.333340  0.666666  1
  Ta  Ta2  1  0.761957  0.094838  0.872874  1
  Ta  Ta3  1  0.761955  0.127121  0.221963  1
  Ta  Ta4  1  0.761962  0.778010  0.905144  1
  P  P5  1  0.262151  0.999998  0.000001  1
  P  P6  1  0.761746  0.877250  0.588949  1
  P  P7  1  0.761727  0.411041  0.288282  1
  P  P8  1  0.761745  0.711719  0.122756  1
  P  P9  1  0.261961  0.117334  0.415939  1
  P  P10  1  0.261955  0.584066  0.701404  1
  P  P11  1  0.261948  0.298590  0.882681  1
  Rh  Rh12  1  0.261870  0.885108  0.161024  1
  Rh  Rh13  1  0.261865  0.838973  0.724095  1
  Rh  Rh14  1  0.261857  0.275919  0.114887  1
  Rh  Rh15  1  0.761919  0.611779  0.557606  1
  Rh  Rh16  1  0.761906  0.442331  0.054180  1
  Rh  Rh17  1  0.761925  0.945891  0.388205  1
  Rh  Rh18  1  0.261965  0.367599  0.438545  1
  Rh  Rh19  1  0.261971  0.561473  0.929055  1
  Rh  Rh20  1  0.261983  0.070937  0.632394  1
