# generated using pymatgen
data_Tb4TmSn3P
_symmetry_space_group_name_H-M   'P 1'
_cell_length_a   9.09985200
_cell_length_b   9.09985236
_cell_length_c   6.68701600
_cell_angle_alpha   90.00000000
_cell_angle_beta   90.00000000
_cell_angle_gamma   119.99999141
_symmetry_Int_Tables_number   1
_chemical_formula_structural   Tb4TmSn3P
_chemical_formula_sum   'Tb8 Tm2 Sn6 P2'
_cell_volume   479.54758367
_cell_formula_units_Z   2
loop_
 _symmetry_equiv_pos_site_id
 _symmetry_equiv_pos_as_xyz
  1  'x, y, z'
loop_
 _atom_site_type_symbol
 _atom_site_label
 _atom_site_symmetry_multiplicity
 _atom_site_fract_x
 _atom_site_fract_y
 _atom_site_fract_z
 _atom_site_occupancy
  Tb  Tb0  1  0.666667  0.333333  0.000000  1
  Tb  Tb1  1  0.333333  0.666667  0.000000  1
  Tb  Tb2  1  0.757836  0.757836  0.749560  1
  Tb  Tb3  1  0.242164  0.000000  0.749560  1
  Tb  Tb4  1  0.000000  0.242164  0.749560  1
  Tb  Tb5  1  0.242164  0.242164  0.250440  1
  Tb  Tb6  1  0.757836  0.000000  0.250440  1
  Tb  Tb7  1  0.000000  0.757836  0.250440  1
  Tm  Tm8  1  0.333333  0.666667  0.500000  1
  Tm  Tm9  1  0.666667  0.333333  0.500000  1
  Sn  Sn10  1  0.398980  0.398980  0.748311  1
  Sn  Sn11  1  0.601020  0.000000  0.748311  1
  Sn  Sn12  1  0.000000  0.601020  0.748311  1
  Sn  Sn13  1  0.601020  0.601020  0.251689  1
  Sn  Sn14  1  0.398980  0.000000  0.251689  1
  Sn  Sn15  1  0.000000  0.398980  0.251689  1
  P  P16  1  0.000000  0.000000  0.000000  1
  P  P17  1  0.000000  0.000000  0.500000  1
