# generated using pymatgen
data_EuZn10Pd
_symmetry_space_group_name_H-M   'P 1'
_cell_length_a   8.35135123
_cell_length_b   8.35135123
_cell_length_c   8.35135122
_cell_angle_alpha   99.21840583
_cell_angle_beta   100.27477571
_cell_angle_gamma   131.40922572
_symmetry_Int_Tables_number   1
_chemical_formula_structural   EuZn10Pd
_chemical_formula_sum   'Eu2 Zn20 Pd2'
_cell_volume   398.13885412
_cell_formula_units_Z   2
loop_
 _symmetry_equiv_pos_site_id
 _symmetry_equiv_pos_as_xyz
  1  'x, y, z'
loop_
 _atom_site_type_symbol
 _atom_site_label
 _atom_site_symmetry_multiplicity
 _atom_site_fract_x
 _atom_site_fract_y
 _atom_site_fract_z
 _atom_site_occupancy
  Eu  Eu0  1  0.000767  0.000767  0.000000  1
  Eu  Eu1  1  0.249233  0.749233  0.500000  1
  Zn  Zn2  1  0.760990  0.260990  0.500000  1
  Zn  Zn3  1  0.489010  0.489010  0.000000  1
  Zn  Zn4  1  0.625000  0.875000  0.250000  1
  Zn  Zn5  1  0.625000  0.375000  0.750000  1
  Zn  Zn6  1  0.182855  0.510471  0.082954  1
  Zn  Zn7  1  0.182855  0.099900  0.672383  1
  Zn  Zn8  1  0.760951  0.932539  0.585211  1
  Zn  Zn9  1  0.760951  0.175739  0.828411  1
  Zn  Zn10  1  0.427517  0.510471  0.327617  1
  Zn  Zn11  1  0.427517  0.099900  0.917046  1
  Zn  Zn12  1  0.347327  0.932539  0.171589  1
  Zn  Zn13  1  0.347327  0.175739  0.414789  1
  Zn  Zn14  1  0.067145  0.239529  0.417046  1
  Zn  Zn15  1  0.067145  0.650100  0.827617  1
  Zn  Zn16  1  0.489049  0.817461  0.914789  1
  Zn  Zn17  1  0.489049  0.574261  0.671589  1
  Zn  Zn18  1  0.822483  0.239529  0.172383  1
  Zn  Zn19  1  0.822483  0.650100  0.582954  1
  Zn  Zn20  1  0.902673  0.817461  0.328411  1
  Zn  Zn21  1  0.902673  0.574261  0.085211  1
  Pd  Pd22  1  0.125000  0.375000  0.750000  1
  Pd  Pd23  1  0.625000  0.375000  0.250000  1
