# generated using pymatgen
data_Er7TmB24(IrRu)2
_symmetry_space_group_name_H-M   'P 1'
_cell_length_a   3.62866300
_cell_length_b   9.13036774
_cell_length_c   11.44715601
_cell_angle_alpha   90.06690923
_cell_angle_beta   90.00000000
_cell_angle_gamma   90.00000000
_symmetry_Int_Tables_number   1
_chemical_formula_structural   Er7TmB24(IrRu)2
_chemical_formula_sum   'Er7 Tm1 B24 Ir2 Ru2'
_cell_volume   379.25578295
_cell_formula_units_Z   1
loop_
 _symmetry_equiv_pos_site_id
 _symmetry_equiv_pos_as_xyz
  1  'x, y, z'
loop_
 _atom_site_type_symbol
 _atom_site_label
 _atom_site_symmetry_multiplicity
 _atom_site_fract_x
 _atom_site_fract_y
 _atom_site_fract_z
 _atom_site_occupancy
  Er  Er0  1  0.000000  0.318725  0.411955  1
  Er  Er1  1  0.000000  0.681268  0.588113  1
  Er  Er2  1  0.000000  0.822799  0.085032  1
  Er  Er3  1  0.000000  0.177196  0.914855  1
  Er  Er4  1  0.000000  0.945709  0.372802  1
  Er  Er5  1  0.000000  0.054290  0.627230  1
  Er  Er6  1  0.000000  0.442440  0.125595  1
  Tm  Tm7  1  0.000000  0.557658  0.874222  1
  B  B8  1  0.500000  0.552939  0.434039  1
  B  B9  1  0.500000  0.447090  0.566050  1
  B  B10  1  0.500000  0.053927  0.066605  1
  B  B11  1  0.500000  0.945936  0.933344  1
  B  B12  1  0.500000  0.750419  0.420526  1
  B  B13  1  0.500000  0.249645  0.579509  1
  B  B14  1  0.500000  0.248121  0.079697  1
  B  B15  1  0.500000  0.751579  0.920234  1
  B  B16  1  0.500000  0.792975  0.265510  1
  B  B17  1  0.500000  0.207138  0.734503  1
  B  B18  1  0.500000  0.292066  0.234378  1
  B  B19  1  0.500000  0.707659  0.765732  1
  B  B20  1  0.500000  0.631665  0.183935  1
  B  B21  1  0.500000  0.368618  0.816117  1
  B  B22  1  0.500000  0.132012  0.314873  1
  B  B23  1  0.500000  0.867927  0.685173  1
  B  B24  1  0.500000  0.983204  0.212753  1
  B  B25  1  0.500000  0.016725  0.787265  1
  B  B26  1  0.500000  0.481387  0.286604  1
  B  B27  1  0.500000  0.518747  0.713648  1
  B  B28  1  0.500000  0.609502  0.030128  1
  B  B29  1  0.500000  0.390751  0.969399  1
  B  B30  1  0.500000  0.109415  0.470292  1
  B  B31  1  0.500000  0.890579  0.529736  1
  Ir  Ir32  1  0.000000  0.637328  0.322149  1
  Ir  Ir33  1  0.000000  0.362904  0.678019  1
  Ru  Ru34  1  0.000000  0.137962  0.178943  1
  Ru  Ru35  1  0.000000  0.861691  0.821033  1
