# generated using pymatgen
data_Dy7Ho13CoBi8Os3
_symmetry_space_group_name_H-M   'P 1'
_cell_length_a   7.96543179
_cell_length_b   9.01455100
_cell_length_c   12.42552735
_cell_angle_alpha   90.00000000
_cell_angle_beta   89.81941865
_cell_angle_gamma   90.00000000
_symmetry_Int_Tables_number   1
_chemical_formula_structural   Dy7Ho13CoBi8Os3
_chemical_formula_sum   'Dy7 Ho13 Co1 Bi8 Os3'
_cell_volume   892.20796464
_cell_formula_units_Z   1
loop_
 _symmetry_equiv_pos_site_id
 _symmetry_equiv_pos_as_xyz
  1  'x, y, z'
loop_
 _atom_site_type_symbol
 _atom_site_label
 _atom_site_symmetry_multiplicity
 _atom_site_fract_x
 _atom_site_fract_y
 _atom_site_fract_z
 _atom_site_occupancy
  Dy  Dy0  1  0.344231  0.750000  0.701626  1
  Dy  Dy1  1  0.658546  0.250000  0.292383  1
  Dy  Dy2  1  0.841847  0.250000  0.791003  1
  Dy  Dy3  1  0.156537  0.750000  0.206612  1
  Dy  Dy4  1  0.878875  0.750000  0.805687  1
  Dy  Dy5  1  0.120161  0.250000  0.193828  1
  Dy  Dy6  1  0.617142  0.750000  0.312594  1
  Ho  Ho7  1  0.378378  0.250000  0.692823  1
  Ho  Ho8  1  0.674884  0.541790  0.563855  1
  Ho  Ho9  1  0.325653  0.459982  0.437211  1
  Ho  Ho10  1  0.174331  0.457597  0.936091  1
  Ho  Ho11  1  0.325653  0.040018  0.437211  1
  Ho  Ho12  1  0.824771  0.543243  0.064186  1
  Ho  Ho13  1  0.674884  0.958210  0.563855  1
  Ho  Ho14  1  0.824771  0.956757  0.064186  1
  Ho  Ho15  1  0.174331  0.042403  0.936091  1
  Ho  Ho16  1  0.056405  0.750000  0.496693  1
  Ho  Ho17  1  0.944777  0.250000  0.503128  1
  Ho  Ho18  1  0.558306  0.250000  0.003685  1
  Ho  Ho19  1  0.441604  0.750000  0.995433  1
  Co  Co20  1  0.429386  0.750000  0.491153  1
  Bi  Bi21  1  0.569400  0.508195  0.827634  1
  Bi  Bi22  1  0.430038  0.492551  0.172567  1
  Bi  Bi23  1  0.071606  0.491959  0.671294  1
  Bi  Bi24  1  0.430038  0.007449  0.172567  1
  Bi  Bi25  1  0.929632  0.508795  0.329031  1
  Bi  Bi26  1  0.569400  0.991805  0.827634  1
  Bi  Bi27  1  0.929632  0.991205  0.329031  1
  Bi  Bi28  1  0.071606  0.008041  0.671294  1
  Os  Os29  1  0.075583  0.750000  0.988959  1
  Os  Os30  1  0.923482  0.250000  0.010344  1
  Os  Os31  1  0.574109  0.250000  0.510313  1
