# generated using pymatgen
data_Nd2Y6Co3Si12Rh
_symmetry_space_group_name_H-M   'P 1'
_cell_length_a   8.06482000
_cell_length_b   8.06482000
_cell_length_c   8.03943700
_cell_angle_alpha   90.00000000
_cell_angle_beta   90.00000000
_cell_angle_gamma   119.99999999
_symmetry_Int_Tables_number   1
_chemical_formula_structural   Nd2Y6Co3Si12Rh
_chemical_formula_sum   'Nd2 Y6 Co3 Si12 Rh1'
_cell_volume   452.84087996
_cell_formula_units_Z   1
loop_
 _symmetry_equiv_pos_site_id
 _symmetry_equiv_pos_as_xyz
  1  'x, y, z'
loop_
 _atom_site_type_symbol
 _atom_site_label
 _atom_site_symmetry_multiplicity
 _atom_site_fract_x
 _atom_site_fract_y
 _atom_site_fract_z
 _atom_site_occupancy
  Nd  Nd0  1  0.000000  0.000000  0.248725  1
  Nd  Nd1  1  0.000000  0.000000  0.751602  1
  Y  Y2  1  0.012416  0.506207  0.248467  1
  Y  Y3  1  0.493793  0.506207  0.248467  1
  Y  Y4  1  0.503814  0.007631  0.749990  1
  Y  Y5  1  0.493793  0.987584  0.248467  1
  Y  Y6  1  0.503814  0.496186  0.749990  1
  Y  Y7  1  0.992369  0.496186  0.749990  1
  Co  Co8  1  0.333333  0.666667  0.970690  1
  Co  Co9  1  0.333333  0.666667  0.529451  1
  Co  Co10  1  0.666667  0.333333  0.029895  1
  Si  Si11  1  0.172563  0.345127  0.000719  1
  Si  Si12  1  0.654873  0.827437  0.000719  1
  Si  Si13  1  0.173049  0.346097  0.498695  1
  Si  Si14  1  0.346396  0.173198  0.998775  1
  Si  Si15  1  0.172563  0.827437  0.000719  1
  Si  Si16  1  0.653903  0.826951  0.498695  1
  Si  Si17  1  0.826802  0.653604  0.998775  1
  Si  Si18  1  0.334889  0.167445  0.502688  1
  Si  Si19  1  0.173049  0.826951  0.498695  1
  Si  Si20  1  0.832555  0.665111  0.502688  1
  Si  Si21  1  0.826802  0.173198  0.998775  1
  Si  Si22  1  0.832555  0.167445  0.502688  1
  Rh  Rh23  1  0.666667  0.333333  0.471633  1
