# generated using pymatgen
data_MnFe4P4Ru3
_symmetry_space_group_name_H-M   'P 1'
_cell_length_a   3.65885900
_cell_length_b   5.80113338
_cell_length_c   6.60777203
_cell_angle_alpha   89.52108445
_cell_angle_beta   90.00000000
_cell_angle_gamma   90.00000000
_symmetry_Int_Tables_number   1
_chemical_formula_structural   MnFe4P4Ru3
_chemical_formula_sum   'Mn1 Fe4 P4 Ru3'
_cell_volume   140.24855788
_cell_formula_units_Z   1
loop_
 _symmetry_equiv_pos_site_id
 _symmetry_equiv_pos_as_xyz
  1  'x, y, z'
loop_
 _atom_site_type_symbol
 _atom_site_label
 _atom_site_symmetry_multiplicity
 _atom_site_fract_x
 _atom_site_fract_y
 _atom_site_fract_z
 _atom_site_occupancy
  Mn  Mn0  1  0.250000  0.028379  0.827649  1
  Fe  Fe1  1  0.750000  0.357490  0.937815  1
  Fe  Fe2  1  0.750000  0.859254  0.570532  1
  Fe  Fe3  1  0.250000  0.637687  0.063522  1
  Fe  Fe4  1  0.250000  0.148574  0.434680  1
  P  P5  1  0.750000  0.730956  0.879961  1
  P  P6  1  0.750000  0.234532  0.620452  1
  P  P7  1  0.250000  0.265142  0.121208  1
  P  P8  1  0.250000  0.773890  0.378611  1
  Ru  Ru9  1  0.750000  0.478681  0.332388  1
  Ru  Ru10  1  0.750000  0.959771  0.167686  1
  Ru  Ru11  1  0.250000  0.525642  0.665495  1
