# generated using pymatgen
data_Dy2Ho8InSb5
_symmetry_space_group_name_H-M   'P 1'
_cell_length_a   6.38593800
_cell_length_b   8.92984589
_cell_length_c   8.93708386
_cell_angle_alpha   119.97322333
_cell_angle_beta   90.00001794
_cell_angle_gamma   89.99997177
_symmetry_Int_Tables_number   1
_chemical_formula_structural   Dy2Ho8InSb5
_chemical_formula_sum   'Dy2 Ho8 In1 Sb5'
_cell_volume   441.48123036
_cell_formula_units_Z   1
loop_
 _symmetry_equiv_pos_site_id
 _symmetry_equiv_pos_as_xyz
  1  'x, y, z'
loop_
 _atom_site_type_symbol
 _atom_site_label
 _atom_site_symmetry_multiplicity
 _atom_site_fract_x
 _atom_site_fract_y
 _atom_site_fract_z
 _atom_site_occupancy
  Dy  Dy0  1  0.250001  0.246448  0.244216  1
  Dy  Dy1  1  0.250001  0.002231  0.755784  1
  Ho  Ho2  1  0.499031  0.335381  0.669156  1
  Ho  Ho3  1  0.499031  0.666225  0.330844  1
  Ho  Ho4  1  0.000968  0.666226  0.330844  1
  Ho  Ho5  1  0.000968  0.335382  0.669156  1
  Ho  Ho6  1  0.750001  0.243885  0.000000  1
  Ho  Ho7  1  0.750001  0.754136  0.758422  1
  Ho  Ho8  1  0.750001  0.995713  0.241578  1
  Ho  Ho9  1  0.249999  0.757121  0.000000  1
  In  In10  1  0.749999  0.605315  0.000000  1
  Sb  Sb11  1  0.750001  0.388708  0.389363  1
  Sb  Sb12  1  0.750001  0.999344  0.610637  1
  Sb  Sb13  1  0.250000  0.391888  0.000000  1
  Sb  Sb14  1  0.250000  0.611170  0.610342  1
  Sb  Sb15  1  0.250000  0.000827  0.389658  1
