# generated using pymatgen
data_Bi4OsRu(RhO7)2
_symmetry_space_group_name_H-M   'P 1'
_cell_length_a   7.38692335
_cell_length_b   7.37108485
_cell_length_c   7.37108592
_cell_angle_alpha   59.84525711
_cell_angle_beta   59.89769080
_cell_angle_gamma   59.89769476
_symmetry_Int_Tables_number   1
_chemical_formula_structural   Bi4OsRu(RhO7)2
_chemical_formula_sum   'Bi4 Os1 Ru1 Rh2 O14'
_cell_volume   283.02791174
_cell_formula_units_Z   1
loop_
 _symmetry_equiv_pos_site_id
 _symmetry_equiv_pos_as_xyz
  1  'x, y, z'
loop_
 _atom_site_type_symbol
 _atom_site_label
 _atom_site_symmetry_multiplicity
 _atom_site_fract_x
 _atom_site_fract_y
 _atom_site_fract_z
 _atom_site_occupancy
  Bi  Bi0  1  0.125000  0.625000  0.125000  1
  Bi  Bi1  1  0.125000  0.125000  0.625000  1
  Bi  Bi2  1  0.625000  0.125000  0.125000  1
  Bi  Bi3  1  0.125000  0.125000  0.125000  1
  Os  Os4  1  0.625000  0.625000  0.625000  1
  Ru  Ru5  1  0.125000  0.625000  0.625000  1
  Rh  Rh6  1  0.625000  0.625000  0.125000  1
  Rh  Rh7  1  0.625000  0.125000  0.625000  1
  O  O8  1  0.303425  0.700094  0.700094  1
  O  O9  1  0.290540  0.701729  0.296160  1
  O  O10  1  0.545111  0.946995  0.549424  1
  O  O11  1  0.290540  0.296160  0.701729  1
  O  O12  1  0.250938  0.250196  0.250196  1
  O  O13  1  0.704889  0.700576  0.303005  1
  O  O14  1  0.959460  0.953840  0.548271  1
  O  O15  1  0.707310  0.289733  0.289733  1
  O  O16  1  0.946575  0.549906  0.549906  1
  O  O17  1  0.999062  0.999804  0.999804  1
  O  O18  1  0.542690  0.960267  0.960267  1
  O  O19  1  0.959460  0.548271  0.953840  1
  O  O20  1  0.704889  0.303005  0.700576  1
  O  O21  1  0.545111  0.549424  0.946995  1
