# generated using pymatgen
data_Tb4Ho5ErSn8
_symmetry_space_group_name_H-M   'P 1'
_cell_length_a   8.02015700
_cell_length_b   8.16354300
_cell_length_c   15.42952600
_cell_angle_alpha   90.00000000
_cell_angle_beta   90.00000000
_cell_angle_gamma   90.00000000
_symmetry_Int_Tables_number   1
_chemical_formula_structural   Tb4Ho5ErSn8
_chemical_formula_sum   'Tb8 Ho10 Er2 Sn16'
_cell_volume   1010.21575940
_cell_formula_units_Z   2
loop_
 _symmetry_equiv_pos_site_id
 _symmetry_equiv_pos_as_xyz
  1  'x, y, z'
loop_
 _atom_site_type_symbol
 _atom_site_label
 _atom_site_symmetry_multiplicity
 _atom_site_fract_x
 _atom_site_fract_y
 _atom_site_fract_z
 _atom_site_occupancy
  Tb  Tb0  1  0.520343  0.319989  0.902503  1
  Tb  Tb1  1  0.020343  0.180011  0.597497  1
  Tb  Tb2  1  0.479648  0.680005  0.402465  1
  Tb  Tb3  1  0.979648  0.819995  0.097535  1
  Tb  Tb4  1  0.479648  0.680005  0.097535  1
  Tb  Tb5  1  0.979648  0.819995  0.402465  1
  Tb  Tb6  1  0.520343  0.319989  0.597497  1
  Tb  Tb7  1  0.020343  0.180011  0.902503  1
  Ho  Ho8  1  0.367370  0.835897  0.877959  1
  Ho  Ho9  1  0.867370  0.664103  0.622041  1
  Ho  Ho10  1  0.632594  0.164085  0.377905  1
  Ho  Ho11  1  0.132594  0.335915  0.122095  1
  Ho  Ho12  1  0.632594  0.164085  0.122095  1
  Ho  Ho13  1  0.132594  0.335915  0.377905  1
  Ho  Ho14  1  0.367370  0.835897  0.622041  1
  Ho  Ho15  1  0.867370  0.664103  0.877959  1
  Ho  Ho16  1  0.198094  0.503174  0.750000  1
  Ho  Ho17  1  0.698094  0.996826  0.750000  1
  Er  Er18  1  0.801907  0.496837  0.250000  1
  Er  Er19  1  0.301907  0.003163  0.250000  1
  Sn  Sn20  1  0.293574  0.036136  0.041945  1
  Sn  Sn21  1  0.793574  0.463864  0.458055  1
  Sn  Sn22  1  0.706411  0.963827  0.541739  1
  Sn  Sn23  1  0.206411  0.536173  0.958261  1
  Sn  Sn24  1  0.706411  0.963827  0.958261  1
  Sn  Sn25  1  0.206411  0.536173  0.541739  1
  Sn  Sn26  1  0.293574  0.036136  0.458055  1
  Sn  Sn27  1  0.793574  0.463864  0.041945  1
  Sn  Sn28  1  0.564969  0.619748  0.750000  1
  Sn  Sn29  1  0.064969  0.880252  0.750000  1
  Sn  Sn30  1  0.435304  0.380160  0.250000  1
  Sn  Sn31  1  0.935304  0.119840  0.250000  1
  Sn  Sn32  1  0.328572  0.146432  0.750000  1
  Sn  Sn33  1  0.828572  0.353568  0.750000  1
  Sn  Sn34  1  0.671274  0.853208  0.250000  1
  Sn  Sn35  1  0.171274  0.646792  0.250000  1
