# generated using pymatgen
data_PrNd7Te8
_symmetry_space_group_name_H-M   'P 1'
_cell_length_a   9.01943161
_cell_length_b   9.01943230
_cell_length_c   9.01943051
_cell_angle_alpha   59.85281117
_cell_angle_beta   59.85281706
_cell_angle_gamma   59.85281665
_symmetry_Int_Tables_number   1
_chemical_formula_structural   PrNd7Te8
_chemical_formula_sum   'Pr1 Nd7 Te8'
_cell_volume   517.09395938
_cell_formula_units_Z   1
loop_
 _symmetry_equiv_pos_site_id
 _symmetry_equiv_pos_as_xyz
  1  'x, y, z'
loop_
 _atom_site_type_symbol
 _atom_site_label
 _atom_site_symmetry_multiplicity
 _atom_site_fract_x
 _atom_site_fract_y
 _atom_site_fract_z
 _atom_site_occupancy
  Pr  Pr0  1  0.625000  0.625000  0.625000  1
  Nd  Nd1  1  0.125000  0.625000  0.125000  1
  Nd  Nd2  1  0.125000  0.125000  0.625000  1
  Nd  Nd3  1  0.625000  0.125000  0.125000  1
  Nd  Nd4  1  0.125000  0.125000  0.125000  1
  Nd  Nd5  1  0.625000  0.125000  0.625000  1
  Nd  Nd6  1  0.125000  0.625000  0.625000  1
  Nd  Nd7  1  0.625000  0.625000  0.125000  1
  Te  Te8  1  0.374184  0.875640  0.374184  1
  Te  Te9  1  0.875816  0.374360  0.875816  1
  Te  Te10  1  0.875816  0.875816  0.374360  1
  Te  Te11  1  0.874927  0.874927  0.874927  1
  Te  Te12  1  0.875640  0.374184  0.374184  1
  Te  Te13  1  0.374184  0.374184  0.875640  1
  Te  Te14  1  0.375073  0.375073  0.375073  1
  Te  Te15  1  0.374360  0.875816  0.875816  1
