# generated using pymatgen
data_Tb2Tm4Al24Os5Pt3
_symmetry_space_group_name_H-M   'P 1'
_cell_length_a   8.81181015
_cell_length_b   8.82547020
_cell_length_c   9.53786556
_cell_angle_alpha   90.12111452
_cell_angle_beta   89.68060580
_cell_angle_gamma   119.59201312
_symmetry_Int_Tables_number   1
_chemical_formula_structural   Tb2Tm4Al24Os5Pt3
_chemical_formula_sum   'Tb2 Tm4 Al24 Os5 Pt3'
_cell_volume   644.98372346
_cell_formula_units_Z   1
loop_
 _symmetry_equiv_pos_site_id
 _symmetry_equiv_pos_as_xyz
  1  'x, y, z'
loop_
 _atom_site_type_symbol
 _atom_site_label
 _atom_site_symmetry_multiplicity
 _atom_site_fract_x
 _atom_site_fract_y
 _atom_site_fract_z
 _atom_site_occupancy
  Tb  Tb0  1  0.187610  0.381768  0.250451  1
  Tb  Tb1  1  0.812390  0.618232  0.749549  1
  Tm  Tm2  1  0.610577  0.813822  0.252693  1
  Tm  Tm3  1  0.389423  0.186178  0.747307  1
  Tm  Tm4  1  0.197188  0.807969  0.252319  1
  Tm  Tm5  1  0.802812  0.192031  0.747681  1
  Al  Al6  1  0.335375  0.671296  0.030662  1
  Al  Al7  1  0.664625  0.328704  0.969338  1
  Al  Al8  1  0.669464  0.332048  0.528585  1
  Al  Al9  1  0.330536  0.667952  0.471415  1
  Al  Al10  1  0.157677  0.325322  0.575933  1
  Al  Al11  1  0.842323  0.674678  0.424067  1
  Al  Al12  1  0.673372  0.841031  0.575355  1
  Al  Al13  1  0.836904  0.676440  0.078926  1
  Al  Al14  1  0.326628  0.158969  0.424645  1
  Al  Al15  1  0.163096  0.323560  0.921074  1
  Al  Al16  1  0.163809  0.835078  0.576075  1
  Al  Al17  1  0.325710  0.158435  0.076251  1
  Al  Al18  1  0.836191  0.164922  0.423925  1
  Al  Al19  1  0.674290  0.841565  0.923749  1
  Al  Al20  1  0.831215  0.158905  0.077769  1
  Al  Al21  1  0.168785  0.841095  0.922231  1
  Al  Al22  1  0.560840  0.125111  0.249870  1
  Al  Al23  1  0.439160  0.874889  0.750130  1
  Al  Al24  1  0.873921  0.438193  0.252658  1
  Al  Al25  1  0.126079  0.561807  0.747342  1
  Al  Al26  1  0.562865  0.437061  0.249816  1
  Al  Al27  1  0.437135  0.562939  0.750184  1
  Al  Al28  1  0.997437  0.999817  0.250247  1
  Al  Al29  1  0.002563  0.000183  0.749753  1
  Os  Os30  1  0.500000  0.000000  0.000000  1
  Os  Os31  1  0.500000  0.000000  0.500000  1
  Os  Os32  1  0.000000  0.500000  0.500000  1
  Os  Os33  1  0.000000  0.000000  0.000000  1
  Os  Os34  1  0.000000  0.000000  0.500000  1
  Pt  Pt35  1  0.000000  0.500000  0.000000  1
  Pt  Pt36  1  0.500000  0.500000  0.000000  1
  Pt  Pt37  1  0.500000  0.500000  0.500000  1
