# generated using pymatgen
data_Tb10Y5Th(InIr)4
_symmetry_space_group_name_H-M   'P 1'
_cell_length_a   9.71711601
_cell_length_b   9.73174221
_cell_length_c   9.73395483
_cell_angle_alpha   60.13244172
_cell_angle_beta   60.06760241
_cell_angle_gamma   60.10695534
_symmetry_Int_Tables_number   1
_chemical_formula_structural   Tb10Y5Th(InIr)4
_chemical_formula_sum   'Tb10 Y5 Th1 In4 Ir4'
_cell_volume   652.39081927
_cell_formula_units_Z   1
loop_
 _symmetry_equiv_pos_site_id
 _symmetry_equiv_pos_as_xyz
  1  'x, y, z'
loop_
 _atom_site_type_symbol
 _atom_site_label
 _atom_site_symmetry_multiplicity
 _atom_site_fract_x
 _atom_site_fract_y
 _atom_site_fract_z
 _atom_site_occupancy
  Tb  Tb0  1  0.098438  0.099183  0.098852  1
  Tb  Tb1  1  0.561659  0.558769  0.939119  1
  Tb  Tb2  1  0.100433  0.101526  0.699220  1
  Tb  Tb3  1  0.691745  0.307114  0.691923  1
  Tb  Tb4  1  0.690233  0.688753  0.311067  1
  Tb  Tb5  1  0.691038  0.308779  0.311364  1
  Tb  Tb6  1  0.311403  0.688601  0.690201  1
  Tb  Tb7  1  0.559771  0.939758  0.558602  1
  Tb  Tb8  1  0.698047  0.101926  0.100843  1
  Tb  Tb9  1  0.559946  0.940110  0.941007  1
  Y  Y10  1  0.942129  0.940239  0.558625  1
  Y  Y11  1  0.940223  0.557471  0.939404  1
  Y  Y12  1  0.311975  0.688681  0.311343  1
  Y  Y13  1  0.939963  0.558580  0.560619  1
  Y  Y14  1  0.311702  0.307931  0.691367  1
  Th  Th15  1  0.097108  0.710403  0.096560  1
  In  In16  1  0.332374  0.334352  0.333723  1
  In  In17  1  0.001436  0.333159  0.332316  1
  In  In18  1  0.332002  0.000828  0.333551  1
  In  In19  1  0.331423  0.333727  0.000717  1
  Ir  Ir20  1  0.890945  0.893576  0.892673  1
  Ir  Ir21  1  0.891274  0.891980  0.323086  1
  Ir  Ir22  1  0.324375  0.891589  0.891680  1
  Ir  Ir23  1  0.890361  0.322965  0.892140  1
