# generated using pymatgen
data_Np6Mn20P13
_symmetry_space_group_name_H-M   'P 1'
_cell_length_a   13.08101400
_cell_length_b   13.08101363
_cell_length_c   3.55090400
_cell_angle_alpha   90.00000000
_cell_angle_beta   90.00000000
_cell_angle_gamma   120.00000094
_symmetry_Int_Tables_number   1
_chemical_formula_structural   Np6Mn20P13
_chemical_formula_sum   'Np6 Mn20 P13'
_cell_volume   526.20184590
_cell_formula_units_Z   1
loop_
 _symmetry_equiv_pos_site_id
 _symmetry_equiv_pos_as_xyz
  1  'x, y, z'
loop_
 _atom_site_type_symbol
 _atom_site_label
 _atom_site_symmetry_multiplicity
 _atom_site_fract_x
 _atom_site_fract_y
 _atom_site_fract_z
 _atom_site_occupancy
  Np  Np0  1  0.522874  0.718078  0.248319  1
  Np  Np1  1  0.281922  0.804795  0.248319  1
  Np  Np2  1  0.195205  0.477126  0.248319  1
  Np  Np3  1  0.477126  0.281922  0.751681  1
  Np  Np4  1  0.718078  0.195205  0.751681  1
  Np  Np5  1  0.804795  0.522874  0.751681  1
  Mn  Mn6  1  0.333333  0.666667  0.748639  1
  Mn  Mn7  1  0.928488  0.248506  0.250081  1
  Mn  Mn8  1  0.751494  0.679982  0.250081  1
  Mn  Mn9  1  0.320018  0.071512  0.250081  1
  Mn  Mn10  1  0.431953  0.014400  0.750321  1
  Mn  Mn11  1  0.985600  0.417554  0.750321  1
  Mn  Mn12  1  0.582446  0.568047  0.750321  1
  Mn  Mn13  1  0.666667  0.333333  0.251361  1
  Mn  Mn14  1  0.090094  0.188038  0.240521  1
  Mn  Mn15  1  0.811962  0.902057  0.240521  1
  Mn  Mn16  1  0.097943  0.909906  0.240521  1
  Mn  Mn17  1  0.014400  0.582446  0.249679  1
  Mn  Mn18  1  0.417554  0.431953  0.249679  1
  Mn  Mn19  1  0.568047  0.985600  0.249679  1
  Mn  Mn20  1  0.679982  0.928488  0.749919  1
  Mn  Mn21  1  0.071512  0.751494  0.749919  1
  Mn  Mn22  1  0.248506  0.320018  0.749919  1
  Mn  Mn23  1  0.909906  0.811962  0.759479  1
  Mn  Mn24  1  0.188038  0.097943  0.759479  1
  Mn  Mn25  1  0.902057  0.090094  0.759479  1
  P  P26  1  0.522360  0.136335  0.250782  1
  P  P27  1  0.863665  0.386025  0.250782  1
  P  P28  1  0.613975  0.477640  0.250782  1
  P  P29  1  0.942865  0.713189  0.253807  1
  P  P30  1  0.286811  0.229676  0.253807  1
  P  P31  1  0.770324  0.057135  0.253807  1
  P  P32  1  0.386025  0.522360  0.749218  1
  P  P33  1  0.477640  0.863665  0.749218  1
  P  P34  1  0.136335  0.613975  0.749218  1
  P  P35  1  0.713189  0.770324  0.746193  1
  P  P36  1  0.229676  0.942865  0.746193  1
  P  P37  1  0.057135  0.286811  0.746193  1
  P  P38  1  0.000000  0.000000  0.000000  1
