# generated using pymatgen
data_Mn4Re5Si6W
_symmetry_space_group_name_H-M   'P 1'
_cell_length_a   6.99163100
_cell_length_b   6.99936536
_cell_length_c   4.84475100
_cell_angle_alpha   90.00000000
_cell_angle_beta   90.00000000
_cell_angle_gamma   119.96345804
_symmetry_Int_Tables_number   1
_chemical_formula_structural   Mn4Re5Si6W
_chemical_formula_sum   'Mn4 Re5 Si6 W1'
_cell_volume   205.39934514
_cell_formula_units_Z   1
loop_
 _symmetry_equiv_pos_site_id
 _symmetry_equiv_pos_as_xyz
  1  'x, y, z'
loop_
 _atom_site_type_symbol
 _atom_site_label
 _atom_site_symmetry_multiplicity
 _atom_site_fract_x
 _atom_site_fract_y
 _atom_site_fract_z
 _atom_site_occupancy
  Mn  Mn0  1  0.332550  0.668366  0.500302  1
  Mn  Mn1  1  0.664185  0.331634  0.999698  1
  Mn  Mn2  1  0.664185  0.331634  0.500302  1
  Mn  Mn3  1  0.332550  0.668366  0.999698  1
  Re  Re4  1  0.000629  0.759518  0.750000  1
  Re  Re5  1  0.000470  0.240205  0.250000  1
  Re  Re6  1  0.760266  0.759795  0.250000  1
  Re  Re7  1  0.763730  0.000000  0.750000  1
  Re  Re8  1  0.241111  0.240482  0.750000  1
  Si  Si9  1  0.406673  0.000000  0.750000  1
  Si  Si10  1  0.405544  0.409316  0.250000  1
  Si  Si11  1  0.996228  0.590684  0.250000  1
  Si  Si12  1  0.000292  0.404034  0.750000  1
  Si  Si13  1  0.596258  0.595966  0.750000  1
  Si  Si14  1  0.598175  0.000000  0.250000  1
  W  W15  1  0.237153  0.000000  0.250000  1
