# generated using pymatgen
data_Dy4ZnCo
_symmetry_space_group_name_H-M   'P 1'
_cell_length_a   9.36865592
_cell_length_b   9.36865632
_cell_length_c   9.36865600
_cell_angle_alpha   60.00000114
_cell_angle_beta   59.99999971
_cell_angle_gamma   60.00000124
_symmetry_Int_Tables_number   1
_chemical_formula_structural   Dy4ZnCo
_chemical_formula_sum   'Dy16 Zn4 Co4'
_cell_volume   581.45605640
_cell_formula_units_Z   4
loop_
 _symmetry_equiv_pos_site_id
 _symmetry_equiv_pos_as_xyz
  1  'x, y, z'
loop_
 _atom_site_type_symbol
 _atom_site_label
 _atom_site_symmetry_multiplicity
 _atom_site_fract_x
 _atom_site_fract_y
 _atom_site_fract_z
 _atom_site_occupancy
  Dy  Dy0  1  0.599932  0.599932  0.599932  1
  Dy  Dy1  1  0.599932  0.599932  0.200205  1
  Dy  Dy2  1  0.599932  0.200205  0.599932  1
  Dy  Dy3  1  0.200205  0.599932  0.599932  1
  Dy  Dy4  1  0.059589  0.440411  0.440411  1
  Dy  Dy5  1  0.440411  0.059589  0.059589  1
  Dy  Dy6  1  0.440411  0.059589  0.440411  1
  Dy  Dy7  1  0.059589  0.440411  0.059589  1
  Dy  Dy8  1  0.440411  0.440411  0.059589  1
  Dy  Dy9  1  0.059589  0.059589  0.440411  1
  Dy  Dy10  1  0.187687  0.812313  0.812313  1
  Dy  Dy11  1  0.812313  0.187687  0.187687  1
  Dy  Dy12  1  0.812313  0.187687  0.812313  1
  Dy  Dy13  1  0.187687  0.812313  0.187687  1
  Dy  Dy14  1  0.812313  0.812313  0.187687  1
  Dy  Dy15  1  0.187687  0.187687  0.812313  1
  Zn  Zn16  1  0.828190  0.828190  0.828190  1
  Zn  Zn17  1  0.828190  0.828190  0.515431  1
  Zn  Zn18  1  0.828190  0.515431  0.828190  1
  Zn  Zn19  1  0.515431  0.828190  0.828190  1
  Co  Co20  1  0.391700  0.391700  0.391700  1
  Co  Co21  1  0.391700  0.391700  0.824901  1
  Co  Co22  1  0.391700  0.824901  0.391700  1
  Co  Co23  1  0.824901  0.391700  0.391700  1
