# generated using pymatgen
data_LiTi3MnPt11
_symmetry_space_group_name_H-M   'P 1'
_cell_length_a   5.57528700
_cell_length_b   5.55516281
_cell_length_c   9.07070400
_cell_angle_alpha   90.00000000
_cell_angle_beta   90.00000000
_cell_angle_gamma   120.11990158
_symmetry_Int_Tables_number   1
_chemical_formula_structural   LiTi3MnPt11
_chemical_formula_sum   'Li1 Ti3 Mn1 Pt11'
_cell_volume   243.00189462
_cell_formula_units_Z   1
loop_
 _symmetry_equiv_pos_site_id
 _symmetry_equiv_pos_as_xyz
  1  'x, y, z'
loop_
 _atom_site_type_symbol
 _atom_site_label
 _atom_site_symmetry_multiplicity
 _atom_site_fract_x
 _atom_site_fract_y
 _atom_site_fract_z
 _atom_site_occupancy
  Li  Li0  1  0.330215  0.660430  0.250000  1
  Ti  Ti1  1  0.006698  0.013397  0.503735  1
  Ti  Ti2  1  0.006698  0.013397  0.996265  1
  Ti  Ti3  1  0.667669  0.335337  0.750000  1
  Mn  Mn4  1  0.821837  0.643675  0.250000  1
  Pt  Pt5  1  0.505552  0.506794  0.495902  1
  Pt  Pt6  1  0.502792  0.005585  0.501259  1
  Pt  Pt7  1  0.001242  0.506794  0.495902  1
  Pt  Pt8  1  0.505552  0.506794  0.004098  1
  Pt  Pt9  1  0.502792  0.005585  0.998741  1
  Pt  Pt10  1  0.001242  0.506794  0.004098  1
  Pt  Pt11  1  0.326332  0.152602  0.250000  1
  Pt  Pt12  1  0.826270  0.152602  0.250000  1
  Pt  Pt13  1  0.164976  0.329953  0.750000  1
  Pt  Pt14  1  0.663402  0.830132  0.750000  1
  Pt  Pt15  1  0.166730  0.830132  0.750000  1
