# generated using pymatgen
data_Hf10ZnGa(SnSb2)2
_symmetry_space_group_name_H-M   'P 1'
_cell_length_a   8.62546846
_cell_length_b   8.63192621
_cell_length_c   5.79586234
_cell_angle_alpha   90.03312214
_cell_angle_beta   89.98342023
_cell_angle_gamma   120.02476802
_symmetry_Int_Tables_number   1
_chemical_formula_structural   Hf10ZnGa(SnSb2)2
_chemical_formula_sum   'Hf10 Zn1 Ga1 Sn2 Sb4'
_cell_volume   373.62040514
_cell_formula_units_Z   1
loop_
 _symmetry_equiv_pos_site_id
 _symmetry_equiv_pos_as_xyz
  1  'x, y, z'
loop_
 _atom_site_type_symbol
 _atom_site_label
 _atom_site_symmetry_multiplicity
 _atom_site_fract_x
 _atom_site_fract_y
 _atom_site_fract_z
 _atom_site_occupancy
  Hf  Hf0  1  0.731934  0.732354  0.250037  1
  Hf  Hf1  1  0.731934  0.999581  0.749963  1
  Hf  Hf2  1  0.999597  0.268844  0.250160  1
  Hf  Hf3  1  0.999597  0.730754  0.749840  1
  Hf  Hf4  1  0.268290  0.268784  0.749833  1
  Hf  Hf5  1  0.268290  0.999506  0.250167  1
  Hf  Hf6  1  0.333208  0.666604  0.500000  1
  Hf  Hf7  1  0.667680  0.333840  0.000000  1
  Hf  Hf8  1  0.667869  0.333934  0.500000  1
  Hf  Hf9  1  0.333252  0.666626  0.000000  1
  Zn  Zn10  1  0.001235  0.000617  0.500000  1
  Ga  Ga11  1  0.001001  0.000501  0.000000  1
  Sn  Sn12  1  0.386734  0.000364  0.749150  1
  Sn  Sn13  1  0.386734  0.386370  0.250850  1
  Sb  Sb14  1  0.000518  0.612161  0.250947  1
  Sb  Sb15  1  0.000518  0.388356  0.749053  1
  Sb  Sb16  1  0.610804  0.610351  0.748643  1
  Sb  Sb17  1  0.610804  0.000453  0.251357  1
