# generated using pymatgen
data_Hf18Ta5As2IrW2
_symmetry_space_group_name_H-M   'P 1'
_cell_length_a   8.72974753
_cell_length_b   8.76117382
_cell_length_c   8.82439275
_cell_angle_alpha   89.99999772
_cell_angle_beta   89.92198615
_cell_angle_gamma   120.11915032
_symmetry_Int_Tables_number   1
_chemical_formula_structural   Hf18Ta5As2IrW2
_chemical_formula_sum   'Hf18 Ta5 As2 Ir1 W2'
_cell_volume   583.78941958
_cell_formula_units_Z   1
loop_
 _symmetry_equiv_pos_site_id
 _symmetry_equiv_pos_as_xyz
  1  'x, y, z'
loop_
 _atom_site_type_symbol
 _atom_site_label
 _atom_site_symmetry_multiplicity
 _atom_site_fract_x
 _atom_site_fract_y
 _atom_site_fract_z
 _atom_site_occupancy
  Hf  Hf0  1  0.195324  0.390267  0.047555  1
  Hf  Hf1  1  0.803672  0.607675  0.547954  1
  Hf  Hf2  1  0.612269  0.806134  0.045338  1
  Hf  Hf3  1  0.195324  0.805056  0.047555  1
  Hf  Hf4  1  0.803672  0.195998  0.547954  1
  Hf  Hf5  1  0.392841  0.196421  0.547198  1
  Hf  Hf6  1  0.805265  0.611142  0.950397  1
  Hf  Hf7  1  0.805265  0.194124  0.950397  1
  Hf  Hf8  1  0.389200  0.194600  0.951751  1
  Hf  Hf9  1  0.607513  0.803757  0.455371  1
  Hf  Hf10  1  0.196728  0.803668  0.453969  1
  Hf  Hf11  1  0.196728  0.393060  0.453969  1
  Hf  Hf12  1  0.539430  0.078179  0.246319  1
  Hf  Hf13  1  0.461984  0.920759  0.753152  1
  Hf  Hf14  1  0.921875  0.460937  0.246274  1
  Hf  Hf15  1  0.539430  0.461250  0.246319  1
  Hf  Hf16  1  0.461984  0.541226  0.753152  1
  Hf  Hf17  1  0.078450  0.539226  0.753662  1
  Ta  Ta18  1  0.888921  0.778012  0.251458  1
  Ta  Ta19  1  0.107845  0.219712  0.749346  1
  Ta  Ta20  1  0.221848  0.110924  0.251857  1
  Ta  Ta21  1  0.888921  0.110908  0.251458  1
  Ta  Ta22  1  0.107845  0.888134  0.749346  1
  As  As23  1  0.334399  0.667200  0.248418  1
  As  As24  1  0.666920  0.333459  0.751424  1
  Ir  Ir25  1  0.999543  0.999772  0.000851  1
  W  W26  1  0.999211  0.999606  0.499862  1
  W  W27  1  0.777587  0.888794  0.747697  1
