# generated using pymatgen
data_TbYAl9PtRh2
_symmetry_space_group_name_H-M   'P 1'
_cell_length_a   7.58820060
_cell_length_b   7.58912581
_cell_length_c   9.47908285
_cell_angle_alpha   89.96566095
_cell_angle_beta   89.95583263
_cell_angle_gamma   119.56521489
_symmetry_Int_Tables_number   1
_chemical_formula_structural   TbYAl9PtRh2
_chemical_formula_sum   'Tb2 Y2 Al18 Pt2 Rh4'
_cell_volume   474.80272357
_cell_formula_units_Z   2
loop_
 _symmetry_equiv_pos_site_id
 _symmetry_equiv_pos_as_xyz
  1  'x, y, z'
loop_
 _atom_site_type_symbol
 _atom_site_label
 _atom_site_symmetry_multiplicity
 _atom_site_fract_x
 _atom_site_fract_y
 _atom_site_fract_z
 _atom_site_occupancy
  Tb  Tb0  1  0.995140  0.669759  0.249970  1
  Tb  Tb1  1  0.004860  0.330241  0.750030  1
  Y  Y2  1  0.669836  0.995142  0.250088  1
  Y  Y3  1  0.330164  0.004858  0.749912  1
  Al  Al4  1  0.126584  0.126587  0.251088  1
  Al  Al5  1  0.873416  0.873413  0.748912  1
  Al  Al6  1  0.000939  0.330827  0.077601  1
  Al  Al7  1  0.999061  0.669173  0.922399  1
  Al  Al8  1  0.000328  0.665370  0.574274  1
  Al  Al9  1  0.334807  0.999735  0.425781  1
  Al  Al10  1  0.999672  0.334630  0.425726  1
  Al  Al11  1  0.665193  0.000265  0.574219  1
  Al  Al12  1  0.669025  0.998994  0.922464  1
  Al  Al13  1  0.330975  0.001006  0.077536  1
  Al  Al14  1  0.332056  0.332002  0.550628  1
  Al  Al15  1  0.667944  0.667998  0.449372  1
  Al  Al16  1  0.669479  0.669555  0.055750  1
  Al  Al17  1  0.330521  0.330445  0.944250  1
  Al  Al18  1  0.340220  0.546938  0.254016  1
  Al  Al19  1  0.659780  0.453062  0.745984  1
  Al  Al20  1  0.546885  0.340185  0.254014  1
  Al  Al21  1  0.453115  0.659815  0.745986  1
  Pt  Pt22  1  0.672015  0.327837  0.999992  1
  Pt  Pt23  1  0.327985  0.672163  0.000008  1
  Rh  Rh24  1  0.328086  0.672166  0.499988  1
  Rh  Rh25  1  0.671914  0.327834  0.500012  1
  Rh  Rh26  1  0.000000  0.000000  0.000000  1
  Rh  Rh27  1  0.000000  0.000000  0.500000  1
