# generated using pymatgen
data_HoTmFeB6
_symmetry_space_group_name_H-M   'P 1'
_cell_length_a   3.51958100
_cell_length_b   9.02480300
_cell_length_c   11.38913000
_cell_angle_alpha   90.00000000
_cell_angle_beta   90.00000000
_cell_angle_gamma   90.00000000
_symmetry_Int_Tables_number   1
_chemical_formula_structural   HoTmFeB6
_chemical_formula_sum   'Ho4 Tm4 Fe4 B24'
_cell_volume   361.75891739
_cell_formula_units_Z   4
loop_
 _symmetry_equiv_pos_site_id
 _symmetry_equiv_pos_as_xyz
  1  'x, y, z'
loop_
 _atom_site_type_symbol
 _atom_site_label
 _atom_site_symmetry_multiplicity
 _atom_site_fract_x
 _atom_site_fract_y
 _atom_site_fract_z
 _atom_site_occupancy
  Ho  Ho0  1  0.000000  0.823513  0.085497  1
  Ho  Ho1  1  0.000000  0.176487  0.914503  1
  Ho  Ho2  1  0.000000  0.323513  0.414503  1
  Ho  Ho3  1  0.000000  0.676487  0.585497  1
  Tm  Tm4  1  0.000000  0.443250  0.129457  1
  Tm  Tm5  1  0.000000  0.556750  0.870543  1
  Tm  Tm6  1  0.000000  0.943250  0.370543  1
  Tm  Tm7  1  0.000000  0.056750  0.629457  1
  Fe  Fe8  1  0.000000  0.138959  0.179899  1
  Fe  Fe9  1  0.000000  0.861041  0.820101  1
  Fe  Fe10  1  0.000000  0.638959  0.320101  1
  Fe  Fe11  1  0.000000  0.361041  0.679899  1
  B  B12  1  0.500000  0.054630  0.068139  1
  B  B13  1  0.500000  0.945370  0.931861  1
  B  B14  1  0.500000  0.554630  0.431861  1
  B  B15  1  0.500000  0.445370  0.568139  1
  B  B16  1  0.500000  0.247453  0.081717  1
  B  B17  1  0.500000  0.752547  0.918283  1
  B  B18  1  0.500000  0.747453  0.418283  1
  B  B19  1  0.500000  0.252547  0.581717  1
  B  B20  1  0.500000  0.289916  0.233833  1
  B  B21  1  0.500000  0.710084  0.766167  1
  B  B22  1  0.500000  0.789916  0.266167  1
  B  B23  1  0.500000  0.210084  0.733833  1
  B  B24  1  0.500000  0.131744  0.314477  1
  B  B25  1  0.500000  0.868256  0.685523  1
  B  B26  1  0.500000  0.631744  0.185523  1
  B  B27  1  0.500000  0.368256  0.814477  1
  B  B28  1  0.500000  0.485671  0.288070  1
  B  B29  1  0.500000  0.514329  0.711930  1
  B  B30  1  0.500000  0.985671  0.211930  1
  B  B31  1  0.500000  0.014329  0.788070  1
  B  B32  1  0.500000  0.106911  0.470753  1
  B  B33  1  0.500000  0.893089  0.529247  1
  B  B34  1  0.500000  0.606911  0.029247  1
  B  B35  1  0.500000  0.393089  0.970753  1
