# generated using pymatgen
data_DyTm3Co18(P6Ru)2
_symmetry_space_group_name_H-M   'P 1'
_cell_length_a   3.66350200
_cell_length_b   10.31291423
_cell_length_c   11.73820826
_cell_angle_alpha   89.97596492
_cell_angle_beta   90.00000000
_cell_angle_gamma   90.00000000
_symmetry_Int_Tables_number   1
_chemical_formula_structural   DyTm3Co18(P6Ru)2
_chemical_formula_sum   'Dy1 Tm3 Co18 P12 Ru2'
_cell_volume   443.48568996
_cell_formula_units_Z   1
loop_
 _symmetry_equiv_pos_site_id
 _symmetry_equiv_pos_as_xyz
  1  'x, y, z'
loop_
 _atom_site_type_symbol
 _atom_site_label
 _atom_site_symmetry_multiplicity
 _atom_site_fract_x
 _atom_site_fract_y
 _atom_site_fract_z
 _atom_site_occupancy
  Dy  Dy0  1  0.250000  0.917707  0.202348  1
  Tm  Tm1  1  0.250000  0.582066  0.702007  1
  Tm  Tm2  1  0.750000  0.414138  0.295615  1
  Tm  Tm3  1  0.750000  0.085957  0.795618  1
  Co  Co4  1  0.750000  0.283587  0.008352  1
  Co  Co5  1  0.750000  0.216788  0.508695  1
  Co  Co6  1  0.250000  0.406265  0.486995  1
  Co  Co7  1  0.250000  0.094212  0.986743  1
  Co  Co8  1  0.750000  0.590457  0.511290  1
  Co  Co9  1  0.750000  0.909583  0.009751  1
  Co  Co10  1  0.250000  0.221202  0.176946  1
  Co  Co11  1  0.250000  0.279260  0.677048  1
  Co  Co12  1  0.750000  0.777874  0.822452  1
  Co  Co13  1  0.750000  0.720989  0.323035  1
  Co  Co14  1  0.250000  0.887001  0.702306  1
  Co  Co15  1  0.250000  0.612418  0.202136  1
  Co  Co16  1  0.750000  0.117361  0.300959  1
  Co  Co17  1  0.750000  0.383815  0.800295  1
  Co  Co18  1  0.250000  0.464264  0.931888  1
  Co  Co19  1  0.250000  0.036116  0.432772  1
  Co  Co20  1  0.750000  0.532146  0.069306  1
  Co  Co21  1  0.750000  0.967268  0.569956  1
  P  P22  1  0.250000  0.417013  0.112789  1
  P  P23  1  0.250000  0.083039  0.613185  1
  P  P24  1  0.750000  0.578529  0.886073  1
  P  P25  1  0.750000  0.921394  0.387335  1
  P  P26  1  0.250000  0.269136  0.869057  1
  P  P27  1  0.250000  0.231023  0.369028  1
  P  P28  1  0.750000  0.728755  0.132431  1
  P  P29  1  0.750000  0.769740  0.632870  1
  P  P30  1  0.250000  0.593915  0.389885  1
  P  P31  1  0.250000  0.906167  0.889953  1
  P  P32  1  0.750000  0.398046  0.609030  1
  P  P33  1  0.750000  0.103094  0.108589  1
  Ru  Ru34  1  0.250000  0.715451  0.991464  1
  Ru  Ru35  1  0.250000  0.784225  0.491802  1
