# generated using pymatgen
data_CaZr(NbSe2)8
_symmetry_space_group_name_H-M   'P 1'
_cell_length_a   7.00672814
_cell_length_b   7.00480965
_cell_length_c   14.31481011
_cell_angle_alpha   90.00000099
_cell_angle_beta   89.98674823
_cell_angle_gamma   119.99099827
_symmetry_Int_Tables_number   1
_chemical_formula_structural   CaZr(NbSe2)8
_chemical_formula_sum   'Ca1 Zr1 Nb8 Se16'
_cell_volume   608.50927103
_cell_formula_units_Z   1
loop_
 _symmetry_equiv_pos_site_id
 _symmetry_equiv_pos_as_xyz
  1  'x, y, z'
loop_
 _atom_site_type_symbol
 _atom_site_label
 _atom_site_symmetry_multiplicity
 _atom_site_fract_x
 _atom_site_fract_y
 _atom_site_fract_z
 _atom_site_occupancy
  Ca  Ca0  1  0.000000  0.000000  0.000000  1
  Zr  Zr1  1  0.000000  0.000000  0.500000  1
  Nb  Nb2  1  0.986967  0.493484  0.263007  1
  Nb  Nb3  1  0.013033  0.506516  0.736993  1
  Nb  Nb4  1  0.493461  0.505918  0.736920  1
  Nb  Nb5  1  0.506539  0.012457  0.263080  1
  Nb  Nb6  1  0.000413  0.000206  0.735554  1
  Nb  Nb7  1  0.999587  0.999794  0.264446  1
  Nb  Nb8  1  0.506539  0.494082  0.263080  1
  Nb  Nb9  1  0.493461  0.987543  0.736920  1
  Se  Se10  1  0.333554  0.666778  0.617128  1
  Se  Se11  1  0.666723  0.333360  0.142355  1
  Se  Se12  1  0.666446  0.333222  0.382872  1
  Se  Se13  1  0.333277  0.666640  0.857645  1
  Se  Se14  1  0.170318  0.340317  0.380346  1
  Se  Se15  1  0.831482  0.168139  0.852849  1
  Se  Se16  1  0.336515  0.168256  0.852970  1
  Se  Se17  1  0.659135  0.829568  0.380493  1
  Se  Se18  1  0.170318  0.830001  0.380346  1
  Se  Se19  1  0.831482  0.663344  0.852849  1
  Se  Se20  1  0.168518  0.336656  0.147151  1
  Se  Se21  1  0.829682  0.169999  0.619654  1
  Se  Se22  1  0.340865  0.170432  0.619507  1
  Se  Se23  1  0.663485  0.831744  0.147030  1
  Se  Se24  1  0.168518  0.831861  0.147151  1
  Se  Se25  1  0.829682  0.659683  0.619654  1
