# generated using pymatgen
data_Dy9Y(Bi2Sb)2
_symmetry_space_group_name_H-M   'P 1'
_cell_length_a   8.19175200
_cell_length_b   9.47328600
_cell_length_c   12.02270400
_cell_angle_alpha   90.00000000
_cell_angle_beta   90.00000000
_cell_angle_gamma   90.00000000
_symmetry_Int_Tables_number   1
_chemical_formula_structural   Dy9Y(Bi2Sb)2
_chemical_formula_sum   'Dy18 Y2 Bi8 Sb4'
_cell_volume   932.99560863
_cell_formula_units_Z   2
loop_
 _symmetry_equiv_pos_site_id
 _symmetry_equiv_pos_as_xyz
  1  'x, y, z'
loop_
 _atom_site_type_symbol
 _atom_site_label
 _atom_site_symmetry_multiplicity
 _atom_site_fract_x
 _atom_site_fract_y
 _atom_site_fract_z
 _atom_site_occupancy
  Dy  Dy0  1  0.029266  0.750000  0.988272  1
  Dy  Dy1  1  0.529266  0.750000  0.511728  1
  Dy  Dy2  1  0.970730  0.250000  0.011772  1
  Dy  Dy3  1  0.470730  0.250000  0.488228  1
  Dy  Dy4  1  0.183495  0.750000  0.718294  1
  Dy  Dy5  1  0.683495  0.750000  0.781706  1
  Dy  Dy6  1  0.816499  0.250000  0.281727  1
  Dy  Dy7  1  0.316499  0.250000  0.218273  1
  Dy  Dy8  1  0.309723  0.438626  0.941350  1
  Dy  Dy9  1  0.809723  0.061374  0.558650  1
  Dy  Dy10  1  0.690247  0.938561  0.058743  1
  Dy  Dy11  1  0.190247  0.561439  0.441257  1
  Dy  Dy12  1  0.690247  0.561439  0.058743  1
  Dy  Dy13  1  0.190247  0.938561  0.441257  1
  Dy  Dy14  1  0.309723  0.061374  0.941350  1
  Dy  Dy15  1  0.809723  0.438626  0.558650  1
  Dy  Dy16  1  0.354120  0.750000  0.213025  1
  Dy  Dy17  1  0.854120  0.750000  0.286975  1
  Y  Y18  1  0.645965  0.250000  0.787185  1
  Y  Y19  1  0.145965  0.250000  0.712815  1
  Bi  Bi20  1  0.433516  0.003678  0.673893  1
  Bi  Bi21  1  0.933516  0.496322  0.826107  1
  Bi  Bi22  1  0.566518  0.503815  0.326070  1
  Bi  Bi23  1  0.066518  0.996185  0.173930  1
  Bi  Bi24  1  0.566518  0.996185  0.326070  1
  Bi  Bi25  1  0.066518  0.503815  0.173930  1
  Bi  Bi26  1  0.433516  0.496322  0.673893  1
  Bi  Bi27  1  0.933516  0.003678  0.826107  1
  Sb  Sb28  1  0.410137  0.750000  0.959038  1
  Sb  Sb29  1  0.910137  0.750000  0.540962  1
  Sb  Sb30  1  0.589780  0.250000  0.040966  1
  Sb  Sb31  1  0.089780  0.250000  0.459034  1
