# generated using pymatgen
data_HoEr5TcBi2
_symmetry_space_group_name_H-M   'P 1'
_cell_length_a   8.25224500
_cell_length_b   8.25058653
_cell_length_c   4.27383400
_cell_angle_alpha   90.00000000
_cell_angle_beta   90.00000000
_cell_angle_gamma   120.00664564
_symmetry_Int_Tables_number   1
_chemical_formula_structural   HoEr5TcBi2
_chemical_formula_sum   'Ho1 Er5 Tc1 Bi2'
_cell_volume   251.98583683
_cell_formula_units_Z   1
loop_
 _symmetry_equiv_pos_site_id
 _symmetry_equiv_pos_as_xyz
  1  'x, y, z'
loop_
 _atom_site_type_symbol
 _atom_site_label
 _atom_site_symmetry_multiplicity
 _atom_site_fract_x
 _atom_site_fract_y
 _atom_site_fract_z
 _atom_site_occupancy
  Ho  Ho0  1  0.610180  0.000000  0.500000  1
  Er  Er1  1  0.232346  0.000000  0.000000  1
  Er  Er2  1  0.999935  0.610759  0.500000  1
  Er  Er3  1  0.389175  0.389241  0.500000  1
  Er  Er4  1  0.767925  0.767684  0.000000  1
  Er  Er5  1  0.000241  0.232316  0.000000  1
  Tc  Tc6  1  0.000579  0.000000  0.500000  1
  Bi  Bi7  1  0.332963  0.666309  0.000000  1
  Bi  Bi8  1  0.666656  0.333691  0.000000  1
