# generated using pymatgen
data_Ta3V2Ga3B
_symmetry_space_group_name_H-M   'P 1'
_cell_length_a   7.68033500
_cell_length_b   7.68033456
_cell_length_c   5.12029000
_cell_angle_alpha   90.00000000
_cell_angle_beta   90.00000000
_cell_angle_gamma   119.99999759
_symmetry_Int_Tables_number   1
_chemical_formula_structural   Ta3V2Ga3B
_chemical_formula_sum   'Ta6 V4 Ga6 B2'
_cell_volume   261.56853697
_cell_formula_units_Z   2
loop_
 _symmetry_equiv_pos_site_id
 _symmetry_equiv_pos_as_xyz
  1  'x, y, z'
loop_
 _atom_site_type_symbol
 _atom_site_label
 _atom_site_symmetry_multiplicity
 _atom_site_fract_x
 _atom_site_fract_y
 _atom_site_fract_z
 _atom_site_occupancy
  Ta  Ta0  1  0.244351  0.000000  0.250000  1
  Ta  Ta1  1  0.755649  0.000000  0.750000  1
  Ta  Ta2  1  0.000000  0.244351  0.250000  1
  Ta  Ta3  1  0.000000  0.755649  0.750000  1
  Ta  Ta4  1  0.755649  0.755649  0.250000  1
  Ta  Ta5  1  0.244351  0.244351  0.750000  1
  V  V6  1  0.333333  0.666667  0.000000  1
  V  V7  1  0.666667  0.333333  0.000000  1
  V  V8  1  0.666667  0.333333  0.500000  1
  V  V9  1  0.333333  0.666667  0.500000  1
  Ga  Ga10  1  0.593194  0.000000  0.250000  1
  Ga  Ga11  1  0.406806  0.000000  0.750000  1
  Ga  Ga12  1  0.000000  0.593194  0.250000  1
  Ga  Ga13  1  0.000000  0.406806  0.750000  1
  Ga  Ga14  1  0.406806  0.406806  0.250000  1
  Ga  Ga15  1  0.593194  0.593194  0.750000  1
  B  B16  1  0.000000  0.000000  0.000000  1
  B  B17  1  0.000000  0.000000  0.500000  1
