# generated using pymatgen
data_Rb6Na4HfTiP6
_symmetry_space_group_name_H-M   'P 1'
_cell_length_a   10.68076394
_cell_length_b   10.68076305
_cell_length_c   15.51502200
_cell_angle_alpha   90.00000000
_cell_angle_beta   90.00000000
_cell_angle_gamma   142.70692370
_symmetry_Int_Tables_number   1
_chemical_formula_structural   Rb6Na4HfTiP6
_chemical_formula_sum   'Rb12 Na8 Hf2 Ti2 P12'
_cell_volume   1072.38913308
_cell_formula_units_Z   2
loop_
 _symmetry_equiv_pos_site_id
 _symmetry_equiv_pos_as_xyz
  1  'x, y, z'
loop_
 _atom_site_type_symbol
 _atom_site_label
 _atom_site_symmetry_multiplicity
 _atom_site_fract_x
 _atom_site_fract_y
 _atom_site_fract_z
 _atom_site_occupancy
  Rb  Rb0  1  0.946074  0.608207  0.823023  1
  Rb  Rb1  1  0.553926  0.891793  0.323023  1
  Rb  Rb2  1  0.391793  0.053926  0.176977  1
  Rb  Rb3  1  0.057638  0.393378  0.174999  1
  Rb  Rb4  1  0.893378  0.557638  0.325001  1
  Rb  Rb5  1  0.442362  0.106622  0.674999  1
  Rb  Rb6  1  0.606622  0.942362  0.825001  1
  Rb  Rb7  1  0.277012  0.275387  0.315273  1
  Rb  Rb8  1  0.775387  0.777012  0.184727  1
  Rb  Rb9  1  0.222988  0.224613  0.815273  1
  Rb  Rb10  1  0.724613  0.722988  0.684727  1
  Rb  Rb11  1  0.108207  0.446074  0.676977  1
  Na  Na12  1  0.920423  0.079577  0.000000  1
  Na  Na13  1  0.579577  0.420423  0.500000  1
  Na  Na14  1  0.079592  0.920408  0.000000  1
  Na  Na15  1  0.420408  0.579592  0.500000  1
  Na  Na16  1  0.754973  0.245027  0.000000  1
  Na  Na17  1  0.745027  0.254973  0.500000  1
  Na  Na18  1  0.245367  0.754633  0.000000  1
  Na  Na19  1  0.254633  0.745367  0.500000  1
  Hf  Hf20  1  0.583937  0.416063  0.000000  1
  Hf  Hf21  1  0.916063  0.083937  0.500000  1
  Ti  Ti22  1  0.414737  0.585263  0.000000  1
  Ti  Ti23  1  0.085263  0.914737  0.500000  1
  P  P24  1  0.868578  0.558438  0.095553  1
  P  P25  1  0.441562  0.131422  0.904447  1
  P  P26  1  0.631422  0.941562  0.595553  1
  P  P27  1  0.947783  0.643171  0.590981  1
  P  P28  1  0.143171  0.447783  0.909019  1
  P  P29  1  0.552217  0.856829  0.090981  1
  P  P30  1  0.356829  0.052217  0.409019  1
  P  P31  1  0.196129  0.190639  0.584139  1
  P  P32  1  0.690639  0.696129  0.915861  1
  P  P33  1  0.303871  0.309361  0.084139  1
  P  P34  1  0.058438  0.368578  0.404447  1
  P  P35  1  0.809361  0.803871  0.415861  1
