# generated using pymatgen
data_Dy3Al7CuPd
_symmetry_space_group_name_H-M   'P 1'
_cell_length_a   9.11472566
_cell_length_b   9.11472695
_cell_length_c   9.11472600
_cell_angle_alpha   35.10742534
_cell_angle_beta   35.10741375
_cell_angle_gamma   35.10741966
_symmetry_Int_Tables_number   1
_chemical_formula_structural   Dy3Al7CuPd
_chemical_formula_sum   'Dy3 Al7 Cu1 Pd1'
_cell_volume   223.67001680
_cell_formula_units_Z   1
loop_
 _symmetry_equiv_pos_site_id
 _symmetry_equiv_pos_as_xyz
  1  'x, y, z'
loop_
 _atom_site_type_symbol
 _atom_site_label
 _atom_site_symmetry_multiplicity
 _atom_site_fract_x
 _atom_site_fract_y
 _atom_site_fract_z
 _atom_site_occupancy
  Dy  Dy0  1  0.999653  0.999653  0.999653  1
  Dy  Dy1  1  0.857506  0.857506  0.857506  1
  Dy  Dy2  1  0.142725  0.142725  0.142725  1
  Al  Al3  1  0.416554  0.416554  0.928285  1
  Al  Al4  1  0.928285  0.416554  0.416554  1
  Al  Al5  1  0.416554  0.928285  0.416554  1
  Al  Al6  1  0.500045  0.500045  0.500045  1
  Al  Al7  1  0.581449  0.075765  0.581449  1
  Al  Al8  1  0.075765  0.581449  0.581449  1
  Al  Al9  1  0.581449  0.581449  0.075765  1
  Cu  Cu10  1  0.335264  0.335264  0.335264  1
  Pd  Pd11  1  0.664751  0.664751  0.664751  1
