# generated using pymatgen
data_LiIn11TcIr3
_symmetry_space_group_name_H-M   'P 1'
_cell_length_a   7.20419496
_cell_length_b   7.09451416
_cell_length_c   7.22915400
_cell_angle_alpha   90.00000000
_cell_angle_beta   90.00000000
_cell_angle_gamma   88.98724749
_symmetry_Int_Tables_number   1
_chemical_formula_structural   LiIn11TcIr3
_chemical_formula_sum   'Li1 In11 Tc1 Ir3'
_cell_volume   369.42624498
_cell_formula_units_Z   1
loop_
 _symmetry_equiv_pos_site_id
 _symmetry_equiv_pos_as_xyz
  1  'x, y, z'
loop_
 _atom_site_type_symbol
 _atom_site_label
 _atom_site_symmetry_multiplicity
 _atom_site_fract_x
 _atom_site_fract_y
 _atom_site_fract_z
 _atom_site_occupancy
  Li  Li0  1  0.001308  0.502744  0.500000  1
  In  In1  1  0.329339  0.349113  0.267379  1
  In  In2  1  0.155054  0.839330  0.758367  1
  In  In3  1  0.155054  0.839330  0.241633  1
  In  In4  1  0.001832  0.499429  0.000000  1
  In  In5  1  0.850700  0.166378  0.242183  1
  In  In6  1  0.850700  0.166378  0.757817  1
  In  In7  1  0.498036  0.001354  0.000000  1
  In  In8  1  0.668739  0.648625  0.270855  1
  In  In9  1  0.668739  0.648625  0.729145  1
  In  In10  1  0.329339  0.349113  0.732621  1
  In  In11  1  0.501730  0.999653  0.500000  1
  Tc  Tc12  1  0.150646  0.149311  0.000000  1
  Ir  Ir13  1  0.645711  0.342673  0.500000  1
  Ir  Ir14  1  0.353190  0.655065  0.500000  1
  Ir  Ir15  1  0.839884  0.842878  0.000000  1
