# generated using pymatgen
data_Y4Al18Ir3Pd2Ru
_symmetry_space_group_name_H-M   'P 1'
_cell_length_a   7.57421932
_cell_length_b   7.57421946
_cell_length_c   9.49332102
_cell_angle_alpha   89.88535787
_cell_angle_beta   89.88535859
_cell_angle_gamma   119.47203032
_symmetry_Int_Tables_number   1
_chemical_formula_structural   Y4Al18Ir3Pd2Ru
_chemical_formula_sum   'Y4 Al18 Ir3 Pd2 Ru1'
_cell_volume   474.14061664
_cell_formula_units_Z   1
loop_
 _symmetry_equiv_pos_site_id
 _symmetry_equiv_pos_as_xyz
  1  'x, y, z'
loop_
 _atom_site_type_symbol
 _atom_site_label
 _atom_site_symmetry_multiplicity
 _atom_site_fract_x
 _atom_site_fract_y
 _atom_site_fract_z
 _atom_site_occupancy
  Y  Y0  1  0.994864  0.671000  0.251267  1
  Y  Y1  1  0.005136  0.329000  0.748733  1
  Y  Y2  1  0.671000  0.994864  0.251267  1
  Y  Y3  1  0.329000  0.005136  0.748733  1
  Al  Al4  1  0.127095  0.127095  0.249324  1
  Al  Al5  1  0.872905  0.872905  0.750676  1
  Al  Al6  1  0.001501  0.330140  0.076622  1
  Al  Al7  1  0.998499  0.669860  0.923378  1
  Al  Al8  1  0.999733  0.664691  0.573885  1
  Al  Al9  1  0.335309  0.000267  0.426115  1
  Al  Al10  1  0.000267  0.335309  0.426115  1
  Al  Al11  1  0.664691  0.999733  0.573885  1
  Al  Al12  1  0.669860  0.998499  0.923378  1
  Al  Al13  1  0.330140  0.001501  0.076622  1
  Al  Al14  1  0.332517  0.332517  0.549368  1
  Al  Al15  1  0.667483  0.667483  0.450632  1
  Al  Al16  1  0.670642  0.670642  0.056410  1
  Al  Al17  1  0.329358  0.329358  0.943590  1
  Al  Al18  1  0.340597  0.547454  0.253046  1
  Al  Al19  1  0.659403  0.452546  0.746954  1
  Al  Al20  1  0.547454  0.340597  0.253046  1
  Al  Al21  1  0.452546  0.659403  0.746954  1
  Ir  Ir22  1  0.328360  0.671640  0.500000  1
  Ir  Ir23  1  0.671640  0.328360  0.500000  1
  Ir  Ir24  1  0.000000  0.000000  0.500000  1
  Pd  Pd25  1  0.672068  0.327932  0.000000  1
  Pd  Pd26  1  0.327932  0.672068  0.000000  1
  Ru  Ru27  1  0.000000  0.000000  0.000000  1
