# generated using pymatgen
data_LuSc5(Be2Rh5)2
_symmetry_space_group_name_H-M   'P 1'
_cell_length_a   9.55997882
_cell_length_b   9.55997882
_cell_length_c   3.23403500
_cell_angle_alpha   90.00000000
_cell_angle_beta   90.00000000
_cell_angle_gamma   89.77263819
_symmetry_Int_Tables_number   1
_chemical_formula_structural   LuSc5(Be2Rh5)2
_chemical_formula_sum   'Lu1 Sc5 Be4 Rh10'
_cell_volume   295.56646423
_cell_formula_units_Z   1
loop_
 _symmetry_equiv_pos_site_id
 _symmetry_equiv_pos_as_xyz
  1  'x, y, z'
loop_
 _atom_site_type_symbol
 _atom_site_label
 _atom_site_symmetry_multiplicity
 _atom_site_fract_x
 _atom_site_fract_y
 _atom_site_fract_z
 _atom_site_occupancy
  Lu  Lu0  1  0.824906  0.324906  0.000000  1
  Sc  Sc1  1  0.324935  0.175128  0.000000  1
  Sc  Sc2  1  0.675128  0.824935  0.000000  1
  Sc  Sc3  1  0.175255  0.675255  0.000000  1
  Sc  Sc4  1  0.000514  0.999204  0.000000  1
  Sc  Sc5  1  0.499204  0.500514  0.000000  1
  Be  Be6  1  0.620985  0.120985  0.000000  1
  Be  Be7  1  0.123824  0.377662  0.000000  1
  Be  Be8  1  0.877662  0.623824  0.000000  1
  Be  Be9  1  0.377412  0.877412  0.000000  1
  Rh  Rh10  1  0.073014  0.214874  0.500000  1
  Rh  Rh11  1  0.215591  0.928994  0.500000  1
  Rh  Rh12  1  0.783707  0.068223  0.500000  1
  Rh  Rh13  1  0.929005  0.784888  0.500000  1
  Rh  Rh14  1  0.428994  0.715591  0.500000  1
  Rh  Rh15  1  0.568223  0.283707  0.500000  1
  Rh  Rh16  1  0.714874  0.573014  0.500000  1
  Rh  Rh17  1  0.284888  0.429005  0.500000  1
  Rh  Rh18  1  0.499564  0.999564  0.500000  1
  Rh  Rh19  1  0.002315  0.502315  0.500000  1
