# generated using pymatgen
data_Tb8Ta12Si15As
_symmetry_space_group_name_H-M   'P 1'
_cell_length_a   7.06042699
_cell_length_b   7.05333864
_cell_length_c   13.06635779
_cell_angle_alpha   89.95438849
_cell_angle_beta   89.88556423
_cell_angle_gamma   89.93510108
_symmetry_Int_Tables_number   1
_chemical_formula_structural   Tb8Ta12Si15As
_chemical_formula_sum   'Tb8 Ta12 Si15 As1'
_cell_volume   650.69724262
_cell_formula_units_Z   1
loop_
 _symmetry_equiv_pos_site_id
 _symmetry_equiv_pos_as_xyz
  1  'x, y, z'
loop_
 _atom_site_type_symbol
 _atom_site_label
 _atom_site_symmetry_multiplicity
 _atom_site_fract_x
 _atom_site_fract_y
 _atom_site_fract_z
 _atom_site_occupancy
  Tb  Tb0  1  0.341051  0.002051  0.467616  1
  Tb  Tb1  1  0.497207  0.842505  0.719010  1
  Tb  Tb2  1  0.502308  0.158745  0.218270  1
  Tb  Tb3  1  0.840579  0.496918  0.281484  1
  Tb  Tb4  1  0.159149  0.501969  0.781579  1
  Tb  Tb5  1  0.660630  0.996177  0.969284  1
  Tb  Tb6  1  0.999289  0.343376  0.530397  1
  Tb  Tb7  1  0.997873  0.659073  0.031712  1
  Ta  Ta8  1  0.328950  0.329259  0.000200  1
  Ta  Ta9  1  0.171550  0.828770  0.249823  1
  Ta  Ta10  1  0.826055  0.171598  0.750012  1
  Ta  Ta11  1  0.670625  0.670279  0.500210  1
  Ta  Ta12  1  0.155599  0.007877  0.874755  1
  Ta  Ta13  1  0.492372  0.653673  0.124427  1
  Ta  Ta14  1  0.508630  0.346991  0.624730  1
  Ta  Ta15  1  0.654762  0.495517  0.876570  1
  Ta  Ta16  1  0.345813  0.506862  0.375668  1
  Ta  Ta17  1  0.845775  0.993106  0.374501  1
  Ta  Ta18  1  0.007583  0.153284  0.125501  1
  Ta  Ta19  1  0.990063  0.841937  0.624249  1
  Si  Si20  1  0.366323  0.703307  0.932771  1
  Si  Si21  1  0.632407  0.296844  0.432548  1
  Si  Si22  1  0.703110  0.366583  0.067477  1
  Si  Si23  1  0.297337  0.633113  0.566987  1
  Si  Si24  1  0.797506  0.866487  0.182931  1
  Si  Si25  1  0.133428  0.202430  0.317344  1
  Si  Si26  1  0.867396  0.797727  0.817332  1
  Si  Si27  1  0.294401  0.955208  0.063862  1
  Si  Si28  1  0.544991  0.793489  0.313756  1
  Si  Si29  1  0.462921  0.207479  0.818292  1
  Si  Si30  1  0.793404  0.544887  0.686469  1
  Si  Si31  1  0.205921  0.455069  0.186095  1
  Si  Si32  1  0.705835  0.044694  0.563527  1
  Si  Si33  1  0.955245  0.293829  0.936373  1
  Si  Si34  1  0.044647  0.706246  0.435150  1
  As  As35  1  0.199265  0.132644  0.679089  1
