# generated using pymatgen
data_Ba2Al4ZnAg5
_symmetry_space_group_name_H-M   'P 1'
_cell_length_a   7.08817786
_cell_length_b   7.08817786
_cell_length_c   5.55060400
_cell_angle_alpha   90.00000000
_cell_angle_beta   90.00000000
_cell_angle_gamma   103.59080666
_symmetry_Int_Tables_number   1
_chemical_formula_structural   Ba2Al4ZnAg5
_chemical_formula_sum   'Ba2 Al4 Zn1 Ag5'
_cell_volume   271.06606375
_cell_formula_units_Z   1
loop_
 _symmetry_equiv_pos_site_id
 _symmetry_equiv_pos_as_xyz
  1  'x, y, z'
loop_
 _atom_site_type_symbol
 _atom_site_label
 _atom_site_symmetry_multiplicity
 _atom_site_fract_x
 _atom_site_fract_y
 _atom_site_fract_z
 _atom_site_occupancy
  Ba  Ba0  1  0.831577  0.831577  0.000000  1
  Ba  Ba1  1  0.179087  0.179087  0.500000  1
  Al  Al2  1  0.295690  0.698557  0.251762  1
  Al  Al3  1  0.295690  0.698557  0.748238  1
  Al  Al4  1  0.698557  0.295690  0.251762  1
  Al  Al5  1  0.698557  0.295690  0.748238  1
  Zn  Zn6  1  0.574422  0.574422  0.500000  1
  Ag  Ag7  1  0.419510  0.022001  0.000000  1
  Ag  Ag8  1  0.966200  0.581522  0.500000  1
  Ag  Ag9  1  0.581522  0.966200  0.500000  1
  Ag  Ag10  1  0.022001  0.419510  0.000000  1
  Ag  Ag11  1  0.437186  0.437186  0.000000  1
