# generated using pymatgen
data_PrGd5Y4(SiB4)4
_symmetry_space_group_name_H-M   'P 1'
_cell_length_a   7.27718520
_cell_length_b   7.27773047
_cell_length_c   8.21646312
_cell_angle_alpha   90.01437598
_cell_angle_beta   90.01306041
_cell_angle_gamma   90.03103445
_symmetry_Int_Tables_number   1
_chemical_formula_structural   PrGd5Y4(SiB4)4
_chemical_formula_sum   'Pr1 Gd5 Y4 Si4 B16'
_cell_volume   435.15523912
_cell_formula_units_Z   1
loop_
 _symmetry_equiv_pos_site_id
 _symmetry_equiv_pos_as_xyz
  1  'x, y, z'
loop_
 _atom_site_type_symbol
 _atom_site_label
 _atom_site_symmetry_multiplicity
 _atom_site_fract_x
 _atom_site_fract_y
 _atom_site_fract_z
 _atom_site_occupancy
  Pr  Pr0  1  0.680186  0.180238  0.231489  1
  Gd  Gd1  1  0.319295  0.819348  0.774919  1
  Gd  Gd2  1  0.319071  0.819108  0.224790  1
  Gd  Gd3  1  0.819731  0.680516  0.223934  1
  Gd  Gd4  1  0.819296  0.680848  0.775951  1
  Gd  Gd5  1  0.680440  0.180467  0.774712  1
  Y  Y6  1  0.180684  0.319509  0.778302  1
  Y  Y7  1  0.180225  0.320067  0.221601  1
  Y  Y8  1  0.001103  0.999650  0.500881  1
  Y  Y9  1  0.499106  0.500474  0.500809  1
  Si  Si10  1  0.116246  0.614525  0.500435  1
  Si  Si11  1  0.888298  0.386459  0.503218  1
  Si  Si12  1  0.382391  0.114530  0.503144  1
  Si  Si13  1  0.612620  0.884086  0.503200  1
  B  B14  1  0.172966  0.039096  0.999052  1
  B  B15  1  0.828727  0.959903  0.998617  1
  B  B16  1  0.962011  0.171764  0.999072  1
  B  B17  1  0.327168  0.539574  0.999235  1
  B  B18  1  0.039676  0.827430  0.999257  1
  B  B19  1  0.671490  0.461837  0.999035  1
  B  B20  1  0.538680  0.672528  0.999063  1
  B  B21  1  0.459567  0.328267  0.998681  1
  B  B22  1  0.090140  0.589970  0.999489  1
  B  B23  1  0.910259  0.410053  0.999417  1
  B  B24  1  0.409054  0.090214  0.997773  1
  B  B25  1  0.590381  0.908872  0.997758  1
  B  B26  1  0.002864  0.998688  0.157869  1
  B  B27  1  0.000508  0.999781  0.840210  1
  B  B28  1  0.499415  0.499885  0.840218  1
  B  B29  1  0.498397  0.502315  0.157868  1
