# generated using pymatgen
data_ErPu5Al18
_symmetry_space_group_name_H-M   'P 1'
_cell_length_a   14.66522191
_cell_length_b   14.66522163
_cell_length_c   14.66522319
_cell_angle_alpha   24.02302678
_cell_angle_beta   24.02302866
_cell_angle_gamma   24.02302668
_symmetry_Int_Tables_number   1
_chemical_formula_structural   ErPu5Al18
_chemical_formula_sum   'Er1 Pu5 Al18'
_cell_volume   459.32415747
_cell_formula_units_Z   1
loop_
 _symmetry_equiv_pos_site_id
 _symmetry_equiv_pos_as_xyz
  1  'x, y, z'
loop_
 _atom_site_type_symbol
 _atom_site_label
 _atom_site_symmetry_multiplicity
 _atom_site_fract_x
 _atom_site_fract_y
 _atom_site_fract_z
 _atom_site_occupancy
  Er  Er0  1  0.609858  0.609858  0.609858  1
  Pu  Pu1  1  0.999527  0.999527  0.999527  1
  Pu  Pu2  1  0.500851  0.500851  0.500851  1
  Pu  Pu3  1  0.109039  0.109039  0.109039  1
  Pu  Pu4  1  0.890652  0.890652  0.890652  1
  Pu  Pu5  1  0.390909  0.390909  0.390909  1
  Al  Al6  1  0.914016  0.376266  0.376266  1
  Al  Al7  1  0.409730  0.877673  0.877673  1
  Al  Al8  1  0.376266  0.376266  0.914016  1
  Al  Al9  1  0.877673  0.877673  0.409730  1
  Al  Al10  1  0.376266  0.914016  0.376266  1
  Al  Al11  1  0.877673  0.409730  0.877673  1
  Al  Al12  1  0.586466  0.123642  0.123642  1
  Al  Al13  1  0.091643  0.621640  0.621640  1
  Al  Al14  1  0.123642  0.123642  0.586466  1
  Al  Al15  1  0.621640  0.621640  0.091643  1
  Al  Al16  1  0.123642  0.586466  0.123642  1
  Al  Al17  1  0.621640  0.091643  0.621640  1
  Al  Al18  1  0.497282  0.497282  0.005053  1
  Al  Al19  1  0.999490  0.999490  0.500277  1
  Al  Al20  1  0.497282  0.005053  0.497282  1
  Al  Al21  1  0.999490  0.500277  0.999490  1
  Al  Al22  1  0.005053  0.497282  0.497282  1
  Al  Al23  1  0.500277  0.999490  0.999490  1
