# generated using pymatgen
data_ThCuSi2Pd
_symmetry_space_group_name_H-M   'P 1'
_cell_length_a   5.83646330
_cell_length_b   5.83646355
_cell_length_c   5.83646277
_cell_angle_alpha   138.42833256
_cell_angle_beta   138.42834019
_cell_angle_gamma   60.24761097
_symmetry_Int_Tables_number   1
_chemical_formula_structural   ThCuSi2Pd
_chemical_formula_sum   'Th1 Cu1 Si2 Pd1'
_cell_volume   86.62623900
_cell_formula_units_Z   1
loop_
 _symmetry_equiv_pos_site_id
 _symmetry_equiv_pos_as_xyz
  1  'x, y, z'
loop_
 _atom_site_type_symbol
 _atom_site_label
 _atom_site_symmetry_multiplicity
 _atom_site_fract_x
 _atom_site_fract_y
 _atom_site_fract_z
 _atom_site_occupancy
  Th  Th0  1  0.000000  0.000000  0.000000  1
  Cu  Cu1  1  0.250000  0.750000  0.500000  1
  Si  Si2  1  0.618140  0.618140  0.000000  1
  Si  Si3  1  0.381860  0.381860  0.000000  1
  Pd  Pd4  1  0.750000  0.250000  0.500000  1
