# generated using pymatgen
data_LaEuH5
_symmetry_space_group_name_H-M   'P 1'
_cell_length_a   6.85117156
_cell_length_b   6.85117227
_cell_length_c   6.85117244
_cell_angle_alpha   131.35795397
_cell_angle_beta   131.35795669
_cell_angle_gamma   71.24498211
_symmetry_Int_Tables_number   1
_chemical_formula_structural   LaEuH5
_chemical_formula_sum   'La2 Eu2 H10'
_cell_volume   177.35864189
_cell_formula_units_Z   2
loop_
 _symmetry_equiv_pos_site_id
 _symmetry_equiv_pos_as_xyz
  1  'x, y, z'
loop_
 _atom_site_type_symbol
 _atom_site_label
 _atom_site_symmetry_multiplicity
 _atom_site_fract_x
 _atom_site_fract_y
 _atom_site_fract_z
 _atom_site_occupancy
  La  La0  1  0.513850  0.013850  0.500000  1
  La  La1  1  0.763850  0.763850  0.000000  1
  Eu  Eu2  1  0.987686  0.487686  0.500000  1
  Eu  Eu3  1  0.237686  0.237686  0.000000  1
  H  H4  1  0.377591  0.404722  0.531418  1
  H  H5  1  0.873304  0.846173  0.468582  1
  H  H6  1  0.596173  0.123304  0.968582  1
  H  H7  1  0.154722  0.627591  0.031418  1
  H  H8  1  0.377591  0.846173  0.972868  1
  H  H9  1  0.873304  0.404722  0.027132  1
  H  H10  1  0.596173  0.627591  0.472868  1
  H  H11  1  0.154722  0.123304  0.527132  1
  H  H12  1  0.746673  0.246673  0.500000  1
  H  H13  1  0.996673  0.996673  0.000000  1
