# generated using pymatgen
data_K(MnS2)4
_symmetry_space_group_name_H-M   'P 1'
_cell_length_a   8.76934556
_cell_length_b   8.76934534
_cell_length_c   8.76934574
_cell_angle_alpha   44.95111026
_cell_angle_beta   44.95110932
_cell_angle_gamma   44.95110242
_symmetry_Int_Tables_number   1
_chemical_formula_structural   K(MnS2)4
_chemical_formula_sum   'K1 Mn4 S8'
_cell_volume   306.34580309
_cell_formula_units_Z   1
loop_
 _symmetry_equiv_pos_site_id
 _symmetry_equiv_pos_as_xyz
  1  'x, y, z'
loop_
 _atom_site_type_symbol
 _atom_site_label
 _atom_site_symmetry_multiplicity
 _atom_site_fract_x
 _atom_site_fract_y
 _atom_site_fract_z
 _atom_site_occupancy
  K  K0  1  0.500000  0.500000  0.500000  1
  Mn  Mn1  1  0.000000  0.500000  0.500000  1
  Mn  Mn2  1  0.500000  0.000000  0.500000  1
  Mn  Mn3  1  0.500000  0.500000  0.000000  1
  Mn  Mn4  1  0.000000  0.000000  0.000000  1
  S  S5  1  0.276079  0.778600  0.778600  1
  S  S6  1  0.221400  0.221400  0.723921  1
  S  S7  1  0.723921  0.221400  0.221400  1
  S  S8  1  0.221400  0.723921  0.221400  1
  S  S9  1  0.277356  0.277356  0.277356  1
  S  S10  1  0.722644  0.722644  0.722644  1
  S  S11  1  0.778600  0.276079  0.778600  1
  S  S12  1  0.778600  0.778600  0.276079  1
