# generated using pymatgen
data_Hf4Zr6Al2(SnSb)3
_symmetry_space_group_name_H-M   'P 1'
_cell_length_a   8.68321600
_cell_length_b   8.68321631
_cell_length_c   5.87268900
_cell_angle_alpha   90.00000000
_cell_angle_beta   90.00000000
_cell_angle_gamma   119.99999882
_symmetry_Int_Tables_number   1
_chemical_formula_structural   Hf4Zr6Al2(SnSb)3
_chemical_formula_sum   'Hf4 Zr6 Al2 Sn3 Sb3'
_cell_volume   383.46776640
_cell_formula_units_Z   1
loop_
 _symmetry_equiv_pos_site_id
 _symmetry_equiv_pos_as_xyz
  1  'x, y, z'
loop_
 _atom_site_type_symbol
 _atom_site_label
 _atom_site_symmetry_multiplicity
 _atom_site_fract_x
 _atom_site_fract_y
 _atom_site_fract_z
 _atom_site_occupancy
  Hf  Hf0  1  0.666667  0.333333  0.997942  1
  Hf  Hf1  1  0.333333  0.666667  0.997942  1
  Hf  Hf2  1  0.333333  0.666667  0.502058  1
  Hf  Hf3  1  0.666667  0.333333  0.502058  1
  Zr  Zr4  1  0.725871  0.725871  0.750000  1
  Zr  Zr5  1  0.274129  0.000000  0.750000  1
  Zr  Zr6  1  0.000000  0.274129  0.750000  1
  Zr  Zr7  1  0.267114  0.267114  0.250000  1
  Zr  Zr8  1  0.732886  0.000000  0.250000  1
  Zr  Zr9  1  0.000000  0.732886  0.250000  1
  Al  Al10  1  0.000000  0.000000  0.991937  1
  Al  Al11  1  0.000000  0.000000  0.508063  1
  Sn  Sn12  1  0.383693  0.383693  0.750000  1
  Sn  Sn13  1  0.616307  0.000000  0.750000  1
  Sn  Sn14  1  0.000000  0.616307  0.750000  1
  Sb  Sb15  1  0.610206  0.610206  0.250000  1
  Sb  Sb16  1  0.389794  0.000000  0.250000  1
  Sb  Sb17  1  0.000000  0.389794  0.250000  1
