# generated using pymatgen
data_Y4SnHgAu4
_symmetry_space_group_name_H-M   'P 1'
_cell_length_a   8.03008400
_cell_length_b   8.03008400
_cell_length_c   7.37278200
_cell_angle_alpha   90.00000000
_cell_angle_beta   90.00000000
_cell_angle_gamma   90.00000000
_symmetry_Int_Tables_number   1
_chemical_formula_structural   Y4SnHgAu4
_chemical_formula_sum   'Y8 Sn2 Hg2 Au8'
_cell_volume   475.41356509
_cell_formula_units_Z   2
loop_
 _symmetry_equiv_pos_site_id
 _symmetry_equiv_pos_as_xyz
  1  'x, y, z'
loop_
 _atom_site_type_symbol
 _atom_site_label
 _atom_site_symmetry_multiplicity
 _atom_site_fract_x
 _atom_site_fract_y
 _atom_site_fract_z
 _atom_site_occupancy
  Y  Y0  1  0.841237  0.158763  0.500000  1
  Y  Y1  1  0.158763  0.841237  0.500000  1
  Y  Y2  1  0.341237  0.341237  0.000000  1
  Y  Y3  1  0.658763  0.658763  0.000000  1
  Y  Y4  1  0.684286  0.684286  0.500000  1
  Y  Y5  1  0.315714  0.315714  0.500000  1
  Y  Y6  1  0.184286  0.815714  0.000000  1
  Y  Y7  1  0.815714  0.184286  0.000000  1
  Sn  Sn8  1  0.500000  0.000000  0.750000  1
  Sn  Sn9  1  0.000000  0.500000  0.250000  1
  Hg  Hg10  1  0.500000  0.000000  0.250000  1
  Hg  Hg11  1  0.000000  0.500000  0.750000  1
  Au  Au12  1  0.626781  0.372441  0.276008  1
  Au  Au13  1  0.373219  0.627559  0.276008  1
  Au  Au14  1  0.126781  0.127559  0.776008  1
  Au  Au15  1  0.873219  0.872441  0.776008  1
  Au  Au16  1  0.372441  0.626781  0.723992  1
  Au  Au17  1  0.627559  0.373219  0.723992  1
  Au  Au18  1  0.872441  0.873219  0.223992  1
  Au  Au19  1  0.127559  0.126781  0.223992  1
