# generated using pymatgen
data_Hf3Al3ZnPt2
_symmetry_space_group_name_H-M   'P 1'
_cell_length_a   6.69261200
_cell_length_b   6.69261149
_cell_length_c   4.05845600
_cell_angle_alpha   90.00000000
_cell_angle_beta   90.00000000
_cell_angle_gamma   119.99999263
_symmetry_Int_Tables_number   1
_chemical_formula_structural   Hf3Al3ZnPt2
_chemical_formula_sum   'Hf3 Al3 Zn1 Pt2'
_cell_volume   157.42828648
_cell_formula_units_Z   1
loop_
 _symmetry_equiv_pos_site_id
 _symmetry_equiv_pos_as_xyz
  1  'x, y, z'
loop_
 _atom_site_type_symbol
 _atom_site_label
 _atom_site_symmetry_multiplicity
 _atom_site_fract_x
 _atom_site_fract_y
 _atom_site_fract_z
 _atom_site_occupancy
  Hf  Hf0  1  0.419131  0.002760  0.000000  1
  Hf  Hf1  1  0.997240  0.416371  0.000000  1
  Hf  Hf2  1  0.583629  0.580869  0.000000  1
  Al  Al3  1  0.754710  0.002634  0.500000  1
  Al  Al4  1  0.997366  0.752076  0.500000  1
  Al  Al5  1  0.247924  0.245290  0.500000  1
  Zn  Zn6  1  0.333333  0.666667  0.500000  1
  Pt  Pt7  1  0.666667  0.333333  0.500000  1
  Pt  Pt8  1  0.000000  0.000000  0.000000  1
