# generated using pymatgen
data_Y3Tm3(NiRh8)2
_symmetry_space_group_name_H-M   'P 1'
_cell_length_a   5.25930900
_cell_length_b   5.25931031
_cell_length_c   17.29487000
_cell_angle_alpha   90.00000000
_cell_angle_beta   90.00000000
_cell_angle_gamma   119.99998548
_symmetry_Int_Tables_number   1
_chemical_formula_structural   Y3Tm3(NiRh8)2
_chemical_formula_sum   'Y3 Tm3 Ni2 Rh16'
_cell_volume   414.29098250
_cell_formula_units_Z   1
loop_
 _symmetry_equiv_pos_site_id
 _symmetry_equiv_pos_as_xyz
  1  'x, y, z'
loop_
 _atom_site_type_symbol
 _atom_site_label
 _atom_site_symmetry_multiplicity
 _atom_site_fract_x
 _atom_site_fract_y
 _atom_site_fract_z
 _atom_site_occupancy
  Y  Y0  1  0.333333  0.666667  0.541405  1
  Y  Y1  1  0.333333  0.666667  0.750480  1
  Y  Y2  1  0.666667  0.333333  0.249700  1
  Tm  Tm3  1  0.333333  0.666667  0.958386  1
  Tm  Tm4  1  0.666667  0.333333  0.041636  1
  Tm  Tm5  1  0.666667  0.333333  0.457556  1
  Ni  Ni6  1  0.333333  0.666667  0.249895  1
  Ni  Ni7  1  0.666667  0.333333  0.750167  1
  Rh  Rh8  1  0.168713  0.831287  0.373071  1
  Rh  Rh9  1  0.168713  0.337427  0.373071  1
  Rh  Rh10  1  0.662573  0.831287  0.373071  1
  Rh  Rh11  1  0.831276  0.168724  0.627173  1
  Rh  Rh12  1  0.831276  0.662550  0.627173  1
  Rh  Rh13  1  0.337450  0.168724  0.627173  1
  Rh  Rh14  1  0.831058  0.168942  0.873865  1
  Rh  Rh15  1  0.831058  0.662115  0.873865  1
  Rh  Rh16  1  0.337885  0.168942  0.873865  1
  Rh  Rh17  1  0.168931  0.831069  0.126197  1
  Rh  Rh18  1  0.168931  0.337864  0.126197  1
  Rh  Rh19  1  0.662136  0.831069  0.126197  1
  Rh  Rh20  1  0.000000  0.000000  0.249557  1
  Rh  Rh21  1  0.000000  0.000000  0.750395  1
  Rh  Rh22  1  0.000000  0.000000  0.499880  1
  Rh  Rh23  1  0.000000  0.000000  0.000025  1
