# generated using pymatgen
data_Rb2Np(Br2O)2
_symmetry_space_group_name_H-M   'P 1'
_cell_length_a   7.48236888
_cell_length_b   7.48236831
_cell_length_c   7.48222468
_cell_angle_alpha   114.97528967
_cell_angle_beta   114.97528774
_cell_angle_gamma   98.94937192
_symmetry_Int_Tables_number   1
_chemical_formula_structural   Rb2Np(Br2O)2
_chemical_formula_sum   'Rb2 Np1 Br4 O2'
_cell_volume   314.53204709
_cell_formula_units_Z   1
loop_
 _symmetry_equiv_pos_site_id
 _symmetry_equiv_pos_as_xyz
  1  'x, y, z'
loop_
 _atom_site_type_symbol
 _atom_site_label
 _atom_site_symmetry_multiplicity
 _atom_site_fract_x
 _atom_site_fract_y
 _atom_site_fract_z
 _atom_site_occupancy
  Rb  Rb0  1  0.750000  0.250000  0.500000  1
  Rb  Rb1  1  0.250000  0.750000  0.500000  1
  Np  Np2  1  0.000000  0.000000  0.000000  1
  Br  Br3  1  0.751422  0.248577  0.000000  1
  Br  Br4  1  0.248577  0.751422  0.000000  1
  Br  Br5  1  0.248581  0.248581  0.497160  1
  Br  Br6  1  0.751419  0.751419  0.502840  1
  O  O7  1  0.183603  0.183603  0.000000  1
  O  O8  1  0.816397  0.816397  0.000000  1
