# generated using pymatgen
data_LuGaCu2Si
_symmetry_space_group_name_H-M   'P 1'
_cell_length_a   3.93809000
_cell_length_b   3.93809000
_cell_length_c   10.33989700
_cell_angle_alpha   90.00000000
_cell_angle_beta   90.00000000
_cell_angle_gamma   90.00000000
_symmetry_Int_Tables_number   1
_chemical_formula_structural   LuGaCu2Si
_chemical_formula_sum   'Lu2 Ga2 Cu4 Si2'
_cell_volume   160.35683907
_cell_formula_units_Z   2
loop_
 _symmetry_equiv_pos_site_id
 _symmetry_equiv_pos_as_xyz
  1  'x, y, z'
loop_
 _atom_site_type_symbol
 _atom_site_label
 _atom_site_symmetry_multiplicity
 _atom_site_fract_x
 _atom_site_fract_y
 _atom_site_fract_z
 _atom_site_occupancy
  Lu  Lu0  1  0.000000  0.500000  0.762244  1
  Lu  Lu1  1  0.500000  0.000000  0.237756  1
  Ga  Ga2  1  0.500000  0.500000  0.500000  1
  Ga  Ga3  1  0.000000  0.000000  0.500000  1
  Cu  Cu4  1  0.500000  0.000000  0.648751  1
  Cu  Cu5  1  0.000000  0.000000  0.000000  1
  Cu  Cu6  1  0.500000  0.500000  0.000000  1
  Cu  Cu7  1  0.000000  0.500000  0.351249  1
  Si  Si8  1  0.000000  0.500000  0.130960  1
  Si  Si9  1  0.500000  0.000000  0.869040  1
