# generated using pymatgen
data_ScTi4Co10SiB4
_symmetry_space_group_name_H-M   'P 1'
_cell_length_a   8.46342049
_cell_length_b   8.47852595
_cell_length_c   3.03530000
_cell_angle_alpha   90.00000000
_cell_angle_beta   90.00000000
_cell_angle_gamma   89.57881080
_symmetry_Int_Tables_number   1
_chemical_formula_structural   ScTi4Co10SiB4
_chemical_formula_sum   'Sc1 Ti4 Co10 Si1 B4'
_cell_volume   217.79913956
_cell_formula_units_Z   1
loop_
 _symmetry_equiv_pos_site_id
 _symmetry_equiv_pos_as_xyz
  1  'x, y, z'
loop_
 _atom_site_type_symbol
 _atom_site_label
 _atom_site_symmetry_multiplicity
 _atom_site_fract_x
 _atom_site_fract_y
 _atom_site_fract_z
 _atom_site_occupancy
  Sc  Sc0  1  0.827538  0.320882  0.000000  1
  Ti  Ti1  1  0.500000  0.500396  0.000000  1
  Ti  Ti2  1  0.322045  0.172057  0.000000  1
  Ti  Ti3  1  0.677550  0.827071  0.000000  1
  Ti  Ti4  1  0.172867  0.678621  0.000000  1
  Co  Co5  1  0.497443  0.996437  0.500000  1
  Co  Co6  1  0.005660  0.506026  0.500000  1
  Co  Co7  1  0.076306  0.215122  0.500000  1
  Co  Co8  1  0.214552  0.930971  0.500000  1
  Co  Co9  1  0.780179  0.060002  0.500000  1
  Co  Co10  1  0.933427  0.787129  0.500000  1
  Co  Co11  1  0.425418  0.720418  0.500000  1
  Co  Co12  1  0.563019  0.273490  0.500000  1
  Co  Co13  1  0.721646  0.581392  0.500000  1
  Co  Co14  1  0.280944  0.428012  0.500000  1
  Si  Si15  1  0.000019  0.000633  0.000000  1
  B  B16  1  0.617018  0.115827  0.000000  1
  B  B17  1  0.124839  0.381199  0.000000  1
  B  B18  1  0.882268  0.625575  0.000000  1
  B  B19  1  0.377260  0.878741  0.000000  1
