# generated using pymatgen
data_ErLu9In8(AgPt)2
_symmetry_space_group_name_H-M   'P 1'
_cell_length_a   3.59060100
_cell_length_b   8.08377903
_cell_length_c   18.12375659
_cell_angle_alpha   89.99004616
_cell_angle_beta   90.00000000
_cell_angle_gamma   90.00000000
_symmetry_Int_Tables_number   1
_chemical_formula_structural   ErLu9In8(AgPt)2
_chemical_formula_sum   'Er1 Lu9 In8 Ag2 Pt2'
_cell_volume   526.05335567
_cell_formula_units_Z   1
loop_
 _symmetry_equiv_pos_site_id
 _symmetry_equiv_pos_as_xyz
  1  'x, y, z'
loop_
 _atom_site_type_symbol
 _atom_site_label
 _atom_site_symmetry_multiplicity
 _atom_site_fract_x
 _atom_site_fract_y
 _atom_site_fract_z
 _atom_site_occupancy
  Er  Er0  1  0.000000  0.000000  0.000000  1
  Lu  Lu1  1  0.000000  0.122205  0.421060  1
  Lu  Lu2  1  0.000000  0.877795  0.578940  1
  Lu  Lu3  1  0.000000  0.383338  0.916125  1
  Lu  Lu4  1  0.000000  0.616662  0.083875  1
  Lu  Lu5  1  0.000000  0.256422  0.216153  1
  Lu  Lu6  1  0.000000  0.743578  0.783847  1
  Lu  Lu7  1  0.000000  0.273523  0.721344  1
  Lu  Lu8  1  0.000000  0.726477  0.278656  1
  Lu  Lu9  1  0.000000  0.500000  0.500000  1
  In  In10  1  0.500000  0.419288  0.353157  1
  In  In11  1  0.500000  0.580712  0.646843  1
  In  In12  1  0.500000  0.076871  0.851851  1
  In  In13  1  0.500000  0.923129  0.148149  1
  In  In14  1  0.500000  0.293113  0.064860  1
  In  In15  1  0.500000  0.706887  0.935140  1
  In  In16  1  0.500000  0.209218  0.567938  1
  In  In17  1  0.500000  0.790782  0.432062  1
  Ag  Ag18  1  0.500000  0.026746  0.302253  1
  Ag  Ag19  1  0.500000  0.973254  0.697747  1
  Pt  Pt20  1  0.500000  0.472933  0.804195  1
  Pt  Pt21  1  0.500000  0.527067  0.195805  1
