# generated using pymatgen
data_Tb3LuGa18Ir5Pt
_symmetry_space_group_name_H-M   'P 1'
_cell_length_a   7.60536148
_cell_length_b   7.60653657
_cell_length_c   9.48092735
_cell_angle_alpha   90.03836128
_cell_angle_beta   90.05110792
_cell_angle_gamma   119.87952576
_symmetry_Int_Tables_number   1
_chemical_formula_structural   Tb3LuGa18Ir5Pt
_chemical_formula_sum   'Tb3 Lu1 Ga18 Ir5 Pt1'
_cell_volume   475.56915901
_cell_formula_units_Z   1
loop_
 _symmetry_equiv_pos_site_id
 _symmetry_equiv_pos_as_xyz
  1  'x, y, z'
loop_
 _atom_site_type_symbol
 _atom_site_label
 _atom_site_symmetry_multiplicity
 _atom_site_fract_x
 _atom_site_fract_y
 _atom_site_fract_z
 _atom_site_occupancy
  Tb  Tb0  1  0.996939  0.669973  0.250878  1
  Tb  Tb1  1  0.003130  0.330296  0.749097  1
  Tb  Tb2  1  0.670019  0.997052  0.250879  1
  Lu  Lu3  1  0.330192  0.002818  0.748818  1
  Ga  Ga4  1  0.130291  0.130127  0.251758  1
  Ga  Ga5  1  0.871049  0.870588  0.748258  1
  Ga  Ga6  1  0.999038  0.337699  0.082363  1
  Ga  Ga7  1  0.001976  0.663544  0.917137  1
  Ga  Ga8  1  0.002186  0.666527  0.580630  1
  Ga  Ga9  1  0.334478  0.998708  0.420904  1
  Ga  Ga10  1  0.998919  0.334672  0.419966  1
  Ga  Ga11  1  0.664221  0.001067  0.580563  1
  Ga  Ga12  1  0.661095  0.000842  0.917131  1
  Ga  Ga13  1  0.337494  0.998851  0.081499  1
  Ga  Ga14  1  0.332159  0.330939  0.564961  1
  Ga  Ga15  1  0.667787  0.667993  0.435638  1
  Ga  Ga16  1  0.663945  0.664025  0.067184  1
  Ga  Ga17  1  0.336021  0.334880  0.932319  1
  Ga  Ga18  1  0.338681  0.547115  0.250428  1
  Ga  Ga19  1  0.660917  0.452103  0.749551  1
  Ga  Ga20  1  0.546917  0.338340  0.250446  1
  Ga  Ga21  1  0.453059  0.662284  0.749557  1
  Ir  Ir22  1  0.671103  0.328352  0.999659  1
  Ir  Ir23  1  0.328367  0.671195  0.999621  1
  Ir  Ir24  1  0.328290  0.671218  0.500374  1
  Ir  Ir25  1  0.671295  0.328502  0.500313  1
  Ir  Ir26  1  0.000240  0.000176  0.500214  1
  Pt  Pt27  1  0.000192  0.000113  0.999853  1
