# generated using pymatgen
data_Ce(ThB8)3
_symmetry_space_group_name_H-M   'P 1'
_cell_length_a   4.11774700
_cell_length_b   4.11774700
_cell_length_c   16.44547500
_cell_angle_alpha   90.00000000
_cell_angle_beta   90.00000000
_cell_angle_gamma   90.00000000
_symmetry_Int_Tables_number   1
_chemical_formula_structural   Ce(ThB8)3
_chemical_formula_sum   'Ce1 Th3 B24'
_cell_volume   278.84684868
_cell_formula_units_Z   1
loop_
 _symmetry_equiv_pos_site_id
 _symmetry_equiv_pos_as_xyz
  1  'x, y, z'
loop_
 _atom_site_type_symbol
 _atom_site_label
 _atom_site_symmetry_multiplicity
 _atom_site_fract_x
 _atom_site_fract_y
 _atom_site_fract_z
 _atom_site_occupancy
  Ce  Ce0  1  0.000000  0.000000  0.500000  1
  Th  Th1  1  0.000000  0.000000  0.000000  1
  Th  Th2  1  0.000000  0.000000  0.249979  1
  Th  Th3  1  0.000000  0.000000  0.750021  1
  B  B4  1  0.500000  0.500000  0.200722  1
  B  B5  1  0.500000  0.500000  0.450465  1
  B  B6  1  0.500000  0.500000  0.700541  1
  B  B7  1  0.500000  0.500000  0.950591  1
  B  B8  1  0.500000  0.197409  0.125121  1
  B  B9  1  0.500000  0.197900  0.375067  1
  B  B10  1  0.500000  0.197900  0.624933  1
  B  B11  1  0.500000  0.197409  0.874879  1
  B  B12  1  0.197409  0.500000  0.125121  1
  B  B13  1  0.197900  0.500000  0.375067  1
  B  B14  1  0.197900  0.500000  0.624933  1
  B  B15  1  0.197409  0.500000  0.874879  1
  B  B16  1  0.500000  0.500000  0.049409  1
  B  B17  1  0.500000  0.500000  0.299459  1
  B  B18  1  0.500000  0.500000  0.549535  1
  B  B19  1  0.500000  0.500000  0.799278  1
  B  B20  1  0.500000  0.802591  0.125121  1
  B  B21  1  0.500000  0.802100  0.375067  1
  B  B22  1  0.500000  0.802100  0.624933  1
  B  B23  1  0.500000  0.802591  0.874879  1
  B  B24  1  0.802591  0.500000  0.125121  1
  B  B25  1  0.802100  0.500000  0.375067  1
  B  B26  1  0.802100  0.500000  0.624933  1
  B  B27  1  0.802591  0.500000  0.874879  1
