# generated using pymatgen
data_Er3Th(CdCu2)2
_symmetry_space_group_name_H-M   'P 1'
_cell_length_a   7.59475505
_cell_length_b   7.59475505
_cell_length_c   3.67684100
_cell_angle_alpha   90.00000000
_cell_angle_beta   90.00000000
_cell_angle_gamma   91.14939686
_symmetry_Int_Tables_number   1
_chemical_formula_structural   Er3Th(CdCu2)2
_chemical_formula_sum   'Er3 Th1 Cd2 Cu4'
_cell_volume   212.03863443
_cell_formula_units_Z   1
loop_
 _symmetry_equiv_pos_site_id
 _symmetry_equiv_pos_as_xyz
  1  'x, y, z'
loop_
 _atom_site_type_symbol
 _atom_site_label
 _atom_site_symmetry_multiplicity
 _atom_site_fract_x
 _atom_site_fract_y
 _atom_site_fract_z
 _atom_site_occupancy
  Er  Er0  1  0.323368  0.823368  0.500000  1
  Er  Er1  1  0.176480  0.329052  0.500000  1
  Er  Er2  1  0.829052  0.676480  0.500000  1
  Th  Th3  1  0.673242  0.173242  0.500000  1
  Cd  Cd4  1  0.006857  0.996296  0.000000  1
  Cd  Cd5  1  0.496296  0.506857  0.000000  1
  Cu  Cu6  1  0.119238  0.619238  0.000000  1
  Cu  Cu7  1  0.883422  0.383422  0.000000  1
  Cu  Cu8  1  0.617531  0.874515  0.000000  1
  Cu  Cu9  1  0.374515  0.117531  0.000000  1
