# generated using pymatgen
data_AlFeCo3Si3W4
_symmetry_space_group_name_H-M   'P 1'
_cell_length_a   4.74152485
_cell_length_b   4.77401898
_cell_length_c   7.63878700
_cell_angle_alpha   90.00000000
_cell_angle_beta   90.00000000
_cell_angle_gamma   120.08566617
_symmetry_Int_Tables_number   1
_chemical_formula_structural   AlFeCo3Si3W4
_chemical_formula_sum   'Al1 Fe1 Co3 Si3 W4'
_cell_volume   149.61724750
_cell_formula_units_Z   1
loop_
 _symmetry_equiv_pos_site_id
 _symmetry_equiv_pos_as_xyz
  1  'x, y, z'
loop_
 _atom_site_type_symbol
 _atom_site_label
 _atom_site_symmetry_multiplicity
 _atom_site_fract_x
 _atom_site_fract_y
 _atom_site_fract_z
 _atom_site_occupancy
  Al  Al0  1  0.826567  0.185409  0.000000  1
  Fe  Fe1  1  0.151794  0.327497  0.500000  1
  Co  Co2  1  0.827586  0.673564  0.000000  1
  Co  Co3  1  0.334157  0.175062  0.000000  1
  Co  Co4  1  0.158155  0.827048  0.500000  1
  Si  Si5  1  0.636778  0.818177  0.500000  1
  Si  Si6  1  0.024489  0.996915  0.249520  1
  Si  Si7  1  0.024489  0.996915  0.750480  1
  W  W8  1  0.666902  0.330212  0.683076  1
  W  W9  1  0.340970  0.669615  0.814007  1
  W  W10  1  0.340970  0.669615  0.185993  1
  W  W11  1  0.666902  0.330212  0.316924  1
