# generated using pymatgen
data_NdTh3FeCoB20
_symmetry_space_group_name_H-M   'P 1'
_cell_length_a   4.18179400
_cell_length_b   5.62489791
_cell_length_c   11.23815021
_cell_angle_alpha   90.31339317
_cell_angle_beta   90.00000000
_cell_angle_gamma   90.00000000
_symmetry_Int_Tables_number   1
_chemical_formula_structural   NdTh3FeCoB20
_chemical_formula_sum   'Nd1 Th3 Fe1 Co1 B20'
_cell_volume   264.34166173
_cell_formula_units_Z   1
loop_
 _symmetry_equiv_pos_site_id
 _symmetry_equiv_pos_as_xyz
  1  'x, y, z'
loop_
 _atom_site_type_symbol
 _atom_site_label
 _atom_site_symmetry_multiplicity
 _atom_site_fract_x
 _atom_site_fract_y
 _atom_site_fract_z
 _atom_site_occupancy
  Nd  Nd0  1  0.500000  0.301936  0.865319  1
  Th  Th1  1  0.500000  0.700283  0.132839  1
  Th  Th2  1  0.500000  0.795250  0.632404  1
  Th  Th3  1  0.500000  0.206106  0.368356  1
  Fe  Fe4  1  0.000000  0.500272  0.499928  1
  Co  Co5  1  0.000000  0.997740  0.000910  1
  B  B6  1  0.000000  0.127390  0.540307  1
  B  B7  1  0.000000  0.872256  0.459937  1
  B  B8  1  0.000000  0.626475  0.959679  1
  B  B9  1  0.000000  0.372316  0.040266  1
  B  B10  1  0.000000  0.151870  0.697470  1
  B  B11  1  0.000000  0.848231  0.302555  1
  B  B12  1  0.299784  0.200944  0.113582  1
  B  B13  1  0.299600  0.797183  0.886982  1
  B  B14  1  0.700393  0.702447  0.386646  1
  B  B15  1  0.700883  0.297476  0.613208  1
  B  B16  1  0.700400  0.797183  0.886982  1
  B  B17  1  0.700216  0.200944  0.113582  1
  B  B18  1  0.299117  0.297476  0.613208  1
  B  B19  1  0.299607  0.702447  0.386646  1
  B  B20  1  0.000000  0.035830  0.187681  1
  B  B21  1  0.000000  0.964660  0.813061  1
  B  B22  1  0.000000  0.536422  0.312422  1
  B  B23  1  0.000000  0.464761  0.686656  1
  B  B24  1  0.000000  0.348284  0.196623  1
  B  B25  1  0.000000  0.653819  0.802751  1
