# generated using pymatgen
data_Hf7Zr3InGa2Pb5
_symmetry_space_group_name_H-M   'P 1'
_cell_length_a   8.79349248
_cell_length_b   8.80023631
_cell_length_c   5.92743800
_cell_angle_alpha   90.00000000
_cell_angle_beta   90.00000000
_cell_angle_gamma   120.11443996
_symmetry_Int_Tables_number   1
_chemical_formula_structural   Hf7Zr3InGa2Pb5
_chemical_formula_sum   'Hf7 Zr3 In1 Ga2 Pb5'
_cell_volume   396.78149559
_cell_formula_units_Z   1
loop_
 _symmetry_equiv_pos_site_id
 _symmetry_equiv_pos_as_xyz
  1  'x, y, z'
loop_
 _atom_site_type_symbol
 _atom_site_label
 _atom_site_symmetry_multiplicity
 _atom_site_fract_x
 _atom_site_fract_y
 _atom_site_fract_z
 _atom_site_occupancy
  Hf  Hf0  1  0.662770  0.333843  0.998498  1
  Hf  Hf1  1  0.334225  0.663461  0.998508  1
  Hf  Hf2  1  0.334225  0.663461  0.501492  1
  Hf  Hf3  1  0.662770  0.333843  0.501502  1
  Hf  Hf4  1  0.734973  0.735956  0.750000  1
  Hf  Hf5  1  0.266593  0.006088  0.750000  1
  Hf  Hf6  1  0.261541  0.260541  0.250000  1
  Zr  Zr7  1  0.004295  0.265545  0.750000  1
  Zr  Zr8  1  0.738860  0.998529  0.250000  1
  Zr  Zr9  1  0.999303  0.738954  0.250000  1
  In  In10  1  0.389069  0.389157  0.750000  1
  Ga  Ga11  1  0.001195  0.000579  0.996423  1
  Ga  Ga12  1  0.001195  0.000579  0.503577  1
  Pb  Pb13  1  0.611798  0.000845  0.750000  1
  Pb  Pb14  1  0.001102  0.613373  0.750000  1
  Pb  Pb15  1  0.609077  0.608961  0.250000  1
  Pb  Pb16  1  0.388537  0.998046  0.250000  1
  Pb  Pb17  1  0.998471  0.388239  0.250000  1
