# generated using pymatgen
data_Sc4In2Hg3Ru
_symmetry_space_group_name_H-M   'P 1'
_cell_length_a   7.92672055
_cell_length_b   7.92672079
_cell_length_c   6.95419300
_cell_angle_alpha   90.00000000
_cell_angle_beta   90.00000000
_cell_angle_gamma   91.20098841
_symmetry_Int_Tables_number   1
_chemical_formula_structural   Sc4In2Hg3Ru
_chemical_formula_sum   'Sc8 In4 Hg6 Ru2'
_cell_volume   436.85612864
_cell_formula_units_Z   2
loop_
 _symmetry_equiv_pos_site_id
 _symmetry_equiv_pos_as_xyz
  1  'x, y, z'
loop_
 _atom_site_type_symbol
 _atom_site_label
 _atom_site_symmetry_multiplicity
 _atom_site_fract_x
 _atom_site_fract_y
 _atom_site_fract_z
 _atom_site_occupancy
  Sc  Sc0  1  0.176395  0.122180  0.000000  1
  Sc  Sc1  1  0.877820  0.823605  0.000000  1
  Sc  Sc2  1  0.654143  0.345857  0.500000  1
  Sc  Sc3  1  0.311718  0.688282  0.500000  1
  Sc  Sc4  1  0.672691  0.327309  0.000000  1
  Sc  Sc5  1  0.300032  0.699968  0.000000  1
  Sc  Sc6  1  0.867884  0.809247  0.500000  1
  Sc  Sc7  1  0.190753  0.132116  0.500000  1
  In  In8  1  0.493370  0.999564  0.251801  1
  In  In9  1  0.493370  0.999564  0.748199  1
  In  In10  1  0.000436  0.506630  0.251801  1
  In  In11  1  0.000436  0.506630  0.748199  1
  Hg  Hg12  1  0.357898  0.376786  0.233237  1
  Hg  Hg13  1  0.623214  0.642102  0.766763  1
  Hg  Hg14  1  0.623214  0.642102  0.233237  1
  Hg  Hg15  1  0.870544  0.129456  0.731959  1
  Hg  Hg16  1  0.870544  0.129456  0.268041  1
  Hg  Hg17  1  0.357898  0.376786  0.766763  1
  Ru  Ru18  1  0.128819  0.871181  0.257814  1
  Ru  Ru19  1  0.128819  0.871181  0.742186  1
