# generated using pymatgen
data_Cr21ReTcC6
_symmetry_space_group_name_H-M   'P 1'
_cell_length_a   7.50629425
_cell_length_b   7.50629406
_cell_length_c   7.50629400
_cell_angle_alpha   59.99999145
_cell_angle_beta   59.99999227
_cell_angle_gamma   59.99999657
_symmetry_Int_Tables_number   1
_chemical_formula_structural   Cr21ReTcC6
_chemical_formula_sum   'Cr21 Re1 Tc1 C6'
_cell_volume   299.06229840
_cell_formula_units_Z   1
loop_
 _symmetry_equiv_pos_site_id
 _symmetry_equiv_pos_as_xyz
  1  'x, y, z'
loop_
 _atom_site_type_symbol
 _atom_site_label
 _atom_site_symmetry_multiplicity
 _atom_site_fract_x
 _atom_site_fract_y
 _atom_site_fract_z
 _atom_site_occupancy
  Cr  Cr0  1  0.000000  0.000000  0.000000  1
  Cr  Cr1  1  0.615715  0.615715  0.152855  1
  Cr  Cr2  1  0.615715  0.152855  0.615715  1
  Cr  Cr3  1  0.152855  0.615715  0.615715  1
  Cr  Cr4  1  0.615715  0.615715  0.615715  1
  Cr  Cr5  1  0.382846  0.382846  0.851462  1
  Cr  Cr6  1  0.382846  0.851462  0.382846  1
  Cr  Cr7  1  0.851462  0.382846  0.382846  1
  Cr  Cr8  1  0.382846  0.382846  0.382846  1
  Cr  Cr9  1  0.999735  0.999735  0.338563  1
  Cr  Cr10  1  0.661966  0.999735  0.338563  1
  Cr  Cr11  1  0.999735  0.661966  0.338563  1
  Cr  Cr12  1  0.661966  0.338563  0.999735  1
  Cr  Cr13  1  0.999735  0.338563  0.999735  1
  Cr  Cr14  1  0.999735  0.338563  0.661966  1
  Cr  Cr15  1  0.338563  0.661966  0.999735  1
  Cr  Cr16  1  0.338563  0.999735  0.661966  1
  Cr  Cr17  1  0.338563  0.999735  0.999735  1
  Cr  Cr18  1  0.999735  0.999735  0.661966  1
  Cr  Cr19  1  0.999735  0.661966  0.999735  1
  Cr  Cr20  1  0.661966  0.999735  0.999735  1
  Re  Re21  1  0.750000  0.750000  0.750000  1
  Tc  Tc22  1  0.250000  0.250000  0.250000  1
  C  C23  1  0.724607  0.724607  0.275393  1
  C  C24  1  0.275393  0.724607  0.275393  1
  C  C25  1  0.724607  0.275393  0.275393  1
  C  C26  1  0.275393  0.275393  0.724607  1
  C  C27  1  0.724607  0.275393  0.724607  1
  C  C28  1  0.275393  0.724607  0.724607  1
