# generated using pymatgen
data_Sr7Yb(MgSb2)4
_symmetry_space_group_name_H-M   'P 1'
_cell_length_a   4.81000100
_cell_length_b   7.66591811
_cell_length_c   18.32219600
_cell_angle_alpha   89.99050043
_cell_angle_beta   90.00000000
_cell_angle_gamma   90.00000000
_symmetry_Int_Tables_number   1
_chemical_formula_structural   Sr7Yb(MgSb2)4
_chemical_formula_sum   'Sr7 Yb1 Mg4 Sb8'
_cell_volume   675.59567513
_cell_formula_units_Z   1
loop_
 _symmetry_equiv_pos_site_id
 _symmetry_equiv_pos_as_xyz
  1  'x, y, z'
loop_
 _atom_site_type_symbol
 _atom_site_label
 _atom_site_symmetry_multiplicity
 _atom_site_fract_x
 _atom_site_fract_y
 _atom_site_fract_z
 _atom_site_occupancy
  Sr  Sr0  1  0.750000  0.771448  0.449107  1
  Sr  Sr1  1  0.250000  0.734763  0.946697  1
  Sr  Sr2  1  0.250000  0.530304  0.727753  1
  Sr  Sr3  1  0.750000  0.970146  0.225743  1
  Sr  Sr4  1  0.750000  0.272550  0.050203  1
  Sr  Sr5  1  0.250000  0.223672  0.553514  1
  Sr  Sr6  1  0.750000  0.469659  0.273756  1
  Yb  Yb7  1  0.250000  0.032544  0.773334  1
  Mg  Mg8  1  0.250000  0.633701  0.151588  1
  Mg  Mg9  1  0.750000  0.865411  0.654577  1
  Mg  Mg10  1  0.750000  0.365830  0.846823  1
  Mg  Mg11  1  0.250000  0.133080  0.348231  1
  Sb  Sb12  1  0.750000  0.237131  0.690250  1
  Sb  Sb13  1  0.250000  0.757231  0.312975  1
  Sb  Sb14  1  0.250000  0.257342  0.185950  1
  Sb  Sb15  1  0.750000  0.729437  0.076675  1
  Sb  Sb16  1  0.750000  0.752212  0.812399  1
  Sb  Sb17  1  0.250000  0.264326  0.918701  1
  Sb  Sb18  1  0.750000  0.229628  0.422882  1
  Sb  Sb19  1  0.250000  0.769587  0.578841  1
