# generated using pymatgen
data_Lu4Al24Pt7Au2
_symmetry_space_group_name_H-M   'P 1'
_cell_length_a   7.54175751
_cell_length_b   7.55790048
_cell_length_c   13.09588148
_cell_angle_alpha   84.52318915
_cell_angle_beta   78.98513080
_cell_angle_gamma   59.92456731
_symmetry_Int_Tables_number   1
_chemical_formula_structural   Lu4Al24Pt7Au2
_chemical_formula_sum   'Lu4 Al24 Pt7 Au2'
_cell_volume   634.06402400
_cell_formula_units_Z   1
loop_
 _symmetry_equiv_pos_site_id
 _symmetry_equiv_pos_as_xyz
  1  'x, y, z'
loop_
 _atom_site_type_symbol
 _atom_site_label
 _atom_site_symmetry_multiplicity
 _atom_site_fract_x
 _atom_site_fract_y
 _atom_site_fract_z
 _atom_site_occupancy
  Lu  Lu0  1  0.393018  0.169379  0.808599  1
  Lu  Lu1  1  0.606982  0.830621  0.191401  1
  Lu  Lu2  1  0.733611  0.499212  0.809377  1
  Lu  Lu3  1  0.266389  0.500788  0.190623  1
  Al  Al4  1  0.682464  0.834181  0.944190  1
  Al  Al5  1  0.317536  0.165819  0.055810  1
  Al  Al6  1  0.145790  0.839091  0.562697  1
  Al  Al7  1  0.854210  0.160909  0.437303  1
  Al  Al8  1  0.488143  0.159287  0.559700  1
  Al  Al9  1  0.511857  0.840713  0.440300  1
  Al  Al10  1  0.223937  0.161098  0.323501  1
  Al  Al11  1  0.776063  0.838902  0.676499  1
  Al  Al12  1  0.439217  0.506177  0.676606  1
  Al  Al13  1  0.560783  0.493823  0.323394  1
  Al  Al14  1  0.108367  0.155448  0.675159  1
  Al  Al15  1  0.891633  0.844552  0.324841  1
  Al  Al16  1  0.354367  0.497969  0.944053  1
  Al  Al17  1  0.645633  0.502031  0.055947  1
  Al  Al18  1  0.016099  0.168470  0.951795  1
  Al  Al19  1  0.983901  0.831530  0.048205  1
  Al  Al20  1  0.195551  0.499296  0.437401  1
  Al  Al21  1  0.804449  0.500704  0.562599  1
  Al  Al22  1  0.731705  0.164741  0.182753  1
  Al  Al23  1  0.268295  0.835259  0.817247  1
  Al  Al24  1  0.060323  0.632964  0.817865  1
  Al  Al25  1  0.939677  0.367036  0.182135  1
  Al  Al26  1  0.853139  0.043320  0.816580  1
  Al  Al27  1  0.146861  0.956680  0.183420  1
  Pt  Pt28  1  0.657122  0.171272  0.999629  1
  Pt  Pt29  1  0.342878  0.828728  0.000371  1
  Pt  Pt30  1  0.536649  0.167522  0.361278  1
  Pt  Pt31  1  0.463351  0.832478  0.638722  1
  Pt  Pt32  1  0.778090  0.176093  0.636984  1
  Pt  Pt33  1  0.221910  0.823907  0.363016  1
  Pt  Pt34  1  0.000000  0.500000  0.000000  1
  Au  Au35  1  0.119761  0.490341  0.638868  1
  Au  Au36  1  0.880239  0.509659  0.361132  1
