# generated using pymatgen
data_Y16Cd4IrOsPt2
_symmetry_space_group_name_H-M   'P 1'
_cell_length_a   9.76446365
_cell_length_b   9.72471717
_cell_length_c   9.72471526
_cell_angle_alpha   59.36474330
_cell_angle_beta   59.49361640
_cell_angle_gamma   59.49359828
_symmetry_Int_Tables_number   1
_chemical_formula_structural   Y16Cd4IrOsPt2
_chemical_formula_sum   'Y16 Cd4 Ir1 Os1 Pt2'
_cell_volume   644.79853635
_cell_formula_units_Z   1
loop_
 _symmetry_equiv_pos_site_id
 _symmetry_equiv_pos_as_xyz
  1  'x, y, z'
loop_
 _atom_site_type_symbol
 _atom_site_label
 _atom_site_symmetry_multiplicity
 _atom_site_fract_x
 _atom_site_fract_y
 _atom_site_fract_z
 _atom_site_occupancy
  Y  Y0  1  0.353943  0.349715  0.349716  1
  Y  Y1  1  0.350962  0.347513  0.953102  1
  Y  Y2  1  0.350963  0.953102  0.347513  1
  Y  Y3  1  0.945613  0.351312  0.351312  1
  Y  Y4  1  0.812216  0.188686  0.188685  1
  Y  Y5  1  0.190021  0.808468  0.808467  1
  Y  Y6  1  0.190391  0.813967  0.188843  1
  Y  Y7  1  0.806602  0.187636  0.812862  1
  Y  Y8  1  0.190389  0.188843  0.813968  1
  Y  Y9  1  0.806603  0.812862  0.187636  1
  Y  Y10  1  0.938413  0.563458  0.563457  1
  Y  Y11  1  0.559257  0.938023  0.938024  1
  Y  Y12  1  0.566484  0.936506  0.561223  1
  Y  Y13  1  0.938678  0.556871  0.938322  1
  Y  Y14  1  0.566484  0.561223  0.936506  1
  Y  Y15  1  0.938678  0.938322  0.556871  1
  Cd  Cd16  1  0.579415  0.579208  0.579206  1
  Cd  Cd17  1  0.580366  0.580875  0.254721  1
  Cd  Cd18  1  0.580367  0.254720  0.580874  1
  Cd  Cd19  1  0.255523  0.580402  0.580400  1
  Ir  Ir20  1  0.574816  0.144427  0.144428  1
  Os  Os21  1  0.140071  0.144476  0.144477  1
  Pt  Pt22  1  0.141872  0.145174  0.574213  1
  Pt  Pt23  1  0.141873  0.574212  0.145175  1
