# generated using pymatgen
data_Tm4Ti3Nb3Si8
_symmetry_space_group_name_H-M   'P 1'
_cell_length_a   7.02029941
_cell_length_b   7.02042501
_cell_length_c   12.91223805
_cell_angle_alpha   90.08240842
_cell_angle_beta   89.97705667
_cell_angle_gamma   90.01062265
_symmetry_Int_Tables_number   1
_chemical_formula_structural   Tm4Ti3Nb3Si8
_chemical_formula_sum   'Tm8 Ti6 Nb6 Si16'
_cell_volume   636.38520098
_cell_formula_units_Z   2
loop_
 _symmetry_equiv_pos_site_id
 _symmetry_equiv_pos_as_xyz
  1  'x, y, z'
loop_
 _atom_site_type_symbol
 _atom_site_label
 _atom_site_symmetry_multiplicity
 _atom_site_fract_x
 _atom_site_fract_y
 _atom_site_fract_z
 _atom_site_occupancy
  Tm  Tm0  1  0.341762  0.000661  0.466256  1
  Tm  Tm1  1  0.498998  0.841819  0.716182  1
  Tm  Tm2  1  0.501153  0.157370  0.216888  1
  Tm  Tm3  1  0.840388  0.499723  0.283653  1
  Tm  Tm4  1  0.158641  0.500748  0.782783  1
  Tm  Tm5  1  0.657687  0.998539  0.966710  1
  Tm  Tm6  1  0.000449  0.341386  0.533049  1
  Tm  Tm7  1  0.999132  0.659970  0.033273  1
  Ti  Ti8  1  0.507798  0.347719  0.624551  1
  Ti  Ti9  1  0.652718  0.491571  0.875718  1
  Ti  Ti10  1  0.348695  0.507792  0.375964  1
  Ti  Ti11  1  0.847598  0.991897  0.373910  1
  Ti  Ti12  1  0.007832  0.151604  0.125796  1
  Ti  Ti13  1  0.991875  0.847520  0.626096  1
  Nb  Nb14  1  0.327921  0.327918  0.000321  1
  Nb  Nb15  1  0.172113  0.827990  0.250493  1
  Nb  Nb16  1  0.828422  0.172194  0.749896  1
  Nb  Nb17  1  0.671938  0.671530  0.500100  1
  Nb  Nb18  1  0.151736  0.007393  0.874256  1
  Nb  Nb19  1  0.492499  0.651913  0.123576  1
  Si  Si20  1  0.205631  0.132409  0.681612  1
  Si  Si21  1  0.368564  0.704669  0.931367  1
  Si  Si22  1  0.631188  0.295855  0.433372  1
  Si  Si23  1  0.706322  0.365114  0.067684  1
  Si  Si24  1  0.295771  0.631332  0.566750  1
  Si  Si25  1  0.796560  0.869400  0.183359  1
  Si  Si26  1  0.131348  0.204341  0.317451  1
  Si  Si27  1  0.865332  0.794051  0.817047  1
  Si  Si28  1  0.293063  0.954390  0.064223  1
  Si  Si29  1  0.546858  0.793759  0.314535  1
  Si  Si30  1  0.454302  0.208840  0.812657  1
  Si  Si31  1  0.793137  0.546032  0.686185  1
  Si  Si32  1  0.205276  0.451991  0.187406  1
  Si  Si33  1  0.708032  0.046682  0.563247  1
  Si  Si34  1  0.952683  0.296051  0.936699  1
  Si  Si35  1  0.046581  0.707827  0.436936  1
