# generated using pymatgen
data_Ba4Nd7USe16
_symmetry_space_group_name_H-M   'P 1'
_cell_length_a   4.32598500
_cell_length_b   13.01227615
_cell_length_c   15.60043023
_cell_angle_alpha   90.16787749
_cell_angle_beta   90.00000000
_cell_angle_gamma   90.00000000
_symmetry_Int_Tables_number   1
_chemical_formula_structural   Ba4Nd7USe16
_chemical_formula_sum   'Ba4 Nd7 U1 Se16'
_cell_volume   878.15866693
_cell_formula_units_Z   1
loop_
 _symmetry_equiv_pos_site_id
 _symmetry_equiv_pos_as_xyz
  1  'x, y, z'
loop_
 _atom_site_type_symbol
 _atom_site_label
 _atom_site_symmetry_multiplicity
 _atom_site_fract_x
 _atom_site_fract_y
 _atom_site_fract_z
 _atom_site_occupancy
  Ba  Ba0  1  0.250000  0.754242  0.337354  1
  Ba  Ba1  1  0.250000  0.259318  0.161787  1
  Ba  Ba2  1  0.750000  0.243398  0.663350  1
  Ba  Ba3  1  0.750000  0.742500  0.837636  1
  Nd  Nd4  1  0.250000  0.428273  0.392814  1
  Nd  Nd5  1  0.250000  0.929074  0.107185  1
  Nd  Nd6  1  0.750000  0.568703  0.608489  1
  Nd  Nd7  1  0.750000  0.071829  0.892657  1
  Nd  Nd8  1  0.250000  0.420564  0.899148  1
  Nd  Nd9  1  0.250000  0.920068  0.601409  1
  Nd  Nd10  1  0.750000  0.579236  0.101159  1
  U  U11  1  0.750000  0.080194  0.399422  1
  Se  Se12  1  0.250000  0.207842  0.825803  1
  Se  Se13  1  0.250000  0.707916  0.672073  1
  Se  Se14  1  0.750000  0.793009  0.174961  1
  Se  Se15  1  0.750000  0.289040  0.327337  1
  Se  Se16  1  0.250000  0.129425  0.519584  1
  Se  Se17  1  0.250000  0.630895  0.975488  1
  Se  Se18  1  0.750000  0.873523  0.472267  1
  Se  Se19  1  0.750000  0.368914  0.024906  1
  Se  Se20  1  0.250000  0.521428  0.218135  1
  Se  Se21  1  0.250000  0.026178  0.285470  1
  Se  Se22  1  0.750000  0.477464  0.782746  1
  Se  Se23  1  0.750000  0.979618  0.716579  1
  Se  Se24  1  0.250000  0.413719  0.580108  1
  Se  Se25  1  0.250000  0.916350  0.920159  1
  Se  Se26  1  0.750000  0.583393  0.421234  1
  Se  Se27  1  0.750000  0.083889  0.080743  1
