# generated using pymatgen
data_Tm3LuNiB14
_symmetry_space_group_name_H-M   'P 1'
_cell_length_a   7.16851197
_cell_length_b   7.17070497
_cell_length_c   7.40896000
_cell_angle_alpha   90.00000000
_cell_angle_beta   90.00000000
_cell_angle_gamma   90.12062342
_symmetry_Int_Tables_number   1
_chemical_formula_structural   Tm3LuNiB14
_chemical_formula_sum   'Tm6 Lu2 Ni2 B28'
_cell_volume   380.84403431
_cell_formula_units_Z   2
loop_
 _symmetry_equiv_pos_site_id
 _symmetry_equiv_pos_as_xyz
  1  'x, y, z'
loop_
 _atom_site_type_symbol
 _atom_site_label
 _atom_site_symmetry_multiplicity
 _atom_site_fract_x
 _atom_site_fract_y
 _atom_site_fract_z
 _atom_site_occupancy
  Tm  Tm0  1  0.193478  0.332826  0.000000  1
  Tm  Tm1  1  0.667291  0.193646  0.000000  1
  Tm  Tm2  1  0.332709  0.806354  0.000000  1
  Tm  Tm3  1  0.693914  0.167279  0.500000  1
  Tm  Tm4  1  0.306086  0.832721  0.500000  1
  Tm  Tm5  1  0.806522  0.667174  0.000000  1
  Lu  Lu6  1  0.833268  0.693437  0.500000  1
  Lu  Lu7  1  0.166732  0.306563  0.500000  1
  Ni  Ni8  1  0.000000  0.000000  0.000000  1
  Ni  Ni9  1  0.500000  0.500000  0.500000  1
  B  B10  1  0.175505  0.039390  0.232446  1
  B  B11  1  0.961218  0.175633  0.232742  1
  B  B12  1  0.038782  0.824367  0.232742  1
  B  B13  1  0.675624  0.461263  0.268425  1
  B  B14  1  0.324376  0.538737  0.268425  1
  B  B15  1  0.824495  0.960610  0.232446  1
  B  B16  1  0.539587  0.675531  0.268217  1
  B  B17  1  0.460413  0.324469  0.268217  1
  B  B18  1  0.824495  0.960610  0.767554  1
  B  B19  1  0.038782  0.824367  0.767258  1
  B  B20  1  0.961218  0.175633  0.767258  1
  B  B21  1  0.324376  0.538737  0.731575  1
  B  B22  1  0.675624  0.461263  0.731575  1
  B  B23  1  0.175505  0.039390  0.767554  1
  B  B24  1  0.460413  0.324469  0.731783  1
  B  B25  1  0.539587  0.675531  0.731783  1
  B  B26  1  0.088568  0.588734  0.251015  1
  B  B27  1  0.411519  0.088481  0.250115  1
  B  B28  1  0.588481  0.911519  0.250115  1
  B  B29  1  0.911432  0.411266  0.251015  1
  B  B30  1  0.911432  0.411266  0.748985  1
  B  B31  1  0.588481  0.911519  0.749885  1
  B  B32  1  0.411519  0.088481  0.749885  1
  B  B33  1  0.088568  0.588734  0.748985  1
  B  B34  1  0.000000  0.000000  0.388988  1
  B  B35  1  0.500000  0.500000  0.111432  1
  B  B36  1  0.000000  0.000000  0.611012  1
  B  B37  1  0.500000  0.500000  0.888568  1
