# generated using pymatgen
data_Dy2Ho3Tm5Bi6
_symmetry_space_group_name_H-M   'P 1'
_cell_length_a   8.20853600
_cell_length_b   9.45696600
_cell_length_c   11.96376900
_cell_angle_alpha   89.99975910
_cell_angle_beta   90.00041533
_cell_angle_gamma   89.99985750
_symmetry_Int_Tables_number   1
_chemical_formula_structural   Dy2Ho3Tm5Bi6
_chemical_formula_sum   'Dy4 Ho6 Tm10 Bi12'
_cell_volume   928.72161584
_cell_formula_units_Z   2
loop_
 _symmetry_equiv_pos_site_id
 _symmetry_equiv_pos_as_xyz
  1  'x, y, z'
loop_
 _atom_site_type_symbol
 _atom_site_label
 _atom_site_symmetry_multiplicity
 _atom_site_fract_x
 _atom_site_fract_y
 _atom_site_fract_z
 _atom_site_occupancy
  Dy  Dy0  1  0.312352  0.249989  0.218381  1
  Dy  Dy1  1  0.812354  0.250014  0.281620  1
  Dy  Dy2  1  0.687703  0.750093  0.781553  1
  Dy  Dy3  1  0.187703  0.749907  0.718445  1
  Ho  Ho4  1  0.352538  0.749947  0.216785  1
  Ho  Ho5  1  0.852542  0.750054  0.283246  1
  Ho  Ho6  1  0.647562  0.250037  0.783190  1
  Ho  Ho7  1  0.147550  0.249962  0.716761  1
  Ho  Ho8  1  0.692628  0.565164  0.059002  1
  Ho  Ho9  1  0.192640  0.934834  0.441007  1
  Tm  Tm10  1  0.307238  0.065627  0.940946  1
  Tm  Tm11  1  0.807235  0.434374  0.559058  1
  Tm  Tm12  1  0.307317  0.434348  0.940997  1
  Tm  Tm13  1  0.807313  0.065651  0.559006  1
  Tm  Tm14  1  0.692670  0.934533  0.059031  1
  Tm  Tm15  1  0.192671  0.565467  0.440966  1
  Tm  Tm16  1  0.476311  0.250062  0.488889  1
  Tm  Tm17  1  0.976313  0.249937  0.011112  1
  Tm  Tm18  1  0.524041  0.749883  0.511195  1
  Tm  Tm19  1  0.024040  0.750118  0.988805  1
  Bi  Bi20  1  0.405139  0.750228  0.957873  1
  Bi  Bi21  1  0.905140  0.749774  0.542128  1
  Bi  Bi22  1  0.594510  0.249368  0.041955  1
  Bi  Bi23  1  0.094510  0.250630  0.458046  1
  Bi  Bi24  1  0.565275  0.995082  0.326065  1
  Bi  Bi25  1  0.065276  0.504917  0.173935  1
  Bi  Bi26  1  0.434802  0.495045  0.673896  1
  Bi  Bi27  1  0.934804  0.004956  0.826103  1
  Bi  Bi28  1  0.434789  0.004915  0.673976  1
  Bi  Bi29  1  0.934790  0.495085  0.826024  1
  Bi  Bi30  1  0.565121  0.504912  0.326150  1
  Bi  Bi31  1  0.065121  0.995086  0.173852  1
