# generated using pymatgen
data_Ac5In4
_symmetry_space_group_name_H-M   'P 1'
_cell_length_a   8.54568334
_cell_length_b   9.18427958
_cell_length_c   17.25036100
_cell_angle_alpha   90.00000000
_cell_angle_beta   90.00000000
_cell_angle_gamma   90.06206468
_symmetry_Int_Tables_number   1
_chemical_formula_structural   Ac5In4
_chemical_formula_sum   'Ac20 In16'
_cell_volume   1353.91009138
_cell_formula_units_Z   4
loop_
 _symmetry_equiv_pos_site_id
 _symmetry_equiv_pos_as_xyz
  1  'x, y, z'
loop_
 _atom_site_type_symbol
 _atom_site_label
 _atom_site_symmetry_multiplicity
 _atom_site_fract_x
 _atom_site_fract_y
 _atom_site_fract_z
 _atom_site_occupancy
  Ac  Ac0  1  0.329142  0.826329  0.877538  1
  Ac  Ac1  1  0.830457  0.674339  0.622783  1
  Ac  Ac2  1  0.670115  0.173631  0.377696  1
  Ac  Ac3  1  0.169942  0.325239  0.122575  1
  Ac  Ac4  1  0.670115  0.173631  0.122304  1
  Ac  Ac5  1  0.169942  0.325239  0.377425  1
  Ac  Ac6  1  0.329142  0.826329  0.622462  1
  Ac  Ac7  1  0.830457  0.674339  0.877217  1
  Ac  Ac8  1  0.492513  0.318838  0.909980  1
  Ac  Ac9  1  0.991501  0.182579  0.590248  1
  Ac  Ac10  1  0.508121  0.681178  0.410042  1
  Ac  Ac11  1  0.007810  0.818204  0.089968  1
  Ac  Ac12  1  0.508121  0.681178  0.089958  1
  Ac  Ac13  1  0.007810  0.818204  0.410032  1
  Ac  Ac14  1  0.492513  0.318838  0.590020  1
  Ac  Ac15  1  0.991501  0.182579  0.909752  1
  Ac  Ac16  1  0.165134  0.479482  0.750000  1
  Ac  Ac17  1  0.665129  0.019491  0.750000  1
  Ac  Ac18  1  0.835318  0.519113  0.250000  1
  Ac  Ac19  1  0.335381  0.979288  0.250000  1
  In  In20  1  0.335658  0.031107  0.038237  1
  In  In21  1  0.835595  0.469276  0.461582  1
  In  In22  1  0.664374  0.968519  0.538617  1
  In  In23  1  0.164312  0.530766  0.961408  1
  In  In24  1  0.664374  0.968519  0.961383  1
  In  In25  1  0.164312  0.530766  0.538592  1
  In  In26  1  0.335658  0.031107  0.461763  1
  In  In27  1  0.835595  0.469276  0.038418  1
  In  In28  1  0.534682  0.599989  0.750000  1
  In  In29  1  0.034991  0.904852  0.750000  1
  In  In30  1  0.465337  0.402149  0.250000  1
  In  In31  1  0.964987  0.096071  0.250000  1
  In  In32  1  0.281555  0.132258  0.750000  1
  In  In33  1  0.778872  0.368960  0.750000  1
  In  In34  1  0.719697  0.867459  0.250000  1
  In  In35  1  0.219838  0.630880  0.250000  1
