# generated using pymatgen
data_LiPr8Be2Si12Pd
_symmetry_space_group_name_H-M   'P 1'
_cell_length_a   8.14621700
_cell_length_b   8.14622083
_cell_length_c   8.62091600
_cell_angle_alpha   89.99999297
_cell_angle_beta   90.00001407
_cell_angle_gamma   119.99998851
_symmetry_Int_Tables_number   1
_chemical_formula_structural   LiPr8Be2Si12Pd
_chemical_formula_sum   'Li1 Pr8 Be2 Si12 Pd1'
_cell_volume   495.44591161
_cell_formula_units_Z   1
loop_
 _symmetry_equiv_pos_site_id
 _symmetry_equiv_pos_as_xyz
  1  'x, y, z'
loop_
 _atom_site_type_symbol
 _atom_site_label
 _atom_site_symmetry_multiplicity
 _atom_site_fract_x
 _atom_site_fract_y
 _atom_site_fract_z
 _atom_site_occupancy
  Li  Li0  1  0.333333  0.666667  0.499727  1
  Pr  Pr1  1  0.500201  0.499798  0.753292  1
  Pr  Pr2  1  0.500268  0.499732  0.246725  1
  Pr  Pr3  1  0.999597  0.499798  0.753292  1
  Pr  Pr4  1  0.999465  0.499732  0.246725  1
  Pr  Pr5  1  0.500201  0.000403  0.753292  1
  Pr  Pr6  1  0.500268  0.000535  0.246725  1
  Pr  Pr7  1  0.000000  0.000000  0.750465  1
  Pr  Pr8  1  0.000000  0.000000  0.249535  1
  Be  Be9  1  0.666667  0.333333  0.999345  1
  Be  Be10  1  0.333333  0.666667  0.000687  1
  Si  Si11  1  0.827828  0.172172  0.000108  1
  Si  Si12  1  0.171959  0.828041  0.999922  1
  Si  Si13  1  0.344343  0.172172  0.000108  1
  Si  Si14  1  0.165209  0.834791  0.499924  1
  Si  Si15  1  0.656082  0.828041  0.999922  1
  Si  Si16  1  0.833425  0.166575  0.500132  1
  Si  Si17  1  0.827828  0.655657  0.000108  1
  Si  Si18  1  0.669581  0.834790  0.499924  1
  Si  Si19  1  0.171959  0.343918  0.999922  1
  Si  Si20  1  0.333150  0.166575  0.500132  1
  Si  Si21  1  0.165210  0.330419  0.499924  1
  Si  Si22  1  0.833425  0.666850  0.500132  1
  Pd  Pd23  1  0.666667  0.333333  0.499933  1
