# generated using pymatgen
data_Ho5Tm3Cd2OsPt
_symmetry_space_group_name_H-M   'P 1'
_cell_length_a   9.57139083
_cell_length_b   9.58247963
_cell_length_c   9.65858642
_cell_angle_alpha   59.66079023
_cell_angle_beta   59.77438966
_cell_angle_gamma   59.55642848
_symmetry_Int_Tables_number   1
_chemical_formula_structural   Ho5Tm3Cd2OsPt
_chemical_formula_sum   'Ho10 Tm6 Cd4 Os2 Pt2'
_cell_volume   621.61140178
_cell_formula_units_Z   2
loop_
 _symmetry_equiv_pos_site_id
 _symmetry_equiv_pos_as_xyz
  1  'x, y, z'
loop_
 _atom_site_type_symbol
 _atom_site_label
 _atom_site_symmetry_multiplicity
 _atom_site_fract_x
 _atom_site_fract_y
 _atom_site_fract_z
 _atom_site_occupancy
  Ho  Ho0  1  0.437397  0.064623  0.440687  1
  Ho  Ho1  1  0.064623  0.437397  0.057292  1
  Ho  Ho2  1  0.438208  0.438208  0.061792  1
  Ho  Ho3  1  0.058346  0.058346  0.441654  1
  Ho  Ho4  1  0.188565  0.806653  0.816648  1
  Ho  Ho5  1  0.806653  0.188565  0.188134  1
  Ho  Ho6  1  0.806411  0.188478  0.816642  1
  Ho  Ho7  1  0.188478  0.806411  0.188469  1
  Ho  Ho8  1  0.814153  0.814153  0.185847  1
  Ho  Ho9  1  0.190313  0.190313  0.809687  1
  Tm  Tm10  1  0.600275  0.600038  0.600805  1
  Tm  Tm11  1  0.600038  0.600275  0.198882  1
  Tm  Tm12  1  0.596040  0.205072  0.599645  1
  Tm  Tm13  1  0.205072  0.596040  0.599243  1
  Tm  Tm14  1  0.064194  0.437754  0.440944  1
  Tm  Tm15  1  0.437754  0.064194  0.057108  1
  Cd  Cd16  1  0.829599  0.829770  0.831752  1
  Cd  Cd17  1  0.829770  0.829599  0.508878  1
  Cd  Cd18  1  0.830829  0.505487  0.831776  1
  Cd  Cd19  1  0.505487  0.830829  0.831909  1
  Os  Os20  1  0.394360  0.395253  0.388346  1
  Os  Os21  1  0.395253  0.394360  0.822041  1
  Pt  Pt22  1  0.394842  0.823337  0.390432  1
  Pt  Pt23  1  0.823337  0.394842  0.391388  1
