# generated using pymatgen
data_Ce6LuVSb10
_symmetry_space_group_name_H-M   'P 1'
_cell_length_a   9.44018900
_cell_length_b   9.44019006
_cell_length_c   6.31304700
_cell_angle_alpha   90.00000000
_cell_angle_beta   90.00000000
_cell_angle_gamma   119.99999279
_symmetry_Int_Tables_number   1
_chemical_formula_structural   Ce6LuVSb10
_chemical_formula_sum   'Ce6 Lu1 V1 Sb10'
_cell_volume   487.22673759
_cell_formula_units_Z   1
loop_
 _symmetry_equiv_pos_site_id
 _symmetry_equiv_pos_as_xyz
  1  'x, y, z'
loop_
 _atom_site_type_symbol
 _atom_site_label
 _atom_site_symmetry_multiplicity
 _atom_site_fract_x
 _atom_site_fract_y
 _atom_site_fract_z
 _atom_site_occupancy
  Ce  Ce0  1  0.616502  0.000000  0.251691  1
  Ce  Ce1  1  0.383498  0.000000  0.748309  1
  Ce  Ce2  1  0.000000  0.616502  0.251691  1
  Ce  Ce3  1  0.000000  0.383498  0.748309  1
  Ce  Ce4  1  0.383498  0.383498  0.251691  1
  Ce  Ce5  1  0.616502  0.616502  0.748309  1
  Lu  Lu6  1  0.000000  0.000000  0.500000  1
  V  V7  1  0.000000  0.000000  0.000000  1
  Sb  Sb8  1  0.262986  0.000000  0.237018  1
  Sb  Sb9  1  0.737014  0.000000  0.762982  1
  Sb  Sb10  1  0.000000  0.262986  0.237018  1
  Sb  Sb11  1  0.000000  0.737014  0.762982  1
  Sb  Sb12  1  0.737014  0.737014  0.237018  1
  Sb  Sb13  1  0.262986  0.262986  0.762982  1
  Sb  Sb14  1  0.333333  0.666667  0.000000  1
  Sb  Sb15  1  0.666667  0.333333  0.000000  1
  Sb  Sb16  1  0.666667  0.333333  0.500000  1
  Sb  Sb17  1  0.333333  0.666667  0.500000  1
