# generated using pymatgen
data_Tb3Ho9Tc3Ru
_symmetry_space_group_name_H-M   'P 1'
_cell_length_a   6.27529415
_cell_length_b   7.37160953
_cell_length_c   9.12059300
_cell_angle_alpha   90.00000000
_cell_angle_beta   90.00000000
_cell_angle_gamma   89.93991928
_symmetry_Int_Tables_number   1
_chemical_formula_structural   Tb3Ho9Tc3Ru
_chemical_formula_sum   'Tb3 Ho9 Tc3 Ru1'
_cell_volume   421.90944548
_cell_formula_units_Z   1
loop_
 _symmetry_equiv_pos_site_id
 _symmetry_equiv_pos_as_xyz
  1  'x, y, z'
loop_
 _atom_site_type_symbol
 _atom_site_label
 _atom_site_symmetry_multiplicity
 _atom_site_fract_x
 _atom_site_fract_y
 _atom_site_fract_z
 _atom_site_occupancy
  Tb  Tb0  1  0.873973  0.540420  0.250000  1
  Tb  Tb1  1  0.625475  0.039317  0.250000  1
  Tb  Tb2  1  0.130598  0.458556  0.750000  1
  Ho  Ho3  1  0.335112  0.676766  0.063417  1
  Ho  Ho4  1  0.162326  0.175449  0.437337  1
  Ho  Ho5  1  0.662664  0.324456  0.563250  1
  Ho  Ho6  1  0.836212  0.824174  0.937003  1
  Ho  Ho7  1  0.662664  0.324456  0.936750  1
  Ho  Ho8  1  0.836212  0.824174  0.562997  1
  Ho  Ho9  1  0.335112  0.676766  0.436583  1
  Ho  Ho10  1  0.162326  0.175449  0.062663  1
  Ho  Ho11  1  0.373652  0.957940  0.750000  1
  Tc  Tc12  1  0.040239  0.884337  0.250000  1
  Tc  Tc13  1  0.461856  0.386578  0.250000  1
  Tc  Tc14  1  0.961839  0.115003  0.750000  1
  Ru  Ru15  1  0.539740  0.616159  0.750000  1
