# generated using pymatgen
data_DyEr2Zr(NiAs)4
_symmetry_space_group_name_H-M   'P 1'
_cell_length_a   4.01383900
_cell_length_b   4.01383878
_cell_length_c   15.12093500
_cell_angle_alpha   90.00000000
_cell_angle_beta   90.00000000
_cell_angle_gamma   120.00001004
_symmetry_Int_Tables_number   1
_chemical_formula_structural   DyEr2Zr(NiAs)4
_chemical_formula_sum   'Dy1 Er2 Zr1 Ni4 As4'
_cell_volume   210.97408280
_cell_formula_units_Z   1
loop_
 _symmetry_equiv_pos_site_id
 _symmetry_equiv_pos_as_xyz
  1  'x, y, z'
loop_
 _atom_site_type_symbol
 _atom_site_label
 _atom_site_symmetry_multiplicity
 _atom_site_fract_x
 _atom_site_fract_y
 _atom_site_fract_z
 _atom_site_occupancy
  Dy  Dy0  1  0.000000  0.000000  0.005418  1
  Er  Er1  1  0.000000  0.000000  0.749572  1
  Er  Er2  1  0.000000  0.000000  0.494732  1
  Zr  Zr3  1  0.000000  0.000000  0.250759  1
  Ni  Ni4  1  0.333333  0.666667  0.158625  1
  Ni  Ni5  1  0.666667  0.333333  0.869051  1
  Ni  Ni6  1  0.666667  0.333333  0.628679  1
  Ni  Ni7  1  0.333333  0.666667  0.343069  1
  As  As8  1  0.333333  0.666667  0.617890  1
  As  As9  1  0.666667  0.333333  0.377929  1
  As  As10  1  0.666667  0.333333  0.123696  1
  As  As11  1  0.333333  0.666667  0.880580  1
