# generated using pymatgen
data_Tb8SiHgI12
_symmetry_space_group_name_H-M   'P 1'
_cell_length_a   4.24869800
_cell_length_b   14.16527424
_cell_length_c   14.95746858
_cell_angle_alpha   89.80122022
_cell_angle_beta   90.00000000
_cell_angle_gamma   90.00000000
_symmetry_Int_Tables_number   1
_chemical_formula_structural   Tb8SiHgI12
_chemical_formula_sum   'Tb8 Si1 Hg1 I12'
_cell_volume   900.19445764
_cell_formula_units_Z   1
loop_
 _symmetry_equiv_pos_site_id
 _symmetry_equiv_pos_as_xyz
  1  'x, y, z'
loop_
 _atom_site_type_symbol
 _atom_site_label
 _atom_site_symmetry_multiplicity
 _atom_site_fract_x
 _atom_site_fract_y
 _atom_site_fract_z
 _atom_site_occupancy
  Tb  Tb0  1  0.500000  0.118783  0.341336  1
  Tb  Tb1  1  0.500000  0.881217  0.658664  1
  Tb  Tb2  1  0.500000  0.612515  0.150876  1
  Tb  Tb3  1  0.500000  0.387485  0.849124  1
  Tb  Tb4  1  0.000000  0.118604  0.579793  1
  Tb  Tb5  1  0.000000  0.881396  0.420207  1
  Tb  Tb6  1  0.000000  0.609630  0.926323  1
  Tb  Tb7  1  0.000000  0.390370  0.073677  1
  Si  Si8  1  0.500000  0.500000  0.000000  1
  Hg  Hg9  1  0.500000  0.000000  0.500000  1
  I  I10  1  0.500000  0.247484  0.161478  1
  I  I11  1  0.500000  0.752516  0.838522  1
  I  I12  1  0.500000  0.743415  0.335046  1
  I  I13  1  0.500000  0.256585  0.664954  1
  I  I14  1  0.000000  0.260551  0.413531  1
  I  I15  1  0.000000  0.739449  0.586469  1
  I  I16  1  0.000000  0.756172  0.085125  1
  I  I17  1  0.000000  0.243828  0.914875  1
  I  I18  1  0.000000  0.999646  0.238221  1
  I  I19  1  0.000000  0.000354  0.761779  1
  I  I20  1  0.000000  0.499301  0.257403  1
  I  I21  1  0.000000  0.500699  0.742597  1
