# generated using pymatgen
data_CuSi12(P4Ir)3
_symmetry_space_group_name_H-M   'P 1'
_cell_length_a   5.94585919
_cell_length_b   6.13663875
_cell_length_c   13.01385629
_cell_angle_alpha   89.18604484
_cell_angle_beta   90.88450663
_cell_angle_gamma   90.48895819
_symmetry_Int_Tables_number   1
_chemical_formula_structural   CuSi12(P4Ir)3
_chemical_formula_sum   'Cu1 Si12 P12 Ir3'
_cell_volume   474.72334420
_cell_formula_units_Z   1
loop_
 _symmetry_equiv_pos_site_id
 _symmetry_equiv_pos_as_xyz
  1  'x, y, z'
loop_
 _atom_site_type_symbol
 _atom_site_label
 _atom_site_symmetry_multiplicity
 _atom_site_fract_x
 _atom_site_fract_y
 _atom_site_fract_z
 _atom_site_occupancy
  Cu  Cu0  1  0.036964  0.517475  0.385981  1
  Si  Si1  1  0.971583  0.160163  0.313472  1
  Si  Si2  1  0.462593  0.842459  0.681368  1
  Si  Si3  1  0.940813  0.616977  0.215287  1
  Si  Si4  1  0.430065  0.370513  0.786607  1
  Si  Si5  1  0.342072  0.914109  0.950499  1
  Si  Si6  1  0.844709  0.074389  0.049496  1
  Si  Si7  1  0.913036  0.533498  0.672553  1
  Si  Si8  1  0.418390  0.472008  0.323678  1
  Si  Si9  1  0.990565  0.068523  0.569108  1
  Si  Si10  1  0.487009  0.942965  0.429260  1
  Si  Si11  1  0.908544  0.619938  0.928302  1
  Si  Si12  1  0.411673  0.372126  0.072827  1
  P  P13  1  0.578332  0.027781  0.825667  1
  P  P14  1  0.088502  0.962167  0.175593  1
  P  P15  1  0.518897  0.559156  0.929853  1
  P  P16  1  0.023686  0.428473  0.071818  1
  P  P17  1  0.605376  0.118361  0.572895  1
  P  P18  1  0.099190  0.896389  0.425816  1
  P  P19  1  0.554959  0.642323  0.180242  1
  P  P20  1  0.044923  0.354334  0.819650  1
  P  P21  1  0.581008  0.136148  0.289150  1
  P  P22  1  0.076956  0.870942  0.710166  1
  P  P23  1  0.149777  0.408619  0.554179  1
  P  P24  1  0.642541  0.608502  0.447085  1
  Ir  Ir25  1  0.966232  0.983132  0.879041  1
  Ir  Ir26  1  0.472761  0.009818  0.120924  1
  Ir  Ir27  1  0.532647  0.488717  0.619482  1
