# generated using pymatgen
data_DyY4Ho3(CdCo)2
_symmetry_space_group_name_H-M   'P 1'
_cell_length_a   9.53670916
_cell_length_b   9.54341483
_cell_length_c   9.53481457
_cell_angle_alpha   60.02195493
_cell_angle_beta   59.96416115
_cell_angle_gamma   59.96845523
_symmetry_Int_Tables_number   1
_chemical_formula_structural   DyY4Ho3(CdCo)2
_chemical_formula_sum   'Dy2 Y8 Ho6 Cd4 Co4'
_cell_volume   613.40904315
_cell_formula_units_Z   2
loop_
 _symmetry_equiv_pos_site_id
 _symmetry_equiv_pos_as_xyz
  1  'x, y, z'
loop_
 _atom_site_type_symbol
 _atom_site_label
 _atom_site_symmetry_multiplicity
 _atom_site_fract_x
 _atom_site_fract_y
 _atom_site_fract_z
 _atom_site_occupancy
  Dy  Dy0  1  0.153748  0.155087  0.154870  1
  Dy  Dy1  1  0.312407  0.312302  0.689210  1
  Y  Y2  1  0.937599  0.938899  0.560416  1
  Y  Y3  1  0.311812  0.690054  0.312008  1
  Y  Y4  1  0.559604  0.940173  0.938376  1
  Y  Y5  1  0.561561  0.939627  0.560887  1
  Y  Y6  1  0.688920  0.688688  0.313762  1
  Y  Y7  1  0.562823  0.561452  0.937500  1
  Y  Y8  1  0.938539  0.559851  0.938000  1
  Y  Y9  1  0.313724  0.689187  0.688499  1
  Ho  Ho10  1  0.153836  0.535528  0.153743  1
  Ho  Ho11  1  0.688819  0.313993  0.687956  1
  Ho  Ho12  1  0.689599  0.312187  0.312590  1
  Ho  Ho13  1  0.939336  0.560422  0.561124  1
  Ho  Ho14  1  0.537320  0.154115  0.152688  1
  Ho  Ho15  1  0.152222  0.153470  0.537520  1
  Cd  Cd16  1  0.919674  0.241766  0.919781  1
  Cd  Cd17  1  0.920789  0.920296  0.920871  1
  Cd  Cd18  1  0.920165  0.919440  0.241860  1
  Cd  Cd19  1  0.241367  0.919419  0.920265  1
  Co  Co20  1  0.358757  0.355833  0.922387  1
  Co  Co21  1  0.357169  0.925749  0.356749  1
  Co  Co22  1  0.922393  0.356611  0.359104  1
  Co  Co23  1  0.357817  0.355848  0.359834  1
