# generated using pymatgen
data_Sc12Co4SnOs
_symmetry_space_group_name_H-M   'P 1'
_cell_length_a   7.72434503
_cell_length_b   7.72430942
_cell_length_c   7.72434457
_cell_angle_alpha   111.37138747
_cell_angle_beta   110.86316824
_cell_angle_gamma   106.22762007
_symmetry_Int_Tables_number   1
_chemical_formula_structural   Sc12Co4SnOs
_chemical_formula_sum   'Sc12 Co4 Sn1 Os1'
_cell_volume   353.92671331
_cell_formula_units_Z   1
loop_
 _symmetry_equiv_pos_site_id
 _symmetry_equiv_pos_as_xyz
  1  'x, y, z'
loop_
 _atom_site_type_symbol
 _atom_site_label
 _atom_site_symmetry_multiplicity
 _atom_site_fract_x
 _atom_site_fract_y
 _atom_site_fract_z
 _atom_site_occupancy
  Sc  Sc0  1  0.424177  0.224898  0.199280  1
  Sc  Sc1  1  0.575823  0.775102  0.800720  1
  Sc  Sc2  1  0.025617  0.224898  0.800721  1
  Sc  Sc3  1  0.974383  0.775102  0.199279  1
  Sc  Sc4  1  0.311801  0.613919  0.302117  1
  Sc  Sc5  1  0.688199  0.386081  0.697883  1
  Sc  Sc6  1  0.311804  0.009685  0.697882  1
  Sc  Sc7  1  0.688196  0.990315  0.302118  1
  Sc  Sc8  1  0.183605  0.273561  0.457165  1
  Sc  Sc9  1  0.816395  0.726438  0.542835  1
  Sc  Sc10  1  0.183602  0.726438  0.910044  1
  Sc  Sc11  1  0.816398  0.273561  0.089956  1
  Co  Co12  1  0.367654  0.000000  0.367654  1
  Co  Co13  1  0.632346  0.000000  0.632346  1
  Co  Co14  1  0.117649  0.617650  0.500001  1
  Co  Co15  1  0.882351  0.382350  0.499999  1
  Sn  Sn16  1  0.500000  0.500000  0.000000  1
  Os  Os17  1  0.000000  0.000000  0.000000  1
