# generated using pymatgen
data_Hf3Ta(V3Os)2
_symmetry_space_group_name_H-M   'P 1'
_cell_length_a   8.93492346
_cell_length_b   8.93503441
_cell_length_c   8.93492468
_cell_angle_alpha   33.48629457
_cell_angle_beta   33.50004728
_cell_angle_gamma   33.48628620
_symmetry_Int_Tables_number   1
_chemical_formula_structural   Hf3Ta(V3Os)2
_chemical_formula_sum   'Hf3 Ta1 V6 Os2'
_cell_volume   193.43872583
_cell_formula_units_Z   1
loop_
 _symmetry_equiv_pos_site_id
 _symmetry_equiv_pos_as_xyz
  1  'x, y, z'
loop_
 _atom_site_type_symbol
 _atom_site_label
 _atom_site_symmetry_multiplicity
 _atom_site_fract_x
 _atom_site_fract_y
 _atom_site_fract_z
 _atom_site_occupancy
  Hf  Hf0  1  0.624922  0.625395  0.624922  1
  Hf  Hf1  1  0.001370  0.999830  0.001370  1
  Hf  Hf2  1  0.499486  0.498931  0.499486  1
  Ta  Ta3  1  0.125420  0.123872  0.125420  1
  V  V4  1  0.063340  0.564308  0.562169  1
  V  V5  1  0.561477  0.060735  0.062806  1
  V  V6  1  0.812612  0.811603  0.812612  1
  V  V7  1  0.312030  0.314140  0.312030  1
  V  V8  1  0.562169  0.564308  0.063340  1
  V  V9  1  0.062806  0.060735  0.561477  1
  Os  Os10  1  0.562186  0.064272  0.562186  1
  Os  Os11  1  0.062185  0.561872  0.062185  1
