# generated using pymatgen
data_KSeOF3
_symmetry_space_group_name_H-M   'P 1'
_cell_length_a   5.02934700
_cell_length_b   5.97330498
_cell_length_c   8.04881203
_cell_angle_alpha   71.65318305
_cell_angle_beta   90.00000000
_cell_angle_gamma   90.00000000
_symmetry_Int_Tables_number   1
_chemical_formula_structural   KSeOF3
_chemical_formula_sum   'K2 Se2 O2 F6'
_cell_volume   229.50990604
_cell_formula_units_Z   2
loop_
 _symmetry_equiv_pos_site_id
 _symmetry_equiv_pos_as_xyz
  1  'x, y, z'
loop_
 _atom_site_type_symbol
 _atom_site_label
 _atom_site_symmetry_multiplicity
 _atom_site_fract_x
 _atom_site_fract_y
 _atom_site_fract_z
 _atom_site_occupancy
  K  K0  1  0.586449  0.304704  0.312616  1
  K  K1  1  0.086449  0.695296  0.687384  1
  Se  Se2  1  0.120875  0.839885  0.200524  1
  Se  Se3  1  0.620875  0.160115  0.799476  1
  O  O4  1  0.207134  0.613970  0.365688  1
  O  O5  1  0.707134  0.386030  0.634312  1
  F  F6  1  0.154212  0.679275  0.028703  1
  F  F7  1  0.260064  0.204846  0.809092  1
  F  F8  1  0.760064  0.795154  0.190908  1
  F  F9  1  0.538265  0.960787  0.650166  1
  F  F10  1  0.038265  0.039213  0.349834  1
  F  F11  1  0.654212  0.320725  0.971297  1
