# generated using pymatgen
data_TbU5O16
_symmetry_space_group_name_H-M   'P 1'
_cell_length_a   6.74438673
_cell_length_b   6.75770106
_cell_length_c   8.35323300
_cell_angle_alpha   90.00000000
_cell_angle_beta   90.00000000
_cell_angle_gamma   116.12303191
_symmetry_Int_Tables_number   1
_chemical_formula_structural   TbU5O16
_chemical_formula_sum   'Tb1 U5 O16'
_cell_volume   341.82210208
_cell_formula_units_Z   1
loop_
 _symmetry_equiv_pos_site_id
 _symmetry_equiv_pos_as_xyz
  1  'x, y, z'
loop_
 _atom_site_type_symbol
 _atom_site_label
 _atom_site_symmetry_multiplicity
 _atom_site_fract_x
 _atom_site_fract_y
 _atom_site_fract_z
 _atom_site_occupancy
  Tb  Tb0  1  0.308186  0.684925  0.250000  1
  U  U1  1  0.997493  0.999563  0.250000  1
  U  U2  1  0.317290  0.685618  0.750000  1
  U  U3  1  0.682820  0.318985  0.750000  1
  U  U4  1  0.680337  0.317625  0.250000  1
  U  U5  1  0.999001  0.001214  0.750000  1
  O  O6  1  0.315636  0.687409  0.975492  1
  O  O7  1  0.516331  0.504095  0.750000  1
  O  O8  1  0.999630  0.998713  0.505959  1
  O  O9  1  0.029151  0.320397  0.250000  1
  O  O10  1  0.964656  0.672210  0.750000  1
  O  O11  1  0.320158  0.038759  0.250000  1
  O  O12  1  0.687934  0.311613  0.493654  1
  O  O13  1  0.037913  0.327801  0.750000  1
  O  O14  1  0.677495  0.959801  0.250000  1
  O  O15  1  0.331176  0.046131  0.750000  1
  O  O16  1  0.687934  0.311613  0.006346  1
  O  O17  1  0.315636  0.687409  0.524508  1
  O  O18  1  0.505445  0.480371  0.250000  1
  O  O19  1  0.951933  0.674016  0.250000  1
  O  O20  1  0.999630  0.998713  0.994041  1
  O  O21  1  0.674215  0.973018  0.750000  1
