# generated using pymatgen
data_SrTcNO2
_symmetry_space_group_name_H-M   'P 1'
_cell_length_a   5.65633000
_cell_length_b   5.65457810
_cell_length_c   9.68620794
_cell_angle_alpha   54.25970974
_cell_angle_beta   90.00000000
_cell_angle_gamma   90.00000000
_symmetry_Int_Tables_number   1
_chemical_formula_structural   SrTcNO2
_chemical_formula_sum   'Sr4 Tc4 N4 O8'
_cell_volume   251.46052830
_cell_formula_units_Z   4
loop_
 _symmetry_equiv_pos_site_id
 _symmetry_equiv_pos_as_xyz
  1  'x, y, z'
loop_
 _atom_site_type_symbol
 _atom_site_label
 _atom_site_symmetry_multiplicity
 _atom_site_fract_x
 _atom_site_fract_y
 _atom_site_fract_z
 _atom_site_occupancy
  Sr  Sr0  1  0.224822  0.765684  0.237675  1
  Sr  Sr1  1  0.777702  0.268176  0.234776  1
  Sr  Sr2  1  0.775178  0.765684  0.737675  1
  Sr  Sr3  1  0.222298  0.268176  0.734776  1
  Tc  Tc4  1  0.727910  0.994883  0.998980  1
  Tc  Tc5  1  0.727529  0.546147  0.473295  1
  Tc  Tc6  1  0.272471  0.546147  0.973295  1
  Tc  Tc7  1  0.272090  0.994883  0.498980  1
  N  N8  1  0.490274  0.767957  0.994615  1
  N  N9  1  0.259823  0.784658  0.735166  1
  N  N10  1  0.509726  0.767957  0.494615  1
  N  N11  1  0.740177  0.784658  0.235166  1
  O  O12  1  0.751448  0.234844  0.733241  1
  O  O13  1  0.480253  0.299238  0.467876  1
  O  O14  1  0.985618  0.732911  0.999264  1
  O  O15  1  0.984568  0.259502  0.471111  1
  O  O16  1  0.248552  0.234844  0.233241  1
  O  O17  1  0.519747  0.299238  0.967876  1
  O  O18  1  0.015432  0.259502  0.971111  1
  O  O19  1  0.014382  0.732911  0.499264  1
