# generated using pymatgen
data_Sr2YLu(Si4N7)2
_symmetry_space_group_name_H-M   'P 1'
_cell_length_a   6.03430000
_cell_length_b   6.03430028
_cell_length_c   9.83821800
_cell_angle_alpha   90.00000000
_cell_angle_beta   90.00000000
_cell_angle_gamma   119.99998748
_symmetry_Int_Tables_number   1
_chemical_formula_structural   Sr2YLu(Si4N7)2
_chemical_formula_sum   'Sr2 Y1 Lu1 Si8 N14'
_cell_volume   310.24225181
_cell_formula_units_Z   1
loop_
 _symmetry_equiv_pos_site_id
 _symmetry_equiv_pos_as_xyz
  1  'x, y, z'
loop_
 _atom_site_type_symbol
 _atom_site_label
 _atom_site_symmetry_multiplicity
 _atom_site_fract_x
 _atom_site_fract_y
 _atom_site_fract_z
 _atom_site_occupancy
  Sr  Sr0  1  0.666667  0.333333  0.582479  1
  Sr  Sr1  1  0.333333  0.666667  0.079240  1
  Y  Y2  1  0.333333  0.666667  0.450226  1
  Lu  Lu3  1  0.666667  0.333333  0.950702  1
  Si  Si4  1  0.173708  0.347415  0.761923  1
  Si  Si5  1  0.825970  0.174030  0.258253  1
  Si  Si6  1  0.348059  0.174030  0.258253  1
  Si  Si7  1  0.652585  0.826292  0.761923  1
  Si  Si8  1  0.173708  0.826292  0.761923  1
  Si  Si9  1  0.825970  0.651941  0.258253  1
  Si  Si10  1  0.000000  0.000000  0.026079  1
  Si  Si11  1  0.000000  0.000000  0.527821  1
  N  N12  1  0.000000  0.000000  0.836725  1
  N  N13  1  0.000000  0.000000  0.335205  1
  N  N14  1  0.845594  0.691188  0.084306  1
  N  N15  1  0.153256  0.846744  0.588374  1
  N  N16  1  0.693488  0.846744  0.588374  1
  N  N17  1  0.308812  0.154406  0.084306  1
  N  N18  1  0.845594  0.154406  0.084306  1
  N  N19  1  0.153256  0.306512  0.588374  1
  N  N20  1  0.489867  0.510133  0.815104  1
  N  N21  1  0.977371  0.488685  0.311095  1
  N  N22  1  0.511315  0.022629  0.311095  1
  N  N23  1  0.489867  0.979735  0.815104  1
  N  N24  1  0.511315  0.488685  0.311095  1
  N  N25  1  0.020265  0.510133  0.815104  1
