# generated using pymatgen
data_NdTh(AlPd2)2
_symmetry_space_group_name_H-M   'P 1'
_cell_length_a   5.96462400
_cell_length_b   7.04163400
_cell_length_c   7.53347100
_cell_angle_alpha   90.00000000
_cell_angle_beta   90.00000000
_cell_angle_gamma   90.00000000
_symmetry_Int_Tables_number   1
_chemical_formula_structural   NdTh(AlPd2)2
_chemical_formula_sum   'Nd2 Th2 Al4 Pd8'
_cell_volume   316.41104907
_cell_formula_units_Z   2
loop_
 _symmetry_equiv_pos_site_id
 _symmetry_equiv_pos_as_xyz
  1  'x, y, z'
loop_
 _atom_site_type_symbol
 _atom_site_label
 _atom_site_symmetry_multiplicity
 _atom_site_fract_x
 _atom_site_fract_y
 _atom_site_fract_z
 _atom_site_occupancy
  Nd  Nd0  1  0.657304  0.250000  0.967284  1
  Nd  Nd1  1  0.842696  0.250000  0.467284  1
  Th  Th2  1  0.340021  0.750000  0.033490  1
  Th  Th3  1  0.159979  0.750000  0.533490  1
  Al  Al4  1  0.659456  0.750000  0.382225  1
  Al  Al5  1  0.840544  0.750000  0.882225  1
  Al  Al6  1  0.345322  0.250000  0.617225  1
  Al  Al7  1  0.154678  0.250000  0.117225  1
  Pd  Pd8  1  0.919711  0.553919  0.179874  1
  Pd  Pd9  1  0.580289  0.946081  0.679874  1
  Pd  Pd10  1  0.092997  0.048380  0.820014  1
  Pd  Pd11  1  0.407003  0.451620  0.320014  1
  Pd  Pd12  1  0.092997  0.451620  0.820014  1
  Pd  Pd13  1  0.407003  0.048380  0.320014  1
  Pd  Pd14  1  0.919711  0.946081  0.179874  1
  Pd  Pd15  1  0.580289  0.553919  0.679874  1
