# generated using pymatgen
data_CeDyEr6(ReB6)4
_symmetry_space_group_name_H-M   'P 1'
_cell_length_a   3.67505300
_cell_length_b   9.14382372
_cell_length_c   11.52244504
_cell_angle_alpha   90.03916343
_cell_angle_beta   90.00000000
_cell_angle_gamma   90.00000000
_symmetry_Int_Tables_number   1
_chemical_formula_structural   CeDyEr6(ReB6)4
_chemical_formula_sum   'Ce1 Dy1 Er6 Re4 B24'
_cell_volume   387.20057667
_cell_formula_units_Z   1
loop_
 _symmetry_equiv_pos_site_id
 _symmetry_equiv_pos_as_xyz
  1  'x, y, z'
loop_
 _atom_site_type_symbol
 _atom_site_label
 _atom_site_symmetry_multiplicity
 _atom_site_fract_x
 _atom_site_fract_y
 _atom_site_fract_z
 _atom_site_occupancy
  Ce  Ce0  1  0.000000  0.322938  0.413948  1
  Dy  Dy1  1  0.000000  0.677565  0.586763  1
  Er  Er2  1  0.000000  0.823249  0.085451  1
  Er  Er3  1  0.000000  0.176168  0.913979  1
  Er  Er4  1  0.000000  0.942700  0.369821  1
  Er  Er5  1  0.000000  0.056322  0.630585  1
  Er  Er6  1  0.000000  0.443345  0.128702  1
  Er  Er7  1  0.000000  0.557039  0.870676  1
  Re  Re8  1  0.000000  0.638485  0.320497  1
  Re  Re9  1  0.000000  0.361253  0.679267  1
  Re  Re10  1  0.000000  0.138924  0.179233  1
  Re  Re11  1  0.000000  0.861642  0.821164  1
  B  B12  1  0.500000  0.553979  0.432239  1
  B  B13  1  0.500000  0.446229  0.568003  1
  B  B14  1  0.500000  0.053091  0.066529  1
  B  B15  1  0.500000  0.946993  0.933336  1
  B  B16  1  0.500000  0.750100  0.418203  1
  B  B17  1  0.500000  0.250382  0.582739  1
  B  B18  1  0.500000  0.249160  0.080443  1
  B  B19  1  0.500000  0.750528  0.918994  1
  B  B20  1  0.500000  0.792555  0.265000  1
  B  B21  1  0.500000  0.207623  0.735596  1
  B  B22  1  0.500000  0.291588  0.233576  1
  B  B23  1  0.500000  0.707789  0.765711  1
  B  B24  1  0.500000  0.631476  0.184419  1
  B  B25  1  0.500000  0.369405  0.815279  1
  B  B26  1  0.500000  0.130362  0.313843  1
  B  B27  1  0.500000  0.869352  0.685821  1
  B  B28  1  0.500000  0.981806  0.211425  1
  B  B29  1  0.500000  0.017971  0.788425  1
  B  B30  1  0.500000  0.483457  0.287036  1
  B  B31  1  0.500000  0.517930  0.713124  1
  B  B32  1  0.500000  0.600828  0.027820  1
  B  B33  1  0.500000  0.399526  0.971646  1
  B  B34  1  0.500000  0.098829  0.472456  1
  B  B35  1  0.500000  0.899409  0.528254  1
