# generated using pymatgen
data_Y7Ho4Lu5(CdIr)4
_symmetry_space_group_name_H-M   'P 1'
_cell_length_a   9.58188254
_cell_length_b   9.58188138
_cell_length_c   9.58156700
_cell_angle_alpha   60.00108878
_cell_angle_beta   60.00109280
_cell_angle_gamma   60.13906204
_symmetry_Int_Tables_number   1
_chemical_formula_structural   Y7Ho4Lu5(CdIr)4
_chemical_formula_sum   'Y7 Ho4 Lu5 Cd4 Ir4'
_cell_volume   622.70836521
_cell_formula_units_Z   1
loop_
 _symmetry_equiv_pos_site_id
 _symmetry_equiv_pos_as_xyz
  1  'x, y, z'
loop_
 _atom_site_type_symbol
 _atom_site_label
 _atom_site_symmetry_multiplicity
 _atom_site_fract_x
 _atom_site_fract_y
 _atom_site_fract_z
 _atom_site_occupancy
  Y  Y0  1  0.811438  0.811438  0.188562  1
  Y  Y1  1  0.939599  0.560513  0.561859  1
  Y  Y2  1  0.560513  0.939599  0.938029  1
  Y  Y3  1  0.560513  0.939599  0.561859  1
  Y  Y4  1  0.939599  0.560513  0.938029  1
  Y  Y5  1  0.561016  0.561016  0.938984  1
  Y  Y6  1  0.938802  0.938802  0.561198  1
  Ho  Ho7  1  0.349098  0.349098  0.348844  1
  Ho  Ho8  1  0.349098  0.349098  0.952959  1
  Ho  Ho9  1  0.348228  0.953278  0.349247  1
  Ho  Ho10  1  0.953278  0.348228  0.349247  1
  Lu  Lu11  1  0.811280  0.188498  0.188607  1
  Lu  Lu12  1  0.188498  0.811280  0.811615  1
  Lu  Lu13  1  0.188498  0.811280  0.188607  1
  Lu  Lu14  1  0.811280  0.188498  0.811615  1
  Lu  Lu15  1  0.188144  0.188144  0.811856  1
  Cd  Cd16  1  0.580410  0.580410  0.580628  1
  Cd  Cd17  1  0.580410  0.580410  0.258552  1
  Cd  Cd18  1  0.580503  0.258372  0.580563  1
  Cd  Cd19  1  0.258372  0.580503  0.580563  1
  Ir  Ir20  1  0.140817  0.140817  0.140572  1
  Ir  Ir21  1  0.140817  0.140817  0.577794  1
  Ir  Ir22  1  0.144030  0.575758  0.140105  1
  Ir  Ir23  1  0.575758  0.144030  0.140105  1
