# generated using pymatgen
data_Li2Dy3MgSi2Ag
_symmetry_space_group_name_H-M   'P 1'
_cell_length_a   7.16975013
_cell_length_b   7.23476368
_cell_length_c   4.23195400
_cell_angle_alpha   90.00000000
_cell_angle_beta   90.00000000
_cell_angle_gamma   120.30041498
_symmetry_Int_Tables_number   1
_chemical_formula_structural   Li2Dy3MgSi2Ag
_chemical_formula_sum   'Li2 Dy3 Mg1 Si2 Ag1'
_cell_volume   189.52970054
_cell_formula_units_Z   1
loop_
 _symmetry_equiv_pos_site_id
 _symmetry_equiv_pos_as_xyz
  1  'x, y, z'
loop_
 _atom_site_type_symbol
 _atom_site_label
 _atom_site_symmetry_multiplicity
 _atom_site_fract_x
 _atom_site_fract_y
 _atom_site_fract_z
 _atom_site_occupancy
  Li  Li0  1  0.750336  0.750029  0.000000  1
  Li  Li1  1  0.249664  0.999693  0.000000  1
  Dy  Dy2  1  0.429819  0.428288  0.500000  1
  Dy  Dy3  1  0.570181  0.998469  0.500000  1
  Dy  Dy4  1  0.000000  0.580079  0.500000  1
  Mg  Mg5  1  0.000000  0.243392  0.000000  1
  Si  Si6  1  0.664920  0.334384  0.000000  1
  Si  Si7  1  0.335080  0.669466  0.000000  1
  Ag  Ag8  1  0.000000  0.996200  0.500000  1
