# generated using pymatgen
data_DyErFe4(PRh)6
_symmetry_space_group_name_H-M   'P 1'
_cell_length_a   3.80364900
_cell_length_b   10.54174300
_cell_length_c   12.28249500
_cell_angle_alpha   90.00000000
_cell_angle_beta   90.00000000
_cell_angle_gamma   90.00000000
_symmetry_Int_Tables_number   1
_chemical_formula_structural   DyErFe4(PRh)6
_chemical_formula_sum   'Dy2 Er2 Fe8 P12 Rh12'
_cell_volume   492.49231014
_cell_formula_units_Z   2
loop_
 _symmetry_equiv_pos_site_id
 _symmetry_equiv_pos_as_xyz
  1  'x, y, z'
loop_
 _atom_site_type_symbol
 _atom_site_label
 _atom_site_symmetry_multiplicity
 _atom_site_fract_x
 _atom_site_fract_y
 _atom_site_fract_z
 _atom_site_occupancy
  Dy  Dy0  1  0.250000  0.578314  0.710724  1
  Dy  Dy1  1  0.250000  0.921686  0.210724  1
  Er  Er2  1  0.750000  0.421782  0.289269  1
  Er  Er3  1  0.750000  0.078218  0.789269  1
  Fe  Fe4  1  0.250000  0.875638  0.698076  1
  Fe  Fe5  1  0.250000  0.624362  0.198076  1
  Fe  Fe6  1  0.750000  0.124838  0.302089  1
  Fe  Fe7  1  0.750000  0.375162  0.802089  1
  Fe  Fe8  1  0.250000  0.458706  0.934794  1
  Fe  Fe9  1  0.250000  0.041294  0.434794  1
  Fe  Fe10  1  0.750000  0.541094  0.065439  1
  Fe  Fe11  1  0.750000  0.958906  0.565439  1
  P  P12  1  0.250000  0.440892  0.111943  1
  P  P13  1  0.250000  0.059108  0.611943  1
  P  P14  1  0.750000  0.558965  0.888406  1
  P  P15  1  0.750000  0.941035  0.388406  1
  P  P16  1  0.250000  0.271655  0.863800  1
  P  P17  1  0.250000  0.228345  0.363800  1
  P  P18  1  0.750000  0.728031  0.136067  1
  P  P19  1  0.750000  0.771969  0.636067  1
  P  P20  1  0.250000  0.601441  0.380352  1
  P  P21  1  0.250000  0.898559  0.880352  1
  P  P22  1  0.750000  0.398154  0.619481  1
  P  P23  1  0.750000  0.101846  0.119481  1
  Rh  Rh24  1  0.250000  0.713805  0.990359  1
  Rh  Rh25  1  0.250000  0.786195  0.490359  1
  Rh  Rh26  1  0.750000  0.286178  0.009587  1
  Rh  Rh27  1  0.750000  0.213822  0.509587  1
  Rh  Rh28  1  0.250000  0.408159  0.477814  1
  Rh  Rh29  1  0.250000  0.091842  0.977814  1
  Rh  Rh30  1  0.750000  0.591763  0.521632  1
  Rh  Rh31  1  0.750000  0.908237  0.021632  1
  Rh  Rh32  1  0.250000  0.232292  0.174121  1
  Rh  Rh33  1  0.250000  0.267708  0.674121  1
  Rh  Rh34  1  0.750000  0.768139  0.826046  1
  Rh  Rh35  1  0.750000  0.731861  0.326046  1
