# generated using pymatgen
data_CaTb11(SiPd)12
_symmetry_space_group_name_H-M   'P 1'
_cell_length_a   4.35327600
_cell_length_b   7.45964425
_cell_length_c   21.22230271
_cell_angle_alpha   89.97035199
_cell_angle_beta   90.00000000
_cell_angle_gamma   90.00000000
_symmetry_Int_Tables_number   1
_chemical_formula_structural   CaTb11(SiPd)12
_chemical_formula_sum   'Ca1 Tb11 Si12 Pd12'
_cell_volume   689.17063745
_cell_formula_units_Z   1
loop_
 _symmetry_equiv_pos_site_id
 _symmetry_equiv_pos_as_xyz
  1  'x, y, z'
loop_
 _atom_site_type_symbol
 _atom_site_label
 _atom_site_symmetry_multiplicity
 _atom_site_fract_x
 _atom_site_fract_y
 _atom_site_fract_z
 _atom_site_occupancy
  Ca  Ca0  1  0.250000  0.704467  0.332881  1
  Tb  Tb1  1  0.750000  0.294182  0.667608  1
  Tb  Tb2  1  0.750000  0.203671  0.167091  1
  Tb  Tb3  1  0.250000  0.794383  0.832532  1
  Tb  Tb4  1  0.250000  0.794413  0.166553  1
  Tb  Tb5  1  0.750000  0.206149  0.833626  1
  Tb  Tb6  1  0.750000  0.295304  0.333947  1
  Tb  Tb7  1  0.250000  0.706667  0.666476  1
  Tb  Tb8  1  0.250000  0.711257  0.001003  1
  Tb  Tb9  1  0.750000  0.289584  0.998845  1
  Tb  Tb10  1  0.750000  0.209868  0.499109  1
  Tb  Tb11  1  0.250000  0.790622  0.500743  1
  Si  Si12  1  0.250000  0.090106  0.070482  1
  Si  Si13  1  0.750000  0.909885  0.928390  1
  Si  Si14  1  0.750000  0.588188  0.433423  1
  Si  Si15  1  0.250000  0.410758  0.571539  1
  Si  Si16  1  0.250000  0.087402  0.272310  1
  Si  Si17  1  0.750000  0.914629  0.728443  1
  Si  Si18  1  0.750000  0.583743  0.225923  1
  Si  Si19  1  0.250000  0.414894  0.771327  1
  Si  Si20  1  0.250000  0.088205  0.394759  1
  Si  Si21  1  0.750000  0.912450  0.605100  1
  Si  Si22  1  0.750000  0.587333  0.104521  1
  Si  Si23  1  0.250000  0.412808  0.894940  1
  Pd  Pd24  1  0.250000  0.415080  0.235818  1
  Pd  Pd25  1  0.750000  0.583220  0.763244  1
  Pd  Pd26  1  0.750000  0.917650  0.261835  1
  Pd  Pd27  1  0.250000  0.083470  0.736794  1
  Pd  Pd28  1  0.250000  0.416390  0.437158  1
  Pd  Pd29  1  0.750000  0.583075  0.562789  1
  Pd  Pd30  1  0.750000  0.916839  0.062510  1
  Pd  Pd31  1  0.250000  0.082936  0.937590  1
  Pd  Pd32  1  0.250000  0.419932  0.093540  1
  Pd  Pd33  1  0.750000  0.579876  0.906341  1
  Pd  Pd34  1  0.750000  0.919850  0.407162  1
  Pd  Pd35  1  0.250000  0.080714  0.593649  1
