# generated using pymatgen
data_Lu3In3HgRh
_symmetry_space_group_name_H-M   'P 1'
_cell_length_a   7.76284500
_cell_length_b   7.76284614
_cell_length_c   3.60185200
_cell_angle_alpha   90.00000000
_cell_angle_beta   90.00000000
_cell_angle_gamma   119.99999942
_symmetry_Int_Tables_number   1
_chemical_formula_structural   Lu3In3HgRh
_chemical_formula_sum   'Lu3 In3 Hg1 Rh1'
_cell_volume   187.97426313
_cell_formula_units_Z   1
loop_
 _symmetry_equiv_pos_site_id
 _symmetry_equiv_pos_as_xyz
  1  'x, y, z'
loop_
 _atom_site_type_symbol
 _atom_site_label
 _atom_site_symmetry_multiplicity
 _atom_site_fract_x
 _atom_site_fract_y
 _atom_site_fract_z
 _atom_site_occupancy
  Lu  Lu0  1  0.568025  0.974366  0.499999  1
  Lu  Lu1  1  0.406340  0.431974  0.499999  1
  Lu  Lu2  1  0.025634  0.593659  0.499999  1
  In  In3  1  0.228455  0.993845  0.000000  1
  In  In4  1  0.006155  0.234609  0.000000  1
  In  In5  1  0.765390  0.771545  0.000000  1
  Hg  Hg6  1  0.666666  0.333334  0.000000  1
  Rh  Rh7  1  0.333334  0.666667  0.000000  1
