# generated using pymatgen
data_Gd2MgGeAs
_symmetry_space_group_name_H-M   'P 1'
_cell_length_a   7.51608550
_cell_length_b   7.51609445
_cell_length_c   4.12695800
_cell_angle_alpha   90.00000000
_cell_angle_beta   90.00000000
_cell_angle_gamma   85.40628134
_symmetry_Int_Tables_number   1
_chemical_formula_structural   Gd2MgGeAs
_chemical_formula_sum   'Gd4 Mg2 Ge2 As2'
_cell_volume   232.38957672
_cell_formula_units_Z   2
loop_
 _symmetry_equiv_pos_site_id
 _symmetry_equiv_pos_as_xyz
  1  'x, y, z'
loop_
 _atom_site_type_symbol
 _atom_site_label
 _atom_site_symmetry_multiplicity
 _atom_site_fract_x
 _atom_site_fract_y
 _atom_site_fract_z
 _atom_site_occupancy
  Gd  Gd0  1  0.831003  0.331005  0.000000  1
  Gd  Gd1  1  0.334000  0.165997  0.000000  1
  Gd  Gd2  1  0.168997  0.668995  0.000000  1
  Gd  Gd3  1  0.666000  0.834003  0.000000  1
  Mg  Mg4  1  0.500000  0.500000  0.500000  1
  Mg  Mg5  1  0.000000  0.000000  0.500000  1
  Ge  Ge6  1  0.872442  0.627559  0.500000  1
  Ge  Ge7  1  0.127558  0.372441  0.500000  1
  As  As8  1  0.645774  0.145774  0.500000  1
  As  As9  1  0.354226  0.854226  0.500000  1
