# generated using pymatgen
data_Cr20CoReWC6
_symmetry_space_group_name_H-M   'P 1'
_cell_length_a   7.51177237
_cell_length_b   7.51189656
_cell_length_c   7.51198100
_cell_angle_alpha   59.99835463
_cell_angle_beta   59.99858589
_cell_angle_gamma   59.99851637
_symmetry_Int_Tables_number   1
_chemical_formula_structural   Cr20CoReWC6
_chemical_formula_sum   'Cr20 Co1 Re1 W1 C6'
_cell_volume   299.72059740
_cell_formula_units_Z   1
loop_
 _symmetry_equiv_pos_site_id
 _symmetry_equiv_pos_as_xyz
  1  'x, y, z'
loop_
 _atom_site_type_symbol
 _atom_site_label
 _atom_site_symmetry_multiplicity
 _atom_site_fract_x
 _atom_site_fract_y
 _atom_site_fract_z
 _atom_site_occupancy
  Cr  Cr0  1  0.617448  0.617401  0.147704  1
  Cr  Cr1  1  0.617409  0.147737  0.617433  1
  Cr  Cr2  1  0.147706  0.617388  0.617447  1
  Cr  Cr3  1  0.617455  0.617389  0.617444  1
  Cr  Cr4  1  0.384585  0.384568  0.846275  1
  Cr  Cr5  1  0.384591  0.846278  0.384563  1
  Cr  Cr6  1  0.846260  0.384593  0.384584  1
  Cr  Cr7  1  0.384573  0.384577  0.384574  1
  Cr  Cr8  1  0.000033  0.000047  0.331928  1
  Cr  Cr9  1  0.667992  0.000031  0.331951  1
  Cr  Cr10  1  0.000026  0.667963  0.331968  1
  Cr  Cr11  1  0.668005  0.331931  0.000021  1
  Cr  Cr12  1  0.000051  0.331921  0.000032  1
  Cr  Cr13  1  0.000032  0.331938  0.667993  1
  Cr  Cr14  1  0.331961  0.667976  0.000040  1
  Cr  Cr15  1  0.331949  0.000055  0.667994  1
  Cr  Cr16  1  0.331962  0.000056  0.000016  1
  Cr  Cr17  1  0.000000  0.000048  0.668012  1
  Cr  Cr18  1  0.000013  0.667987  0.000040  1
  Cr  Cr19  1  0.667986  0.000037  0.000006  1
  Co  Co20  1  0.999998  0.000017  0.999987  1
  Re  Re21  1  0.749956  0.750020  0.750000  1
  W  W22  1  0.250009  0.250050  0.249980  1
  C  C23  1  0.723703  0.723711  0.276294  1
  C  C24  1  0.276304  0.723709  0.276281  1
  C  C25  1  0.723686  0.276298  0.276311  1
  C  C26  1  0.276313  0.276278  0.723706  1
  C  C27  1  0.723693  0.276291  0.723711  1
  C  C28  1  0.276304  0.723705  0.723705  1
