# generated using pymatgen
data_LaCdCuPd3
_symmetry_space_group_name_H-M   'P 1'
_cell_length_a   5.52609559
_cell_length_b   5.52609590
_cell_length_c   5.28614365
_cell_angle_alpha   58.48671439
_cell_angle_beta   58.48672547
_cell_angle_gamma   60.00000394
_symmetry_Int_Tables_number   1
_chemical_formula_structural   LaCdCuPd3
_chemical_formula_sum   'La1 Cd1 Cu1 Pd3'
_cell_volume   111.46506254
_cell_formula_units_Z   1
loop_
 _symmetry_equiv_pos_site_id
 _symmetry_equiv_pos_as_xyz
  1  'x, y, z'
loop_
 _atom_site_type_symbol
 _atom_site_label
 _atom_site_symmetry_multiplicity
 _atom_site_fract_x
 _atom_site_fract_y
 _atom_site_fract_z
 _atom_site_occupancy
  La  La0  1  0.748829  0.748829  0.753514  1
  Cd  Cd1  1  0.003027  0.003027  0.990919  1
  Cu  Cu2  1  0.374359  0.374359  0.876924  1
  Pd  Pd3  1  0.373302  0.877181  0.376215  1
  Pd  Pd4  1  0.373302  0.373302  0.376215  1
  Pd  Pd5  1  0.877181  0.373302  0.376215  1
