# generated using pymatgen
data_Ce4Y15MgIr12
_symmetry_space_group_name_H-M   'P 1'
_cell_length_a   11.05341700
_cell_length_b   10.98705787
_cell_length_c   6.31383400
_cell_angle_alpha   90.00000000
_cell_angle_beta   90.00000000
_cell_angle_gamma   89.95858893
_symmetry_Int_Tables_number   1
_chemical_formula_structural   Ce4Y15MgIr12
_chemical_formula_sum   'Ce4 Y15 Mg1 Ir12'
_cell_volume   766.78041648
_cell_formula_units_Z   1
loop_
 _symmetry_equiv_pos_site_id
 _symmetry_equiv_pos_as_xyz
  1  'x, y, z'
loop_
 _atom_site_type_symbol
 _atom_site_label
 _atom_site_symmetry_multiplicity
 _atom_site_fract_x
 _atom_site_fract_y
 _atom_site_fract_z
 _atom_site_occupancy
  Ce  Ce0  1  0.295261  0.090788  0.385133  1
  Ce  Ce1  1  0.294472  0.906820  0.886479  1
  Ce  Ce2  1  0.705528  0.093180  0.886479  1
  Ce  Ce3  1  0.704739  0.909212  0.385133  1
  Y  Y4  1  0.589424  0.785750  0.884031  1
  Y  Y5  1  0.586115  0.221182  0.383738  1
  Y  Y6  1  0.413885  0.778818  0.383738  1
  Y  Y7  1  0.410576  0.214250  0.884031  1
  Y  Y8  1  0.213821  0.416598  0.620663  1
  Y  Y9  1  0.206540  0.587727  0.118397  1
  Y  Y10  1  0.793460  0.412273  0.118397  1
  Y  Y11  1  0.786179  0.583402  0.620663  1
  Y  Y12  1  0.910625  0.708503  0.114145  1
  Y  Y13  1  0.912662  0.291636  0.615972  1
  Y  Y14  1  0.087338  0.708364  0.615972  1
  Y  Y15  1  0.089375  0.291497  0.114145  1
  Y  Y16  1  0.000000  0.000000  0.486282  1
  Y  Y17  1  0.000000  0.000000  0.986348  1
  Y  Y18  1  0.500000  0.500000  0.016190  1
  Mg  Mg19  1  0.500000  0.500000  0.515429  1
  Ir  Ir20  1  0.842690  0.152779  0.238795  1
  Ir  Ir21  1  0.843127  0.846756  0.734762  1
  Ir  Ir22  1  0.156873  0.153244  0.734762  1
  Ir  Ir23  1  0.157310  0.847221  0.238795  1
  Ir  Ir24  1  0.652819  0.344915  0.761321  1
  Ir  Ir25  1  0.653391  0.655026  0.258166  1
  Ir  Ir26  1  0.346609  0.344974  0.258166  1
  Ir  Ir27  1  0.347181  0.655085  0.761321  1
  Ir  Ir28  1  0.500000  0.000000  0.125757  1
  Ir  Ir29  1  0.500000  0.000000  0.623349  1
  Ir  Ir30  1  0.000000  0.500000  0.869405  1
  Ir  Ir31  1  0.000000  0.500000  0.374044  1
