# generated using pymatgen
data_Tm20Ru4Pt7Au
_symmetry_space_group_name_H-M   'P 1'
_cell_length_a   10.93509263
_cell_length_b   10.93509269
_cell_length_c   6.30640100
_cell_angle_alpha   89.93230928
_cell_angle_beta   89.93230928
_cell_angle_gamma   89.96479885
_symmetry_Int_Tables_number   1
_chemical_formula_structural   Tm20Ru4Pt7Au
_chemical_formula_sum   'Tm20 Ru4 Pt7 Au1'
_cell_volume   754.09459752
_cell_formula_units_Z   1
loop_
 _symmetry_equiv_pos_site_id
 _symmetry_equiv_pos_as_xyz
  1  'x, y, z'
loop_
 _atom_site_type_symbol
 _atom_site_label
 _atom_site_symmetry_multiplicity
 _atom_site_fract_x
 _atom_site_fract_y
 _atom_site_fract_z
 _atom_site_occupancy
  Tm  Tm0  1  0.296374  0.085177  0.370518  1
  Tm  Tm1  1  0.298189  0.913960  0.871059  1
  Tm  Tm2  1  0.699484  0.083333  0.863319  1
  Tm  Tm3  1  0.700773  0.910621  0.372740  1
  Tm  Tm4  1  0.585290  0.796861  0.872437  1
  Tm  Tm5  1  0.580214  0.203300  0.371237  1
  Tm  Tm6  1  0.413706  0.797079  0.371578  1
  Tm  Tm7  1  0.413178  0.202620  0.871721  1
  Tm  Tm8  1  0.203139  0.414710  0.627563  1
  Tm  Tm9  1  0.202921  0.586294  0.128422  1
  Tm  Tm10  1  0.796700  0.419786  0.128763  1
  Tm  Tm11  1  0.797380  0.586822  0.628279  1
  Tm  Tm12  1  0.914823  0.703626  0.129482  1
  Tm  Tm13  1  0.916667  0.300516  0.636681  1
  Tm  Tm14  1  0.086040  0.701811  0.628941  1
  Tm  Tm15  1  0.089379  0.299227  0.127260  1
  Tm  Tm16  1  0.002505  0.996980  0.501166  1
  Tm  Tm17  1  0.003020  0.997495  0.998834  1
  Tm  Tm18  1  0.499613  0.499698  0.999463  1
  Tm  Tm19  1  0.500302  0.500387  0.500537  1
  Ru  Ru20  1  0.499890  0.999735  0.123255  1
  Ru  Ru21  1  0.499416  0.999855  0.622047  1
  Ru  Ru22  1  0.000145  0.500584  0.877953  1
  Ru  Ru23  1  0.000265  0.500110  0.376745  1
  Pt  Pt24  1  0.847326  0.846506  0.749944  1
  Pt  Pt25  1  0.153494  0.152674  0.750056  1
  Pt  Pt26  1  0.154547  0.845453  0.250000  1
  Pt  Pt27  1  0.653667  0.346333  0.750000  1
  Pt  Pt28  1  0.653521  0.652925  0.249288  1
  Pt  Pt29  1  0.347075  0.346479  0.250712  1
  Pt  Pt30  1  0.346501  0.653499  0.750000  1
  Au  Au31  1  0.844455  0.155545  0.250000  1
