# generated using pymatgen
data_FeNi5P3
_symmetry_space_group_name_H-M   'P 1'
_cell_length_a   5.84236335
_cell_length_b   5.89088606
_cell_length_c   3.32201900
_cell_angle_alpha   90.00000000
_cell_angle_beta   90.00000000
_cell_angle_gamma   120.27511514
_symmetry_Int_Tables_number   1
_chemical_formula_structural   FeNi5P3
_chemical_formula_sum   'Fe1 Ni5 P3'
_cell_volume   98.73957934
_cell_formula_units_Z   1
loop_
 _symmetry_equiv_pos_site_id
 _symmetry_equiv_pos_as_xyz
  1  'x, y, z'
loop_
 _atom_site_type_symbol
 _atom_site_label
 _atom_site_symmetry_multiplicity
 _atom_site_fract_x
 _atom_site_fract_y
 _atom_site_fract_z
 _atom_site_occupancy
  Fe  Fe0  1  0.000000  0.737155  0.000000  1
  Ni  Ni1  1  0.410012  0.019631  0.500000  1
  Ni  Ni2  1  0.589988  0.609619  0.500000  1
  Ni  Ni3  1  0.000000  0.381635  0.500000  1
  Ni  Ni4  1  0.263038  0.261723  0.000000  1
  Ni  Ni5  1  0.736962  0.998684  0.000000  1
  P  P6  1  0.000000  0.985701  0.500000  1
  P  P7  1  0.674670  0.340260  0.000000  1
  P  P8  1  0.325330  0.665591  0.000000  1
