# generated using pymatgen
data_Tb11CeOs4
_symmetry_space_group_name_H-M   'P 1'
_cell_length_a   6.39211726
_cell_length_b   7.35256408
_cell_length_c   9.21082700
_cell_angle_alpha   90.00000000
_cell_angle_beta   90.00000000
_cell_angle_gamma   91.12048501
_symmetry_Int_Tables_number   1
_chemical_formula_structural   Tb11CeOs4
_chemical_formula_sum   'Tb11 Ce1 Os4'
_cell_volume   432.81183226
_cell_formula_units_Z   1
loop_
 _symmetry_equiv_pos_site_id
 _symmetry_equiv_pos_as_xyz
  1  'x, y, z'
loop_
 _atom_site_type_symbol
 _atom_site_label
 _atom_site_symmetry_multiplicity
 _atom_site_fract_x
 _atom_site_fract_y
 _atom_site_fract_z
 _atom_site_occupancy
  Tb  Tb0  1  0.332487  0.673511  0.062418  1
  Tb  Tb1  1  0.168612  0.175389  0.435249  1
  Tb  Tb2  1  0.670988  0.324541  0.565252  1
  Tb  Tb3  1  0.828866  0.825504  0.934366  1
  Tb  Tb4  1  0.670988  0.324541  0.934748  1
  Tb  Tb5  1  0.828866  0.825504  0.565634  1
  Tb  Tb6  1  0.332487  0.673511  0.437582  1
  Tb  Tb7  1  0.168612  0.175389  0.064751  1
  Tb  Tb8  1  0.633071  0.038188  0.250000  1
  Tb  Tb9  1  0.135091  0.460190  0.750000  1
  Tb  Tb10  1  0.365510  0.961568  0.750000  1
  Ce  Ce11  1  0.854852  0.554093  0.250000  1
  Os  Os12  1  0.034778  0.870274  0.250000  1
  Os  Os13  1  0.476024  0.386018  0.250000  1
  Os  Os14  1  0.958900  0.115506  0.750000  1
  Os  Os15  1  0.539870  0.616273  0.750000  1
