# generated using pymatgen
data_BaLa(SbPt)2
_symmetry_space_group_name_H-M   'P 1'
_cell_length_a   4.60272100
_cell_length_b   4.60272098
_cell_length_c   18.29610700
_cell_angle_alpha   90.00000000
_cell_angle_beta   90.00000000
_cell_angle_gamma   120.00000734
_symmetry_Int_Tables_number   1
_chemical_formula_structural   BaLa(SbPt)2
_chemical_formula_sum   'Ba2 La2 Sb4 Pt4'
_cell_volume   335.67468483
_cell_formula_units_Z   2
loop_
 _symmetry_equiv_pos_site_id
 _symmetry_equiv_pos_as_xyz
  1  'x, y, z'
loop_
 _atom_site_type_symbol
 _atom_site_label
 _atom_site_symmetry_multiplicity
 _atom_site_fract_x
 _atom_site_fract_y
 _atom_site_fract_z
 _atom_site_occupancy
  Ba  Ba0  1  0.000000  0.000000  0.250000  1
  Ba  Ba1  1  0.000000  0.000000  0.750000  1
  La  La2  1  0.000000  0.000000  0.500000  1
  La  La3  1  0.000000  0.000000  0.000000  1
  Sb  Sb4  1  0.333333  0.666667  0.880730  1
  Sb  Sb5  1  0.666667  0.333333  0.119270  1
  Sb  Sb6  1  0.666667  0.333333  0.380730  1
  Sb  Sb7  1  0.333333  0.666667  0.619270  1
  Pt  Pt8  1  0.333333  0.666667  0.394786  1
  Pt  Pt9  1  0.666667  0.333333  0.605214  1
  Pt  Pt10  1  0.666667  0.333333  0.894786  1
  Pt  Pt11  1  0.333333  0.666667  0.105214  1
