# generated using pymatgen
data_YbHf(Ni2As)4
_symmetry_space_group_name_H-M   'P 1'
_cell_length_a   7.14206097
_cell_length_b   7.14206097
_cell_length_c   3.74534700
_cell_angle_alpha   90.00000000
_cell_angle_beta   90.00000000
_cell_angle_gamma   90.93544305
_symmetry_Int_Tables_number   1
_chemical_formula_structural   YbHf(Ni2As)4
_chemical_formula_sum   'Yb1 Hf1 Ni8 As4'
_cell_volume   191.02107399
_cell_formula_units_Z   1
loop_
 _symmetry_equiv_pos_site_id
 _symmetry_equiv_pos_as_xyz
  1  'x, y, z'
loop_
 _atom_site_type_symbol
 _atom_site_label
 _atom_site_symmetry_multiplicity
 _atom_site_fract_x
 _atom_site_fract_y
 _atom_site_fract_z
 _atom_site_occupancy
  Yb  Yb0  1  0.000000  0.000000  0.500000  1
  Hf  Hf1  1  0.500000  0.500000  0.000000  1
  Ni  Ni2  1  0.587867  0.155202  0.500000  1
  Ni  Ni3  1  0.412133  0.844798  0.500000  1
  Ni  Ni4  1  0.090974  0.346261  0.000000  1
  Ni  Ni5  1  0.909026  0.653739  0.000000  1
  Ni  Ni6  1  0.155202  0.587867  0.500000  1
  Ni  Ni7  1  0.844798  0.412133  0.500000  1
  Ni  Ni8  1  0.346261  0.090974  0.000000  1
  Ni  Ni9  1  0.653739  0.909026  0.000000  1
  As  As10  1  0.710444  0.710444  0.500000  1
  As  As11  1  0.289556  0.289556  0.500000  1
  As  As12  1  0.224522  0.775478  0.000000  1
  As  As13  1  0.775478  0.224522  0.000000  1
