# generated using pymatgen
data_NaHf3(Co5P3)4
_symmetry_space_group_name_H-M   'P 1'
_cell_length_a   3.58998400
_cell_length_b   10.16922986
_cell_length_c   11.62483197
_cell_angle_alpha   90.11660655
_cell_angle_beta   90.00000000
_cell_angle_gamma   90.00000000
_symmetry_Int_Tables_number   1
_chemical_formula_structural   NaHf3(Co5P3)4
_chemical_formula_sum   'Na1 Hf3 Co20 P12'
_cell_volume   424.39119206
_cell_formula_units_Z   1
loop_
 _symmetry_equiv_pos_site_id
 _symmetry_equiv_pos_as_xyz
  1  'x, y, z'
loop_
 _atom_site_type_symbol
 _atom_site_label
 _atom_site_symmetry_multiplicity
 _atom_site_fract_x
 _atom_site_fract_y
 _atom_site_fract_z
 _atom_site_occupancy
  Na  Na0  1  0.750000  0.082124  0.795507  1
  Hf  Hf1  1  0.250000  0.581206  0.701819  1
  Hf  Hf2  1  0.250000  0.918709  0.202590  1
  Hf  Hf3  1  0.750000  0.418692  0.297696  1
  Co  Co4  1  0.250000  0.719739  0.995006  1
  Co  Co5  1  0.250000  0.779007  0.491576  1
  Co  Co6  1  0.750000  0.282142  0.006536  1
  Co  Co7  1  0.750000  0.219284  0.506379  1
  Co  Co8  1  0.250000  0.409995  0.484282  1
  Co  Co9  1  0.250000  0.089676  0.991047  1
  Co  Co10  1  0.750000  0.591222  0.515636  1
  Co  Co11  1  0.750000  0.905920  0.016683  1
  Co  Co12  1  0.250000  0.225247  0.179846  1
  Co  Co13  1  0.250000  0.282164  0.675754  1
  Co  Co14  1  0.750000  0.775727  0.823603  1
  Co  Co15  1  0.750000  0.723021  0.321696  1
  Co  Co16  1  0.250000  0.878278  0.698351  1
  Co  Co17  1  0.250000  0.615662  0.201247  1
  Co  Co18  1  0.750000  0.115765  0.298384  1
  Co  Co19  1  0.750000  0.387033  0.800023  1
  Co  Co20  1  0.250000  0.467934  0.930473  1
  Co  Co21  1  0.250000  0.032701  0.428737  1
  Co  Co22  1  0.750000  0.532548  0.070679  1
  Co  Co23  1  0.750000  0.966510  0.566943  1
  P  P24  1  0.250000  0.418643  0.114317  1
  P  P25  1  0.250000  0.081446  0.614013  1
  P  P26  1  0.750000  0.581427  0.886194  1
  P  P27  1  0.750000  0.918893  0.384666  1
  P  P28  1  0.250000  0.264795  0.869668  1
  P  P29  1  0.250000  0.234057  0.370302  1
  P  P30  1  0.750000  0.733546  0.130620  1
  P  P31  1  0.750000  0.767440  0.631091  1
  P  P32  1  0.250000  0.598897  0.389155  1
  P  P33  1  0.250000  0.901169  0.889064  1
  P  P34  1  0.750000  0.399917  0.611279  1
  P  P35  1  0.750000  0.099460  0.109142  1
