# generated using pymatgen
data_Tb4YP12Ru18Pt
_symmetry_space_group_name_H-M   'P 1'
_cell_length_a   12.59656802
_cell_length_b   12.49395808
_cell_length_c   3.99732300
_cell_angle_alpha   90.00000000
_cell_angle_beta   90.00000000
_cell_angle_gamma   119.72921655
_symmetry_Int_Tables_number   1
_chemical_formula_structural   Tb4YP12Ru18Pt
_chemical_formula_sum   'Tb4 Y1 P12 Ru18 Pt1'
_cell_volume   546.29938666
_cell_formula_units_Z   1
loop_
 _symmetry_equiv_pos_site_id
 _symmetry_equiv_pos_as_xyz
  1  'x, y, z'
loop_
 _atom_site_type_symbol
 _atom_site_label
 _atom_site_symmetry_multiplicity
 _atom_site_fract_x
 _atom_site_fract_y
 _atom_site_fract_z
 _atom_site_occupancy
  Tb  Tb0  1  0.000004  0.182559  0.500000  1
  Tb  Tb1  1  0.816371  0.815419  0.500000  1
  Tb  Tb2  1  0.661323  0.329866  0.000000  1
  Tb  Tb3  1  0.338671  0.668541  0.000000  1
  Y  Y4  1  0.183630  0.999051  0.500000  1
  P  P5  1  0.999998  0.811902  0.000000  1
  P  P6  1  0.183066  0.184339  0.000000  1
  P  P7  1  0.816931  0.001270  0.000000  1
  P  P8  1  0.693277  0.173129  0.500000  1
  P  P9  1  0.817983  0.519086  0.500000  1
  P  P10  1  0.474430  0.305690  0.500000  1
  P  P11  1  0.182019  0.701097  0.500000  1
  P  P12  1  0.525574  0.831256  0.500000  1
  P  P13  1  0.306724  0.479848  0.500000  1
  P  P14  1  0.999999  0.364220  0.000000  1
  P  P15  1  0.626694  0.627255  0.000000  1
  P  P16  1  0.373316  0.000562  0.000000  1
  Ru  Ru17  1  0.444215  0.446708  0.000000  1
  Ru  Ru18  1  0.555780  0.002488  0.000000  1
  Ru  Ru19  1  0.000008  0.710130  0.500000  1
  Ru  Ru20  1  0.281342  0.283625  0.500000  1
  Ru  Ru21  1  0.718652  0.002290  0.500000  1
  Ru  Ru22  1  0.807401  0.186368  0.000000  1
  Ru  Ru23  1  0.814606  0.620260  0.000000  1
  Ru  Ru24  1  0.374353  0.191255  0.000000  1
  Ru  Ru25  1  0.185403  0.805664  0.000000  1
  Ru  Ru26  1  0.625641  0.816908  0.000000  1
  Ru  Ru27  1  0.192596  0.378966  0.000000  1
  Ru  Ru28  1  0.872839  0.367585  0.500000  1
  Ru  Ru29  1  0.629834  0.508108  0.500000  1
  Ru  Ru30  1  0.492234  0.127976  0.500000  1
  Ru  Ru31  1  0.370164  0.878275  0.500000  1
  Ru  Ru32  1  0.507767  0.635740  0.500000  1
  Ru  Ru33  1  0.127159  0.494744  0.500000  1
  Ru  Ru34  1  0.999997  0.997527  0.000000  1
  Pt  Pt35  1  0.999998  0.550291  0.000000  1
