# generated using pymatgen
data_Pr8Be4ZnSi11
_symmetry_space_group_name_H-M   'P 1'
_cell_length_a   8.00109643
_cell_length_b   8.00109665
_cell_length_c   8.68762701
_cell_angle_alpha   89.99585133
_cell_angle_beta   90.00414701
_cell_angle_gamma   119.89401718
_symmetry_Int_Tables_number   1
_chemical_formula_structural   Pr8Be4ZnSi11
_chemical_formula_sum   'Pr8 Be4 Zn1 Si11'
_cell_volume   482.16272624
_cell_formula_units_Z   1
loop_
 _symmetry_equiv_pos_site_id
 _symmetry_equiv_pos_as_xyz
  1  'x, y, z'
loop_
 _atom_site_type_symbol
 _atom_site_label
 _atom_site_symmetry_multiplicity
 _atom_site_fract_x
 _atom_site_fract_y
 _atom_site_fract_z
 _atom_site_occupancy
  Pr  Pr0  1  0.500040  0.499960  0.750651  1
  Pr  Pr1  1  0.500234  0.499766  0.249370  1
  Pr  Pr2  1  0.002149  0.502982  0.748811  1
  Pr  Pr3  1  0.001953  0.502858  0.251210  1
  Pr  Pr4  1  0.497018  0.997851  0.748811  1
  Pr  Pr5  1  0.497142  0.998047  0.251210  1
  Pr  Pr6  1  0.001033  0.998967  0.748334  1
  Pr  Pr7  1  0.001029  0.998971  0.251656  1
  Be  Be8  1  0.665672  0.334328  0.998197  1
  Be  Be9  1  0.335647  0.664353  0.001614  1
  Be  Be10  1  0.334113  0.665887  0.498109  1
  Be  Be11  1  0.666514  0.333486  0.501842  1
  Zn  Zn12  1  0.827122  0.172878  0.000056  1
  Si  Si13  1  0.171679  0.828321  0.999901  1
  Si  Si14  1  0.345780  0.175075  0.000102  1
  Si  Si15  1  0.171698  0.828302  0.500162  1
  Si  Si16  1  0.658067  0.829649  0.000003  1
  Si  Si17  1  0.828204  0.171796  0.499819  1
  Si  Si18  1  0.824925  0.654220  0.000102  1
  Si  Si19  1  0.655317  0.827140  0.500193  1
  Si  Si20  1  0.170351  0.341933  0.000003  1
  Si  Si21  1  0.344840  0.173386  0.499827  1
  Si  Si22  1  0.172860  0.344683  0.500193  1
  Si  Si23  1  0.826614  0.655160  0.499827  1
