# generated using pymatgen
data_CsHo(NbCl3)6
_symmetry_space_group_name_H-M   'P 1'
_cell_length_a   10.30477898
_cell_length_b   10.30344869
_cell_length_c   10.30107317
_cell_angle_alpha   55.92495281
_cell_angle_beta   55.89366026
_cell_angle_gamma   55.89827451
_symmetry_Int_Tables_number   1
_chemical_formula_structural   CsHo(NbCl3)6
_chemical_formula_sum   'Cs1 Ho1 Nb6 Cl18'
_cell_volume   699.98339406
_cell_formula_units_Z   1
loop_
 _symmetry_equiv_pos_site_id
 _symmetry_equiv_pos_as_xyz
  1  'x, y, z'
loop_
 _atom_site_type_symbol
 _atom_site_label
 _atom_site_symmetry_multiplicity
 _atom_site_fract_x
 _atom_site_fract_y
 _atom_site_fract_z
 _atom_site_occupancy
  Cs  Cs0  1  0.224122  0.224122  0.224087  1
  Ho  Ho1  1  0.498792  0.498826  0.498807  1
  Nb  Nb2  1  0.807817  0.148393  0.905645  1
  Nb  Nb3  1  0.905664  0.807814  0.148401  1
  Nb  Nb4  1  0.148566  0.905520  0.807624  1
  Nb  Nb5  1  0.192882  0.851783  0.092985  1
  Nb  Nb6  1  0.093009  0.192829  0.851837  1
  Nb  Nb7  1  0.851689  0.093102  0.193030  1
  Cl  Cl8  1  0.880863  0.402376  0.718204  1
  Cl  Cl9  1  0.718123  0.880930  0.402409  1
  Cl  Cl10  1  0.402511  0.718124  0.880799  1
  Cl  Cl11  1  0.118059  0.597624  0.283557  1
  Cl  Cl12  1  0.283624  0.118055  0.597548  1
  Cl  Cl13  1  0.597491  0.283629  0.118154  1
  Cl  Cl14  1  0.549153  0.339236  0.789963  1
  Cl  Cl15  1  0.789894  0.549320  0.339146  1
  Cl  Cl16  1  0.339340  0.789854  0.549039  1
  Cl  Cl17  1  0.447268  0.663115  0.212792  1
  Cl  Cl18  1  0.212822  0.447170  0.663165  1
  Cl  Cl19  1  0.662990  0.212876  0.447414  1
  Cl  Cl20  1  0.663664  0.946491  0.062837  1
  Cl  Cl21  1  0.062939  0.663559  0.946461  1
  Cl  Cl22  1  0.946437  0.062869  0.663629  1
  Cl  Cl23  1  0.339892  0.051437  0.932157  1
  Cl  Cl24  1  0.932080  0.339978  0.051483  1
  Cl  Cl25  1  0.051447  0.932107  0.339962  1
