# generated using pymatgen
data_Nd2SmCBr5
_symmetry_space_group_name_H-M   'P 1'
_cell_length_a   7.59511317
_cell_length_b   9.16117951
_cell_length_c   9.25374367
_cell_angle_alpha   107.85411001
_cell_angle_beta   96.82099920
_cell_angle_gamma   105.24042679
_symmetry_Int_Tables_number   1
_chemical_formula_structural   Nd2SmCBr5
_chemical_formula_sum   'Nd4 Sm2 C2 Br10'
_cell_volume   577.21341286
_cell_formula_units_Z   2
loop_
 _symmetry_equiv_pos_site_id
 _symmetry_equiv_pos_as_xyz
  1  'x, y, z'
loop_
 _atom_site_type_symbol
 _atom_site_label
 _atom_site_symmetry_multiplicity
 _atom_site_fract_x
 _atom_site_fract_y
 _atom_site_fract_z
 _atom_site_occupancy
  Nd  Nd0  1  0.886614  0.956528  0.230986  1
  Nd  Nd1  1  0.113386  0.043472  0.769014  1
  Nd  Nd2  1  0.028570  0.721149  0.916663  1
  Nd  Nd3  1  0.971430  0.278851  0.083337  1
  Sm  Sm4  1  0.614759  0.852809  0.804634  1
  Sm  Sm5  1  0.385241  0.147191  0.195366  1
  C  C6  1  0.907862  0.967259  0.955027  1
  C  C7  1  0.092138  0.032741  0.044973  1
  Br  Br8  1  0.747171  0.913747  0.539672  1
  Br  Br9  1  0.252829  0.086253  0.460328  1
  Br  Br10  1  0.457515  0.820125  0.084454  1
  Br  Br11  1  0.542485  0.179875  0.915546  1
  Br  Br12  1  0.811468  0.266100  0.356122  1
  Br  Br13  1  0.188532  0.733900  0.643878  1
  Br  Br14  1  0.909900  0.628613  0.175537  1
  Br  Br15  1  0.090100  0.371387  0.824463  1
  Br  Br16  1  0.651133  0.539524  0.722884  1
  Br  Br17  1  0.348867  0.460476  0.277116  1
