# generated using pymatgen
data_Pr10CuGeBi5Pb
_symmetry_space_group_name_H-M   'P 1'
_cell_length_a   9.72414005
_cell_length_b   9.72413992
_cell_length_c   6.70661833
_cell_angle_alpha   89.92095504
_cell_angle_beta   89.92095487
_cell_angle_gamma   119.91410827
_symmetry_Int_Tables_number   1
_chemical_formula_structural   Pr10CuGeBi5Pb
_chemical_formula_sum   'Pr10 Cu1 Ge1 Bi5 Pb1'
_cell_volume   549.68034946
_cell_formula_units_Z   1
loop_
 _symmetry_equiv_pos_site_id
 _symmetry_equiv_pos_as_xyz
  1  'x, y, z'
loop_
 _atom_site_type_symbol
 _atom_site_label
 _atom_site_symmetry_multiplicity
 _atom_site_fract_x
 _atom_site_fract_y
 _atom_site_fract_z
 _atom_site_occupancy
  Pr  Pr0  1  0.666077  0.333276  0.999348  1
  Pr  Pr1  1  0.333276  0.666077  0.999348  1
  Pr  Pr2  1  0.333151  0.665740  0.500761  1
  Pr  Pr3  1  0.665740  0.333151  0.500761  1
  Pr  Pr4  1  0.746937  0.746937  0.752064  1
  Pr  Pr5  1  0.253423  0.001218  0.752182  1
  Pr  Pr6  1  0.001218  0.253423  0.752182  1
  Pr  Pr7  1  0.252531  0.252531  0.248052  1
  Pr  Pr8  1  0.747467  0.999869  0.247691  1
  Pr  Pr9  1  0.999869  0.747467  0.247691  1
  Cu  Cu10  1  0.000433  0.000433  0.500456  1
  Ge  Ge11  1  0.000203  0.000203  0.999715  1
  Bi  Bi12  1  0.612866  0.999935  0.749189  1
  Bi  Bi13  1  0.999935  0.612866  0.749189  1
  Bi  Bi14  1  0.611716  0.611716  0.250972  1
  Bi  Bi15  1  0.387327  0.999981  0.250644  1
  Bi  Bi16  1  0.999981  0.387327  0.250644  1
  Pb  Pb17  1  0.387850  0.387850  0.749109  1
