# generated using pymatgen
data_Nd2Y3Er3(WO6)4
_symmetry_space_group_name_H-M   'P 1'
_cell_length_a   5.44704231
_cell_length_b   7.76509490
_cell_length_c   11.51832286
_cell_angle_alpha   75.63409786
_cell_angle_beta   90.00469035
_cell_angle_gamma   89.96407359
_symmetry_Int_Tables_number   1
_chemical_formula_structural   Nd2Y3Er3(WO6)4
_chemical_formula_sum   'Nd2 Y3 Er3 W4 O24'
_cell_volume   471.95420373
_cell_formula_units_Z   1
loop_
 _symmetry_equiv_pos_site_id
 _symmetry_equiv_pos_as_xyz
  1  'x, y, z'
loop_
 _atom_site_type_symbol
 _atom_site_label
 _atom_site_symmetry_multiplicity
 _atom_site_fract_x
 _atom_site_fract_y
 _atom_site_fract_z
 _atom_site_occupancy
  Nd  Nd0  1  0.685173  0.500511  0.249456  1
  Nd  Nd1  1  0.315146  0.500197  0.750121  1
  Y  Y2  1  0.185317  0.203674  0.423085  1
  Y  Y3  1  0.742921  0.999602  0.249300  1
  Y  Y4  1  0.257271  0.999691  0.750554  1
  Er  Er5  1  0.184607  0.795916  0.077334  1
  Er  Er6  1  0.814961  0.795497  0.577514  1
  Er  Er7  1  0.815395  0.204025  0.922769  1
  W  W8  1  0.254735  0.272535  0.115040  1
  W  W9  1  0.254430  0.727899  0.384455  1
  W  W10  1  0.745590  0.727680  0.884459  1
  W  W11  1  0.745799  0.272595  0.616207  1
  O  O12  1  0.455807  0.205709  0.272349  1
  O  O13  1  0.453759  0.794983  0.226183  1
  O  O14  1  0.546020  0.794552  0.726418  1
  O  O15  1  0.546259  0.205729  0.774153  1
  O  O16  1  0.046030  0.058196  0.103041  1
  O  O17  1  0.043212  0.939827  0.396704  1
  O  O18  1  0.954230  0.941642  0.896880  1
  O  O19  1  0.953621  0.057836  0.603985  1
  O  O20  1  0.985209  0.281222  0.229314  1
  O  O21  1  0.986279  0.718643  0.269056  1
  O  O22  1  0.014074  0.719136  0.769461  1
  O  O23  1  0.014657  0.280906  0.730715  1
  O  O24  1  0.851569  0.360004  0.454263  1
  O  O25  1  0.854694  0.641272  0.045993  1
  O  O26  1  0.145549  0.640958  0.546132  1
  O  O27  1  0.145339  0.359003  0.953666  1
  O  O28  1  0.651400  0.507703  0.613409  1
  O  O29  1  0.651875  0.492755  0.887147  1
  O  O30  1  0.350046  0.493718  0.387021  1
  O  O31  1  0.348088  0.507455  0.112820  1
  O  O32  1  0.465486  0.155056  0.570338  1
  O  O33  1  0.463583  0.843417  0.931363  1
  O  O34  1  0.535611  0.844205  0.431289  1
  O  O35  1  0.536258  0.156249  0.068009  1
