# generated using pymatgen
data_Nb8PtS20
_symmetry_space_group_name_H-M   'P 1'
_cell_length_a   10.20124911
_cell_length_b   10.20124934
_cell_length_c   18.90546996
_cell_angle_alpha   75.34568899
_cell_angle_beta   75.34568818
_cell_angle_gamma   19.04439811
_symmetry_Int_Tables_number   1
_chemical_formula_structural   Nb8PtS20
_chemical_formula_sum   'Nb8 Pt1 S20'
_cell_volume   620.48526236
_cell_formula_units_Z   1
loop_
 _symmetry_equiv_pos_site_id
 _symmetry_equiv_pos_as_xyz
  1  'x, y, z'
loop_
 _atom_site_type_symbol
 _atom_site_label
 _atom_site_symmetry_multiplicity
 _atom_site_fract_x
 _atom_site_fract_y
 _atom_site_fract_z
 _atom_site_occupancy
  Nb  Nb0  1  0.078881  0.078881  0.093525  1
  Nb  Nb1  1  0.921119  0.921119  0.906475  1
  Nb  Nb2  1  0.330586  0.330586  0.809423  1
  Nb  Nb3  1  0.669414  0.669414  0.190577  1
  Nb  Nb4  1  0.268354  0.268354  0.280386  1
  Nb  Nb5  1  0.731646  0.731646  0.719614  1
  Nb  Nb6  1  0.158705  0.158705  0.555935  1
  Nb  Nb7  1  0.841295  0.841295  0.444065  1
  Pt  Pt8  1  0.500000  0.500000  0.000000  1
  S  S9  1  0.437279  0.437279  0.398107  1
  S  S10  1  0.562721  0.562721  0.601893  1
  S  S11  1  0.400081  0.400081  0.509564  1
  S  S12  1  0.599919  0.599919  0.490436  1
  S  S13  1  0.148541  0.148541  0.693782  1
  S  S14  1  0.851459  0.851459  0.306218  1
  S  S15  1  0.382579  0.382579  0.004410  1
  S  S16  1  0.617421  0.617421  0.995590  1
  S  S17  1  0.204144  0.204144  0.820530  1
  S  S18  1  0.795856  0.795856  0.179470  1
  S  S19  1  0.253190  0.253190  0.429317  1
  S  S20  1  0.746810  0.746810  0.570683  1
  S  S21  1  0.326801  0.326801  0.678401  1
  S  S22  1  0.673199  0.673199  0.321599  1
  S  S23  1  0.485801  0.485801  0.127759  1
  S  S24  1  0.514199  0.514199  0.872241  1
  S  S25  1  0.202723  0.202723  0.091875  1
  S  S26  1  0.797277  0.797277  0.908125  1
  S  S27  1  0.075961  0.075961  0.226886  1
  S  S28  1  0.924039  0.924039  0.773114  1
