# generated using pymatgen
data_BaLiPrS3
_symmetry_space_group_name_H-M   'P 1'
_cell_length_a   7.15526967
_cell_length_b   7.15526902
_cell_length_c   10.78032400
_cell_angle_alpha   90.00000000
_cell_angle_beta   90.00000000
_cell_angle_gamma   145.74888767
_symmetry_Int_Tables_number   1
_chemical_formula_structural   BaLiPrS3
_chemical_formula_sum   'Ba2 Li2 Pr2 S6'
_cell_volume   310.63762767
_cell_formula_units_Z   2
loop_
 _symmetry_equiv_pos_site_id
 _symmetry_equiv_pos_as_xyz
  1  'x, y, z'
loop_
 _atom_site_type_symbol
 _atom_site_label
 _atom_site_symmetry_multiplicity
 _atom_site_fract_x
 _atom_site_fract_y
 _atom_site_fract_z
 _atom_site_occupancy
  Ba  Ba0  1  0.252637  0.747365  0.250000  1
  Ba  Ba1  1  0.747365  0.252637  0.750000  1
  Li  Li2  1  0.527003  0.472999  0.250000  1
  Li  Li3  1  0.472999  0.527003  0.750000  1
  Pr  Pr4  1  0.000000  0.000000  0.000000  1
  Pr  Pr5  1  0.000000  0.000000  0.500000  1
  S  S6  1  0.631847  0.368155  0.070875  1
  S  S7  1  0.929646  0.070356  0.250000  1
  S  S8  1  0.631847  0.368155  0.429125  1
  S  S9  1  0.368155  0.631847  0.570875  1
  S  S10  1  0.070356  0.929646  0.750000  1
  S  S11  1  0.368155  0.631847  0.929125  1
