# generated using pymatgen
data_Yb2ErRu4PbO14
_symmetry_space_group_name_H-M   'P 1'
_cell_length_a   7.21482770
_cell_length_b   7.27177268
_cell_length_c   7.27177197
_cell_angle_alpha   59.92994817
_cell_angle_beta   59.64077511
_cell_angle_gamma   59.64078621
_symmetry_Int_Tables_number   1
_chemical_formula_structural   Yb2ErRu4PbO14
_chemical_formula_sum   'Yb2 Er1 Ru4 Pb1 O14'
_cell_volume   268.15387878
_cell_formula_units_Z   1
loop_
 _symmetry_equiv_pos_site_id
 _symmetry_equiv_pos_as_xyz
  1  'x, y, z'
loop_
 _atom_site_type_symbol
 _atom_site_label
 _atom_site_symmetry_multiplicity
 _atom_site_fract_x
 _atom_site_fract_y
 _atom_site_fract_z
 _atom_site_occupancy
  Yb  Yb0  1  0.125000  0.125000  0.625000  1
  Yb  Yb1  1  0.125000  0.625000  0.125000  1
  Er  Er2  1  0.125000  0.125000  0.125000  1
  Ru  Ru3  1  0.625000  0.625000  0.625000  1
  Ru  Ru4  1  0.125000  0.625000  0.625000  1
  Ru  Ru5  1  0.625000  0.625000  0.125000  1
  Ru  Ru6  1  0.625000  0.125000  0.625000  1
  Pb  Pb7  1  0.625000  0.125000  0.125000  1
  O  O8  1  0.010056  0.001175  0.001175  1
  O  O9  1  0.239944  0.248825  0.248825  1
  O  O10  1  0.298327  0.296668  0.704922  1
  O  O11  1  0.553122  0.547214  0.950359  1
  O  O12  1  0.696878  0.299641  0.702786  1
  O  O13  1  0.706734  0.294748  0.294748  1
  O  O14  1  0.300875  0.698559  0.698559  1
  O  O15  1  0.298327  0.704922  0.296668  1
  O  O16  1  0.696878  0.702786  0.299641  1
  O  O17  1  0.949125  0.551441  0.551441  1
  O  O18  1  0.543266  0.955252  0.955252  1
  O  O19  1  0.951673  0.953332  0.545078  1
  O  O20  1  0.951673  0.545078  0.953332  1
  O  O21  1  0.553122  0.950359  0.547214  1
