# generated using pymatgen
data_Tb6Al24Os7Au
_symmetry_space_group_name_H-M   'P 1'
_cell_length_a   8.87970174
_cell_length_b   8.87970280
_cell_length_c   9.57140344
_cell_angle_alpha   89.77583784
_cell_angle_beta   90.22416480
_cell_angle_gamma   119.95266670
_symmetry_Int_Tables_number   1
_chemical_formula_structural   Tb6Al24Os7Au
_chemical_formula_sum   'Tb6 Al24 Os7 Au1'
_cell_volume   653.89132161
_cell_formula_units_Z   1
loop_
 _symmetry_equiv_pos_site_id
 _symmetry_equiv_pos_as_xyz
  1  'x, y, z'
loop_
 _atom_site_type_symbol
 _atom_site_label
 _atom_site_symmetry_multiplicity
 _atom_site_fract_x
 _atom_site_fract_y
 _atom_site_fract_z
 _atom_site_occupancy
  Tb  Tb0  1  0.190082  0.385908  0.251093  1
  Tb  Tb1  1  0.809918  0.614092  0.748907  1
  Tb  Tb2  1  0.614092  0.809918  0.251093  1
  Tb  Tb3  1  0.385908  0.190082  0.748907  1
  Tb  Tb4  1  0.193986  0.806014  0.253706  1
  Tb  Tb5  1  0.806014  0.193986  0.746294  1
  Al  Al6  1  0.328616  0.671384  0.019483  1
  Al  Al7  1  0.671384  0.328616  0.980517  1
  Al  Al8  1  0.666346  0.333654  0.516837  1
  Al  Al9  1  0.333654  0.666346  0.483163  1
  Al  Al10  1  0.162345  0.325711  0.575265  1
  Al  Al11  1  0.837655  0.674289  0.424735  1
  Al  Al12  1  0.674289  0.837655  0.575265  1
  Al  Al13  1  0.848709  0.677778  0.079067  1
  Al  Al14  1  0.325711  0.162345  0.424735  1
  Al  Al15  1  0.151291  0.322222  0.920933  1
  Al  Al16  1  0.163209  0.836791  0.574740  1
  Al  Al17  1  0.322222  0.151291  0.079067  1
  Al  Al18  1  0.836791  0.163209  0.425260  1
  Al  Al19  1  0.677778  0.848709  0.920933  1
  Al  Al20  1  0.836900  0.163100  0.075593  1
  Al  Al21  1  0.163100  0.836900  0.924407  1
  Al  Al22  1  0.560893  0.121506  0.249340  1
  Al  Al23  1  0.439107  0.878494  0.750660  1
  Al  Al24  1  0.878494  0.439107  0.249340  1
  Al  Al25  1  0.121506  0.560893  0.750660  1
  Al  Al26  1  0.563775  0.436225  0.255786  1
  Al  Al27  1  0.436225  0.563775  0.744214  1
  Al  Al28  1  0.999373  0.000627  0.250396  1
  Al  Al29  1  0.000627  0.999373  0.749604  1
  Os  Os30  1  0.500000  0.000000  0.000000  1
  Os  Os31  1  0.000000  0.500000  0.000000  1
  Os  Os32  1  0.500000  0.000000  0.500000  1
  Os  Os33  1  0.000000  0.500000  0.500000  1
  Os  Os34  1  0.500000  0.500000  0.500000  1
  Os  Os35  1  0.000000  0.000000  0.000000  1
  Os  Os36  1  0.000000  0.000000  0.500000  1
  Au  Au37  1  0.500000  0.500000  0.000000  1
