# generated using pymatgen
data_Tb4SiI6
_symmetry_space_group_name_H-M   'P 1'
_cell_length_a   4.22522300
_cell_length_b   14.07133100
_cell_length_c   14.83448300
_cell_angle_alpha   90.00000000
_cell_angle_beta   90.00000000
_cell_angle_gamma   90.00000000
_symmetry_Int_Tables_number   1
_chemical_formula_structural   Tb4SiI6
_chemical_formula_sum   'Tb8 Si2 I12'
_cell_volume   881.97693837
_cell_formula_units_Z   2
loop_
 _symmetry_equiv_pos_site_id
 _symmetry_equiv_pos_as_xyz
  1  'x, y, z'
loop_
 _atom_site_type_symbol
 _atom_site_label
 _atom_site_symmetry_multiplicity
 _atom_site_fract_x
 _atom_site_fract_y
 _atom_site_fract_z
 _atom_site_occupancy
  Tb  Tb0  1  0.500000  0.114016  0.347536  1
  Tb  Tb1  1  0.500000  0.885984  0.652464  1
  Tb  Tb2  1  0.500000  0.614016  0.152464  1
  Tb  Tb3  1  0.500000  0.385984  0.847536  1
  Tb  Tb4  1  0.000000  0.111634  0.574583  1
  Tb  Tb5  1  0.000000  0.888366  0.425417  1
  Tb  Tb6  1  0.000000  0.611634  0.925417  1
  Tb  Tb7  1  0.000000  0.388366  0.074583  1
  Si  Si8  1  0.500000  0.000000  0.500000  1
  Si  Si9  1  0.500000  0.500000  0.000000  1
  I  I10  1  0.500000  0.244814  0.161339  1
  I  I11  1  0.500000  0.755186  0.838661  1
  I  I12  1  0.500000  0.744814  0.338661  1
  I  I13  1  0.500000  0.255186  0.661339  1
  I  I14  1  0.000000  0.258518  0.413759  1
  I  I15  1  0.000000  0.741482  0.586241  1
  I  I16  1  0.000000  0.758518  0.086241  1
  I  I17  1  0.000000  0.241482  0.913759  1
  I  I18  1  0.000000  0.999164  0.240550  1
  I  I19  1  0.000000  0.000836  0.759450  1
  I  I20  1  0.000000  0.499164  0.259450  1
  I  I21  1  0.000000  0.500836  0.740550  1
