# generated using pymatgen
data_Gd3MnVC6
_symmetry_space_group_name_H-M   'P 1'
_cell_length_a   8.21850000
_cell_length_b   8.21849932
_cell_length_c   5.02665700
_cell_angle_alpha   90.00000000
_cell_angle_beta   90.00000000
_cell_angle_gamma   120.00000272
_symmetry_Int_Tables_number   1
_chemical_formula_structural   Gd3MnVC6
_chemical_formula_sum   'Gd6 Mn2 V2 C12'
_cell_volume   294.03224147
_cell_formula_units_Z   2
loop_
 _symmetry_equiv_pos_site_id
 _symmetry_equiv_pos_as_xyz
  1  'x, y, z'
loop_
 _atom_site_type_symbol
 _atom_site_label
 _atom_site_symmetry_multiplicity
 _atom_site_fract_x
 _atom_site_fract_y
 _atom_site_fract_z
 _atom_site_occupancy
  Gd  Gd0  1  0.619957  0.682695  0.750000  1
  Gd  Gd1  1  0.937262  0.619957  0.250000  1
  Gd  Gd2  1  0.682695  0.062738  0.250000  1
  Gd  Gd3  1  0.317305  0.937262  0.750000  1
  Gd  Gd4  1  0.062738  0.380043  0.750000  1
  Gd  Gd5  1  0.380043  0.317305  0.250000  1
  Mn  Mn6  1  0.666667  0.333333  0.750000  1
  Mn  Mn7  1  0.333333  0.666667  0.250000  1
  V  V8  1  0.000000  0.000000  0.500000  1
  V  V9  1  0.000000  0.000000  0.000000  1
  C  C10  1  0.960327  0.765922  0.750000  1
  C  C11  1  0.194406  0.960327  0.250000  1
  C  C12  1  0.765922  0.805594  0.250000  1
  C  C13  1  0.234078  0.194406  0.750000  1
  C  C14  1  0.805594  0.039673  0.750000  1
  C  C15  1  0.039673  0.234078  0.250000  1
  C  C16  1  0.861607  0.573166  0.750000  1
  C  C17  1  0.288442  0.861607  0.250000  1
  C  C18  1  0.573166  0.711558  0.250000  1
  C  C19  1  0.426834  0.288442  0.750000  1
  C  C20  1  0.138393  0.426834  0.250000  1
  C  C21  1  0.711558  0.138393  0.750000  1
