# generated using pymatgen
data_CeCo4P3Ru
_symmetry_space_group_name_H-M   'P 1'
_cell_length_a   3.71723600
_cell_length_b   10.50797200
_cell_length_c   11.85434200
_cell_angle_alpha   90.00000000
_cell_angle_beta   90.00000000
_cell_angle_gamma   90.00000000
_symmetry_Int_Tables_number   1
_chemical_formula_structural   CeCo4P3Ru
_chemical_formula_sum   'Ce4 Co16 P12 Ru4'
_cell_volume   463.03785107
_cell_formula_units_Z   4
loop_
 _symmetry_equiv_pos_site_id
 _symmetry_equiv_pos_as_xyz
  1  'x, y, z'
loop_
 _atom_site_type_symbol
 _atom_site_label
 _atom_site_symmetry_multiplicity
 _atom_site_fract_x
 _atom_site_fract_y
 _atom_site_fract_z
 _atom_site_occupancy
  Ce  Ce0  1  0.250000  0.586574  0.704030  1
  Ce  Ce1  1  0.250000  0.913426  0.204030  1
  Ce  Ce2  1  0.750000  0.413426  0.295970  1
  Ce  Ce3  1  0.750000  0.086574  0.795970  1
  Co  Co4  1  0.250000  0.408849  0.488854  1
  Co  Co5  1  0.250000  0.091151  0.988854  1
  Co  Co6  1  0.750000  0.591151  0.511146  1
  Co  Co7  1  0.750000  0.908849  0.011146  1
  Co  Co8  1  0.250000  0.219288  0.176368  1
  Co  Co9  1  0.250000  0.280712  0.676368  1
  Co  Co10  1  0.750000  0.780712  0.823632  1
  Co  Co11  1  0.750000  0.719288  0.323632  1
  Co  Co12  1  0.250000  0.887811  0.701555  1
  Co  Co13  1  0.250000  0.612189  0.201555  1
  Co  Co14  1  0.750000  0.112189  0.298445  1
  Co  Co15  1  0.750000  0.387811  0.798445  1
  Co  Co16  1  0.250000  0.466834  0.930125  1
  Co  Co17  1  0.250000  0.033166  0.430125  1
  Co  Co18  1  0.750000  0.533166  0.069875  1
  Co  Co19  1  0.750000  0.966834  0.569875  1
  P  P20  1  0.250000  0.417764  0.110129  1
  P  P21  1  0.250000  0.082236  0.610129  1
  P  P22  1  0.750000  0.582236  0.889871  1
  P  P23  1  0.750000  0.917764  0.389871  1
  P  P24  1  0.250000  0.275783  0.867664  1
  P  P25  1  0.250000  0.224217  0.367664  1
  P  P26  1  0.750000  0.724217  0.132336  1
  P  P27  1  0.750000  0.775783  0.632336  1
  P  P28  1  0.250000  0.598995  0.391139  1
  P  P29  1  0.250000  0.901005  0.891139  1
  P  P30  1  0.750000  0.401005  0.608861  1
  P  P31  1  0.750000  0.098995  0.108861  1
  Ru  Ru32  1  0.250000  0.715905  0.992730  1
  Ru  Ru33  1  0.250000  0.784095  0.492730  1
  Ru  Ru34  1  0.750000  0.284095  0.007270  1
  Ru  Ru35  1  0.750000  0.215905  0.507270  1
