# generated using pymatgen
data_Tb8Er12Si15Au
_symmetry_space_group_name_H-M   'P 1'
_cell_length_a   7.39380275
_cell_length_b   7.67348169
_cell_length_c   14.61062469
_cell_angle_alpha   89.83076863
_cell_angle_beta   89.53636239
_cell_angle_gamma   90.16154158
_symmetry_Int_Tables_number   1
_chemical_formula_structural   Tb8Er12Si15Au
_chemical_formula_sum   'Tb8 Er12 Si15 Au1'
_cell_volume   828.91736378
_cell_formula_units_Z   1
loop_
 _symmetry_equiv_pos_site_id
 _symmetry_equiv_pos_as_xyz
  1  'x, y, z'
loop_
 _atom_site_type_symbol
 _atom_site_label
 _atom_site_symmetry_multiplicity
 _atom_site_fract_x
 _atom_site_fract_y
 _atom_site_fract_z
 _atom_site_occupancy
  Tb  Tb0  1  0.019006  0.180244  0.098774  1
  Tb  Tb1  1  0.981301  0.821010  0.903121  1
  Tb  Tb2  1  0.481256  0.680487  0.903139  1
  Tb  Tb3  1  0.983493  0.825668  0.598717  1
  Tb  Tb4  1  0.517275  0.319140  0.097256  1
  Tb  Tb5  1  0.014742  0.176805  0.398932  1
  Tb  Tb6  1  0.515157  0.318972  0.399598  1
  Tb  Tb7  1  0.486467  0.681414  0.599684  1
  Er  Er8  1  0.163118  0.510430  0.749797  1
  Er  Er9  1  0.838382  0.490851  0.251278  1
  Er  Er10  1  0.338202  0.007067  0.249684  1
  Er  Er11  1  0.663594  0.989019  0.750153  1
  Er  Er12  1  0.334906  0.177396  0.623006  1
  Er  Er13  1  0.667338  0.822296  0.375947  1
  Er  Er14  1  0.171043  0.672717  0.375884  1
  Er  Er15  1  0.672834  0.822436  0.123403  1
  Er  Er16  1  0.829080  0.325296  0.622860  1
  Er  Er17  1  0.327521  0.178787  0.877627  1
  Er  Er18  1  0.827468  0.320128  0.878115  1
  Er  Er19  1  0.171472  0.678628  0.123192  1
  Si  Si20  1  0.035850  0.111069  0.751480  1
  Si  Si21  1  0.966183  0.891756  0.249730  1
  Si  Si22  1  0.466405  0.606550  0.248090  1
  Si  Si23  1  0.536076  0.393121  0.752105  1
  Si  Si24  1  0.278802  0.875901  0.751256  1
  Si  Si25  1  0.719654  0.127407  0.248485  1
  Si  Si26  1  0.221332  0.370112  0.247650  1
  Si  Si27  1  0.780234  0.626529  0.753381  1
  Si  Si28  1  0.835203  0.532013  0.458871  1
  Si  Si29  1  0.339658  0.967209  0.459908  1
  Si  Si30  1  0.845196  0.532251  0.038612  1
  Si  Si31  1  0.658572  0.033329  0.537898  1
  Si  Si32  1  0.153032  0.468057  0.962067  1
  Si  Si33  1  0.653903  0.030238  0.960837  1
  Si  Si34  1  0.345640  0.968384  0.039314  1
  Au  Au35  1  0.160603  0.467284  0.540147  1
