# generated using pymatgen
data_Li4Yb3PrSi8
_symmetry_space_group_name_H-M   'P 1'
_cell_length_a   3.82135200
_cell_length_b   7.85488705
_cell_length_c   10.58464700
_cell_angle_alpha   89.88190621
_cell_angle_beta   90.00000000
_cell_angle_gamma   90.00000000
_symmetry_Int_Tables_number   1
_chemical_formula_structural   Li4Yb3PrSi8
_chemical_formula_sum   'Li4 Yb3 Pr1 Si8'
_cell_volume   317.71114169
_cell_formula_units_Z   1
loop_
 _symmetry_equiv_pos_site_id
 _symmetry_equiv_pos_as_xyz
  1  'x, y, z'
loop_
 _atom_site_type_symbol
 _atom_site_label
 _atom_site_symmetry_multiplicity
 _atom_site_fract_x
 _atom_site_fract_y
 _atom_site_fract_z
 _atom_site_occupancy
  Li  Li0  1  0.250000  0.998031  0.388471  1
  Li  Li1  1  0.750000  0.000686  0.610039  1
  Li  Li2  1  0.250000  0.498473  0.111581  1
  Li  Li3  1  0.750000  0.504088  0.888336  1
  Yb  Yb4  1  0.750000  0.865587  0.135218  1
  Yb  Yb5  1  0.250000  0.635302  0.635600  1
  Yb  Yb6  1  0.750000  0.365768  0.365093  1
  Pr  Pr7  1  0.250000  0.132300  0.865379  1
  Si  Si8  1  0.750000  0.270377  0.069118  1
  Si  Si9  1  0.250000  0.732857  0.933119  1
  Si  Si10  1  0.750000  0.767152  0.432322  1
  Si  Si11  1  0.250000  0.230801  0.567495  1
  Si  Si12  1  0.750000  0.832457  0.823195  1
  Si  Si13  1  0.250000  0.165134  0.175256  1
  Si  Si14  1  0.750000  0.335512  0.674694  1
  Si  Si15  1  0.250000  0.665473  0.325085  1
