# generated using pymatgen
data_VSb12IrPt2
_symmetry_space_group_name_H-M   'P 1'
_cell_length_a   8.16829391
_cell_length_b   8.25530694
_cell_length_c   8.24417270
_cell_angle_alpha   109.70747790
_cell_angle_beta   109.37871955
_cell_angle_gamma   109.25167239
_symmetry_Int_Tables_number   1
_chemical_formula_structural   VSb12IrPt2
_chemical_formula_sum   'V1 Sb12 Ir1 Pt2'
_cell_volume   428.34119118
_cell_formula_units_Z   1
loop_
 _symmetry_equiv_pos_site_id
 _symmetry_equiv_pos_as_xyz
  1  'x, y, z'
loop_
 _atom_site_type_symbol
 _atom_site_label
 _atom_site_symmetry_multiplicity
 _atom_site_fract_x
 _atom_site_fract_y
 _atom_site_fract_z
 _atom_site_occupancy
  V  V0  1  0.500000  0.000000  0.000000  1
  Sb  Sb1  1  0.849641  0.655322  0.502981  1
  Sb  Sb2  1  0.845834  0.339302  0.181657  1
  Sb  Sb3  1  0.154166  0.660698  0.818343  1
  Sb  Sb4  1  0.339893  0.494414  0.150297  1
  Sb  Sb5  1  0.150359  0.344678  0.497019  1
  Sb  Sb6  1  0.656555  0.812323  0.152586  1
  Sb  Sb7  1  0.189178  0.843466  0.337739  1
  Sb  Sb8  1  0.660107  0.505586  0.849703  1
  Sb  Sb9  1  0.810822  0.156534  0.662261  1
  Sb  Sb10  1  0.343445  0.187677  0.847414  1
  Sb  Sb11  1  0.503688  0.846878  0.659034  1
  Sb  Sb12  1  0.496312  0.153122  0.340966  1
  Ir  Ir13  1  0.000000  0.500000  0.000000  1
  Pt  Pt14  1  0.000000  0.000000  0.500000  1
  Pt  Pt15  1  0.500000  0.500000  0.500000  1
