# generated using pymatgen
data_Mn28Tc
_symmetry_space_group_name_H-M   'P 1'
_cell_length_a   7.49196668
_cell_length_b   7.49196648
_cell_length_c   7.49196700
_cell_angle_alpha   109.47121935
_cell_angle_beta   109.47121881
_cell_angle_gamma   109.47122300
_symmetry_Int_Tables_number   1
_chemical_formula_structural   Mn28Tc
_chemical_formula_sum   'Mn28 Tc1'
_cell_volume   323.71709271
_cell_formula_units_Z   1
loop_
 _symmetry_equiv_pos_site_id
 _symmetry_equiv_pos_as_xyz
  1  'x, y, z'
loop_
 _atom_site_type_symbol
 _atom_site_label
 _atom_site_symmetry_multiplicity
 _atom_site_fract_x
 _atom_site_fract_y
 _atom_site_fract_z
 _atom_site_occupancy
  Mn  Mn0  1  0.636301  0.000000  0.000000  1
  Mn  Mn1  1  0.000000  0.636301  0.000000  1
  Mn  Mn2  1  0.000000  0.000000  0.636301  1
  Mn  Mn3  1  0.363699  0.363699  0.363699  1
  Mn  Mn4  1  0.391520  0.679587  0.000000  1
  Mn  Mn5  1  0.711933  0.320413  0.320413  1
  Mn  Mn6  1  0.391520  0.000000  0.679587  1
  Mn  Mn7  1  0.679587  0.391520  0.000000  1
  Mn  Mn8  1  0.000000  0.391520  0.679587  1
  Mn  Mn9  1  0.320413  0.711933  0.320413  1
  Mn  Mn10  1  0.320413  0.320413  0.711933  1
  Mn  Mn11  1  0.000000  0.679587  0.391520  1
  Mn  Mn12  1  0.679587  0.000000  0.391520  1
  Mn  Mn13  1  0.608480  0.608480  0.288067  1
  Mn  Mn14  1  0.288067  0.608480  0.608480  1
  Mn  Mn15  1  0.608480  0.288067  0.608480  1
  Mn  Mn16  1  0.374366  0.194638  0.000000  1
  Mn  Mn17  1  0.179729  0.805362  0.805362  1
  Mn  Mn18  1  0.374366  0.000000  0.194638  1
  Mn  Mn19  1  0.194638  0.374366  0.000000  1
  Mn  Mn20  1  0.000000  0.374366  0.194638  1
  Mn  Mn21  1  0.805362  0.179729  0.805362  1
  Mn  Mn22  1  0.805362  0.805362  0.179729  1
  Mn  Mn23  1  0.000000  0.194638  0.374366  1
  Mn  Mn24  1  0.194638  0.000000  0.374366  1
  Mn  Mn25  1  0.625634  0.625634  0.820271  1
  Mn  Mn26  1  0.820271  0.625634  0.625634  1
  Mn  Mn27  1  0.625634  0.820271  0.625634  1
  Tc  Tc28  1  0.000000  0.000000  0.000000  1
