# generated using pymatgen
data_HoLu5(AlAu)6
_symmetry_space_group_name_H-M   'P 1'
_cell_length_a   7.30699900
_cell_length_b   7.30690965
_cell_length_c   7.89160200
_cell_angle_alpha   90.00000000
_cell_angle_beta   90.00000000
_cell_angle_gamma   120.05392596
_symmetry_Int_Tables_number   1
_chemical_formula_structural   HoLu5(AlAu)6
_chemical_formula_sum   'Ho1 Lu5 Al6 Au6'
_cell_volume   364.69712674
_cell_formula_units_Z   1
loop_
 _symmetry_equiv_pos_site_id
 _symmetry_equiv_pos_as_xyz
  1  'x, y, z'
loop_
 _atom_site_type_symbol
 _atom_site_label
 _atom_site_symmetry_multiplicity
 _atom_site_fract_x
 _atom_site_fract_y
 _atom_site_fract_z
 _atom_site_occupancy
  Ho  Ho0  1  0.412428  0.414237  0.750000  1
  Lu  Lu1  1  0.586944  0.998673  0.750000  1
  Lu  Lu2  1  0.001931  0.588490  0.750000  1
  Lu  Lu3  1  0.998328  0.587059  0.250000  1
  Lu  Lu4  1  0.588919  0.001925  0.250000  1
  Lu  Lu5  1  0.412940  0.411182  0.250000  1
  Al  Al6  1  0.751251  0.751349  0.000995  1
  Al  Al7  1  0.248696  0.000008  0.000168  1
  Al  Al8  1  0.999972  0.248516  0.000201  1
  Al  Al9  1  0.751251  0.751349  0.499005  1
  Al  Al10  1  0.248696  0.000008  0.499832  1
  Al  Al11  1  0.999972  0.248516  0.499799  1
  Au  Au12  1  0.996169  0.996283  0.750000  1
  Au  Au13  1  0.999687  0.999822  0.250000  1
  Au  Au14  1  0.669049  0.332292  0.001243  1
  Au  Au15  1  0.669049  0.332292  0.498757  1
  Au  Au16  1  0.332358  0.668999  0.494820  1
  Au  Au17  1  0.332358  0.668999  0.005180  1
