# generated using pymatgen
data_Th5CoBi3
_symmetry_space_group_name_H-M   'P 1'
_cell_length_a   6.55621800
_cell_length_b   9.64897935
_cell_length_c   9.64985000
_cell_angle_alpha   119.99702793
_cell_angle_beta   90.00000000
_cell_angle_gamma   90.00000594
_symmetry_Int_Tables_number   1
_chemical_formula_structural   Th5CoBi3
_chemical_formula_sum   'Th10 Co2 Bi6'
_cell_volume   528.68740326
_cell_formula_units_Z   2
loop_
 _symmetry_equiv_pos_site_id
 _symmetry_equiv_pos_as_xyz
  1  'x, y, z'
loop_
 _atom_site_type_symbol
 _atom_site_label
 _atom_site_symmetry_multiplicity
 _atom_site_fract_x
 _atom_site_fract_y
 _atom_site_fract_z
 _atom_site_occupancy
  Th  Th0  1  0.499997  0.333350  0.666696  1
  Th  Th1  1  0.499997  0.666656  0.333304  1
  Th  Th2  1  0.999998  0.666649  0.333303  1
  Th  Th3  1  0.999998  0.333345  0.666697  1
  Th  Th4  1  0.749954  0.236016  0.000000  1
  Th  Th5  1  0.750011  0.763842  0.763861  1
  Th  Th6  1  0.750011  0.999981  0.236139  1
  Th  Th7  1  0.249957  0.763984  0.000000  1
  Th  Th8  1  0.250014  0.236158  0.236139  1
  Th  Th9  1  0.250014  0.000019  0.763861  1
  Co  Co10  1  0.500005  0.999997  0.000000  1
  Co  Co11  1  0.000006  0.000003  0.000000  1
  Bi  Bi12  1  0.749988  0.605485  0.000000  1
  Bi  Bi13  1  0.750012  0.394478  0.394497  1
  Bi  Bi14  1  0.750012  0.999982  0.605503  1
  Bi  Bi15  1  0.249994  0.394515  0.000000  1
  Bi  Bi16  1  0.250016  0.605522  0.605504  1
  Bi  Bi17  1  0.250016  0.000018  0.394496  1
