# generated using pymatgen
data_Er3P6Ir8Pd
_symmetry_space_group_name_H-M   'P 1'
_cell_length_a   3.97600500
_cell_length_b   11.25937900
_cell_length_c   12.77546200
_cell_angle_alpha   90.00000000
_cell_angle_beta   90.00000000
_cell_angle_gamma   90.00000000
_symmetry_Int_Tables_number   1
_chemical_formula_structural   Er3P6Ir8Pd
_chemical_formula_sum   'Er6 P12 Ir16 Pd2'
_cell_volume   571.92354301
_cell_formula_units_Z   2
loop_
 _symmetry_equiv_pos_site_id
 _symmetry_equiv_pos_as_xyz
  1  'x, y, z'
loop_
 _atom_site_type_symbol
 _atom_site_label
 _atom_site_symmetry_multiplicity
 _atom_site_fract_x
 _atom_site_fract_y
 _atom_site_fract_z
 _atom_site_occupancy
  Er  Er0  1  0.750000  0.250000  0.478817  1
  Er  Er1  1  0.250000  0.750000  0.521183  1
  Er  Er2  1  0.250000  0.932959  0.794788  1
  Er  Er3  1  0.250000  0.567041  0.794788  1
  Er  Er4  1  0.750000  0.067041  0.205212  1
  Er  Er5  1  0.750000  0.432959  0.205212  1
  P  P6  1  0.250000  0.250000  0.124455  1
  P  P7  1  0.750000  0.750000  0.875545  1
  P  P8  1  0.250000  0.250000  0.641268  1
  P  P9  1  0.750000  0.750000  0.358732  1
  P  P10  1  0.250000  0.434063  0.382265  1
  P  P11  1  0.250000  0.065937  0.382265  1
  P  P12  1  0.750000  0.565937  0.617735  1
  P  P13  1  0.750000  0.934063  0.617735  1
  P  P14  1  0.250000  0.908593  0.106022  1
  P  P15  1  0.250000  0.591407  0.106022  1
  P  P16  1  0.750000  0.091407  0.893978  1
  P  P17  1  0.750000  0.408593  0.893978  1
  Ir  Ir18  1  0.250000  0.250000  0.301311  1
  Ir  Ir19  1  0.750000  0.750000  0.698689  1
  Ir  Ir20  1  0.750000  0.250000  0.028219  1
  Ir  Ir21  1  0.250000  0.750000  0.971781  1
  Ir  Ir22  1  0.250000  0.414415  0.000195  1
  Ir  Ir23  1  0.250000  0.085585  0.000195  1
  Ir  Ir24  1  0.750000  0.585585  0.999805  1
  Ir  Ir25  1  0.750000  0.914415  0.999805  1
  Ir  Ir26  1  0.250000  0.454378  0.568681  1
  Ir  Ir27  1  0.250000  0.045622  0.568681  1
  Ir  Ir28  1  0.750000  0.545622  0.431319  1
  Ir  Ir29  1  0.750000  0.954378  0.431319  1
  Ir  Ir30  1  0.250000  0.883077  0.287229  1
  Ir  Ir31  1  0.250000  0.616923  0.287229  1
  Ir  Ir32  1  0.750000  0.116923  0.712771  1
  Ir  Ir33  1  0.750000  0.383077  0.712771  1
  Pd  Pd34  1  0.250000  0.250000  0.823393  1
  Pd  Pd35  1  0.750000  0.750000  0.176607  1
