# generated using pymatgen
data_Gd8(SeS3)3
_symmetry_space_group_name_H-M   'P 1'
_cell_length_a   3.96679200
_cell_length_b   7.44249003
_cell_length_c   15.44434500
_cell_angle_alpha   90.07295071
_cell_angle_beta   90.00000000
_cell_angle_gamma   90.00000000
_symmetry_Int_Tables_number   1
_chemical_formula_structural   Gd8(SeS3)3
_chemical_formula_sum   'Gd8 Se3 S9'
_cell_volume   455.96009221
_cell_formula_units_Z   1
loop_
 _symmetry_equiv_pos_site_id
 _symmetry_equiv_pos_as_xyz
  1  'x, y, z'
loop_
 _atom_site_type_symbol
 _atom_site_label
 _atom_site_symmetry_multiplicity
 _atom_site_fract_x
 _atom_site_fract_y
 _atom_site_fract_z
 _atom_site_occupancy
  Gd  Gd0  1  0.750000  0.247881  0.541936  1
  Gd  Gd1  1  0.250000  0.751017  0.456752  1
  Gd  Gd2  1  0.750000  0.746089  0.959413  1
  Gd  Gd3  1  0.250000  0.263353  0.045322  1
  Gd  Gd4  1  0.250000  0.141983  0.796327  1
  Gd  Gd5  1  0.750000  0.854036  0.203888  1
  Gd  Gd6  1  0.250000  0.642034  0.706253  1
  Gd  Gd7  1  0.750000  0.358969  0.290673  1
  Se  Se8  1  0.250000  0.007491  0.609631  1
  Se  Se9  1  0.750000  0.991263  0.388962  1
  Se  Se10  1  0.250000  0.507868  0.891642  1
  S  S11  1  0.750000  0.488482  0.108275  1
  S  S12  1  0.750000  0.352503  0.718687  1
  S  S13  1  0.250000  0.646776  0.279770  1
  S  S14  1  0.750000  0.852114  0.783817  1
  S  S15  1  0.250000  0.147479  0.217632  1
  S  S16  1  0.250000  0.374246  0.430081  1
  S  S17  1  0.750000  0.625492  0.568177  1
  S  S18  1  0.250000  0.874675  0.068529  1
  S  S19  1  0.750000  0.126248  0.934233  1
