# generated using pymatgen
data_RbV(CuTe2)2
_symmetry_space_group_name_H-M   'P 1'
_cell_length_a   5.96727947
_cell_length_b   8.20083100
_cell_length_c   10.62248459
_cell_angle_alpha   90.00000000
_cell_angle_beta   106.31269981
_cell_angle_gamma   90.00000000
_symmetry_Int_Tables_number   1
_chemical_formula_structural   RbV(CuTe2)2
_chemical_formula_sum   'Rb2 V2 Cu4 Te8'
_cell_volume   498.90209667
_cell_formula_units_Z   2
loop_
 _symmetry_equiv_pos_site_id
 _symmetry_equiv_pos_as_xyz
  1  'x, y, z'
loop_
 _atom_site_type_symbol
 _atom_site_label
 _atom_site_symmetry_multiplicity
 _atom_site_fract_x
 _atom_site_fract_y
 _atom_site_fract_z
 _atom_site_occupancy
  Rb  Rb0  1  0.822490  0.750000  0.126473  1
  Rb  Rb1  1  0.196017  0.250000  0.873527  1
  V  V2  1  0.354405  0.750000  0.707596  1
  V  V3  1  0.146809  0.250000  0.292404  1
  Cu  Cu4  1  0.261473  0.500000  0.500000  1
  Cu  Cu5  1  0.261473  0.000000  0.500000  1
  Cu  Cu6  1  0.855058  0.750000  0.711143  1
  Cu  Cu7  1  0.643913  0.250000  0.288857  1
  Te  Te8  1  0.997601  0.750000  0.502407  1
  Te  Te9  1  0.995194  0.250000  0.497593  1
  Te  Te10  1  0.219014  0.750000  0.912552  1
  Te  Te11  1  0.806462  0.250000  0.087448  1
  Te  Te12  1  0.601042  0.495103  0.714039  1
  Te  Te13  1  0.387003  0.504897  0.285961  1
  Te  Te14  1  0.601042  0.004897  0.714039  1
  Te  Te15  1  0.387003  0.995103  0.285961  1
