# generated using pymatgen
data_La4Cd3Co2
_symmetry_space_group_name_H-M   'P 1'
_cell_length_a   3.88856700
_cell_length_b   7.69976202
_cell_length_c   8.41833385
_cell_angle_alpha   70.04154017
_cell_angle_beta   90.00000000
_cell_angle_gamma   90.00000000
_symmetry_Int_Tables_number   1
_chemical_formula_structural   La4Cd3Co2
_chemical_formula_sum   'La4 Cd3 Co2'
_cell_volume   236.91541757
_cell_formula_units_Z   1
loop_
 _symmetry_equiv_pos_site_id
 _symmetry_equiv_pos_as_xyz
  1  'x, y, z'
loop_
 _atom_site_type_symbol
 _atom_site_label
 _atom_site_symmetry_multiplicity
 _atom_site_fract_x
 _atom_site_fract_y
 _atom_site_fract_z
 _atom_site_occupancy
  La  La0  1  0.500000  0.602010  0.185134  1
  La  La1  1  0.500000  0.902958  0.724683  1
  La  La2  1  0.500000  0.097042  0.275317  1
  La  La3  1  0.500000  0.397990  0.814866  1
  Cd  Cd4  1  0.000000  0.704409  0.501616  1
  Cd  Cd5  1  0.000000  0.295591  0.498384  1
  Cd  Cd6  1  0.000000  0.000000  0.000000  1
  Co  Co7  1  0.000000  0.349243  0.107360  1
  Co  Co8  1  0.000000  0.650757  0.892640  1
