# generated using pymatgen
data_AcPr(AgPb)2
_symmetry_space_group_name_H-M   'P 1'
_cell_length_a   4.97052000
_cell_length_b   4.97052036
_cell_length_c   8.07382800
_cell_angle_alpha   90.00000000
_cell_angle_beta   90.00000000
_cell_angle_gamma   119.99999764
_symmetry_Int_Tables_number   1
_chemical_formula_structural   AcPr(AgPb)2
_chemical_formula_sum   'Ac1 Pr1 Ag2 Pb2'
_cell_volume   172.74831404
_cell_formula_units_Z   1
loop_
 _symmetry_equiv_pos_site_id
 _symmetry_equiv_pos_as_xyz
  1  'x, y, z'
loop_
 _atom_site_type_symbol
 _atom_site_label
 _atom_site_symmetry_multiplicity
 _atom_site_fract_x
 _atom_site_fract_y
 _atom_site_fract_z
 _atom_site_occupancy
  Ac  Ac0  1  0.000000  0.000000  0.996046  1
  Pr  Pr1  1  0.000000  0.000000  0.495592  1
  Ag  Ag2  1  0.666667  0.333333  0.309521  1
  Ag  Ag3  1  0.333333  0.666667  0.777794  1
  Pb  Pb4  1  0.333333  0.666667  0.230292  1
  Pb  Pb5  1  0.666667  0.333333  0.705155  1
