# generated using pymatgen
data_Y6Th2MgCdCo2
_symmetry_space_group_name_H-M   'P 1'
_cell_length_a   9.63962570
_cell_length_b   9.63962501
_cell_length_c   9.64928700
_cell_angle_alpha   59.96684140
_cell_angle_beta   59.96684378
_cell_angle_gamma   60.05961590
_symmetry_Int_Tables_number   1
_chemical_formula_structural   Y6Th2MgCdCo2
_chemical_formula_sum   'Y12 Th4 Mg2 Cd2 Co4'
_cell_volume   633.98325754
_cell_formula_units_Z   2
loop_
 _symmetry_equiv_pos_site_id
 _symmetry_equiv_pos_as_xyz
  1  'x, y, z'
loop_
 _atom_site_type_symbol
 _atom_site_label
 _atom_site_symmetry_multiplicity
 _atom_site_fract_x
 _atom_site_fract_y
 _atom_site_fract_z
 _atom_site_occupancy
  Y  Y0  1  0.812479  0.186524  0.187801  1
  Y  Y1  1  0.186524  0.812479  0.813196  1
  Y  Y2  1  0.186524  0.812479  0.187801  1
  Y  Y3  1  0.812479  0.186524  0.813196  1
  Y  Y4  1  0.187809  0.187809  0.812191  1
  Y  Y5  1  0.811981  0.811981  0.188019  1
  Y  Y6  1  0.936133  0.562680  0.564287  1
  Y  Y7  1  0.562680  0.936133  0.936901  1
  Y  Y8  1  0.562680  0.936133  0.564287  1
  Y  Y9  1  0.936133  0.562680  0.936901  1
  Y  Y10  1  0.562971  0.562971  0.937029  1
  Y  Y11  1  0.935620  0.935620  0.564380  1
  Th  Th12  1  0.344193  0.344193  0.345383  1
  Th  Th13  1  0.344193  0.344193  0.966233  1
  Th  Th14  1  0.344915  0.965448  0.344819  1
  Th  Th15  1  0.965448  0.344915  0.344819  1
  Mg  Mg16  1  0.580469  0.266068  0.576731  1
  Mg  Mg17  1  0.266068  0.580469  0.576731  1
  Cd  Cd18  1  0.581468  0.581468  0.582250  1
  Cd  Cd19  1  0.581468  0.581468  0.254813  1
  Co  Co20  1  0.145483  0.145483  0.145786  1
  Co  Co21  1  0.145483  0.145483  0.563247  1
  Co  Co22  1  0.145308  0.561491  0.146600  1
  Co  Co23  1  0.561491  0.145308  0.146600  1
