# generated using pymatgen
data_Lu16In6CoPt
_symmetry_space_group_name_H-M   'P 1'
_cell_length_a   10.22538400
_cell_length_b   10.22538547
_cell_length_c   6.85441600
_cell_angle_alpha   90.00000000
_cell_angle_beta   90.00000000
_cell_angle_gamma   119.99999526
_symmetry_Int_Tables_number   1
_chemical_formula_structural   Lu16In6CoPt
_chemical_formula_sum   'Lu16 In6 Co1 Pt1'
_cell_volume   620.66953062
_cell_formula_units_Z   1
loop_
 _symmetry_equiv_pos_site_id
 _symmetry_equiv_pos_as_xyz
  1  'x, y, z'
loop_
 _atom_site_type_symbol
 _atom_site_label
 _atom_site_symmetry_multiplicity
 _atom_site_fract_x
 _atom_site_fract_y
 _atom_site_fract_z
 _atom_site_occupancy
  Lu  Lu0  1  0.000000  0.000000  0.491618  1
  Lu  Lu1  1  0.000000  0.000000  0.990239  1
  Lu  Lu2  1  0.530351  0.060702  0.508769  1
  Lu  Lu3  1  0.939298  0.469649  0.508769  1
  Lu  Lu4  1  0.530351  0.469649  0.508769  1
  Lu  Lu5  1  0.464214  0.928429  0.006033  1
  Lu  Lu6  1  0.071571  0.535786  0.006033  1
  Lu  Lu7  1  0.464214  0.535786  0.006033  1
  Lu  Lu8  1  0.178951  0.357901  0.713800  1
  Lu  Lu9  1  0.642099  0.821049  0.713800  1
  Lu  Lu10  1  0.178951  0.821049  0.713800  1
  Lu  Lu11  1  0.824019  0.648038  0.212349  1
  Lu  Lu12  1  0.351962  0.175981  0.212349  1
  Lu  Lu13  1  0.824019  0.175981  0.212349  1
  Lu  Lu14  1  0.666667  0.333333  0.884057  1
  Lu  Lu15  1  0.333333  0.666667  0.397203  1
  In  In16  1  0.837927  0.675853  0.750397  1
  In  In17  1  0.324147  0.162073  0.750397  1
  In  In18  1  0.837927  0.162073  0.750397  1
  In  In19  1  0.162977  0.325953  0.252703  1
  In  In20  1  0.674047  0.837023  0.252703  1
  In  In21  1  0.162977  0.837023  0.252703  1
  Co  Co22  1  0.333333  0.666667  0.780887  1
  Pt  Pt23  1  0.666667  0.333333  0.281877  1
