# generated using pymatgen
data_Ta9Nb6Ni8WN4
_symmetry_space_group_name_H-M   'P 1'
_cell_length_a   8.24318153
_cell_length_b   8.20314484
_cell_length_c   8.20314500
_cell_angle_alpha   59.99999532
_cell_angle_beta   60.16053222
_cell_angle_gamma   60.16053242
_symmetry_Int_Tables_number   1
_chemical_formula_structural   Ta9Nb6Ni8WN4
_chemical_formula_sum   'Ta9 Nb6 Ni8 W1 N4'
_cell_volume   393.17886066
_cell_formula_units_Z   1
loop_
 _symmetry_equiv_pos_site_id
 _symmetry_equiv_pos_as_xyz
  1  'x, y, z'
loop_
 _atom_site_type_symbol
 _atom_site_label
 _atom_site_symmetry_multiplicity
 _atom_site_fract_x
 _atom_site_fract_y
 _atom_site_fract_z
 _atom_site_occupancy
  Ta  Ta0  1  0.624980  0.125194  0.624913  1
  Ta  Ta1  1  0.624980  0.624913  0.125194  1
  Ta  Ta2  1  0.624980  0.624913  0.624913  1
  Ta  Ta3  1  0.433480  0.433535  0.066493  1
  Ta  Ta4  1  0.066420  0.062612  0.435483  1
  Ta  Ta5  1  0.433480  0.066493  0.433535  1
  Ta  Ta6  1  0.066420  0.435483  0.062612  1
  Ta  Ta7  1  0.066420  0.435483  0.435483  1
  Ta  Ta8  1  0.433480  0.066493  0.066493  1
  Nb  Nb9  1  0.816563  0.817260  0.183088  1
  Nb  Nb10  1  0.183449  0.185724  0.815414  1
  Nb  Nb11  1  0.816563  0.183088  0.817260  1
  Nb  Nb12  1  0.183449  0.815414  0.185724  1
  Nb  Nb13  1  0.183449  0.815414  0.815414  1
  Nb  Nb14  1  0.816563  0.183088  0.183088  1
  Ni  Ni15  1  0.745093  0.418302  0.418302  1
  Ni  Ni16  1  0.417025  0.740255  0.421360  1
  Ni  Ni17  1  0.417025  0.421360  0.740255  1
  Ni  Ni18  1  0.417025  0.421360  0.421360  1
  Ni  Ni19  1  0.509677  0.830108  0.830108  1
  Ni  Ni20  1  0.831845  0.513057  0.827549  1
  Ni  Ni21  1  0.831845  0.827549  0.513057  1
  Ni  Ni22  1  0.831845  0.827549  0.827549  1
  W  W23  1  0.124772  0.625076  0.625076  1
  N  N24  1  0.619277  0.126908  0.126908  1
  N  N25  1  0.126631  0.619456  0.126957  1
  N  N26  1  0.126631  0.126957  0.619456  1
  N  N27  1  0.126631  0.126957  0.126957  1
