# generated using pymatgen
data_Li4Lu3ThPt4
_symmetry_space_group_name_H-M   'P 1'
_cell_length_a   3.99075200
_cell_length_b   6.99893751
_cell_length_c   8.42725338
_cell_angle_alpha   89.67177164
_cell_angle_beta   90.00000000
_cell_angle_gamma   90.00000000
_symmetry_Int_Tables_number   1
_chemical_formula_structural   Li4Lu3ThPt4
_chemical_formula_sum   'Li4 Lu3 Th1 Pt4'
_cell_volume   235.37795298
_cell_formula_units_Z   1
loop_
 _symmetry_equiv_pos_site_id
 _symmetry_equiv_pos_as_xyz
  1  'x, y, z'
loop_
 _atom_site_type_symbol
 _atom_site_label
 _atom_site_symmetry_multiplicity
 _atom_site_fract_x
 _atom_site_fract_y
 _atom_site_fract_z
 _atom_site_occupancy
  Li  Li0  1  0.250000  0.629534  0.561664  1
  Li  Li1  1  0.750000  0.364805  0.446770  1
  Li  Li2  1  0.750000  0.881175  0.055114  1
  Li  Li3  1  0.250000  0.126058  0.938163  1
  Lu  Lu4  1  0.750000  0.452680  0.811879  1
  Lu  Lu5  1  0.750000  0.954065  0.680928  1
  Lu  Lu6  1  0.250000  0.047523  0.326668  1
  Th  Th7  1  0.250000  0.545445  0.183959  1
  Pt  Pt8  1  0.250000  0.743831  0.872776  1
  Pt  Pt9  1  0.750000  0.253739  0.122471  1
  Pt  Pt10  1  0.750000  0.759159  0.374225  1
  Pt  Pt11  1  0.250000  0.241985  0.625383  1
