# generated using pymatgen
data_Y4Se2SN2
_symmetry_space_group_name_H-M   'P 1'
_cell_length_a   6.93283101
_cell_length_b   6.93283087
_cell_length_c   10.10051290
_cell_angle_alpha   52.47313888
_cell_angle_beta   52.47314012
_cell_angle_gamma   32.82790982
_symmetry_Int_Tables_number   1
_chemical_formula_structural   Y4Se2SN2
_chemical_formula_sum   'Y4 Se2 S1 N2'
_cell_volume   203.30937053
_cell_formula_units_Z   1
loop_
 _symmetry_equiv_pos_site_id
 _symmetry_equiv_pos_as_xyz
  1  'x, y, z'
loop_
 _atom_site_type_symbol
 _atom_site_label
 _atom_site_symmetry_multiplicity
 _atom_site_fract_x
 _atom_site_fract_y
 _atom_site_fract_z
 _atom_site_occupancy
  Y  Y0  1  0.238981  0.238981  0.645535  1
  Y  Y1  1  0.761018  0.761019  0.354465  1
  Y  Y2  1  0.558981  0.558981  0.144349  1
  Y  Y3  1  0.441019  0.441019  0.855651  1
  Se  Se4  1  0.832660  0.832660  0.774251  1
  Se  Se5  1  0.167340  0.167340  0.225749  1
  S  S6  1  0.000000  0.000000  0.000000  1
  N  N7  1  0.353970  0.353970  0.360500  1
  N  N8  1  0.646030  0.646030  0.639500  1
