# generated using pymatgen
data_Cs2VS3
_symmetry_space_group_name_H-M   'P 1'
_cell_length_a   7.93863204
_cell_length_b   7.93863172
_cell_length_c   10.16310883
_cell_angle_alpha   58.15275502
_cell_angle_beta   58.15275274
_cell_angle_gamma   55.05953381
_symmetry_Int_Tables_number   1
_chemical_formula_structural   Cs2VS3
_chemical_formula_sum   'Cs4 V2 S6'
_cell_volume   421.98145310
_cell_formula_units_Z   2
loop_
 _symmetry_equiv_pos_site_id
 _symmetry_equiv_pos_as_xyz
  1  'x, y, z'
loop_
 _atom_site_type_symbol
 _atom_site_label
 _atom_site_symmetry_multiplicity
 _atom_site_fract_x
 _atom_site_fract_y
 _atom_site_fract_z
 _atom_site_occupancy
  Cs  Cs0  1  0.919734  0.919734  0.855851  1
  Cs  Cs1  1  0.080266  0.080266  0.144149  1
  Cs  Cs2  1  0.700058  0.700058  0.685466  1
  Cs  Cs3  1  0.299942  0.299942  0.314534  1
  V  V4  1  0.604061  0.604061  0.340128  1
  V  V5  1  0.395939  0.395939  0.659872  1
  S  S6  1  0.740550  0.259450  0.500000  1
  S  S7  1  0.259450  0.740550  0.500000  1
  S  S8  1  0.608977  0.608977  0.123397  1
  S  S9  1  0.391023  0.391023  0.876603  1
  S  S10  1  0.780392  0.780392  0.279842  1
  S  S11  1  0.219608  0.219608  0.720158  1
