# generated using pymatgen
data_Zr4Mn5ReOs2
_symmetry_space_group_name_H-M   'P 1'
_cell_length_a   5.06331198
_cell_length_b   5.06331229
_cell_length_c   8.47542000
_cell_angle_alpha   90.00000000
_cell_angle_beta   90.00000000
_cell_angle_gamma   119.67728480
_symmetry_Int_Tables_number   1
_chemical_formula_structural   Zr4Mn5ReOs2
_chemical_formula_sum   'Zr4 Mn5 Re1 Os2'
_cell_volume   188.78364901
_cell_formula_units_Z   1
loop_
 _symmetry_equiv_pos_site_id
 _symmetry_equiv_pos_as_xyz
  1  'x, y, z'
loop_
 _atom_site_type_symbol
 _atom_site_label
 _atom_site_symmetry_multiplicity
 _atom_site_fract_x
 _atom_site_fract_y
 _atom_site_fract_z
 _atom_site_occupancy
  Zr  Zr0  1  0.332461  0.667539  0.439963  1
  Zr  Zr1  1  0.665129  0.334871  0.565427  1
  Zr  Zr2  1  0.665129  0.334871  0.934573  1
  Zr  Zr3  1  0.332461  0.667539  0.060037  1
  Mn  Mn4  1  0.832845  0.659147  0.250000  1
  Mn  Mn5  1  0.340853  0.167155  0.250000  1
  Mn  Mn6  1  0.172677  0.827323  0.750000  1
  Mn  Mn7  1  0.170781  0.342582  0.750000  1
  Mn  Mn8  1  0.657418  0.829219  0.750000  1
  Re  Re9  1  0.828831  0.171169  0.250000  1
  Os  Os10  1  0.000709  0.999291  0.506395  1
  Os  Os11  1  0.000709  0.999291  0.993605  1
