# generated using pymatgen
data_La8Ho2IrRu3
_symmetry_space_group_name_H-M   'P 1'
_cell_length_a   6.64822045
_cell_length_b   7.25800986
_cell_length_c   9.09997021
_cell_angle_alpha   94.93589292
_cell_angle_beta   111.55652861
_cell_angle_gamma   89.74135947
_symmetry_Int_Tables_number   1
_chemical_formula_structural   La8Ho2IrRu3
_chemical_formula_sum   'La8 Ho2 Ir1 Ru3'
_cell_volume   406.69840750
_cell_formula_units_Z   1
loop_
 _symmetry_equiv_pos_site_id
 _symmetry_equiv_pos_as_xyz
  1  'x, y, z'
loop_
 _atom_site_type_symbol
 _atom_site_label
 _atom_site_symmetry_multiplicity
 _atom_site_fract_x
 _atom_site_fract_y
 _atom_site_fract_z
 _atom_site_occupancy
  La  La0  1  0.983927  0.917794  0.180008  1
  La  La1  1  0.799238  0.591908  0.818046  1
  La  La2  1  0.019286  0.088376  0.817795  1
  La  La3  1  0.203974  0.410334  0.181136  1
  La  La4  1  0.635549  0.815908  0.425856  1
  La  La5  1  0.212779  0.684991  0.577240  1
  La  La6  1  0.361000  0.185611  0.574195  1
  La  La7  1  0.788656  0.312001  0.429038  1
  Ho  Ho8  1  0.435104  0.750060  0.000976  1
  Ho  Ho9  1  0.567945  0.250757  0.998810  1
  Ir  Ir10  1  0.809296  0.574144  0.213816  1
  Ru  Ru11  1  0.605637  0.918998  0.783447  1
  Ru  Ru12  1  0.180648  0.421262  0.781606  1
  Ru  Ru13  1  0.396963  0.077856  0.218032  1
