# generated using pymatgen
data_Hf6CoSn6Ir5
_symmetry_space_group_name_H-M   'P 1'
_cell_length_a   7.35480500
_cell_length_b   7.35480341
_cell_length_c   7.24917100
_cell_angle_alpha   90.00000000
_cell_angle_beta   90.00000000
_cell_angle_gamma   119.99999366
_symmetry_Int_Tables_number   1
_chemical_formula_structural   Hf6CoSn6Ir5
_chemical_formula_sum   'Hf6 Co1 Sn6 Ir5'
_cell_volume   339.59495929
_cell_formula_units_Z   1
loop_
 _symmetry_equiv_pos_site_id
 _symmetry_equiv_pos_as_xyz
  1  'x, y, z'
loop_
 _atom_site_type_symbol
 _atom_site_label
 _atom_site_symmetry_multiplicity
 _atom_site_fract_x
 _atom_site_fract_y
 _atom_site_fract_z
 _atom_site_occupancy
  Hf  Hf0  1  0.016689  0.403701  0.750000  1
  Hf  Hf1  1  0.596299  0.612989  0.750000  1
  Hf  Hf2  1  0.387011  0.983311  0.750000  1
  Hf  Hf3  1  0.978439  0.383638  0.250000  1
  Hf  Hf4  1  0.616362  0.594800  0.250000  1
  Hf  Hf5  1  0.405200  0.021561  0.250000  1
  Co  Co6  1  0.000000  0.000000  0.250000  1
  Sn  Sn7  1  0.266133  0.265090  0.491176  1
  Sn  Sn8  1  0.998957  0.733867  0.491176  1
  Sn  Sn9  1  0.998957  0.733867  0.008824  1
  Sn  Sn10  1  0.734910  0.001043  0.491176  1
  Sn  Sn11  1  0.734910  0.001043  0.008824  1
  Sn  Sn12  1  0.266133  0.265090  0.008824  1
  Ir  Ir13  1  0.333333  0.666667  0.470132  1
  Ir  Ir14  1  0.666667  0.333333  0.542377  1
  Ir  Ir15  1  0.333333  0.666667  0.029868  1
  Ir  Ir16  1  0.000000  0.000000  0.750000  1
  Ir  Ir17  1  0.666667  0.333333  0.957623  1
