# generated using pymatgen
data_Tb6ScTi(Co4P3)4
_symmetry_space_group_name_H-M   'P 1'
_cell_length_a   3.71923700
_cell_length_b   10.64414600
_cell_length_c   12.35323400
_cell_angle_alpha   90.00000000
_cell_angle_beta   90.00000000
_cell_angle_gamma   90.00000000
_symmetry_Int_Tables_number   1
_chemical_formula_structural   Tb6ScTi(Co4P3)4
_chemical_formula_sum   'Tb6 Sc1 Ti1 Co16 P12'
_cell_volume   489.04108313
_cell_formula_units_Z   1
loop_
 _symmetry_equiv_pos_site_id
 _symmetry_equiv_pos_as_xyz
  1  'x, y, z'
loop_
 _atom_site_type_symbol
 _atom_site_label
 _atom_site_symmetry_multiplicity
 _atom_site_fract_x
 _atom_site_fract_y
 _atom_site_fract_z
 _atom_site_occupancy
  Tb  Tb0  1  0.000000  0.500000  0.527221  1
  Tb  Tb1  1  0.500000  0.000000  0.475390  1
  Tb  Tb2  1  0.500000  0.822157  0.205064  1
  Tb  Tb3  1  0.500000  0.177843  0.205064  1
  Tb  Tb4  1  0.000000  0.680138  0.794892  1
  Tb  Tb5  1  0.000000  0.319862  0.794892  1
  Sc  Sc6  1  0.500000  0.500000  0.154742  1
  Ti  Ti7  1  0.000000  0.000000  0.845199  1
  Co  Co8  1  0.500000  0.500000  0.703823  1
  Co  Co9  1  0.000000  0.000000  0.296101  1
  Co  Co10  1  0.000000  0.500000  0.985937  1
  Co  Co11  1  0.500000  0.000000  0.011237  1
  Co  Co12  1  0.500000  0.329339  0.992373  1
  Co  Co13  1  0.500000  0.670661  0.992373  1
  Co  Co14  1  0.000000  0.165785  0.003756  1
  Co  Co15  1  0.000000  0.834215  0.003756  1
  Co  Co16  1  0.500000  0.294834  0.433327  1
  Co  Co17  1  0.500000  0.705166  0.433327  1
  Co  Co18  1  0.000000  0.203566  0.568811  1
  Co  Co19  1  0.000000  0.796434  0.568811  1
  Co  Co20  1  0.500000  0.879166  0.705911  1
  Co  Co21  1  0.500000  0.120834  0.705911  1
  Co  Co22  1  0.000000  0.622297  0.296882  1
  Co  Co23  1  0.000000  0.377703  0.296882  1
  P  P24  1  0.500000  0.500000  0.884366  1
  P  P25  1  0.000000  0.000000  0.115170  1
  P  P26  1  0.500000  0.500000  0.357855  1
  P  P27  1  0.000000  0.000000  0.646921  1
  P  P28  1  0.500000  0.308936  0.615900  1
  P  P29  1  0.500000  0.691064  0.615900  1
  P  P30  1  0.000000  0.190093  0.385257  1
  P  P31  1  0.000000  0.809907  0.385257  1
  P  P32  1  0.500000  0.844076  0.890969  1
  P  P33  1  0.500000  0.155924  0.890969  1
  P  P34  1  0.000000  0.661200  0.104875  1
  P  P35  1  0.000000  0.338800  0.104875  1
