# generated using pymatgen
data_HoFeP3Ru3Rh
_symmetry_space_group_name_H-M   'P 1'
_cell_length_a   3.86500200
_cell_length_b   10.63594000
_cell_length_c   12.33437400
_cell_angle_alpha   90.00000000
_cell_angle_beta   90.00000000
_cell_angle_gamma   90.00000000
_symmetry_Int_Tables_number   1
_chemical_formula_structural   HoFeP3Ru3Rh
_chemical_formula_sum   'Ho4 Fe4 P12 Ru12 Rh4'
_cell_volume   507.04057524
_cell_formula_units_Z   4
loop_
 _symmetry_equiv_pos_site_id
 _symmetry_equiv_pos_as_xyz
  1  'x, y, z'
loop_
 _atom_site_type_symbol
 _atom_site_label
 _atom_site_symmetry_multiplicity
 _atom_site_fract_x
 _atom_site_fract_y
 _atom_site_fract_z
 _atom_site_occupancy
  Ho  Ho0  1  0.250000  0.583682  0.708648  1
  Ho  Ho1  1  0.250000  0.916318  0.208648  1
  Ho  Ho2  1  0.750000  0.416318  0.291352  1
  Ho  Ho3  1  0.750000  0.083682  0.791352  1
  Fe  Fe4  1  0.250000  0.462537  0.935565  1
  Fe  Fe5  1  0.250000  0.037463  0.435565  1
  Fe  Fe6  1  0.750000  0.537463  0.064435  1
  Fe  Fe7  1  0.750000  0.962537  0.564435  1
  P  P8  1  0.250000  0.424956  0.106808  1
  P  P9  1  0.250000  0.075044  0.606808  1
  P  P10  1  0.750000  0.575044  0.893192  1
  P  P11  1  0.750000  0.924956  0.393192  1
  P  P12  1  0.250000  0.269075  0.869156  1
  P  P13  1  0.250000  0.230925  0.369156  1
  P  P14  1  0.750000  0.730925  0.130844  1
  P  P15  1  0.750000  0.769075  0.630844  1
  P  P16  1  0.250000  0.603109  0.394207  1
  P  P17  1  0.250000  0.896891  0.894207  1
  P  P18  1  0.750000  0.396891  0.605793  1
  P  P19  1  0.750000  0.103109  0.105793  1
  Ru  Ru20  1  0.250000  0.705216  0.986985  1
  Ru  Ru21  1  0.250000  0.794784  0.486985  1
  Ru  Ru22  1  0.750000  0.294784  0.013015  1
  Ru  Ru23  1  0.750000  0.205216  0.513015  1
  Ru  Ru24  1  0.250000  0.405140  0.484581  1
  Ru  Ru25  1  0.250000  0.094860  0.984581  1
  Ru  Ru26  1  0.750000  0.594860  0.515419  1
  Ru  Ru27  1  0.750000  0.905140  0.015419  1
  Ru  Ru28  1  0.250000  0.228336  0.175936  1
  Ru  Ru29  1  0.250000  0.271664  0.675936  1
  Ru  Ru30  1  0.750000  0.771664  0.824064  1
  Ru  Ru31  1  0.750000  0.728336  0.324064  1
  Rh  Rh32  1  0.250000  0.887175  0.701521  1
  Rh  Rh33  1  0.250000  0.612825  0.201521  1
  Rh  Rh34  1  0.750000  0.112825  0.298479  1
  Rh  Rh35  1  0.750000  0.387175  0.798479  1
