# generated using pymatgen
data_Ti8Al14AsIr6Rh
_symmetry_space_group_name_H-M   'P 1'
_cell_length_a   8.65367712
_cell_length_b   8.65367720
_cell_length_c   8.65367710
_cell_angle_alpha   120.03034040
_cell_angle_beta   119.90008186
_cell_angle_gamma   90.06030822
_symmetry_Int_Tables_number   1
_chemical_formula_structural   Ti8Al14AsIr6Rh
_chemical_formula_sum   'Ti8 Al14 As1 Ir6 Rh1'
_cell_volume   458.47366492
_cell_formula_units_Z   1
loop_
 _symmetry_equiv_pos_site_id
 _symmetry_equiv_pos_as_xyz
  1  'x, y, z'
loop_
 _atom_site_type_symbol
 _atom_site_label
 _atom_site_symmetry_multiplicity
 _atom_site_fract_x
 _atom_site_fract_y
 _atom_site_fract_z
 _atom_site_occupancy
  Ti  Ti0  1  0.797216  0.295828  0.086492  1
  Ti  Ti1  1  0.209334  0.295828  0.498612  1
  Ti  Ti2  1  0.204059  0.704059  0.500000  1
  Ti  Ti3  1  0.209334  0.710723  0.913508  1
  Ti  Ti4  1  0.797216  0.710723  0.501388  1
  Ti  Ti5  1  0.790960  0.290960  0.500000  1
  Ti  Ti6  1  0.379670  0.122726  0.743057  1
  Ti  Ti7  1  0.379670  0.636614  0.256943  1
  Al  Al8  1  0.159066  0.338854  0.179787  1
  Al  Al9  1  0.159066  0.979281  0.820213  1
  Al  Al10  1  0.155144  0.340729  0.814414  1
  Al  Al11  1  0.526314  0.340729  0.185586  1
  Al  Al12  1  0.839768  0.658794  0.819027  1
  Al  Al13  1  0.839768  0.020742  0.180973  1
  Al  Al14  1  0.838162  0.659936  0.178227  1
  Al  Al15  1  0.481709  0.659936  0.821773  1
  Al  Al16  1  0.380065  0.119631  0.260435  1
  Al  Al17  1  0.859198  0.119631  0.739565  1
  Al  Al18  1  0.620121  0.879614  0.259493  1
  Al  Al19  1  0.620121  0.360628  0.740507  1
  Al  Al20  1  0.620519  0.879550  0.740968  1
  Al  Al21  1  0.138581  0.879550  0.259032  1
  As  As22  1  0.998267  0.498267  0.500000  1
  Ir  Ir23  1  0.001472  0.999891  0.501346  1
  Ir  Ir24  1  0.498545  0.999891  0.998419  1
  Ir  Ir25  1  0.497603  0.497603  0.000000  1
  Ir  Ir26  1  0.498545  0.500125  0.498654  1
  Ir  Ir27  1  0.001472  0.500125  0.001581  1
  Ir  Ir28  1  0.000230  0.000230  0.000000  1
  Rh  Rh29  1  0.498797  0.998797  0.500000  1
