# generated using pymatgen
data_Ca2PaInO6
_symmetry_space_group_name_H-M   'P 1'
_cell_length_a   5.96257400
_cell_length_b   5.75492788
_cell_length_c   10.17200849
_cell_angle_alpha   54.95617933
_cell_angle_beta   90.00000000
_cell_angle_gamma   90.00000000
_symmetry_Int_Tables_number   1
_chemical_formula_structural   Ca2PaInO6
_chemical_formula_sum   'Ca4 Pa2 In2 O12'
_cell_volume   285.76703875
_cell_formula_units_Z   2
loop_
 _symmetry_equiv_pos_site_id
 _symmetry_equiv_pos_as_xyz
  1  'x, y, z'
loop_
 _atom_site_type_symbol
 _atom_site_label
 _atom_site_symmetry_multiplicity
 _atom_site_fract_x
 _atom_site_fract_y
 _atom_site_fract_z
 _atom_site_occupancy
  Ca  Ca0  1  0.447854  0.261176  0.753057  1
  Ca  Ca1  1  0.552146  0.738824  0.246943  1
  Ca  Ca2  1  0.052146  0.261176  0.253057  1
  Ca  Ca3  1  0.947854  0.738824  0.746943  1
  Pa  Pa4  1  0.000000  0.500000  0.500000  1
  Pa  Pa5  1  0.500000  0.500000  0.000000  1
  In  In6  1  0.500000  0.000000  0.500000  1
  In  In7  1  0.000000  0.000000  0.000000  1
  O  O8  1  0.945089  0.869204  0.251770  1
  O  O9  1  0.302253  0.376182  0.432944  1
  O  O10  1  0.308349  0.747930  0.060212  1
  O  O11  1  0.197747  0.376182  0.932944  1
  O  O12  1  0.054911  0.130796  0.748230  1
  O  O13  1  0.554911  0.869204  0.751770  1
  O  O14  1  0.191651  0.747930  0.560212  1
  O  O15  1  0.808349  0.252070  0.439788  1
  O  O16  1  0.802253  0.623818  0.067056  1
  O  O17  1  0.697747  0.623818  0.567056  1
  O  O18  1  0.691651  0.252070  0.939788  1
  O  O19  1  0.445089  0.130796  0.248230  1
