# generated using pymatgen
data_Ho4Ga3As3Ir7
_symmetry_space_group_name_H-M   'P 1'
_cell_length_a   7.26478318
_cell_length_b   7.26478359
_cell_length_c   7.28702200
_cell_angle_alpha   109.53323930
_cell_angle_beta   109.53324044
_cell_angle_gamma   109.40913644
_symmetry_Int_Tables_number   1
_chemical_formula_structural   Ho4Ga3As3Ir7
_chemical_formula_sum   'Ho4 Ga3 As3 Ir7'
_cell_volume   295.82884194
_cell_formula_units_Z   1
loop_
 _symmetry_equiv_pos_site_id
 _symmetry_equiv_pos_as_xyz
  1  'x, y, z'
loop_
 _atom_site_type_symbol
 _atom_site_label
 _atom_site_symmetry_multiplicity
 _atom_site_fract_x
 _atom_site_fract_y
 _atom_site_fract_z
 _atom_site_occupancy
  Ho  Ho0  1  0.000000  0.000000  0.485807  1
  Ho  Ho1  1  0.000000  0.503655  0.996098  1
  Ho  Ho2  1  0.503655  0.000000  0.996098  1
  Ho  Ho3  1  0.496345  0.496345  0.492443  1
  Ga  Ga4  1  0.301486  0.301486  0.991156  1
  Ga  Ga5  1  0.698514  0.000000  0.689670  1
  Ga  Ga6  1  0.000000  0.698514  0.689670  1
  As  As7  1  0.670457  0.670457  0.993375  1
  As  As8  1  0.329543  0.000000  0.322918  1
  As  As9  1  0.000000  0.329543  0.322918  1
  Ir  Ir10  1  0.754359  0.254253  0.503236  1
  Ir  Ir11  1  0.745747  0.500106  0.248983  1
  Ir  Ir12  1  0.499894  0.245641  0.748877  1
  Ir  Ir13  1  0.245641  0.499894  0.748877  1
  Ir  Ir14  1  0.254253  0.754359  0.503236  1
  Ir  Ir15  1  0.500106  0.745747  0.248983  1
  Ir  Ir16  1  0.000000  0.000000  0.017656  1
