# generated using pymatgen
data_Tb4CrPt3F28
_symmetry_space_group_name_H-M   'P 1'
_cell_length_a   5.55767012
_cell_length_b   8.90962428
_cell_length_c   11.94139755
_cell_angle_alpha   62.40189918
_cell_angle_beta   90.06520361
_cell_angle_gamma   90.10839073
_symmetry_Int_Tables_number   1
_chemical_formula_structural   Tb4CrPt3F28
_chemical_formula_sum   'Tb4 Cr1 Pt3 F28'
_cell_volume   524.01961201
_cell_formula_units_Z   1
loop_
 _symmetry_equiv_pos_site_id
 _symmetry_equiv_pos_as_xyz
  1  'x, y, z'
loop_
 _atom_site_type_symbol
 _atom_site_label
 _atom_site_symmetry_multiplicity
 _atom_site_fract_x
 _atom_site_fract_y
 _atom_site_fract_z
 _atom_site_occupancy
  Tb  Tb0  1  0.260107  0.811725  0.262452  1
  Tb  Tb1  1  0.740015  0.184915  0.736076  1
  Tb  Tb2  1  0.761753  0.187433  0.234975  1
  Tb  Tb3  1  0.235882  0.811664  0.767734  1
  Cr  Cr4  1  0.756377  0.724918  0.044035  1
  Pt  Pt5  1  0.244774  0.272315  0.957747  1
  Pt  Pt6  1  0.257973  0.272275  0.456844  1
  Pt  Pt7  1  0.740171  0.727273  0.543814  1
  F  F8  1  0.930869  0.703565  0.414026  1
  F  F9  1  0.063434  0.297029  0.584664  1
  F  F10  1  0.440250  0.299239  0.084443  1
  F  F11  1  0.551186  0.710779  0.927661  1
  F  F12  1  0.491662  0.731661  0.139751  1
  F  F13  1  0.539758  0.265946  0.869748  1
  F  F14  1  0.965303  0.275788  0.363117  1
  F  F15  1  0.034404  0.724146  0.636492  1
  F  F16  1  0.959054  0.743896  0.162176  1
  F  F17  1  0.053836  0.252297  0.826428  1
  F  F18  1  0.447527  0.255637  0.323927  1
  F  F19  1  0.555210  0.745971  0.677740  1
  F  F20  1  0.767736  0.491973  0.137015  1
  F  F21  1  0.241112  0.520031  0.858201  1
  F  F22  1  0.269581  0.520503  0.357685  1
  F  F23  1  0.723886  0.478573  0.643096  1
  F  F24  1  0.944661  0.286102  0.040523  1
  F  F25  1  0.030888  0.716824  0.952841  1
  F  F26  1  0.439173  0.721829  0.458069  1
  F  F27  1  0.558221  0.278808  0.542282  1
  F  F28  1  0.746134  0.975801  0.450087  1
  F  F29  1  0.257204  0.023960  0.550388  1
  F  F30  1  0.240373  0.024021  0.049829  1
  F  F31  1  0.759127  0.957889  0.952044  1
  F  F32  1  0.582995  0.972485  0.231423  1
  F  F33  1  0.412738  0.030328  0.769529  1
  F  F34  1  0.084021  0.030491  0.265545  1
  F  F35  1  0.912603  0.971910  0.727594  1
