# generated using pymatgen
data_Hf3Ti(PRh5)2
_symmetry_space_group_name_H-M   'P 1'
_cell_length_a   3.97248200
_cell_length_b   5.58870525
_cell_length_c   10.74178859
_cell_angle_alpha   90.20791884
_cell_angle_beta   90.00000000
_cell_angle_gamma   90.00000000
_symmetry_Int_Tables_number   1
_chemical_formula_structural   Hf3Ti(PRh5)2
_chemical_formula_sum   'Hf3 Ti1 P2 Rh10'
_cell_volume   238.47721124
_cell_formula_units_Z   1
loop_
 _symmetry_equiv_pos_site_id
 _symmetry_equiv_pos_as_xyz
  1  'x, y, z'
loop_
 _atom_site_type_symbol
 _atom_site_label
 _atom_site_symmetry_multiplicity
 _atom_site_fract_x
 _atom_site_fract_y
 _atom_site_fract_z
 _atom_site_occupancy
  Hf  Hf0  1  0.500000  0.328530  0.142779  1
  Hf  Hf1  1  0.500000  0.668065  0.855304  1
  Hf  Hf2  1  0.500000  0.831699  0.361046  1
  Ti  Ti3  1  0.500000  0.165355  0.645710  1
  P  P4  1  0.000000  0.999984  0.997587  1
  P  P5  1  0.000000  0.482514  0.503398  1
  Rh  Rh6  1  0.000000  0.026915  0.507087  1
  Rh  Rh7  1  0.000000  0.496724  0.997933  1
  Rh  Rh8  1  0.000000  0.071955  0.242163  1
  Rh  Rh9  1  0.000000  0.927947  0.757383  1
  Rh  Rh10  1  0.000000  0.573163  0.260114  1
  Rh  Rh11  1  0.000000  0.417598  0.732326  1
  Rh  Rh12  1  0.500000  0.325467  0.402103  1
  Rh  Rh13  1  0.500000  0.684765  0.600647  1
  Rh  Rh14  1  0.500000  0.823449  0.099997  1
  Rh  Rh15  1  0.500000  0.175868  0.894422  1
