# generated using pymatgen
data_Ac2Zn21Co
_symmetry_space_group_name_H-M   'P 1'
_cell_length_a   8.38075441
_cell_length_b   8.35618104
_cell_length_c   8.35618173
_cell_angle_alpha   99.35269718
_cell_angle_beta   100.19725813
_cell_angle_gamma   131.14715242
_symmetry_Int_Tables_number   1
_chemical_formula_structural   Ac2Zn21Co
_chemical_formula_sum   'Ac2 Zn21 Co1'
_cell_volume   401.79691880
_cell_formula_units_Z   1
loop_
 _symmetry_equiv_pos_site_id
 _symmetry_equiv_pos_as_xyz
  1  'x, y, z'
loop_
 _atom_site_type_symbol
 _atom_site_label
 _atom_site_symmetry_multiplicity
 _atom_site_fract_x
 _atom_site_fract_y
 _atom_site_fract_z
 _atom_site_occupancy
  Ac  Ac0  1  0.254515  0.749926  0.504590  1
  Ac  Ac1  1  0.995485  0.000074  0.995410  1
  Zn  Zn2  1  0.895956  0.565919  0.090852  1
  Zn  Zn3  1  0.625000  0.875000  0.250000  1
  Zn  Zn4  1  0.436337  0.507982  0.323802  1
  Zn  Zn5  1  0.486380  0.569335  0.670385  1
  Zn  Zn6  1  0.436337  0.112533  0.928354  1
  Zn  Zn7  1  0.763620  0.180665  0.829615  1
  Zn  Zn8  1  0.486380  0.815995  0.917046  1
  Zn  Zn9  1  0.502225  0.488997  0.013227  1
  Zn  Zn10  1  0.763620  0.934005  0.582954  1
  Zn  Zn11  1  0.747775  0.261003  0.486773  1
  Zn  Zn12  1  0.065087  0.652303  0.832769  1
  Zn  Zn13  1  0.125000  0.375000  0.750000  1
  Zn  Zn14  1  0.354044  0.184081  0.409148  1
  Zn  Zn15  1  0.813663  0.637467  0.571646  1
  Zn  Zn16  1  0.895956  0.805104  0.330036  1
  Zn  Zn17  1  0.184913  0.097697  0.667231  1
  Zn  Zn18  1  0.065087  0.232318  0.412784  1
  Zn  Zn19  1  0.354044  0.944896  0.169964  1
  Zn  Zn20  1  0.813663  0.242018  0.176198  1
  Zn  Zn21  1  0.184913  0.517682  0.087216  1
  Zn  Zn22  1  0.625000  0.375000  0.750000  1
  Co  Co23  1  0.625000  0.375000  0.250000  1
