# generated using pymatgen
data_Ho3ErV3ReB16
_symmetry_space_group_name_H-M   'P 1'
_cell_length_a   3.49271600
_cell_length_b   5.97809406
_cell_length_c   11.56698641
_cell_angle_alpha   89.97674262
_cell_angle_beta   90.00000000
_cell_angle_gamma   90.00000000
_symmetry_Int_Tables_number   1
_chemical_formula_structural   Ho3ErV3ReB16
_chemical_formula_sum   'Ho3 Er1 V3 Re1 B16'
_cell_volume   241.51616671
_cell_formula_units_Z   1
loop_
 _symmetry_equiv_pos_site_id
 _symmetry_equiv_pos_as_xyz
  1  'x, y, z'
loop_
 _atom_site_type_symbol
 _atom_site_label
 _atom_site_symmetry_multiplicity
 _atom_site_fract_x
 _atom_site_fract_y
 _atom_site_fract_z
 _atom_site_occupancy
  Ho  Ho0  1  0.500000  0.123498  0.850358  1
  Ho  Ho1  1  0.500000  0.875677  0.150935  1
  Ho  Ho2  1  0.500000  0.626924  0.651882  1
  Er  Er3  1  0.500000  0.374908  0.348707  1
  V  V4  1  0.500000  0.871350  0.417499  1
  V  V5  1  0.500000  0.627273  0.916134  1
  V  V6  1  0.500000  0.372721  0.082794  1
  Re  Re7  1  0.500000  0.128577  0.583058  1
  B  B8  1  0.000000  0.286008  0.685376  1
  B  B9  1  0.000000  0.714007  0.314540  1
  B  B10  1  0.000000  0.785990  0.814508  1
  B  B11  1  0.000000  0.213626  0.185754  1
  B  B12  1  0.000000  0.365610  0.531494  1
  B  B13  1  0.000000  0.634855  0.467222  1
  B  B14  1  0.000000  0.864363  0.967546  1
  B  B15  1  0.000000  0.135462  0.032645  1
  B  B16  1  0.000000  0.022509  0.307274  1
  B  B17  1  0.000000  0.976772  0.692815  1
  B  B18  1  0.000000  0.522906  0.192851  1
  B  B19  1  0.000000  0.476840  0.807512  1
  B  B20  1  0.000000  0.114171  0.451966  1
  B  B21  1  0.000000  0.885744  0.547063  1
  B  B22  1  0.000000  0.614746  0.047629  1
  B  B23  1  0.000000  0.385463  0.952439  1
