# generated using pymatgen
data_YErPa2(Ni2Sn)2
_symmetry_space_group_name_H-M   'P 1'
_cell_length_a   7.41398838
_cell_length_b   7.41398834
_cell_length_c   3.65323100
_cell_angle_alpha   90.00000000
_cell_angle_beta   90.00000000
_cell_angle_gamma   93.65018065
_symmetry_Int_Tables_number   1
_chemical_formula_structural   YErPa2(Ni2Sn)2
_chemical_formula_sum   'Y1 Er1 Pa2 Ni4 Sn2'
_cell_volume   200.40059572
_cell_formula_units_Z   1
loop_
 _symmetry_equiv_pos_site_id
 _symmetry_equiv_pos_as_xyz
  1  'x, y, z'
loop_
 _atom_site_type_symbol
 _atom_site_label
 _atom_site_symmetry_multiplicity
 _atom_site_fract_x
 _atom_site_fract_y
 _atom_site_fract_z
 _atom_site_occupancy
  Y  Y0  1  0.173862  0.326138  0.500000  1
  Er  Er1  1  0.826714  0.673286  0.500000  1
  Pa  Pa2  1  0.675430  0.174814  0.500000  1
  Pa  Pa3  1  0.325186  0.824570  0.500000  1
  Ni  Ni4  1  0.864673  0.370009  0.000000  1
  Ni  Ni5  1  0.129991  0.635327  0.000000  1
  Ni  Ni6  1  0.385026  0.114974  0.000000  1
  Ni  Ni7  1  0.617996  0.882004  0.000000  1
  Sn  Sn8  1  0.501731  0.500610  0.000000  1
  Sn  Sn9  1  0.999390  0.998269  0.000000  1
