# generated using pymatgen
data_Y2PaRu2
_symmetry_space_group_name_H-M   'P 1'
_cell_length_a   5.94535064
_cell_length_b   5.94535162
_cell_length_c   5.94534987
_cell_angle_alpha   138.78364198
_cell_angle_beta   121.17735673
_cell_angle_gamma   74.34073372
_symmetry_Int_Tables_number   1
_chemical_formula_structural   Y2PaRu2
_chemical_formula_sum   'Y2 Pa1 Ru2'
_cell_volume   115.77790468
_cell_formula_units_Z   1
loop_
 _symmetry_equiv_pos_site_id
 _symmetry_equiv_pos_as_xyz
  1  'x, y, z'
loop_
 _atom_site_type_symbol
 _atom_site_label
 _atom_site_symmetry_multiplicity
 _atom_site_fract_x
 _atom_site_fract_y
 _atom_site_fract_z
 _atom_site_occupancy
  Y  Y0  1  0.695344  0.195344  0.500000  1
  Y  Y1  1  0.304656  0.804655  0.499999  1
  Pa  Pa2  1  0.000000  0.000000  0.000000  1
  Ru  Ru3  1  0.744792  0.500000  0.244792  1
  Ru  Ru4  1  0.255208  0.499999  0.755207  1
