# generated using pymatgen
data_Y5Ho5IrOs3
_symmetry_space_group_name_H-M   'P 1'
_cell_length_a   6.38384413
_cell_length_b   7.36570940
_cell_length_c   8.43518499
_cell_angle_alpha   96.88486592
_cell_angle_beta   112.23276597
_cell_angle_gamma   90.08069337
_symmetry_Int_Tables_number   1
_chemical_formula_structural   Y5Ho5IrOs3
_chemical_formula_sum   'Y5 Ho5 Ir1 Os3'
_cell_volume   364.02753163
_cell_formula_units_Z   1
loop_
 _symmetry_equiv_pos_site_id
 _symmetry_equiv_pos_as_xyz
  1  'x, y, z'
loop_
 _atom_site_type_symbol
 _atom_site_label
 _atom_site_symmetry_multiplicity
 _atom_site_fract_x
 _atom_site_fract_y
 _atom_site_fract_z
 _atom_site_occupancy
  Y  Y0  1  0.973571  0.915321  0.182093  1
  Y  Y1  1  0.789490  0.581790  0.815443  1
  Y  Y2  1  0.022443  0.083794  0.812638  1
  Y  Y3  1  0.208719  0.419127  0.183202  1
  Y  Y4  1  0.646286  0.816147  0.438759  1
  Ho  Ho5  1  0.208183  0.681666  0.563701  1
  Ho  Ho6  1  0.355052  0.181786  0.564935  1
  Ho  Ho7  1  0.796011  0.319687  0.437238  1
  Ho  Ho8  1  0.422545  0.748618  0.999054  1
  Ho  Ho9  1  0.576867  0.250516  0.999752  1
  Ir  Ir10  1  0.400335  0.078085  0.222127  1
  Os  Os11  1  0.820277  0.575471  0.218612  1
  Os  Os12  1  0.600628  0.924803  0.781988  1
  Os  Os13  1  0.179593  0.423187  0.780458  1
