# generated using pymatgen
data_ScCr(BrO3)6
_symmetry_space_group_name_H-M   'P 1'
_cell_length_a   9.22502100
_cell_length_b   9.22501926
_cell_length_c   5.73710900
_cell_angle_alpha   90.00000000
_cell_angle_beta   90.00000000
_cell_angle_gamma   119.99999415
_symmetry_Int_Tables_number   1
_chemical_formula_structural   ScCr(BrO3)6
_chemical_formula_sum   'Sc1 Cr1 Br6 O18'
_cell_volume   422.82280546
_cell_formula_units_Z   1
loop_
 _symmetry_equiv_pos_site_id
 _symmetry_equiv_pos_as_xyz
  1  'x, y, z'
loop_
 _atom_site_type_symbol
 _atom_site_label
 _atom_site_symmetry_multiplicity
 _atom_site_fract_x
 _atom_site_fract_y
 _atom_site_fract_z
 _atom_site_occupancy
  Sc  Sc0  1  0.666667  0.333333  0.688813  1
  Cr  Cr1  1  0.333333  0.666667  0.193105  1
  Br  Br2  1  0.671773  0.013475  0.356816  1
  Br  Br3  1  0.317042  0.971205  0.867979  1
  Br  Br4  1  0.028795  0.345836  0.867979  1
  Br  Br5  1  0.341702  0.328227  0.356816  1
  Br  Br6  1  0.986525  0.658298  0.356816  1
  Br  Br7  1  0.654164  0.682958  0.867979  1
  O  O8  1  0.775566  0.835708  0.043153  1
  O  O9  1  0.955009  0.777583  0.535724  1
  O  O10  1  0.822574  0.044991  0.535724  1
  O  O11  1  0.164292  0.939858  0.043153  1
  O  O12  1  0.060142  0.224434  0.043153  1
  O  O13  1  0.222417  0.177426  0.535724  1
  O  O14  1  0.709247  0.532994  0.917374  1
  O  O15  1  0.193522  0.717350  0.414336  1
  O  O16  1  0.539934  0.423006  0.478696  1
  O  O17  1  0.126798  0.545371  0.991081  1
  O  O18  1  0.418573  0.873202  0.991081  1
  O  O19  1  0.576994  0.116928  0.478696  1
  O  O20  1  0.883072  0.460066  0.478696  1
  O  O21  1  0.454629  0.581427  0.991081  1
  O  O22  1  0.282650  0.476171  0.414336  1
  O  O23  1  0.823747  0.290753  0.917374  1
  O  O24  1  0.467006  0.176253  0.917374  1
  O  O25  1  0.523829  0.806478  0.414336  1
