# generated using pymatgen
data_TbNdHo3(In2Pd)2
_symmetry_space_group_name_H-M   'P 1'
_cell_length_a   3.63572500
_cell_length_b   8.20514812
_cell_length_c   18.37535281
_cell_angle_alpha   89.91737631
_cell_angle_beta   90.00000000
_cell_angle_gamma   90.00000000
_symmetry_Int_Tables_number   1
_chemical_formula_structural   TbNdHo3(In2Pd)2
_chemical_formula_sum   'Tb2 Nd2 Ho6 In8 Pd4'
_cell_volume   548.16674679
_cell_formula_units_Z   2
loop_
 _symmetry_equiv_pos_site_id
 _symmetry_equiv_pos_as_xyz
  1  'x, y, z'
loop_
 _atom_site_type_symbol
 _atom_site_label
 _atom_site_symmetry_multiplicity
 _atom_site_fract_x
 _atom_site_fract_y
 _atom_site_fract_z
 _atom_site_occupancy
  Tb  Tb0  1  0.000000  0.738740  0.282273  1
  Tb  Tb1  1  0.000000  0.261260  0.717727  1
  Nd  Nd2  1  0.000000  0.500000  0.500000  1
  Nd  Nd3  1  0.000000  0.000000  0.000000  1
  Ho  Ho4  1  0.000000  0.761184  0.782119  1
  Ho  Ho5  1  0.000000  0.238816  0.217881  1
  Ho  Ho6  1  0.000000  0.620571  0.084252  1
  Ho  Ho7  1  0.000000  0.379429  0.915748  1
  Ho  Ho8  1  0.000000  0.878929  0.584443  1
  Ho  Ho9  1  0.000000  0.121071  0.415557  1
  In  In10  1  0.500000  0.700252  0.932180  1
  In  In11  1  0.500000  0.299748  0.067820  1
  In  In12  1  0.500000  0.801183  0.432486  1
  In  In13  1  0.500000  0.198817  0.567514  1
  In  In14  1  0.500000  0.583995  0.653667  1
  In  In15  1  0.500000  0.416005  0.346333  1
  In  In16  1  0.500000  0.917581  0.153085  1
  In  In17  1  0.500000  0.082419  0.846915  1
  Pd  Pd18  1  0.500000  0.522645  0.195092  1
  Pd  Pd19  1  0.500000  0.477355  0.804908  1
  Pd  Pd20  1  0.500000  0.973910  0.695720  1
  Pd  Pd21  1  0.500000  0.026090  0.304280  1
