# generated using pymatgen
data_Nb12Al7RhN4
_symmetry_space_group_name_H-M   'P 1'
_cell_length_a   7.07480535
_cell_length_b   7.07480535
_cell_length_c   7.07480535
_cell_angle_alpha   89.69085130
_cell_angle_beta   90.30914870
_cell_angle_gamma   90.30914870
_symmetry_Int_Tables_number   1
_chemical_formula_structural   Nb12Al7RhN4
_chemical_formula_sum   'Nb12 Al7 Rh1 N4'
_cell_volume   354.09890972
_cell_formula_units_Z   1
loop_
 _symmetry_equiv_pos_site_id
 _symmetry_equiv_pos_as_xyz
  1  'x, y, z'
loop_
 _atom_site_type_symbol
 _atom_site_label
 _atom_site_symmetry_multiplicity
 _atom_site_fract_x
 _atom_site_fract_y
 _atom_site_fract_z
 _atom_site_occupancy
  Nb  Nb0  1  0.792348  0.956461  0.373970  1
  Nb  Nb1  1  0.707951  0.044276  0.876784  1
  Nb  Nb2  1  0.206397  0.455569  0.122038  1
  Nb  Nb3  1  0.294871  0.544378  0.629187  1
  Nb  Nb4  1  0.955724  0.376784  0.792049  1
  Nb  Nb5  1  0.043539  0.873970  0.707652  1
  Nb  Nb6  1  0.455622  0.129187  0.205129  1
  Nb  Nb7  1  0.544431  0.622038  0.293603  1
  Nb  Nb8  1  0.377962  0.793603  0.955569  1
  Nb  Nb9  1  0.870813  0.705129  0.044378  1
  Nb  Nb10  1  0.126030  0.207652  0.456461  1
  Nb  Nb11  1  0.623216  0.292049  0.544276  1
  Al  Al12  1  0.321152  0.175419  0.820904  1
  Al  Al13  1  0.824581  0.320904  0.178848  1
  Al  Al14  1  0.679096  0.678848  0.675419  1
  Al  Al15  1  0.570781  0.429219  0.929219  1
  Al  Al16  1  0.419628  0.925203  0.560982  1
  Al  Al17  1  0.939018  0.580372  0.425203  1
  Al  Al18  1  0.074797  0.060982  0.080372  1
  Rh  Rh19  1  0.180248  0.819752  0.319752  1
  N  N20  1  0.875753  0.124247  0.624247  1
  N  N21  1  0.621821  0.876886  0.128895  1
  N  N22  1  0.123114  0.628895  0.878179  1
  N  N23  1  0.371105  0.378179  0.376886  1
