# generated using pymatgen
data_Ac4In4AgPt3
_symmetry_space_group_name_H-M   'P 1'
_cell_length_a   4.65203000
_cell_length_b   7.70774359
_cell_length_c   8.80894500
_cell_angle_alpha   89.90962305
_cell_angle_beta   90.00000000
_cell_angle_gamma   90.00000000
_symmetry_Int_Tables_number   1
_chemical_formula_structural   Ac4In4AgPt3
_chemical_formula_sum   'Ac4 In4 Ag1 Pt3'
_cell_volume   315.85890361
_cell_formula_units_Z   1
loop_
 _symmetry_equiv_pos_site_id
 _symmetry_equiv_pos_as_xyz
  1  'x, y, z'
loop_
 _atom_site_type_symbol
 _atom_site_label
 _atom_site_symmetry_multiplicity
 _atom_site_fract_x
 _atom_site_fract_y
 _atom_site_fract_z
 _atom_site_occupancy
  Ac  Ac0  1  0.750000  0.455766  0.814248  1
  Ac  Ac1  1  0.250000  0.032354  0.314984  1
  Ac  Ac2  1  0.750000  0.974965  0.677179  1
  Ac  Ac3  1  0.250000  0.525250  0.190357  1
  In  In4  1  0.250000  0.644632  0.560930  1
  In  In5  1  0.250000  0.152048  0.938416  1
  In  In6  1  0.750000  0.354093  0.436737  1
  In  In7  1  0.750000  0.854934  0.065774  1
  Ag  Ag8  1  0.250000  0.770789  0.882708  1
  Pt  Pt9  1  0.250000  0.263824  0.616880  1
  Pt  Pt10  1  0.750000  0.735703  0.383520  1
  Pt  Pt11  1  0.750000  0.235639  0.118267  1
