# generated using pymatgen
data_DyFeP3IrRh3
_symmetry_space_group_name_H-M   'P 1'
_cell_length_a   3.87609800
_cell_length_b   10.73329900
_cell_length_c   12.44588900
_cell_angle_alpha   90.00000000
_cell_angle_beta   90.00000000
_cell_angle_gamma   90.00000000
_symmetry_Int_Tables_number   1
_chemical_formula_structural   DyFeP3IrRh3
_chemical_formula_sum   'Dy4 Fe4 P12 Ir4 Rh12'
_cell_volume   517.79028766
_cell_formula_units_Z   4
loop_
 _symmetry_equiv_pos_site_id
 _symmetry_equiv_pos_as_xyz
  1  'x, y, z'
loop_
 _atom_site_type_symbol
 _atom_site_label
 _atom_site_symmetry_multiplicity
 _atom_site_fract_x
 _atom_site_fract_y
 _atom_site_fract_z
 _atom_site_occupancy
  Dy  Dy0  1  0.250000  0.581213  0.709947  1
  Dy  Dy1  1  0.250000  0.918787  0.209947  1
  Dy  Dy2  1  0.750000  0.418787  0.290053  1
  Dy  Dy3  1  0.750000  0.081213  0.790053  1
  Fe  Fe4  1  0.250000  0.459630  0.933239  1
  Fe  Fe5  1  0.250000  0.040370  0.433239  1
  Fe  Fe6  1  0.750000  0.540370  0.066761  1
  Fe  Fe7  1  0.750000  0.959630  0.566761  1
  P  P8  1  0.250000  0.431215  0.105574  1
  P  P9  1  0.250000  0.068785  0.605574  1
  P  P10  1  0.750000  0.568785  0.894426  1
  P  P11  1  0.750000  0.931215  0.394426  1
  P  P12  1  0.250000  0.269072  0.869173  1
  P  P13  1  0.250000  0.230928  0.369173  1
  P  P14  1  0.750000  0.730928  0.130827  1
  P  P15  1  0.750000  0.769072  0.630827  1
  P  P16  1  0.250000  0.600558  0.388456  1
  P  P17  1  0.250000  0.899442  0.888456  1
  P  P18  1  0.750000  0.399442  0.611544  1
  P  P19  1  0.750000  0.100558  0.111544  1
  Ir  Ir20  1  0.250000  0.880471  0.700212  1
  Ir  Ir21  1  0.250000  0.619529  0.200212  1
  Ir  Ir22  1  0.750000  0.119529  0.299788  1
  Ir  Ir23  1  0.750000  0.380471  0.799788  1
  Rh  Rh24  1  0.250000  0.715222  0.987663  1
  Rh  Rh25  1  0.250000  0.784778  0.487663  1
  Rh  Rh26  1  0.750000  0.284778  0.012337  1
  Rh  Rh27  1  0.750000  0.215222  0.512337  1
  Rh  Rh28  1  0.250000  0.408179  0.478632  1
  Rh  Rh29  1  0.250000  0.091821  0.978632  1
  Rh  Rh30  1  0.750000  0.591821  0.521368  1
  Rh  Rh31  1  0.750000  0.908179  0.021368  1
  Rh  Rh32  1  0.250000  0.232789  0.175244  1
  Rh  Rh33  1  0.250000  0.267211  0.675244  1
  Rh  Rh34  1  0.750000  0.767211  0.824756  1
  Rh  Rh35  1  0.750000  0.732789  0.324756  1
