# generated using pymatgen
data_Dy3ErAl24Pt7Au2
_symmetry_space_group_name_H-M   'P 1'
_cell_length_a   7.56822594
_cell_length_b   7.58117993
_cell_length_c   13.15657628
_cell_angle_alpha   84.54715469
_cell_angle_beta   78.99949084
_cell_angle_gamma   59.92596828
_symmetry_Int_Tables_number   1
_chemical_formula_structural   Dy3ErAl24Pt7Au2
_chemical_formula_sum   'Dy3 Er1 Al24 Pt7 Au2'
_cell_volume   641.24747572
_cell_formula_units_Z   1
loop_
 _symmetry_equiv_pos_site_id
 _symmetry_equiv_pos_as_xyz
  1  'x, y, z'
loop_
 _atom_site_type_symbol
 _atom_site_label
 _atom_site_symmetry_multiplicity
 _atom_site_fract_x
 _atom_site_fract_y
 _atom_site_fract_z
 _atom_site_occupancy
  Dy  Dy0  1  0.607314  0.830783  0.190883  1
  Dy  Dy1  1  0.733770  0.498876  0.809895  1
  Dy  Dy2  1  0.266308  0.501006  0.190108  1
  Er  Er3  1  0.392631  0.169361  0.808673  1
  Al  Al4  1  0.682748  0.834748  0.944536  1
  Al  Al5  1  0.316978  0.165764  0.054680  1
  Al  Al6  1  0.145938  0.839207  0.562323  1
  Al  Al7  1  0.854041  0.160807  0.437821  1
  Al  Al8  1  0.488299  0.159281  0.559565  1
  Al  Al9  1  0.511618  0.840797  0.440598  1
  Al  Al10  1  0.223297  0.160590  0.325732  1
  Al  Al11  1  0.776222  0.839639  0.674809  1
  Al  Al12  1  0.440044  0.506268  0.674793  1
  Al  Al13  1  0.559764  0.493447  0.325648  1
  Al  Al14  1  0.109248  0.154749  0.673318  1
  Al  Al15  1  0.890861  0.845318  0.327163  1
  Al  Al16  1  0.353268  0.498461  0.944272  1
  Al  Al17  1  0.646966  0.501070  0.055194  1
  Al  Al18  1  0.016041  0.167431  0.953443  1
  Al  Al19  1  0.984592  0.832543  0.046050  1
  Al  Al20  1  0.195597  0.499333  0.437643  1
  Al  Al21  1  0.804336  0.500543  0.562538  1
  Al  Al22  1  0.732927  0.164456  0.183282  1
  Al  Al23  1  0.267430  0.835890  0.816800  1
  Al  Al24  1  0.060766  0.633370  0.817723  1
  Al  Al25  1  0.939864  0.365847  0.182259  1
  Al  Al26  1  0.853804  0.042673  0.816280  1
  Al  Al27  1  0.145549  0.957595  0.183748  1
  Pt  Pt28  1  0.657367  0.171635  0.999747  1
  Pt  Pt29  1  0.342605  0.828411  0.000239  1
  Pt  Pt30  1  0.537327  0.166878  0.362165  1
  Pt  Pt31  1  0.462690  0.833280  0.637927  1
  Pt  Pt32  1  0.779628  0.175190  0.636757  1
  Pt  Pt33  1  0.220116  0.824788  0.363389  1
  Pt  Pt34  1  0.000015  0.499984  0.999979  1
  Au  Au35  1  0.120199  0.490690  0.637979  1
  Au  Au36  1  0.879833  0.509290  0.362041  1
