# generated using pymatgen
data_U4Al3Ga5
_symmetry_space_group_name_H-M   'P 1'
_cell_length_a   5.59526274
_cell_length_b   5.59526230
_cell_length_c   16.75438000
_cell_angle_alpha   90.00000000
_cell_angle_beta   90.00000000
_cell_angle_gamma   119.82217024
_symmetry_Int_Tables_number   1
_chemical_formula_structural   U4Al3Ga5
_chemical_formula_sum   'U8 Al6 Ga10'
_cell_volume   455.06702581
_cell_formula_units_Z   2
loop_
 _symmetry_equiv_pos_site_id
 _symmetry_equiv_pos_as_xyz
  1  'x, y, z'
loop_
 _atom_site_type_symbol
 _atom_site_label
 _atom_site_symmetry_multiplicity
 _atom_site_fract_x
 _atom_site_fract_y
 _atom_site_fract_z
 _atom_site_occupancy
  U  U0  1  0.333793  0.666207  0.828556  1
  U  U1  1  0.000349  0.999651  0.076542  1
  U  U2  1  0.999651  0.000349  0.923458  1
  U  U3  1  0.666207  0.333793  0.171444  1
  U  U4  1  0.999651  0.000349  0.576542  1
  U  U5  1  0.666207  0.333793  0.328556  1
  U  U6  1  0.000349  0.999651  0.423458  1
  U  U7  1  0.333793  0.666207  0.671444  1
  Al  Al8  1  0.500000  0.500000  0.500000  1
  Al  Al9  1  0.666282  0.333718  0.628260  1
  Al  Al10  1  0.500000  0.500000  0.000000  1
  Al  Al11  1  0.333718  0.666282  0.371740  1
  Al  Al12  1  0.666282  0.333718  0.871740  1
  Al  Al13  1  0.333718  0.666282  0.128260  1
  Ga  Ga14  1  0.843128  0.156872  0.750000  1
  Ga  Ga15  1  0.500000  0.000000  0.500000  1
  Ga  Ga16  1  0.313047  0.156006  0.750000  1
  Ga  Ga17  1  0.156872  0.843128  0.250000  1
  Ga  Ga18  1  0.843994  0.686953  0.750000  1
  Ga  Ga19  1  0.000000  0.500000  0.500000  1
  Ga  Ga20  1  0.156006  0.313047  0.250000  1
  Ga  Ga21  1  0.686953  0.843994  0.250000  1
  Ga  Ga22  1  0.500000  0.000000  0.000000  1
  Ga  Ga23  1  0.000000  0.500000  0.000000  1
