# generated using pymatgen
data_Tb7Yb12LuSi16
_symmetry_space_group_name_H-M   'P 1'
_cell_length_a   7.41841990
_cell_length_b   7.81261383
_cell_length_c   15.14971872
_cell_angle_alpha   90.03411652
_cell_angle_beta   89.95745154
_cell_angle_gamma   89.92953874
_symmetry_Int_Tables_number   1
_chemical_formula_structural   Tb7Yb12LuSi16
_chemical_formula_sum   'Tb7 Yb12 Lu1 Si16'
_cell_volume   878.03497249
_cell_formula_units_Z   1
loop_
 _symmetry_equiv_pos_site_id
 _symmetry_equiv_pos_as_xyz
  1  'x, y, z'
loop_
 _atom_site_type_symbol
 _atom_site_label
 _atom_site_symmetry_multiplicity
 _atom_site_fract_x
 _atom_site_fract_y
 _atom_site_fract_z
 _atom_site_occupancy
  Tb  Tb0  1  0.315194  0.176399  0.120267  1
  Tb  Tb1  1  0.814389  0.323074  0.378689  1
  Tb  Tb2  1  0.185295  0.677702  0.878702  1
  Tb  Tb3  1  0.685518  0.823003  0.621994  1
  Tb  Tb4  1  0.314445  0.176886  0.378625  1
  Tb  Tb5  1  0.814408  0.323049  0.120780  1
  Tb  Tb6  1  0.185898  0.677129  0.621807  1
  Yb  Yb7  1  0.973891  0.815611  0.404075  1
  Yb  Yb8  1  0.474545  0.684294  0.095206  1
  Yb  Yb9  1  0.526166  0.315613  0.596361  1
  Yb  Yb10  1  0.025207  0.183755  0.904101  1
  Yb  Yb11  1  0.025579  0.183931  0.596555  1
  Yb  Yb12  1  0.526845  0.315433  0.903900  1
  Yb  Yb13  1  0.473653  0.684472  0.404009  1
  Yb  Yb14  1  0.973350  0.815675  0.095588  1
  Yb  Yb15  1  0.352110  0.020690  0.750404  1
  Yb  Yb16  1  0.852146  0.479373  0.750736  1
  Yb  Yb17  1  0.147585  0.520990  0.249885  1
  Yb  Yb18  1  0.647914  0.978847  0.249739  1
  Lu  Lu19  1  0.685219  0.824028  0.878317  1
  Si  Si20  1  0.858309  0.533126  0.538548  1
  Si  Si21  1  0.361549  0.965446  0.960466  1
  Si  Si22  1  0.641905  0.033191  0.461991  1
  Si  Si23  1  0.140142  0.467764  0.037669  1
  Si  Si24  1  0.141986  0.466837  0.461925  1
  Si  Si25  1  0.644920  0.031841  0.036450  1
  Si  Si26  1  0.357822  0.966566  0.538285  1
  Si  Si27  1  0.854529  0.535096  0.960913  1
  Si  Si28  1  0.975777  0.883897  0.751863  1
  Si  Si29  1  0.478712  0.617255  0.750812  1
  Si  Si30  1  0.522424  0.384908  0.249693  1
  Si  Si31  1  0.022784  0.114878  0.249681  1
  Si  Si32  1  0.250649  0.394448  0.750493  1
  Si  Si33  1  0.747086  0.105087  0.751887  1
  Si  Si34  1  0.251277  0.893446  0.249703  1
  Si  Si35  1  0.750768  0.606260  0.249882  1
