# generated using pymatgen
data_LiHo2(PRh2)6
_symmetry_space_group_name_H-M   'P 1'
_cell_length_a   9.61919800
_cell_length_b   9.61919778
_cell_length_c   3.91602600
_cell_angle_alpha   90.00000000
_cell_angle_beta   90.00000000
_cell_angle_gamma   120.00000764
_symmetry_Int_Tables_number   1
_chemical_formula_structural   LiHo2(PRh2)6
_chemical_formula_sum   'Li1 Ho2 P6 Rh12'
_cell_volume   313.80068224
_cell_formula_units_Z   1
loop_
 _symmetry_equiv_pos_site_id
 _symmetry_equiv_pos_as_xyz
  1  'x, y, z'
loop_
 _atom_site_type_symbol
 _atom_site_label
 _atom_site_symmetry_multiplicity
 _atom_site_fract_x
 _atom_site_fract_y
 _atom_site_fract_z
 _atom_site_occupancy
  Li  Li0  1  0.000000  0.000000  0.500000  1
  Ho  Ho1  1  0.333333  0.666667  0.750854  1
  Ho  Ho2  1  0.666667  0.333333  0.249146  1
  P  P3  1  0.399745  0.282964  0.748881  1
  P  P4  1  0.717036  0.116780  0.748881  1
  P  P5  1  0.883220  0.600255  0.748881  1
  P  P6  1  0.600255  0.717036  0.251119  1
  P  P7  1  0.282964  0.883220  0.251119  1
  P  P8  1  0.116780  0.399745  0.251119  1
  Rh  Rh9  1  0.453500  0.066299  0.749430  1
  Rh  Rh10  1  0.933701  0.387201  0.749430  1
  Rh  Rh11  1  0.612799  0.546500  0.749430  1
  Rh  Rh12  1  0.546500  0.933701  0.250570  1
  Rh  Rh13  1  0.066299  0.612799  0.250570  1
  Rh  Rh14  1  0.387201  0.453500  0.250570  1
  Rh  Rh15  1  0.158520  0.285999  0.750875  1
  Rh  Rh16  1  0.714001  0.872522  0.750875  1
  Rh  Rh17  1  0.127478  0.841480  0.750875  1
  Rh  Rh18  1  0.841480  0.714001  0.249125  1
  Rh  Rh19  1  0.285999  0.127478  0.249125  1
  Rh  Rh20  1  0.872522  0.158520  0.249125  1
