# generated using pymatgen
data_K6Fe(SiO4)2
_symmetry_space_group_name_H-M   'P 1'
_cell_length_a   6.31993641
_cell_length_b   6.82594366
_cell_length_c   7.66449888
_cell_angle_alpha   83.11301448
_cell_angle_beta   87.19979143
_cell_angle_gamma   69.68838580
_symmetry_Int_Tables_number   1
_chemical_formula_structural   K6Fe(SiO4)2
_chemical_formula_sum   'K6 Fe1 Si2 O8'
_cell_volume   307.83638700
_cell_formula_units_Z   1
loop_
 _symmetry_equiv_pos_site_id
 _symmetry_equiv_pos_as_xyz
  1  'x, y, z'
loop_
 _atom_site_type_symbol
 _atom_site_label
 _atom_site_symmetry_multiplicity
 _atom_site_fract_x
 _atom_site_fract_y
 _atom_site_fract_z
 _atom_site_occupancy
  K  K0  1  0.649101  0.828472  0.165249  1
  K  K1  1  0.799826  0.307025  0.977512  1
  K  K2  1  0.280773  0.823025  0.560580  1
  K  K3  1  0.719227  0.176975  0.439420  1
  K  K4  1  0.200174  0.692975  0.022488  1
  K  K5  1  0.350899  0.171528  0.834751  1
  Fe  Fe6  1  0.000000  0.500000  0.500000  1
  Si  Si7  1  0.779199  0.761904  0.734533  1
  Si  Si8  1  0.220801  0.238096  0.265467  1
  O  O9  1  0.562677  0.729377  0.845106  1
  O  O10  1  0.829157  0.968700  0.785363  1
  O  O11  1  0.170843  0.031300  0.214637  1
  O  O12  1  0.013539  0.544100  0.757147  1
  O  O13  1  0.437323  0.270623  0.154894  1
  O  O14  1  0.986461  0.455900  0.242853  1
  O  O15  1  0.740723  0.772736  0.515305  1
  O  O16  1  0.259277  0.227264  0.484695  1
