# generated using pymatgen
data_Ni8Ge3Mo12AsC2
_symmetry_space_group_name_H-M   'P 1'
_cell_length_a   7.80157722
_cell_length_b   7.81133280
_cell_length_c   7.81133400
_cell_angle_alpha   59.99999493
_cell_angle_beta   59.95862132
_cell_angle_gamma   59.95861848
_symmetry_Int_Tables_number   1
_chemical_formula_structural   Ni8Ge3Mo12AsC2
_chemical_formula_sum   'Ni8 Ge3 Mo12 As1 C2'
_cell_volume   336.39213194
_cell_formula_units_Z   1
loop_
 _symmetry_equiv_pos_site_id
 _symmetry_equiv_pos_as_xyz
  1  'x, y, z'
loop_
 _atom_site_type_symbol
 _atom_site_label
 _atom_site_symmetry_multiplicity
 _atom_site_fract_x
 _atom_site_fract_y
 _atom_site_fract_z
 _atom_site_occupancy
  Ni  Ni0  1  0.333890  0.332633  0.000844  1
  Ni  Ni1  1  0.333890  0.332633  0.332633  1
  Ni  Ni2  1  0.248847  0.917051  0.917051  1
  Ni  Ni3  1  0.916110  0.917367  0.917367  1
  Ni  Ni4  1  0.001153  0.332949  0.332949  1
  Ni  Ni5  1  0.333890  0.000844  0.332633  1
  Ni  Ni6  1  0.916110  0.917367  0.249156  1
  Ni  Ni7  1  0.916110  0.249156  0.917367  1
  Ge  Ge8  1  0.125000  0.625000  0.125000  1
  Ge  Ge9  1  0.125000  0.125000  0.625000  1
  Ge  Ge10  1  0.125000  0.125000  0.125000  1
  Mo  Mo11  1  0.307674  0.692341  0.692341  1
  Mo  Mo12  1  0.692531  0.691567  0.307951  1
  Mo  Mo13  1  0.692531  0.307951  0.691567  1
  Mo  Mo14  1  0.307674  0.692341  0.307645  1
  Mo  Mo15  1  0.557469  0.942049  0.558433  1
  Mo  Mo16  1  0.557469  0.942049  0.942049  1
  Mo  Mo17  1  0.942326  0.557659  0.557659  1
  Mo  Mo18  1  0.942326  0.557659  0.942355  1
  Mo  Mo19  1  0.307674  0.307645  0.692341  1
  Mo  Mo20  1  0.557469  0.558433  0.942049  1
  Mo  Mo21  1  0.942326  0.942355  0.557659  1
  Mo  Mo22  1  0.692531  0.307951  0.307951  1
  As  As23  1  0.625000  0.125000  0.125000  1
  C  C24  1  0.499751  0.500083  0.500083  1
  C  C25  1  0.750249  0.749917  0.749917  1
