# generated using pymatgen
data_Ho10(GaBi)3
_symmetry_space_group_name_H-M   'P 1'
_cell_length_a   8.80209500
_cell_length_b   8.83817981
_cell_length_c   6.52714400
_cell_angle_alpha   90.00000000
_cell_angle_beta   90.00000000
_cell_angle_gamma   119.86502889
_symmetry_Int_Tables_number   1
_chemical_formula_structural   Ho10(GaBi)3
_chemical_formula_sum   'Ho10 Ga3 Bi3'
_cell_volume   440.34368343
_cell_formula_units_Z   1
loop_
 _symmetry_equiv_pos_site_id
 _symmetry_equiv_pos_as_xyz
  1  'x, y, z'
loop_
 _atom_site_type_symbol
 _atom_site_label
 _atom_site_symmetry_multiplicity
 _atom_site_fract_x
 _atom_site_fract_y
 _atom_site_fract_z
 _atom_site_occupancy
  Ho  Ho0  1  0.768277  0.750612  0.250000  1
  Ho  Ho1  1  0.017665  0.249388  0.250000  1
  Ho  Ho2  1  0.323412  0.667691  0.004902  1
  Ho  Ho3  1  0.242553  0.225632  0.750000  1
  Ho  Ho4  1  0.755968  0.000000  0.750000  1
  Ho  Ho5  1  0.232792  0.000000  0.250000  1
  Ho  Ho6  1  0.655722  0.332309  0.004902  1
  Ho  Ho7  1  0.016920  0.774368  0.750000  1
  Ho  Ho8  1  0.323412  0.667691  0.495098  1
  Ho  Ho9  1  0.655722  0.332309  0.495098  1
  Ga  Ga10  1  0.400481  0.000000  0.750000  1
  Ga  Ga11  1  0.998188  0.600856  0.250000  1
  Ga  Ga12  1  0.397333  0.399144  0.250000  1
  Bi  Bi13  1  0.995641  0.391332  0.750000  1
  Bi  Bi14  1  0.611604  0.000000  0.250000  1
  Bi  Bi15  1  0.604309  0.608668  0.750000  1
