# generated using pymatgen
data_Hf18Ti2Re6AsP
_symmetry_space_group_name_H-M   'P 1'
_cell_length_a   8.64219400
_cell_length_b   8.64219489
_cell_length_c   8.56507500
_cell_angle_alpha   90.00000000
_cell_angle_beta   90.00000000
_cell_angle_gamma   120.00000424
_symmetry_Int_Tables_number   1
_chemical_formula_structural   Hf18Ti2Re6AsP
_chemical_formula_sum   'Hf18 Ti2 Re6 As1 P1'
_cell_volume   554.00010925
_cell_formula_units_Z   1
loop_
 _symmetry_equiv_pos_site_id
 _symmetry_equiv_pos_as_xyz
  1  'x, y, z'
loop_
 _atom_site_type_symbol
 _atom_site_label
 _atom_site_symmetry_multiplicity
 _atom_site_fract_x
 _atom_site_fract_y
 _atom_site_fract_z
 _atom_site_occupancy
  Hf  Hf0  1  0.193535  0.806465  0.452232  1
  Hf  Hf1  1  0.193535  0.387068  0.452232  1
  Hf  Hf2  1  0.612932  0.806465  0.452232  1
  Hf  Hf3  1  0.803789  0.196211  0.550906  1
  Hf  Hf4  1  0.803789  0.607581  0.550906  1
  Hf  Hf5  1  0.392419  0.196211  0.550906  1
  Hf  Hf6  1  0.803789  0.196211  0.949094  1
  Hf  Hf7  1  0.803789  0.607581  0.949094  1
  Hf  Hf8  1  0.392419  0.196211  0.949094  1
  Hf  Hf9  1  0.193535  0.806465  0.047768  1
  Hf  Hf10  1  0.193535  0.387068  0.047768  1
  Hf  Hf11  1  0.612932  0.806465  0.047768  1
  Hf  Hf12  1  0.541824  0.458176  0.250000  1
  Hf  Hf13  1  0.541824  0.083648  0.250000  1
  Hf  Hf14  1  0.916352  0.458176  0.250000  1
  Hf  Hf15  1  0.459113  0.540887  0.750000  1
  Hf  Hf16  1  0.459113  0.918227  0.750000  1
  Hf  Hf17  1  0.081773  0.540887  0.750000  1
  Ti  Ti18  1  0.000000  0.000000  0.500013  1
  Ti  Ti19  1  0.000000  0.000000  0.999987  1
  Re  Re20  1  0.888330  0.111670  0.250000  1
  Re  Re21  1  0.888330  0.776659  0.250000  1
  Re  Re22  1  0.223341  0.111670  0.250000  1
  Re  Re23  1  0.111072  0.888928  0.750000  1
  Re  Re24  1  0.111072  0.222145  0.750000  1
  Re  Re25  1  0.777855  0.888928  0.750000  1
  As  As26  1  0.333333  0.666667  0.250000  1
  P  P27  1  0.666667  0.333333  0.750000  1
