# generated using pymatgen
data_Rb3Ba(AsPt)4
_symmetry_space_group_name_H-M   'P 1'
_cell_length_a   6.85442648
_cell_length_b   6.85442648
_cell_length_c   6.85442648
_cell_angle_alpha   90.33232974
_cell_angle_beta   89.66767026
_cell_angle_gamma   90.33232974
_symmetry_Int_Tables_number   1
_chemical_formula_structural   Rb3Ba(AsPt)4
_chemical_formula_sum   'Rb3 Ba1 As4 Pt4'
_cell_volume   322.02644387
_cell_formula_units_Z   1
loop_
 _symmetry_equiv_pos_site_id
 _symmetry_equiv_pos_as_xyz
  1  'x, y, z'
loop_
 _atom_site_type_symbol
 _atom_site_label
 _atom_site_symmetry_multiplicity
 _atom_site_fract_x
 _atom_site_fract_y
 _atom_site_fract_z
 _atom_site_occupancy
  Rb  Rb0  1  0.621856  0.369344  0.873669  1
  Rb  Rb1  1  0.373669  0.878144  0.630656  1
  Rb  Rb2  1  0.130656  0.126331  0.121856  1
  Ba  Ba3  1  0.875257  0.624743  0.375257  1
  As  As4  1  0.152682  0.347318  0.652682  1
  As  As5  1  0.658895  0.160208  0.343007  1
  As  As6  1  0.339792  0.656993  0.158895  1
  As  As7  1  0.843007  0.841105  0.839792  1
  Pt  Pt8  1  0.605946  0.894054  0.105946  1
  Pt  Pt9  1  0.098429  0.601378  0.901189  1
  Pt  Pt10  1  0.401189  0.401571  0.398622  1
  Pt  Pt11  1  0.898622  0.098811  0.598429  1
