# generated using pymatgen
data_Er4Ga3Os4W
_symmetry_space_group_name_H-M   'P 1'
_cell_length_a   5.28474729
_cell_length_b   5.28474667
_cell_length_c   8.94265300
_cell_angle_alpha   90.00000000
_cell_angle_beta   90.00000000
_cell_angle_gamma   117.89422966
_symmetry_Int_Tables_number   1
_chemical_formula_structural   Er4Ga3Os4W
_chemical_formula_sum   'Er4 Ga3 Os4 W1'
_cell_volume   220.73695180
_cell_formula_units_Z   1
loop_
 _symmetry_equiv_pos_site_id
 _symmetry_equiv_pos_as_xyz
  1  'x, y, z'
loop_
 _atom_site_type_symbol
 _atom_site_label
 _atom_site_symmetry_multiplicity
 _atom_site_fract_x
 _atom_site_fract_y
 _atom_site_fract_z
 _atom_site_occupancy
  Er  Er0  1  0.330078  0.669922  0.437589  1
  Er  Er1  1  0.666203  0.333797  0.557275  1
  Er  Er2  1  0.666203  0.333797  0.942725  1
  Er  Er3  1  0.330078  0.669922  0.062411  1
  Ga  Ga4  1  0.167872  0.832128  0.750000  1
  Ga  Ga5  1  0.168605  0.329958  0.750000  1
  Ga  Ga6  1  0.670042  0.831395  0.750000  1
  Os  Os7  1  0.994625  0.005375  0.500746  1
  Os  Os8  1  0.994625  0.005375  0.999254  1
  Os  Os9  1  0.827089  0.652547  0.250000  1
  Os  Os10  1  0.347453  0.172911  0.250000  1
  W  W11  1  0.837127  0.162873  0.250000  1
