# generated using pymatgen
data_Nd5SmCd23Sn
_symmetry_space_group_name_H-M   'P 1'
_cell_length_a   10.12763682
_cell_length_b   10.13829306
_cell_length_c   10.13829259
_cell_angle_alpha   59.93047395
_cell_angle_beta   60.03476544
_cell_angle_gamma   60.03476339
_symmetry_Int_Tables_number   1
_chemical_formula_structural   Nd5SmCd23Sn
_chemical_formula_sum   'Nd5 Sm1 Cd23 Sn1'
_cell_volume   736.07460275
_cell_formula_units_Z   1
loop_
 _symmetry_equiv_pos_site_id
 _symmetry_equiv_pos_as_xyz
  1  'x, y, z'
loop_
 _atom_site_type_symbol
 _atom_site_label
 _atom_site_symmetry_multiplicity
 _atom_site_fract_x
 _atom_site_fract_y
 _atom_site_fract_z
 _atom_site_occupancy
  Nd  Nd0  1  0.778883  0.778565  0.221117  1
  Nd  Nd1  1  0.221435  0.778565  0.221117  1
  Nd  Nd2  1  0.779178  0.220822  0.220822  1
  Nd  Nd3  1  0.221435  0.221117  0.778565  1
  Nd  Nd4  1  0.778883  0.221117  0.778565  1
  Sm  Sm5  1  0.220510  0.779490  0.779490  1
  Cd  Cd6  1  0.840002  0.839958  0.480039  1
  Cd  Cd7  1  0.840002  0.480039  0.839958  1
  Cd  Cd8  1  0.478939  0.839993  0.839993  1
  Cd  Cd9  1  0.841075  0.839993  0.839993  1
  Cd  Cd10  1  0.160007  0.158925  0.521061  1
  Cd  Cd11  1  0.160007  0.521061  0.158925  1
  Cd  Cd12  1  0.519961  0.159998  0.159998  1
  Cd  Cd13  1  0.160042  0.159998  0.159998  1
  Cd  Cd14  1  0.624807  0.624979  0.125407  1
  Cd  Cd15  1  0.624807  0.125407  0.624979  1
  Cd  Cd16  1  0.125986  0.625266  0.625266  1
  Cd  Cd17  1  0.623482  0.625266  0.625266  1
  Cd  Cd18  1  0.374734  0.376518  0.874014  1
  Cd  Cd19  1  0.374734  0.874014  0.376518  1
  Cd  Cd20  1  0.874593  0.375193  0.375193  1
  Cd  Cd21  1  0.375021  0.375193  0.375193  1
  Cd  Cd22  1  0.000268  0.999732  0.500195  1
  Cd  Cd23  1  0.499805  0.999732  0.500195  1
  Cd  Cd24  1  0.000185  0.499815  0.499815  1
  Cd  Cd25  1  0.499805  0.500195  0.999732  1
  Cd  Cd26  1  0.000268  0.500195  0.999732  1
  Cd  Cd27  1  0.500185  0.999815  0.999815  1
  Cd  Cd28  1  0.500005  0.499995  0.499995  1
  Sn  Sn29  1  0.000955  0.999045  0.999045  1
