# generated using pymatgen
data_Pr3NdMn4(RuO5)4
_symmetry_space_group_name_H-M   'P 1'
_cell_length_a   5.70971600
_cell_length_b   7.87345000
_cell_length_c   8.96754500
_cell_angle_alpha   90.00375504
_cell_angle_beta   90.00000000
_cell_angle_gamma   90.00000000
_symmetry_Int_Tables_number   1
_chemical_formula_structural   Pr3NdMn4(RuO5)4
_chemical_formula_sum   'Pr3 Nd1 Mn4 Ru4 O20'
_cell_volume   403.13745070
_cell_formula_units_Z   1
loop_
 _symmetry_equiv_pos_site_id
 _symmetry_equiv_pos_as_xyz
  1  'x, y, z'
loop_
 _atom_site_type_symbol
 _atom_site_label
 _atom_site_symmetry_multiplicity
 _atom_site_fract_x
 _atom_site_fract_y
 _atom_site_fract_z
 _atom_site_occupancy
  Pr  Pr0  1  0.000000  0.645068  0.327036  1
  Pr  Pr1  1  0.000000  0.854576  0.826687  1
  Pr  Pr2  1  0.000000  0.145618  0.173165  1
  Nd  Nd3  1  0.000000  0.354765  0.673086  1
  Mn  Mn4  1  0.500000  0.081934  0.853412  1
  Mn  Mn5  1  0.500000  0.918539  0.146411  1
  Mn  Mn6  1  0.500000  0.580701  0.646366  1
  Mn  Mn7  1  0.500000  0.418407  0.353978  1
  Ru  Ru8  1  0.279212  0.499924  0.999797  1
  Ru  Ru9  1  0.720846  0.000318  0.500161  1
  Ru  Ru10  1  0.720788  0.499924  0.999797  1
  Ru  Ru11  1  0.279154  0.000318  0.500161  1
  O  O12  1  0.250720  0.904263  0.288779  1
  O  O13  1  0.250202  0.097270  0.711186  1
  O  O14  1  0.749186  0.404298  0.211344  1
  O  O15  1  0.750033  0.594898  0.788293  1
  O  O16  1  0.749798  0.097270  0.711186  1
  O  O17  1  0.749280  0.904263  0.288779  1
  O  O18  1  0.249967  0.594898  0.788293  1
  O  O19  1  0.250814  0.404298  0.211344  1
  O  O20  1  0.500000  0.328598  0.927878  1
  O  O21  1  0.500000  0.671382  0.072215  1
  O  O22  1  0.500000  0.828578  0.572480  1
  O  O23  1  0.500000  0.171457  0.427633  1
  O  O24  1  0.267934  0.999957  0.999855  1
  O  O25  1  0.732938  0.498883  0.500826  1
  O  O26  1  0.732066  0.999957  0.999855  1
  O  O27  1  0.267062  0.498883  0.500826  1
  O  O28  1  0.000000  0.154100  0.449330  1
  O  O29  1  0.000000  0.847020  0.551357  1
  O  O30  1  0.000000  0.653099  0.051239  1
  O  O31  1  0.000000  0.346537  0.947243  1
