# generated using pymatgen
data_Yb3Hf5Si16(Mo5W)2
_symmetry_space_group_name_H-M   'P 1'
_cell_length_a   6.63281039
_cell_length_b   6.80633242
_cell_length_c   12.76653140
_cell_angle_alpha   90.17734309
_cell_angle_beta   89.91359308
_cell_angle_gamma   90.22475030
_symmetry_Int_Tables_number   1
_chemical_formula_structural   Yb3Hf5Si16(Mo5W)2
_chemical_formula_sum   'Yb3 Hf5 Si16 Mo10 W2'
_cell_volume   576.33865509
_cell_formula_units_Z   1
loop_
 _symmetry_equiv_pos_site_id
 _symmetry_equiv_pos_as_xyz
  1  'x, y, z'
loop_
 _atom_site_type_symbol
 _atom_site_label
 _atom_site_symmetry_multiplicity
 _atom_site_fract_x
 _atom_site_fract_y
 _atom_site_fract_z
 _atom_site_occupancy
  Yb  Yb0  1  0.994726  0.162793  0.089303  1
  Yb  Yb1  1  0.003185  0.835293  0.911076  1
  Yb  Yb2  1  0.503536  0.666348  0.908908  1
  Hf  Hf3  1  0.003392  0.830903  0.592994  1
  Hf  Hf4  1  0.494661  0.329568  0.098496  1
  Hf  Hf5  1  0.994546  0.169666  0.406895  1
  Hf  Hf6  1  0.495158  0.331467  0.407315  1
  Hf  Hf7  1  0.502954  0.669519  0.593128  1
  Si  Si8  1  0.034958  0.126842  0.748035  1
  Si  Si9  1  0.967832  0.872428  0.250951  1
  Si  Si10  1  0.465164  0.627122  0.251204  1
  Si  Si11  1  0.535476  0.375339  0.746260  1
  Si  Si12  1  0.301453  0.863532  0.749481  1
  Si  Si13  1  0.698457  0.137357  0.250995  1
  Si  Si14  1  0.197881  0.360316  0.251484  1
  Si  Si15  1  0.801901  0.639174  0.749362  1
  Si  Si16  1  0.169122  0.458534  0.541523  1
  Si  Si17  1  0.831536  0.542199  0.457492  1
  Si  Si18  1  0.332461  0.957856  0.457161  1
  Si  Si19  1  0.834598  0.536500  0.048428  1
  Si  Si20  1  0.667257  0.041669  0.541023  1
  Si  Si21  1  0.161995  0.459366  0.954118  1
  Si  Si22  1  0.656094  0.044673  0.954673  1
  Si  Si23  1  0.344044  0.961966  0.048536  1
  Mo  Mo24  1  0.334571  0.010678  0.253723  1
  Mo  Mo25  1  0.666732  0.996643  0.742758  1
  Mo  Mo26  1  0.331659  0.161924  0.621208  1
  Mo  Mo27  1  0.669492  0.838908  0.377173  1
  Mo  Mo28  1  0.168831  0.659624  0.378214  1
  Mo  Mo29  1  0.668297  0.834003  0.128115  1
  Mo  Mo30  1  0.833382  0.337351  0.620154  1
  Mo  Mo31  1  0.334725  0.171610  0.872562  1
  Mo  Mo32  1  0.831704  0.333073  0.870678  1
  Mo  Mo33  1  0.169794  0.657897  0.128390  1
  W  W34  1  0.166895  0.504654  0.743565  1
  W  W35  1  0.831533  0.493199  0.254623  1
