# generated using pymatgen
data_Sr4Si6HgPd
_symmetry_space_group_name_H-M   'P 1'
_cell_length_a   11.88221670
_cell_length_b   10.26902146
_cell_length_c   8.44211210
_cell_angle_alpha   78.17348455
_cell_angle_beta   57.76731995
_cell_angle_gamma   44.05920450
_symmetry_Int_Tables_number   1
_chemical_formula_structural   Sr4Si6HgPd
_chemical_formula_sum   'Sr8 Si12 Hg2 Pd2'
_cell_volume   577.41835739
_cell_formula_units_Z   2
loop_
 _symmetry_equiv_pos_site_id
 _symmetry_equiv_pos_as_xyz
  1  'x, y, z'
loop_
 _atom_site_type_symbol
 _atom_site_label
 _atom_site_symmetry_multiplicity
 _atom_site_fract_x
 _atom_site_fract_y
 _atom_site_fract_z
 _atom_site_occupancy
  Sr  Sr0  1  0.117602  0.131431  0.879838  1
  Sr  Sr1  1  0.879839  0.871131  0.117601  1
  Sr  Sr2  1  0.118570  0.132399  0.378869  1
  Sr  Sr3  1  0.378870  0.370162  0.118569  1
  Sr  Sr4  1  0.630256  0.618356  0.372669  1
  Sr  Sr5  1  0.372669  0.378720  0.630256  1
  Sr  Sr6  1  0.631645  0.619744  0.871280  1
  Sr  Sr7  1  0.871281  0.877332  0.631644  1
  Si  Si8  1  0.920970  0.585721  0.410702  1
  Si  Si9  1  0.063498  0.437178  0.593034  1
  Si  Si10  1  0.410702  0.082606  0.920970  1
  Si  Si11  1  0.593034  0.906290  0.063498  1
  Si  Si12  1  0.343710  0.656966  0.812822  1
  Si  Si13  1  0.664279  0.329030  0.167394  1
  Si  Si14  1  0.812822  0.186502  0.343710  1
  Si  Si15  1  0.167394  0.839298  0.664279  1
  Si  Si16  1  0.918158  0.581843  0.918157  1
  Si  Si17  1  0.593391  0.906610  0.593390  1
  Si  Si18  1  0.343391  0.656610  0.343391  1
  Si  Si19  1  0.668157  0.331843  0.668157  1
  Hg  Hg20  1  0.167130  0.832870  0.167130  1
  Hg  Hg21  1  0.417130  0.082870  0.417130  1
  Pd  Pd22  1  0.082752  0.417248  0.082752  1
  Pd  Pd23  1  0.832752  0.167248  0.832752  1
