# generated using pymatgen
data_NdY2Si4(PPd10)2
_symmetry_space_group_name_H-M   'P 1'
_cell_length_a   8.72831207
_cell_length_b   8.73908185
_cell_length_c   8.73908163
_cell_angle_alpha   59.91848547
_cell_angle_beta   60.04075763
_cell_angle_gamma   60.04075597
_symmetry_Int_Tables_number   1
_chemical_formula_structural   NdY2Si4(PPd10)2
_chemical_formula_sum   'Nd1 Y2 Si4 P2 Pd20'
_cell_volume   471.35221252
_cell_formula_units_Z   1
loop_
 _symmetry_equiv_pos_site_id
 _symmetry_equiv_pos_as_xyz
  1  'x, y, z'
loop_
 _atom_site_type_symbol
 _atom_site_label
 _atom_site_symmetry_multiplicity
 _atom_site_fract_x
 _atom_site_fract_y
 _atom_site_fract_z
 _atom_site_occupancy
  Nd  Nd0  1  0.750000  0.750000  0.750000  1
  Y  Y1  1  0.250000  0.250000  0.250000  1
  Y  Y2  1  0.000000  0.000000  0.000000  1
  Si  Si3  1  0.265853  0.734147  0.265853  1
  Si  Si4  1  0.734147  0.265853  0.734147  1
  Si  Si5  1  0.265853  0.265853  0.734147  1
  Si  Si6  1  0.734147  0.734147  0.265853  1
  P  P7  1  0.734878  0.265122  0.265122  1
  P  P8  1  0.265122  0.734878  0.734878  1
  Pd  Pd9  1  0.345751  0.000747  0.000747  1
  Pd  Pd10  1  0.652755  0.000747  0.000747  1
  Pd  Pd11  1  0.000747  0.345751  0.652755  1
  Pd  Pd12  1  0.000747  0.652755  0.345751  1
  Pd  Pd13  1  0.999506  0.344522  0.001954  1
  Pd  Pd14  1  0.654017  0.001954  0.344522  1
  Pd  Pd15  1  0.001954  0.654017  0.999506  1
  Pd  Pd16  1  0.344522  0.999506  0.654017  1
  Pd  Pd17  1  0.999506  0.001954  0.344522  1
  Pd  Pd18  1  0.001954  0.999506  0.654017  1
  Pd  Pd19  1  0.654017  0.344522  0.001954  1
  Pd  Pd20  1  0.344522  0.654017  0.999506  1
  Pd  Pd21  1  0.384969  0.383191  0.383191  1
  Pd  Pd22  1  0.612805  0.614817  0.614817  1
  Pd  Pd23  1  0.383191  0.384969  0.848648  1
  Pd  Pd24  1  0.383191  0.848648  0.384969  1
  Pd  Pd25  1  0.614817  0.612805  0.157561  1
  Pd  Pd26  1  0.614817  0.157561  0.612805  1
  Pd  Pd27  1  0.848648  0.383191  0.383191  1
  Pd  Pd28  1  0.157561  0.614817  0.614817  1
