# generated using pymatgen
data_Li4DyHo3(SiO4)4
_symmetry_space_group_name_H-M   'P 1'
_cell_length_a   6.21853121
_cell_length_b   5.43397714
_cell_length_c   10.90932360
_cell_angle_alpha   66.34141397
_cell_angle_beta   90.02930613
_cell_angle_gamma   90.01797418
_symmetry_Int_Tables_number   1
_chemical_formula_structural   Li4DyHo3(SiO4)4
_chemical_formula_sum   'Li4 Dy1 Ho3 Si4 O16'
_cell_volume   337.65759747
_cell_formula_units_Z   1
loop_
 _symmetry_equiv_pos_site_id
 _symmetry_equiv_pos_as_xyz
  1  'x, y, z'
loop_
 _atom_site_type_symbol
 _atom_site_label
 _atom_site_symmetry_multiplicity
 _atom_site_fract_x
 _atom_site_fract_y
 _atom_site_fract_z
 _atom_site_occupancy
  Li  Li0  1  0.133973  0.918967  0.430211  1
  Li  Li1  1  0.634006  0.080937  0.069850  1
  Li  Li2  1  0.865967  0.081125  0.569757  1
  Li  Li3  1  0.366139  0.918899  0.930262  1
  Dy  Dy4  1  0.116411  0.445891  0.847523  1
  Ho  Ho5  1  0.883600  0.553983  0.152435  1
  Ho  Ho6  1  0.616341  0.554125  0.652222  1
  Ho  Ho7  1  0.383704  0.445973  0.347628  1
  Si  Si8  1  0.651796  0.904032  0.359233  1
  Si  Si9  1  0.348593  0.096169  0.640474  1
  Si  Si10  1  0.151853  0.095687  0.141004  1
  Si  Si11  1  0.847750  0.904056  0.859242  1
  O  O12  1  0.857959  0.231727  0.775663  1
  O  O13  1  0.641118  0.231943  0.276018  1
  O  O14  1  0.163367  0.186656  0.523396  1
  O  O15  1  0.836893  0.758314  0.752194  1
  O  O16  1  0.141079  0.767820  0.224101  1
  O  O17  1  0.571699  0.228055  0.554495  1
  O  O18  1  0.662372  0.757645  0.252401  1
  O  O19  1  0.428429  0.772324  0.445193  1
  O  O20  1  0.071347  0.773254  0.945290  1
  O  O21  1  0.663308  0.813234  0.976646  1
  O  O22  1  0.162423  0.242342  0.247698  1
  O  O23  1  0.928235  0.227263  0.055246  1
  O  O24  1  0.337051  0.185785  0.024034  1
  O  O25  1  0.338317  0.241901  0.747509  1
  O  O26  1  0.359660  0.768524  0.723701  1
  O  O27  1  0.836609  0.813369  0.476574  1
