# generated using pymatgen
data_Zr8Co13(P4Ru)3
_symmetry_space_group_name_H-M   'P 1'
_cell_length_a   12.28048600
_cell_length_b   12.28048700
_cell_length_c   3.69825300
_cell_angle_alpha   90.00000000
_cell_angle_beta   90.00000000
_cell_angle_gamma   119.99999731
_symmetry_Int_Tables_number   1
_chemical_formula_structural   Zr8Co13(P4Ru)3
_chemical_formula_sum   'Zr8 Co13 P12 Ru3'
_cell_volume   483.01253957
_cell_formula_units_Z   1
loop_
 _symmetry_equiv_pos_site_id
 _symmetry_equiv_pos_as_xyz
  1  'x, y, z'
loop_
 _atom_site_type_symbol
 _atom_site_label
 _atom_site_symmetry_multiplicity
 _atom_site_fract_x
 _atom_site_fract_y
 _atom_site_fract_z
 _atom_site_occupancy
  Zr  Zr0  1  0.446540  0.440135  0.000000  1
  Zr  Zr1  1  0.559865  0.006406  0.000000  1
  Zr  Zr2  1  0.993594  0.553460  0.000000  1
  Zr  Zr3  1  0.666667  0.333333  0.000000  1
  Zr  Zr4  1  0.333333  0.666667  0.000000  1
  Zr  Zr5  1  0.822875  0.825576  0.500000  1
  Zr  Zr6  1  0.174424  0.997299  0.500000  1
  Zr  Zr7  1  0.002701  0.177125  0.500000  1
  Co  Co8  1  0.196318  0.364190  0.000000  1
  Co  Co9  1  0.167872  0.803682  0.000000  1
  Co  Co10  1  0.819059  0.629770  0.000000  1
  Co  Co11  1  0.810710  0.180941  0.000000  1
  Co  Co12  1  0.370230  0.189290  0.000000  1
  Co  Co13  1  0.643723  0.510160  0.500000  1
  Co  Co14  1  0.866436  0.356277  0.500000  1
  Co  Co15  1  0.489840  0.133564  0.500000  1
  Co  Co16  1  0.000000  0.000000  0.000000  1
  Co  Co17  1  0.726939  0.005861  0.500000  1
  Co  Co18  1  0.994139  0.721078  0.500000  1
  Co  Co19  1  0.635810  0.832128  0.000000  1
  Co  Co20  1  0.278922  0.273061  0.500000  1
  P  P21  1  0.655849  0.657333  0.000000  1
  P  P22  1  0.342667  0.998516  0.000000  1
  P  P23  1  0.001484  0.344151  0.000000  1
  P  P24  1  0.481082  0.305147  0.500000  1
  P  P25  1  0.694853  0.175935  0.500000  1
  P  P26  1  0.824065  0.518918  0.500000  1
  P  P27  1  0.522507  0.834332  0.500000  1
  P  P28  1  0.165668  0.688175  0.500000  1
  P  P29  1  0.827677  0.003359  0.000000  1
  P  P30  1  0.996641  0.824317  0.000000  1
  P  P31  1  0.311825  0.477493  0.500000  1
  P  P32  1  0.175683  0.172323  0.000000  1
  Ru  Ru33  1  0.122286  0.473850  0.500000  1
  Ru  Ru34  1  0.351564  0.877714  0.500000  1
  Ru  Ru35  1  0.526150  0.648436  0.500000  1
