# generated using pymatgen
data_Na5ScBr8
_symmetry_space_group_name_H-M   'P 1'
_cell_length_a   7.34046741
_cell_length_b   7.34046642
_cell_length_c   8.46685800
_cell_angle_alpha   90.00000000
_cell_angle_beta   90.00000000
_cell_angle_gamma   109.14751825
_symmetry_Int_Tables_number   1
_chemical_formula_structural   Na5ScBr8
_chemical_formula_sum   'Na5 Sc1 Br8'
_cell_volume   430.97599893
_cell_formula_units_Z   1
loop_
 _symmetry_equiv_pos_site_id
 _symmetry_equiv_pos_as_xyz
  1  'x, y, z'
loop_
 _atom_site_type_symbol
 _atom_site_label
 _atom_site_symmetry_multiplicity
 _atom_site_fract_x
 _atom_site_fract_y
 _atom_site_fract_z
 _atom_site_occupancy
  Na  Na0  1  0.500000  0.000000  0.237278  1
  Na  Na1  1  0.000000  0.500000  0.762722  1
  Na  Na2  1  0.500000  0.000000  0.762722  1
  Na  Na3  1  0.000000  0.500000  0.237278  1
  Na  Na4  1  0.500000  0.500000  0.000000  1
  Sc  Sc5  1  0.500000  0.500000  0.500000  1
  Br  Br6  1  0.276221  0.276221  0.277326  1
  Br  Br7  1  0.723779  0.723779  0.277326  1
  Br  Br8  1  0.273618  0.726382  0.500000  1
  Br  Br9  1  0.276221  0.276221  0.722674  1
  Br  Br10  1  0.723779  0.723779  0.722674  1
  Br  Br11  1  0.254016  0.745984  0.000000  1
  Br  Br12  1  0.726382  0.273618  0.500000  1
  Br  Br13  1  0.745984  0.254016  0.000000  1
