# generated using pymatgen
data_La2Nd11Th3(CdIr)4
_symmetry_space_group_name_H-M   'P 1'
_cell_length_a   9.96793905
_cell_length_b   10.00388751
_cell_length_c   10.00388712
_cell_angle_alpha   60.08475136
_cell_angle_beta   60.16699258
_cell_angle_gamma   60.16699619
_symmetry_Int_Tables_number   1
_chemical_formula_structural   La2Nd11Th3(CdIr)4
_chemical_formula_sum   'La2 Nd11 Th3 Cd4 Ir4'
_cell_volume   707.61717408
_cell_formula_units_Z   1
loop_
 _symmetry_equiv_pos_site_id
 _symmetry_equiv_pos_as_xyz
  1  'x, y, z'
loop_
 _atom_site_type_symbol
 _atom_site_label
 _atom_site_symmetry_multiplicity
 _atom_site_fract_x
 _atom_site_fract_y
 _atom_site_fract_z
 _atom_site_occupancy
  La  La0  1  0.953324  0.349598  0.349598  1
  La  La1  1  0.810681  0.189849  0.189849  1
  Nd  Nd2  1  0.190042  0.809765  0.809765  1
  Nd  Nd3  1  0.192192  0.808335  0.190162  1
  Nd  Nd4  1  0.809493  0.189644  0.808362  1
  Nd  Nd5  1  0.192192  0.190162  0.808335  1
  Nd  Nd6  1  0.809493  0.808362  0.189644  1
  Nd  Nd7  1  0.939840  0.563261  0.563261  1
  Nd  Nd8  1  0.560725  0.938082  0.938082  1
  Nd  Nd9  1  0.561052  0.939251  0.563151  1
  Nd  Nd10  1  0.939546  0.562274  0.935271  1
  Nd  Nd11  1  0.561052  0.563151  0.939251  1
  Nd  Nd12  1  0.939546  0.935271  0.562274  1
  Th  Th13  1  0.344106  0.346709  0.346709  1
  Th  Th14  1  0.346315  0.346771  0.959957  1
  Th  Th15  1  0.346315  0.959957  0.346771  1
  Cd  Cd16  1  0.577955  0.580889  0.580889  1
  Cd  Cd17  1  0.577384  0.582285  0.259549  1
  Cd  Cd18  1  0.577384  0.259549  0.582285  1
  Cd  Cd19  1  0.257686  0.580861  0.580861  1
  Ir  Ir20  1  0.148923  0.142172  0.142172  1
  Ir  Ir21  1  0.150377  0.141280  0.566580  1
  Ir  Ir22  1  0.150377  0.566580  0.141280  1
  Ir  Ir23  1  0.563996  0.145940  0.145940  1
