# generated using pymatgen
data_LiPrTmP2
_symmetry_space_group_name_H-M   'P 1'
_cell_length_a   4.10994600
_cell_length_b   4.10994508
_cell_length_c   14.13540200
_cell_angle_alpha   90.00000000
_cell_angle_beta   90.00000000
_cell_angle_gamma   120.00002353
_symmetry_Int_Tables_number   1
_chemical_formula_structural   LiPrTmP2
_chemical_formula_sum   'Li2 Pr2 Tm2 P4'
_cell_volume   206.78109303
_cell_formula_units_Z   2
loop_
 _symmetry_equiv_pos_site_id
 _symmetry_equiv_pos_as_xyz
  1  'x, y, z'
loop_
 _atom_site_type_symbol
 _atom_site_label
 _atom_site_symmetry_multiplicity
 _atom_site_fract_x
 _atom_site_fract_y
 _atom_site_fract_z
 _atom_site_occupancy
  Li  Li0  1  0.000000  0.000000  0.737192  1
  Li  Li1  1  0.000000  0.000000  0.237192  1
  Pr  Pr2  1  0.333333  0.666667  0.888021  1
  Pr  Pr3  1  0.666667  0.333333  0.388021  1
  Tm  Tm4  1  0.666667  0.333333  0.108246  1
  Tm  Tm5  1  0.333333  0.666667  0.608246  1
  P  P6  1  0.000000  0.000000  0.508793  1
  P  P7  1  0.000000  0.000000  0.008793  1
  P  P8  1  0.666667  0.333333  0.741417  1
  P  P9  1  0.333333  0.666667  0.241417  1
