# generated using pymatgen
data_Er3Al9Si3Ru4
_symmetry_space_group_name_H-M   'P 1'
_cell_length_a   8.65026700
_cell_length_b   8.63277774
_cell_length_c   9.49713900
_cell_angle_alpha   90.00000000
_cell_angle_beta   90.00000000
_cell_angle_gamma   120.06704317
_symmetry_Int_Tables_number   1
_chemical_formula_structural   Er3Al9Si3Ru4
_chemical_formula_sum   'Er6 Al18 Si6 Ru8'
_cell_volume   613.77572056
_cell_formula_units_Z   2
loop_
 _symmetry_equiv_pos_site_id
 _symmetry_equiv_pos_as_xyz
  1  'x, y, z'
loop_
 _atom_site_type_symbol
 _atom_site_label
 _atom_site_symmetry_multiplicity
 _atom_site_fract_x
 _atom_site_fract_y
 _atom_site_fract_z
 _atom_site_occupancy
  Er  Er0  1  0.193699  0.387397  0.250000  1
  Er  Er1  1  0.806301  0.612603  0.750000  1
  Er  Er2  1  0.609784  0.807940  0.250000  1
  Er  Er3  1  0.390216  0.192060  0.750000  1
  Er  Er4  1  0.198155  0.807940  0.250000  1
  Er  Er5  1  0.801845  0.192060  0.750000  1
  Al  Al6  1  0.164619  0.329238  0.580965  1
  Al  Al7  1  0.835381  0.670762  0.419035  1
  Al  Al8  1  0.670504  0.834714  0.579258  1
  Al  Al9  1  0.835381  0.670762  0.080965  1
  Al  Al10  1  0.329496  0.165286  0.420742  1
  Al  Al11  1  0.164619  0.329238  0.919035  1
  Al  Al12  1  0.164210  0.834714  0.579258  1
  Al  Al13  1  0.329496  0.165286  0.079258  1
  Al  Al14  1  0.835790  0.165286  0.420742  1
  Al  Al15  1  0.670504  0.834714  0.920742  1
  Al  Al16  1  0.835790  0.165286  0.079258  1
  Al  Al17  1  0.164210  0.834714  0.920742  1
  Al  Al18  1  0.874037  0.434156  0.250000  1
  Al  Al19  1  0.125963  0.565844  0.750000  1
  Al  Al20  1  0.560119  0.434156  0.250000  1
  Al  Al21  1  0.439881  0.565844  0.750000  1
  Al  Al22  1  0.999486  0.998972  0.250000  1
  Al  Al23  1  0.000514  0.001028  0.750000  1
  Si  Si24  1  0.331928  0.663857  0.040048  1
  Si  Si25  1  0.668072  0.336143  0.959952  1
  Si  Si26  1  0.668072  0.336143  0.540048  1
  Si  Si27  1  0.331928  0.663857  0.459952  1
  Si  Si28  1  0.562771  0.125541  0.250000  1
  Si  Si29  1  0.437229  0.874459  0.750000  1
  Ru  Ru30  1  0.500000  0.000000  0.000000  1
  Ru  Ru31  1  0.000000  0.500000  0.000000  1
  Ru  Ru32  1  0.500000  0.000000  0.500000  1
  Ru  Ru33  1  0.500000  0.500000  0.000000  1
  Ru  Ru34  1  0.000000  0.500000  0.500000  1
  Ru  Ru35  1  0.500000  0.500000  0.500000  1
  Ru  Ru36  1  0.000000  0.000000  0.000000  1
  Ru  Ru37  1  0.000000  0.000000  0.500000  1
