# generated using pymatgen
data_Ca2DyMg(ReN3)4
_symmetry_space_group_name_H-M   'P 1'
_cell_length_a   7.30405329
_cell_length_b   7.30405178
_cell_length_c   6.18403111
_cell_angle_alpha   74.41918857
_cell_angle_beta   74.41919182
_cell_angle_gamma   83.91121042
_symmetry_Int_Tables_number   1
_chemical_formula_structural   Ca2DyMg(ReN3)4
_chemical_formula_sum   'Ca2 Dy1 Mg1 Re4 N12'
_cell_volume   305.90693294
_cell_formula_units_Z   1
loop_
 _symmetry_equiv_pos_site_id
 _symmetry_equiv_pos_as_xyz
  1  'x, y, z'
loop_
 _atom_site_type_symbol
 _atom_site_label
 _atom_site_symmetry_multiplicity
 _atom_site_fract_x
 _atom_site_fract_y
 _atom_site_fract_z
 _atom_site_occupancy
  Ca  Ca0  1  0.292894  0.707106  0.750000  1
  Ca  Ca1  1  0.705730  0.294270  0.250000  1
  Dy  Dy2  1  0.918008  0.081992  0.750000  1
  Mg  Mg3  1  0.094787  0.905213  0.250000  1
  Re  Re4  1  0.619132  0.800814  0.263432  1
  Re  Re5  1  0.199186  0.380868  0.236568  1
  Re  Re6  1  0.377399  0.201605  0.741063  1
  Re  Re7  1  0.798395  0.622601  0.758937  1
  N  N8  1  0.345206  0.364594  0.940395  1
  N  N9  1  0.010629  0.213591  0.342830  1
  N  N10  1  0.786409  0.989371  0.157170  1
  N  N11  1  0.213264  0.009734  0.864035  1
  N  N12  1  0.659531  0.644306  0.052523  1
  N  N13  1  0.886341  0.382737  0.813856  1
  N  N14  1  0.114252  0.619792  0.190405  1
  N  N15  1  0.990266  0.786736  0.635965  1
  N  N16  1  0.380208  0.885748  0.309595  1
  N  N17  1  0.635406  0.654794  0.559605  1
  N  N18  1  0.617263  0.113659  0.686144  1
  N  N19  1  0.355694  0.340469  0.447477  1
