# generated using pymatgen
data_Y7CoI12
_symmetry_space_group_name_H-M   'P 1'
_cell_length_a   9.75376941
_cell_length_b   9.75376953
_cell_length_c   9.75377049
_cell_angle_alpha   106.92119226
_cell_angle_beta   106.92118771
_cell_angle_gamma   106.92120146
_symmetry_Int_Tables_number   1
_chemical_formula_structural   Y7CoI12
_chemical_formula_sum   'Y7 Co1 I12'
_cell_volume   774.44836259
_cell_formula_units_Z   1
loop_
 _symmetry_equiv_pos_site_id
 _symmetry_equiv_pos_as_xyz
  1  'x, y, z'
loop_
 _atom_site_type_symbol
 _atom_site_label
 _atom_site_symmetry_multiplicity
 _atom_site_fract_x
 _atom_site_fract_y
 _atom_site_fract_z
 _atom_site_occupancy
  Y  Y0  1  0.522289  0.592477  0.789030  1
  Y  Y1  1  0.789030  0.522289  0.592477  1
  Y  Y2  1  0.592477  0.789030  0.522289  1
  Y  Y3  1  0.476316  0.406237  0.210123  1
  Y  Y4  1  0.210123  0.476316  0.406237  1
  Y  Y5  1  0.406237  0.210123  0.476316  1
  Y  Y6  1  0.994696  0.994696  0.994696  1
  Co  Co7  1  0.499785  0.499785  0.499785  1
  I  I8  1  0.274863  0.821402  0.427055  1
  I  I9  1  0.427055  0.274863  0.821402  1
  I  I10  1  0.821402  0.427055  0.274863  1
  I  I11  1  0.724210  0.177587  0.571900  1
  I  I12  1  0.571900  0.724210  0.177587  1
  I  I13  1  0.177587  0.571900  0.724210  1
  I  I14  1  0.034359  0.110899  0.335560  1
  I  I15  1  0.335560  0.034359  0.110899  1
  I  I16  1  0.110899  0.335560  0.034359  1
  I  I17  1  0.963637  0.886060  0.656884  1
  I  I18  1  0.656884  0.963637  0.886060  1
  I  I19  1  0.886060  0.656884  0.963637  1
