# generated using pymatgen
data_Li3Ho4Si6Pd
_symmetry_space_group_name_H-M   'P 1'
_cell_length_a   9.20018074
_cell_length_b   9.20018068
_cell_length_c   6.68228325
_cell_angle_alpha   90.39087455
_cell_angle_beta   89.60912599
_cell_angle_gamma   153.45513010
_symmetry_Int_Tables_number   1
_chemical_formula_structural   Li3Ho4Si6Pd
_chemical_formula_sum   'Li3 Ho4 Si6 Pd1'
_cell_volume   252.76436600
_cell_formula_units_Z   1
loop_
 _symmetry_equiv_pos_site_id
 _symmetry_equiv_pos_as_xyz
  1  'x, y, z'
loop_
 _atom_site_type_symbol
 _atom_site_label
 _atom_site_symmetry_multiplicity
 _atom_site_fract_x
 _atom_site_fract_y
 _atom_site_fract_z
 _atom_site_occupancy
  Li  Li0  1  0.190004  0.809996  0.440073  1
  Li  Li1  1  0.189686  0.810314  0.060535  1
  Li  Li2  1  0.812691  0.187309  0.938471  1
  Ho  Ho3  1  0.550050  0.449950  0.252417  1
  Ho  Ho4  1  0.447245  0.552755  0.749872  1
  Ho  Ho5  1  0.343575  0.656425  0.249332  1
  Ho  Ho6  1  0.656538  0.343462  0.746268  1
  Si  Si7  1  0.941052  0.058948  0.074669  1
  Si  Si8  1  0.059877  0.940123  0.928466  1
  Si  Si9  1  0.058626  0.941374  0.573048  1
  Si  Si10  1  0.938157  0.061843  0.430680  1
  Si  Si11  1  0.721157  0.278843  0.253958  1
  Si  Si12  1  0.280776  0.719224  0.742858  1
  Pd  Pd13  1  0.810565  0.189435  0.559352  1
