# generated using pymatgen
data_Y7ErTi6(Nb3Si8)2
_symmetry_space_group_name_H-M   'P 1'
_cell_length_a   7.06440410
_cell_length_b   7.06346273
_cell_length_c   13.00070240
_cell_angle_alpha   90.08824864
_cell_angle_beta   89.99846893
_cell_angle_gamma   90.01998719
_symmetry_Int_Tables_number   1
_chemical_formula_structural   Y7ErTi6(Nb3Si8)2
_chemical_formula_sum   'Y7 Er1 Ti6 Nb6 Si16'
_cell_volume   648.72325635
_cell_formula_units_Z   1
loop_
 _symmetry_equiv_pos_site_id
 _symmetry_equiv_pos_as_xyz
  1  'x, y, z'
loop_
 _atom_site_type_symbol
 _atom_site_label
 _atom_site_symmetry_multiplicity
 _atom_site_fract_x
 _atom_site_fract_y
 _atom_site_fract_z
 _atom_site_occupancy
  Y  Y0  1  0.341516  0.001113  0.466144  1
  Y  Y1  1  0.498510  0.841541  0.716459  1
  Y  Y2  1  0.501781  0.157573  0.216425  1
  Y  Y3  1  0.840147  0.499053  0.283357  1
  Y  Y4  1  0.158764  0.501446  0.783118  1
  Y  Y5  1  0.658141  0.998216  0.966887  1
  Y  Y6  1  0.000966  0.340995  0.533224  1
  Er  Er7  1  0.999585  0.659879  0.033326  1
  Ti  Ti8  1  0.508754  0.346763  0.625266  1
  Ti  Ti9  1  0.653331  0.491082  0.875403  1
  Ti  Ti10  1  0.348274  0.508708  0.375237  1
  Ti  Ti11  1  0.847072  0.990416  0.374397  1
  Ti  Ti12  1  0.008621  0.152198  0.125182  1
  Ti  Ti13  1  0.990767  0.847047  0.625689  1
  Nb  Nb14  1  0.327397  0.328088  0.000394  1
  Nb  Nb15  1  0.172501  0.827297  0.250104  1
  Nb  Nb16  1  0.828147  0.172532  0.750197  1
  Nb  Nb17  1  0.672413  0.671864  0.500026  1
  Nb  Nb18  1  0.151604  0.008491  0.875038  1
  Nb  Nb19  1  0.491222  0.652495  0.123898  1
  Si  Si20  1  0.204586  0.131167  0.683233  1
  Si  Si21  1  0.368778  0.703948  0.932827  1
  Si  Si22  1  0.630094  0.296897  0.434619  1
  Si  Si23  1  0.706036  0.367695  0.066475  1
  Si  Si24  1  0.297124  0.630066  0.565398  1
  Si  Si25  1  0.798008  0.869547  0.183727  1
  Si  Si26  1  0.130146  0.203087  0.315866  1
  Si  Si27  1  0.866810  0.794974  0.816441  1
  Si  Si28  1  0.291206  0.953583  0.064083  1
  Si  Si29  1  0.547323  0.792425  0.314287  1
  Si  Si30  1  0.453960  0.210076  0.812991  1
  Si  Si31  1  0.791856  0.546322  0.686346  1
  Si  Si32  1  0.206075  0.452055  0.186814  1
  Si  Si33  1  0.709156  0.046856  0.563402  1
  Si  Si34  1  0.952425  0.295766  0.936945  1
  Si  Si35  1  0.046909  0.708743  0.436773  1
