# generated using pymatgen
data_NaU3(Si5Pt3)2
_symmetry_space_group_name_H-M   'P 1'
_cell_length_a   8.17378778
_cell_length_b   8.15156670
_cell_length_c   8.15156809
_cell_angle_alpha   136.18861664
_cell_angle_beta   104.20253351
_cell_angle_gamma   91.84926834
_symmetry_Int_Tables_number   1
_chemical_formula_structural   NaU3(Si5Pt3)2
_chemical_formula_sum   'Na1 U3 Si10 Pt6'
_cell_volume   346.32749697
_cell_formula_units_Z   1
loop_
 _symmetry_equiv_pos_site_id
 _symmetry_equiv_pos_as_xyz
  1  'x, y, z'
loop_
 _atom_site_type_symbol
 _atom_site_label
 _atom_site_symmetry_multiplicity
 _atom_site_fract_x
 _atom_site_fract_y
 _atom_site_fract_z
 _atom_site_occupancy
  Na  Na0  1  0.893396  0.127648  0.765748  1
  U  U1  1  0.644169  0.372123  0.272047  1
  U  U2  1  0.360902  0.630496  0.730407  1
  U  U3  1  0.095064  0.867428  0.227636  1
  Si  Si4  1  0.459912  0.110492  0.349420  1
  Si  Si5  1  0.539210  0.888462  0.650747  1
  Si  Si6  1  0.763820  0.612539  0.151281  1
  Si  Si7  1  0.237888  0.389717  0.848170  1
  Si  Si8  1  0.272337  0.524040  0.250562  1
  Si  Si9  1  0.730445  0.478059  0.751401  1
  Si  Si10  1  0.730445  0.979043  0.252385  1
  Si  Si11  1  0.272337  0.021775  0.748296  1
  Si  Si12  1  0.999461  0.246739  0.248511  1
  Si  Si13  1  0.999461  0.750949  0.752722  1
  Pt  Pt14  1  0.499674  0.252788  0.751647  1
  Pt  Pt15  1  0.499674  0.748028  0.246888  1
  Pt  Pt16  1  0.252791  0.139385  0.113407  1
  Pt  Pt17  1  0.748913  0.862525  0.886387  1
  Pt  Pt18  1  0.024860  0.636327  0.388532  1
  Pt  Pt19  1  0.975240  0.361438  0.613803  1
