# generated using pymatgen
data_RbAlHgF6
_symmetry_space_group_name_H-M   'P 1'
_cell_length_a   7.52863500
_cell_length_b   7.31089400
_cell_length_c   10.44973100
_cell_angle_alpha   90.00000000
_cell_angle_beta   90.00000000
_cell_angle_gamma   90.00000000
_symmetry_Int_Tables_number   1
_chemical_formula_structural   RbAlHgF6
_chemical_formula_sum   'Rb4 Al4 Hg4 F24'
_cell_volume   575.16419206
_cell_formula_units_Z   4
loop_
 _symmetry_equiv_pos_site_id
 _symmetry_equiv_pos_as_xyz
  1  'x, y, z'
loop_
 _atom_site_type_symbol
 _atom_site_label
 _atom_site_symmetry_multiplicity
 _atom_site_fract_x
 _atom_site_fract_y
 _atom_site_fract_z
 _atom_site_occupancy
  Rb  Rb0  1  0.019029  0.250000  0.635521  1
  Rb  Rb1  1  0.980971  0.750000  0.364479  1
  Rb  Rb2  1  0.480971  0.750000  0.135521  1
  Rb  Rb3  1  0.519029  0.250000  0.864479  1
  Al  Al4  1  0.000000  0.000000  0.000000  1
  Al  Al5  1  0.500000  0.000000  0.500000  1
  Al  Al6  1  0.000000  0.500000  0.000000  1
  Al  Al7  1  0.500000  0.500000  0.500000  1
  Hg  Hg8  1  0.218163  0.250000  0.255949  1
  Hg  Hg9  1  0.781837  0.750000  0.744051  1
  Hg  Hg10  1  0.281837  0.750000  0.755949  1
  Hg  Hg11  1  0.718163  0.250000  0.244051  1
  F  F12  1  0.293458  0.019343  0.410448  1
  F  F13  1  0.706542  0.980657  0.589552  1
  F  F14  1  0.206542  0.980657  0.910448  1
  F  F15  1  0.706542  0.519343  0.589552  1
  F  F16  1  0.793458  0.019343  0.089552  1
  F  F17  1  0.293458  0.480657  0.410448  1
  F  F18  1  0.793458  0.480657  0.089552  1
  F  F19  1  0.206542  0.519343  0.910448  1
  F  F20  1  0.535145  0.250000  0.487874  1
  F  F21  1  0.464855  0.750000  0.512126  1
  F  F22  1  0.964855  0.750000  0.987874  1
  F  F23  1  0.035145  0.250000  0.012126  1
  F  F24  1  0.123405  0.528569  0.149131  1
  F  F25  1  0.876595  0.471431  0.850869  1
  F  F26  1  0.376595  0.471431  0.649131  1
  F  F27  1  0.876595  0.028569  0.850869  1
  F  F28  1  0.623405  0.528569  0.350869  1
  F  F29  1  0.123405  0.971431  0.149131  1
  F  F30  1  0.623405  0.971431  0.350869  1
  F  F31  1  0.376595  0.028569  0.649131  1
  F  F32  1  0.459796  0.250000  0.135059  1
  F  F33  1  0.540204  0.750000  0.864941  1
  F  F34  1  0.040204  0.750000  0.635059  1
  F  F35  1  0.959796  0.250000  0.364941  1
