# generated using pymatgen
data_YEr3GeBi5Rh7
_symmetry_space_group_name_H-M   'P 1'
_cell_length_a   7.72169707
_cell_length_b   7.73460849
_cell_length_c   7.70357197
_cell_angle_alpha   106.98652333
_cell_angle_beta   110.64082687
_cell_angle_gamma   110.79991147
_symmetry_Int_Tables_number   1
_chemical_formula_structural   YEr3GeBi5Rh7
_chemical_formula_sum   'Y1 Er3 Ge1 Bi5 Rh7'
_cell_volume   353.74570338
_cell_formula_units_Z   1
loop_
 _symmetry_equiv_pos_site_id
 _symmetry_equiv_pos_as_xyz
  1  'x, y, z'
loop_
 _atom_site_type_symbol
 _atom_site_label
 _atom_site_symmetry_multiplicity
 _atom_site_fract_x
 _atom_site_fract_y
 _atom_site_fract_z
 _atom_site_occupancy
  Y  Y0  1  0.000000  0.985790  0.529977  1
  Er  Er1  1  0.000000  0.532088  0.982870  1
  Er  Er2  1  0.451141  0.982415  0.982966  1
  Er  Er3  1  0.548859  0.531272  0.531824  1
  Ge  Ge4  1  0.000000  0.645733  0.644730  1
  Bi  Bi5  1  0.688638  0.705037  0.015996  1
  Bi  Bi6  1  0.311362  0.016399  0.327358  1
  Bi  Bi7  1  0.000000  0.305127  0.303782  1
  Bi  Bi8  1  0.310209  0.326006  0.016750  1
  Bi  Bi9  1  0.689791  0.015797  0.706542  1
  Rh  Rh10  1  0.753881  0.258581  0.504322  1
  Rh  Rh11  1  0.753602  0.501913  0.256986  1
  Rh  Rh12  1  0.502927  0.264090  0.763458  1
  Rh  Rh13  1  0.246119  0.504700  0.750441  1
  Rh  Rh14  1  0.246398  0.748312  0.503385  1
  Rh  Rh15  1  0.497073  0.761162  0.260531  1
  Rh  Rh16  1  0.000000  0.915575  0.918082  1
