# generated using pymatgen
data_Sr6V3PS16
_symmetry_space_group_name_H-M   'P 1'
_cell_length_a   10.65285404
_cell_length_b   10.65285341
_cell_length_c   10.65285400
_cell_angle_alpha   51.64256690
_cell_angle_beta   51.64256957
_cell_angle_gamma   51.64257237
_symmetry_Int_Tables_number   1
_chemical_formula_structural   Sr6V3PS16
_chemical_formula_sum   'Sr6 V3 P1 S16'
_cell_volume   686.70228472
_cell_formula_units_Z   1
loop_
 _symmetry_equiv_pos_site_id
 _symmetry_equiv_pos_as_xyz
  1  'x, y, z'
loop_
 _atom_site_type_symbol
 _atom_site_label
 _atom_site_symmetry_multiplicity
 _atom_site_fract_x
 _atom_site_fract_y
 _atom_site_fract_z
 _atom_site_occupancy
  Sr  Sr0  1  0.749777  0.428585  0.072286  1
  Sr  Sr1  1  0.571099  0.929926  0.248736  1
  Sr  Sr2  1  0.072286  0.749777  0.428586  1
  Sr  Sr3  1  0.929927  0.248736  0.571099  1
  Sr  Sr4  1  0.428586  0.072287  0.749776  1
  Sr  Sr5  1  0.248736  0.571099  0.929927  1
  V  V6  1  0.340360  0.340360  0.340360  1
  V  V7  1  0.659591  0.659591  0.659591  1
  V  V8  1  0.840267  0.840267  0.840267  1
  P  P9  1  0.160173  0.160173  0.160173  1
  S  S10  1  0.614550  0.781140  0.046360  1
  S  S11  1  0.085177  0.085177  0.085177  1
  S  S12  1  0.545555  0.282241  0.113905  1
  S  S13  1  0.959948  0.374114  0.219032  1
  S  S14  1  0.113905  0.545554  0.282241  1
  S  S15  1  0.219031  0.959949  0.374114  1
  S  S16  1  0.419142  0.419142  0.419142  1
  S  S17  1  0.718545  0.885593  0.454156  1
  S  S18  1  0.282241  0.113905  0.545555  1
  S  S19  1  0.580559  0.580559  0.580559  1
  S  S20  1  0.781140  0.046360  0.614550  1
  S  S21  1  0.885593  0.454157  0.718545  1
  S  S22  1  0.046360  0.614550  0.781140  1
  S  S23  1  0.454157  0.718545  0.885593  1
  S  S24  1  0.919183  0.919183  0.919183  1
  S  S25  1  0.374115  0.219031  0.959948  1
