# generated using pymatgen
data_Y4Lu12MgHg3Rh4
_symmetry_space_group_name_H-M   'P 1'
_cell_length_a   9.53738170
_cell_length_b   9.47983358
_cell_length_c   9.47976373
_cell_angle_alpha   59.65379693
_cell_angle_beta   59.65157478
_cell_angle_gamma   59.65057750
_symmetry_Int_Tables_number   1
_chemical_formula_structural   Y4Lu12MgHg3Rh4
_chemical_formula_sum   'Y4 Lu12 Mg1 Hg3 Rh4'
_cell_volume   601.26310825
_cell_formula_units_Z   1
loop_
 _symmetry_equiv_pos_site_id
 _symmetry_equiv_pos_as_xyz
  1  'x, y, z'
loop_
 _atom_site_type_symbol
 _atom_site_label
 _atom_site_symmetry_multiplicity
 _atom_site_fract_x
 _atom_site_fract_y
 _atom_site_fract_z
 _atom_site_occupancy
  Y  Y0  1  0.812484  0.188501  0.813871  1
  Y  Y1  1  0.186755  0.812483  0.188261  1
  Y  Y2  1  0.812481  0.813863  0.188507  1
  Y  Y3  1  0.186712  0.188234  0.812497  1
  Lu  Lu4  1  0.599321  0.597211  0.597201  1
  Lu  Lu5  1  0.601628  0.599072  0.203745  1
  Lu  Lu6  1  0.601593  0.203767  0.599078  1
  Lu  Lu7  1  0.189739  0.604127  0.604107  1
  Lu  Lu8  1  0.059912  0.438320  0.438339  1
  Lu  Lu9  1  0.433719  0.064883  0.064869  1
  Lu  Lu10  1  0.435084  0.062328  0.436942  1
  Lu  Lu11  1  0.061286  0.438015  0.061706  1
  Lu  Lu12  1  0.435057  0.436938  0.062353  1
  Lu  Lu13  1  0.061273  0.061699  0.438040  1
  Lu  Lu14  1  0.190184  0.809752  0.809738  1
  Lu  Lu15  1  0.809604  0.189228  0.189230  1
  Mg  Mg16  1  0.534526  0.820453  0.820410  1
  Hg  Hg17  1  0.832839  0.834329  0.834313  1
  Hg  Hg18  1  0.831313  0.837459  0.495496  1
  Hg  Hg19  1  0.831310  0.495493  0.837463  1
  Rh  Rh20  1  0.391093  0.394178  0.394178  1
  Rh  Rh21  1  0.389721  0.397410  0.820137  1
  Rh  Rh22  1  0.389740  0.820145  0.397395  1
  Rh  Rh23  1  0.822628  0.392112  0.392125  1
