# generated using pymatgen
data_Lu6TcBiPb
_symmetry_space_group_name_H-M   'P 1'
_cell_length_a   8.08255500
_cell_length_b   8.08255305
_cell_length_c   4.28609900
_cell_angle_alpha   90.00000000
_cell_angle_beta   90.00000000
_cell_angle_gamma   120.00000387
_symmetry_Int_Tables_number   1
_chemical_formula_structural   Lu6TcBiPb
_chemical_formula_sum   'Lu6 Tc1 Bi1 Pb1'
_cell_volume   242.48788496
_cell_formula_units_Z   1
loop_
 _symmetry_equiv_pos_site_id
 _symmetry_equiv_pos_as_xyz
  1  'x, y, z'
loop_
 _atom_site_type_symbol
 _atom_site_label
 _atom_site_symmetry_multiplicity
 _atom_site_fract_x
 _atom_site_fract_y
 _atom_site_fract_z
 _atom_site_occupancy
  Lu  Lu0  1  0.234282  0.996954  0.500000  1
  Lu  Lu1  1  0.003046  0.237328  0.500000  1
  Lu  Lu2  1  0.762672  0.765718  0.500000  1
  Lu  Lu3  1  0.613041  0.996525  0.000000  1
  Lu  Lu4  1  0.003475  0.616516  0.000000  1
  Lu  Lu5  1  0.383484  0.386959  0.000000  1
  Tc  Tc6  1  0.000000  0.000000  0.000000  1
  Bi  Bi7  1  0.666667  0.333333  0.500000  1
  Pb  Pb8  1  0.333333  0.666667  0.500000  1
