# generated using pymatgen
data_PrMnPtO6
_symmetry_space_group_name_H-M   'P 1'
_cell_length_a   5.16702304
_cell_length_b   5.16706817
_cell_length_c   5.16475976
_cell_angle_alpha   90.03796509
_cell_angle_beta   90.04195253
_cell_angle_gamma   119.93026986
_symmetry_Int_Tables_number   1
_chemical_formula_structural   PrMnPtO6
_chemical_formula_sum   'Pr1 Mn1 Pt1 O6'
_cell_volume   119.50048037
_cell_formula_units_Z   1
loop_
 _symmetry_equiv_pos_site_id
 _symmetry_equiv_pos_as_xyz
  1  'x, y, z'
loop_
 _atom_site_type_symbol
 _atom_site_label
 _atom_site_symmetry_multiplicity
 _atom_site_fract_x
 _atom_site_fract_y
 _atom_site_fract_z
 _atom_site_occupancy
  Pr  Pr0  1  0.517589  0.482404  0.500002  1
  Mn  Mn1  1  0.184708  0.815214  0.000037  1
  Pt  Pt2  1  0.851100  0.149013  0.999976  1
  O  O3  1  0.157909  0.111798  0.208618  1
  O  O4  1  0.889628  0.493152  0.209253  1
  O  O5  1  0.507657  0.843493  0.209313  1
  O  O6  1  0.156440  0.492353  0.790708  1
  O  O7  1  0.506866  0.110432  0.790640  1
  O  O8  1  0.888141  0.842114  0.791457  1
