# generated using pymatgen
data_PrTh2(ZnPt)3
_symmetry_space_group_name_H-M   'P 1'
_cell_length_a   7.55778140
_cell_length_b   7.57827936
_cell_length_c   3.92067900
_cell_angle_alpha   90.00000000
_cell_angle_beta   90.00000000
_cell_angle_gamma   120.08976764
_symmetry_Int_Tables_number   1
_chemical_formula_structural   PrTh2(ZnPt)3
_chemical_formula_sum   'Pr1 Th2 Zn3 Pt3'
_cell_volume   194.29574927
_cell_formula_units_Z   1
loop_
 _symmetry_equiv_pos_site_id
 _symmetry_equiv_pos_as_xyz
  1  'x, y, z'
loop_
 _atom_site_type_symbol
 _atom_site_label
 _atom_site_symmetry_multiplicity
 _atom_site_fract_x
 _atom_site_fract_y
 _atom_site_fract_z
 _atom_site_occupancy
  Pr  Pr0  1  0.000000  0.592546  0.000000  1
  Th  Th1  1  0.409567  0.408643  0.000000  1
  Th  Th2  1  0.590433  0.999075  0.000000  1
  Zn  Zn3  1  0.000000  0.251242  0.500000  1
  Zn  Zn4  1  0.762635  0.755901  0.500000  1
  Zn  Zn5  1  0.237365  0.993266  0.500000  1
  Pt  Pt6  1  0.649522  0.319377  0.500000  1
  Pt  Pt7  1  0.000000  0.010095  0.000000  1
  Pt  Pt8  1  0.350478  0.669856  0.500000  1
