# generated using pymatgen
data_Tb8Dy7Ho5Pb16
_symmetry_space_group_name_H-M   'P 1'
_cell_length_a   8.21335803
_cell_length_b   8.29917103
_cell_length_c   15.66668600
_cell_angle_alpha   89.99740010
_cell_angle_beta   89.99911789
_cell_angle_gamma   89.99077717
_symmetry_Int_Tables_number   1
_chemical_formula_structural   Tb8Dy7Ho5Pb16
_chemical_formula_sum   'Tb8 Dy7 Ho5 Pb16'
_cell_volume   1067.90495655
_cell_formula_units_Z   1
loop_
 _symmetry_equiv_pos_site_id
 _symmetry_equiv_pos_as_xyz
  1  'x, y, z'
loop_
 _atom_site_type_symbol
 _atom_site_label
 _atom_site_symmetry_multiplicity
 _atom_site_fract_x
 _atom_site_fract_y
 _atom_site_fract_z
 _atom_site_occupancy
  Tb  Tb0  1  0.534051  0.322945  0.899884  1
  Tb  Tb1  1  0.034012  0.177088  0.600119  1
  Tb  Tb2  1  0.465985  0.677084  0.399889  1
  Tb  Tb3  1  0.965966  0.822893  0.100061  1
  Tb  Tb4  1  0.465967  0.677113  0.100118  1
  Tb  Tb5  1  0.965992  0.822915  0.399891  1
  Tb  Tb6  1  0.534021  0.322924  0.600116  1
  Tb  Tb7  1  0.034014  0.177120  0.899897  1
  Dy  Dy8  1  0.376734  0.840721  0.879522  1
  Dy  Dy9  1  0.876722  0.659295  0.620505  1
  Dy  Dy10  1  0.623271  0.159293  0.379512  1
  Dy  Dy11  1  0.123291  0.340689  0.120503  1
  Dy  Dy12  1  0.623286  0.159283  0.120467  1
  Dy  Dy13  1  0.123280  0.340724  0.379516  1
  Dy  Dy14  1  0.376704  0.840710  0.620496  1
  Ho  Ho15  1  0.876690  0.659255  0.879471  1
  Ho  Ho16  1  0.208294  0.504053  0.750016  1
  Ho  Ho17  1  0.708370  0.995914  0.750012  1
  Ho  Ho18  1  0.791643  0.495993  0.250010  1
  Ho  Ho19  1  0.291650  0.004026  0.250011  1
  Pb  Pb20  1  0.281787  0.033459  0.042788  1
  Pb  Pb21  1  0.781785  0.466540  0.457215  1
  Pb  Pb22  1  0.718215  0.966534  0.542813  1
  Pb  Pb23  1  0.218025  0.533506  0.957157  1
  Pb  Pb24  1  0.718321  0.966343  0.957161  1
  Pb  Pb25  1  0.218223  0.533462  0.542811  1
  Pb  Pb26  1  0.281791  0.033457  0.457217  1
  Pb  Pb27  1  0.781847  0.466659  0.042678  1
  Pb  Pb28  1  0.571978  0.626954  0.750044  1
  Pb  Pb29  1  0.071793  0.872958  0.750055  1
  Pb  Pb30  1  0.428123  0.373044  0.249999  1
  Pb  Pb31  1  0.928118  0.126951  0.249999  1
  Pb  Pb32  1  0.344850  0.151743  0.750004  1
  Pb  Pb33  1  0.844861  0.348358  0.750037  1
  Pb  Pb34  1  0.655167  0.848280  0.250002  1
  Pb  Pb35  1  0.155176  0.651716  0.250003  1
