# generated using pymatgen
data_HoEr3Ga12Tc
_symmetry_space_group_name_H-M   'P 1'
_cell_length_a   7.46094402
_cell_length_b   7.45666548
_cell_length_c   7.46094415
_cell_angle_alpha   109.45961239
_cell_angle_beta   109.48283715
_cell_angle_gamma   109.45959313
_symmetry_Int_Tables_number   1
_chemical_formula_structural   HoEr3Ga12Tc
_chemical_formula_sum   'Ho1 Er3 Ga12 Tc1'
_cell_volume   319.57484224
_cell_formula_units_Z   1
loop_
 _symmetry_equiv_pos_site_id
 _symmetry_equiv_pos_as_xyz
  1  'x, y, z'
loop_
 _atom_site_type_symbol
 _atom_site_label
 _atom_site_symmetry_multiplicity
 _atom_site_fract_x
 _atom_site_fract_y
 _atom_site_fract_z
 _atom_site_occupancy
  Ho  Ho0  1  0.000000  0.500000  0.000000  1
  Er  Er1  1  0.000000  0.000000  0.500000  1
  Er  Er2  1  0.500000  0.000000  0.000000  1
  Er  Er3  1  0.500000  0.500000  0.500000  1
  Ga  Ga4  1  0.749936  0.249936  0.499872  1
  Ga  Ga5  1  0.749936  0.500000  0.250064  1
  Ga  Ga6  1  0.499872  0.249936  0.749936  1
  Ga  Ga7  1  0.250064  0.500000  0.749936  1
  Ga  Ga8  1  0.250064  0.750064  0.500128  1
  Ga  Ga9  1  0.500128  0.750064  0.250064  1
  Ga  Ga10  1  0.708937  0.709037  0.000000  1
  Ga  Ga11  1  0.291063  0.000100  0.291063  1
  Ga  Ga12  1  0.000000  0.290963  0.291063  1
  Ga  Ga13  1  0.291063  0.290963  0.000000  1
  Ga  Ga14  1  0.708937  0.999900  0.708937  1
  Ga  Ga15  1  0.000000  0.709037  0.708937  1
  Tc  Tc16  1  0.000000  0.000000  0.000000  1
