# generated using pymatgen
data_La5Al2Os3
_symmetry_space_group_name_H-M   'P 1'
_cell_length_a   8.67224523
_cell_length_b   8.67224467
_cell_length_c   8.67224500
_cell_angle_alpha   109.47122608
_cell_angle_beta   109.47122478
_cell_angle_gamma   109.47121449
_symmetry_Int_Tables_number   1
_chemical_formula_structural   La5Al2Os3
_chemical_formula_sum   'La10 Al4 Os6'
_cell_volume   502.07974500
_cell_formula_units_Z   2
loop_
 _symmetry_equiv_pos_site_id
 _symmetry_equiv_pos_as_xyz
  1  'x, y, z'
loop_
 _atom_site_type_symbol
 _atom_site_label
 _atom_site_symmetry_multiplicity
 _atom_site_fract_x
 _atom_site_fract_y
 _atom_site_fract_z
 _atom_site_occupancy
  La  La0  1  0.250000  0.687451  0.437452  1
  La  La1  1  0.750000  0.812549  0.062549  1
  La  La2  1  0.437452  0.250000  0.687451  1
  La  La3  1  0.687451  0.437452  0.250000  1
  La  La4  1  0.062549  0.750000  0.812549  1
  La  La5  1  0.812549  0.062549  0.750000  1
  La  La6  1  0.211026  0.211026  0.211026  1
  La  La7  1  0.500001  0.000000  0.288974  1
  La  La8  1  0.288974  0.500001  0.000000  1
  La  La9  1  0.000000  0.288974  0.500001  1
  Al  Al10  1  0.500001  0.000000  0.913544  1
  Al  Al11  1  0.586456  0.586456  0.586456  1
  Al  Al12  1  0.913544  0.500001  0.000000  1
  Al  Al13  1  0.000000  0.913544  0.500001  1
  Os  Os14  1  0.250001  0.114855  0.864855  1
  Os  Os15  1  0.750000  0.385144  0.635144  1
  Os  Os16  1  0.864855  0.250001  0.114855  1
  Os  Os17  1  0.114855  0.864855  0.250001  1
  Os  Os18  1  0.635144  0.750000  0.385144  1
  Os  Os19  1  0.385144  0.635144  0.750000  1
