# generated using pymatgen
data_TbY5(Al3Co)8
_symmetry_space_group_name_H-M   'P 1'
_cell_length_a   8.65928400
_cell_length_b   8.65835830
_cell_length_c   9.31422100
_cell_angle_alpha   90.00000000
_cell_angle_beta   90.00000000
_cell_angle_gamma   120.00353674
_symmetry_Int_Tables_number   1
_chemical_formula_structural   TbY5(Al3Co)8
_chemical_formula_sum   'Tb1 Y5 Al24 Co8'
_cell_volume   604.75466717
_cell_formula_units_Z   1
loop_
 _symmetry_equiv_pos_site_id
 _symmetry_equiv_pos_as_xyz
  1  'x, y, z'
loop_
 _atom_site_type_symbol
 _atom_site_label
 _atom_site_symmetry_multiplicity
 _atom_site_fract_x
 _atom_site_fract_y
 _atom_site_fract_z
 _atom_site_occupancy
  Tb  Tb0  1  0.193715  0.387430  0.250000  1
  Y  Y1  1  0.806184  0.612367  0.750000  1
  Y  Y2  1  0.612376  0.806196  0.250000  1
  Y  Y3  1  0.387644  0.193831  0.750000  1
  Y  Y4  1  0.193821  0.806196  0.250000  1
  Y  Y5  1  0.806187  0.193831  0.750000  1
  Al  Al6  1  0.333354  0.666708  0.020204  1
  Al  Al7  1  0.666667  0.333333  0.979760  1
  Al  Al8  1  0.666667  0.333333  0.520240  1
  Al  Al9  1  0.333354  0.666708  0.479796  1
  Al  Al10  1  0.163179  0.326358  0.574568  1
  Al  Al11  1  0.836821  0.673641  0.425454  1
  Al  Al12  1  0.673642  0.836822  0.574548  1
  Al  Al13  1  0.836821  0.673641  0.074546  1
  Al  Al14  1  0.326362  0.163166  0.425449  1
  Al  Al15  1  0.163179  0.326358  0.925432  1
  Al  Al16  1  0.163180  0.836822  0.574548  1
  Al  Al17  1  0.326362  0.163166  0.074551  1
  Al  Al18  1  0.836804  0.163166  0.425449  1
  Al  Al19  1  0.673642  0.836822  0.925452  1
  Al  Al20  1  0.836804  0.163166  0.074551  1
  Al  Al21  1  0.163180  0.836822  0.925452  1
  Al  Al22  1  0.559936  0.119872  0.250000  1
  Al  Al23  1  0.440063  0.880126  0.750000  1
  Al  Al24  1  0.880064  0.440065  0.250000  1
  Al  Al25  1  0.119865  0.559937  0.750000  1
  Al  Al26  1  0.560001  0.440065  0.250000  1
  Al  Al27  1  0.440072  0.559937  0.750000  1
  Al  Al28  1  0.000036  0.000073  0.250000  1
  Al  Al29  1  0.000003  0.000006  0.750000  1
  Co  Co30  1  0.500006  0.000013  0.999990  1
  Co  Co31  1  0.000000  0.500009  0.999994  1
  Co  Co32  1  0.500006  0.000013  0.500010  1
  Co  Co33  1  0.500009  0.500009  0.999994  1
  Co  Co34  1  0.000000  0.500009  0.500006  1
  Co  Co35  1  0.500009  0.500009  0.500006  1
  Co  Co36  1  0.999994  0.999988  0.999980  1
  Co  Co37  1  0.999994  0.999988  0.500020  1
