# generated using pymatgen
data_Mn3Nb12Ga9N4
_symmetry_space_group_name_H-M   'P 1'
_cell_length_a   8.23389123
_cell_length_b   8.26086907
_cell_length_c   8.26086900
_cell_angle_alpha   59.99999626
_cell_angle_beta   59.89155322
_cell_angle_gamma   59.89156007
_symmetry_Int_Tables_number   1
_chemical_formula_structural   Mn3Nb12Ga9N4
_chemical_formula_sum   'Mn3 Nb12 Ga9 N4'
_cell_volume   396.66856052
_cell_formula_units_Z   1
loop_
 _symmetry_equiv_pos_site_id
 _symmetry_equiv_pos_as_xyz
  1  'x, y, z'
loop_
 _atom_site_type_symbol
 _atom_site_label
 _atom_site_symmetry_multiplicity
 _atom_site_fract_x
 _atom_site_fract_y
 _atom_site_fract_z
 _atom_site_occupancy
  Mn  Mn0  1  0.625000  0.125000  0.625000  1
  Mn  Mn1  1  0.625000  0.625000  0.125000  1
  Mn  Mn2  1  0.625000  0.625000  0.625000  1
  Nb  Nb3  1  0.808256  0.806038  0.192854  1
  Nb  Nb4  1  0.195027  0.196394  0.804290  1
  Nb  Nb5  1  0.808256  0.192854  0.806038  1
  Nb  Nb6  1  0.195027  0.804290  0.196394  1
  Nb  Nb7  1  0.195027  0.804290  0.804290  1
  Nb  Nb8  1  0.808256  0.192854  0.192854  1
  Nb  Nb9  1  0.441744  0.443962  0.057146  1
  Nb  Nb10  1  0.054973  0.053606  0.445710  1
  Nb  Nb11  1  0.441744  0.057146  0.443962  1
  Nb  Nb12  1  0.054973  0.445710  0.053606  1
  Nb  Nb13  1  0.054973  0.445710  0.445710  1
  Nb  Nb14  1  0.441744  0.057146  0.057146  1
  Ga  Ga15  1  0.125000  0.625000  0.625000  1
  Ga  Ga16  1  0.757350  0.414217  0.414217  1
  Ga  Ga17  1  0.427168  0.756481  0.408176  1
  Ga  Ga18  1  0.427168  0.408176  0.756481  1
  Ga  Ga19  1  0.427168  0.408176  0.408176  1
  Ga  Ga20  1  0.492650  0.835783  0.835783  1
  Ga  Ga21  1  0.822832  0.493519  0.841824  1
  Ga  Ga22  1  0.822832  0.841824  0.493519  1
  Ga  Ga23  1  0.822832  0.841824  0.841824  1
  N  N24  1  0.625000  0.125000  0.125000  1
  N  N25  1  0.125000  0.625000  0.125000  1
  N  N26  1  0.125000  0.125000  0.625000  1
  N  N27  1  0.125000  0.125000  0.125000  1
