# generated using pymatgen
data_Hf18Re7OsRhW
_symmetry_space_group_name_H-M   'P 1'
_cell_length_a   8.66948700
_cell_length_b   8.66948727
_cell_length_c   8.52292900
_cell_angle_alpha   90.00000000
_cell_angle_beta   90.00000000
_cell_angle_gamma   120.00000279
_symmetry_Int_Tables_number   1
_chemical_formula_structural   Hf18Re7OsRhW
_chemical_formula_sum   'Hf18 Re7 Os1 Rh1 W1'
_cell_volume   554.76148608
_cell_formula_units_Z   1
loop_
 _symmetry_equiv_pos_site_id
 _symmetry_equiv_pos_as_xyz
  1  'x, y, z'
loop_
 _atom_site_type_symbol
 _atom_site_label
 _atom_site_symmetry_multiplicity
 _atom_site_fract_x
 _atom_site_fract_y
 _atom_site_fract_z
 _atom_site_occupancy
  Hf  Hf0  1  0.197631  0.802369  0.446502  1
  Hf  Hf1  1  0.197631  0.395264  0.446502  1
  Hf  Hf2  1  0.604736  0.802369  0.446502  1
  Hf  Hf3  1  0.803029  0.196971  0.554238  1
  Hf  Hf4  1  0.803029  0.606059  0.554238  1
  Hf  Hf5  1  0.393941  0.196971  0.554238  1
  Hf  Hf6  1  0.804501  0.195499  0.944668  1
  Hf  Hf7  1  0.804501  0.609002  0.944668  1
  Hf  Hf8  1  0.390998  0.195499  0.944668  1
  Hf  Hf9  1  0.196020  0.803980  0.055050  1
  Hf  Hf10  1  0.196020  0.392042  0.055050  1
  Hf  Hf11  1  0.607958  0.803980  0.055050  1
  Hf  Hf12  1  0.540913  0.459087  0.248525  1
  Hf  Hf13  1  0.540913  0.081823  0.248525  1
  Hf  Hf14  1  0.918177  0.459087  0.248525  1
  Hf  Hf15  1  0.457968  0.542032  0.751593  1
  Hf  Hf16  1  0.457968  0.915937  0.751593  1
  Hf  Hf17  1  0.084063  0.542032  0.751593  1
  Re  Re18  1  0.889040  0.110960  0.250693  1
  Re  Re19  1  0.889040  0.778078  0.250693  1
  Re  Re20  1  0.221922  0.110960  0.250693  1
  Re  Re21  1  0.110837  0.889163  0.748960  1
  Re  Re22  1  0.110837  0.221674  0.748960  1
  Re  Re23  1  0.778326  0.889163  0.748960  1
  Re  Re24  1  0.000000  0.000000  0.000327  1
  Os  Os25  1  0.333333  0.666667  0.249129  1
  Rh  Rh26  1  0.666667  0.333333  0.750946  1
  W  W27  1  0.000000  0.000000  0.498916  1
