# generated using pymatgen
data_Nb8AlGeTe8
_symmetry_space_group_name_H-M   'P 1'
_cell_length_a   4.91440100
_cell_length_b   11.28279300
_cell_length_c   19.94971400
_cell_angle_alpha   90.00000000
_cell_angle_beta   90.00000000
_cell_angle_gamma   90.00000000
_symmetry_Int_Tables_number   1
_chemical_formula_structural   Nb8AlGeTe8
_chemical_formula_sum   'Nb16 Al2 Ge2 Te16'
_cell_volume   1106.17511740
_cell_formula_units_Z   2
loop_
 _symmetry_equiv_pos_site_id
 _symmetry_equiv_pos_as_xyz
  1  'x, y, z'
loop_
 _atom_site_type_symbol
 _atom_site_label
 _atom_site_symmetry_multiplicity
 _atom_site_fract_x
 _atom_site_fract_y
 _atom_site_fract_z
 _atom_site_occupancy
  Nb  Nb0  1  0.501012  0.564044  0.385580  1
  Nb  Nb1  1  0.501012  0.435956  0.614420  1
  Nb  Nb2  1  0.498988  0.064044  0.114420  1
  Nb  Nb3  1  0.498988  0.935956  0.885580  1
  Nb  Nb4  1  0.501198  0.702629  0.536124  1
  Nb  Nb5  1  0.501198  0.297371  0.463876  1
  Nb  Nb6  1  0.498802  0.202629  0.963876  1
  Nb  Nb7  1  0.498802  0.797371  0.036124  1
  Nb  Nb8  1  0.999324  0.688559  0.444553  1
  Nb  Nb9  1  0.999324  0.311441  0.555447  1
  Nb  Nb10  1  0.000676  0.188559  0.055447  1
  Nb  Nb11  1  0.000676  0.811441  0.944553  1
  Nb  Nb12  1  0.999423  0.402076  0.393542  1
  Nb  Nb13  1  0.999423  0.597924  0.606458  1
  Nb  Nb14  1  0.000577  0.902076  0.106458  1
  Nb  Nb15  1  0.000577  0.097924  0.893542  1
  Al  Al16  1  0.750461  0.500000  0.500000  1
  Al  Al17  1  0.249539  0.000000  0.000000  1
  Ge  Ge18  1  0.250122  0.500000  0.500000  1
  Ge  Ge19  1  0.749878  0.000000  0.000000  1
  Te  Te20  1  0.001021  0.837979  0.560250  1
  Te  Te21  1  0.001021  0.162021  0.439750  1
  Te  Te22  1  0.998979  0.337979  0.939750  1
  Te  Te23  1  0.998979  0.662021  0.060250  1
  Te  Te24  1  0.499474  0.336862  0.322403  1
  Te  Te25  1  0.499474  0.663138  0.677597  1
  Te  Te26  1  0.500526  0.836862  0.177597  1
  Te  Te27  1  0.500526  0.163138  0.822403  1
  Te  Te28  1  0.499364  0.814495  0.407499  1
  Te  Te29  1  0.499364  0.185505  0.592501  1
  Te  Te30  1  0.500636  0.314495  0.092501  1
  Te  Te31  1  0.500636  0.685505  0.907499  1
  Te  Te32  1  0.001014  0.606755  0.309102  1
  Te  Te33  1  0.001014  0.393245  0.690898  1
  Te  Te34  1  0.998986  0.106755  0.190898  1
  Te  Te35  1  0.998986  0.893245  0.809102  1
