# generated using pymatgen
data_Li3Th8Si12Pd
_symmetry_space_group_name_H-M   'P 1'
_cell_length_a   8.23119800
_cell_length_b   8.23119937
_cell_length_c   8.43444500
_cell_angle_alpha   90.00000000
_cell_angle_beta   90.00000000
_cell_angle_gamma   120.00001057
_symmetry_Int_Tables_number   1
_chemical_formula_structural   Li3Th8Si12Pd
_chemical_formula_sum   'Li3 Th8 Si12 Pd1'
_cell_volume   494.89522754
_cell_formula_units_Z   1
loop_
 _symmetry_equiv_pos_site_id
 _symmetry_equiv_pos_as_xyz
  1  'x, y, z'
loop_
 _atom_site_type_symbol
 _atom_site_label
 _atom_site_symmetry_multiplicity
 _atom_site_fract_x
 _atom_site_fract_y
 _atom_site_fract_z
 _atom_site_occupancy
  Li  Li0  1  0.666667  0.333333  0.996007  1
  Li  Li1  1  0.333333  0.666667  0.004813  1
  Li  Li2  1  0.333333  0.666667  0.495798  1
  Th  Th3  1  0.499583  0.500417  0.751071  1
  Th  Th4  1  0.501287  0.498713  0.248912  1
  Th  Th5  1  0.000835  0.500417  0.751071  1
  Th  Th6  1  0.997428  0.498713  0.248912  1
  Th  Th7  1  0.499583  0.999165  0.751071  1
  Th  Th8  1  0.501287  0.002572  0.248912  1
  Th  Th9  1  0.000000  0.000000  0.749915  1
  Th  Th10  1  0.000000  0.000000  0.250223  1
  Si  Si11  1  0.832589  0.167411  0.999892  1
  Si  Si12  1  0.167604  0.832396  0.000017  1
  Si  Si13  1  0.334821  0.167411  0.999892  1
  Si  Si14  1  0.168079  0.831921  0.500172  1
  Si  Si15  1  0.664791  0.832396  0.000017  1
  Si  Si16  1  0.835578  0.164422  0.500024  1
  Si  Si17  1  0.832589  0.665179  0.999892  1
  Si  Si18  1  0.663842  0.831921  0.500172  1
  Si  Si19  1  0.167604  0.335209  0.000017  1
  Si  Si20  1  0.328845  0.164422  0.500024  1
  Si  Si21  1  0.168079  0.336158  0.500172  1
  Si  Si22  1  0.835578  0.671155  0.500024  1
  Pd  Pd23  1  0.666667  0.333333  0.502976  1
