# generated using pymatgen
data_Zr11Ta9(GaSi7)2
_symmetry_space_group_name_H-M   'P 1'
_cell_length_a   6.97634969
_cell_length_b   6.96169777
_cell_length_c   12.85299002
_cell_angle_alpha   90.09842159
_cell_angle_beta   89.81323234
_cell_angle_gamma   90.12579758
_symmetry_Int_Tables_number   1
_chemical_formula_structural   Zr11Ta9(GaSi7)2
_chemical_formula_sum   'Zr11 Ta9 Ga2 Si14'
_cell_volume   624.22849152
_cell_formula_units_Z   1
loop_
 _symmetry_equiv_pos_site_id
 _symmetry_equiv_pos_as_xyz
  1  'x, y, z'
loop_
 _atom_site_type_symbol
 _atom_site_label
 _atom_site_symmetry_multiplicity
 _atom_site_fract_x
 _atom_site_fract_y
 _atom_site_fract_z
 _atom_site_occupancy
  Zr  Zr0  1  0.499874  0.350295  0.622917  1
  Zr  Zr1  1  0.502105  0.650498  0.124893  1
  Zr  Zr2  1  0.150461  0.995248  0.872209  1
  Zr  Zr3  1  0.002146  0.658821  0.034005  1
  Zr  Zr4  1  0.996963  0.339996  0.530037  1
  Zr  Zr5  1  0.656079  0.997966  0.968812  1
  Zr  Zr6  1  0.154902  0.499923  0.778660  1
  Zr  Zr7  1  0.843471  0.500199  0.279734  1
  Zr  Zr8  1  0.502428  0.157519  0.220461  1
  Zr  Zr9  1  0.500484  0.843705  0.718096  1
  Zr  Zr10  1  0.343431  0.003151  0.468175  1
  Ta  Ta11  1  0.352976  0.506885  0.374919  1
  Ta  Ta12  1  0.848474  0.002412  0.372391  1
  Ta  Ta13  1  0.008439  0.152029  0.129344  1
  Ta  Ta14  1  0.991142  0.849224  0.629088  1
  Ta  Ta15  1  0.647754  0.492229  0.874816  1
  Ta  Ta16  1  0.668377  0.674583  0.500039  1
  Ta  Ta17  1  0.824563  0.168045  0.748100  1
  Ta  Ta18  1  0.174009  0.833572  0.250491  1
  Ta  Ta19  1  0.333394  0.325632  0.001860  1
  Ga  Ga20  1  0.042147  0.702131  0.435663  1
  Ga  Ga21  1  0.957112  0.300709  0.935856  1
  Si  Si22  1  0.702775  0.043851  0.561879  1
  Si  Si23  1  0.201212  0.453781  0.187316  1
  Si  Si24  1  0.799634  0.545926  0.685942  1
  Si  Si25  1  0.454949  0.199306  0.815318  1
  Si  Si26  1  0.548638  0.801262  0.316080  1
  Si  Si27  1  0.299402  0.956608  0.065166  1
  Si  Si28  1  0.854388  0.788405  0.822476  1
  Si  Si29  1  0.138767  0.210206  0.324051  1
  Si  Si30  1  0.800778  0.864669  0.180039  1
  Si  Si31  1  0.289906  0.644188  0.571037  1
  Si  Si32  1  0.709505  0.355358  0.071496  1
  Si  Si33  1  0.638206  0.296247  0.425050  1
  Si  Si34  1  0.361711  0.697265  0.927134  1
  Si  Si35  1  0.199402  0.138155  0.676442  1
