# generated using pymatgen
data_Ho2HfZr(Al3Rh)6
_symmetry_space_group_name_H-M   'P 1'
_cell_length_a   7.51439602
_cell_length_b   7.50068878
_cell_length_c   9.33410000
_cell_angle_alpha   90.00000000
_cell_angle_beta   90.00000000
_cell_angle_gamma   119.66162851
_symmetry_Int_Tables_number   1
_chemical_formula_structural   Ho2HfZr(Al3Rh)6
_chemical_formula_sum   'Ho2 Hf1 Zr1 Al18 Rh6'
_cell_volume   457.16084402
_cell_formula_units_Z   1
loop_
 _symmetry_equiv_pos_site_id
 _symmetry_equiv_pos_as_xyz
  1  'x, y, z'
loop_
 _atom_site_type_symbol
 _atom_site_label
 _atom_site_symmetry_multiplicity
 _atom_site_fract_x
 _atom_site_fract_y
 _atom_site_fract_z
 _atom_site_occupancy
  Ho  Ho0  1  0.670663  0.993625  0.250000  1
  Ho  Ho1  1  0.329395  0.006505  0.750000  1
  Hf  Hf2  1  0.004741  0.327760  0.750000  1
  Zr  Zr3  1  0.995036  0.671448  0.250000  1
  Al  Al4  1  0.125103  0.123559  0.250000  1
  Al  Al5  1  0.874368  0.876039  0.750000  1
  Al  Al6  1  0.999248  0.337412  0.075406  1
  Al  Al7  1  0.000971  0.662516  0.924401  1
  Al  Al8  1  0.000971  0.662516  0.575599  1
  Al  Al9  1  0.332409  0.997976  0.421398  1
  Al  Al10  1  0.999248  0.337412  0.424594  1
  Al  Al11  1  0.667730  0.002295  0.579021  1
  Al  Al12  1  0.667730  0.002295  0.920979  1
  Al  Al13  1  0.332409  0.997976  0.078602  1
  Al  Al14  1  0.330968  0.333659  0.556347  1
  Al  Al15  1  0.669200  0.666732  0.444437  1
  Al  Al16  1  0.669200  0.666732  0.055563  1
  Al  Al17  1  0.330968  0.333659  0.943653  1
  Al  Al18  1  0.334513  0.549144  0.250000  1
  Al  Al19  1  0.665818  0.451137  0.750000  1
  Al  Al20  1  0.555953  0.343490  0.250000  1
  Al  Al21  1  0.443703  0.656079  0.750000  1
  Rh  Rh22  1  0.672441  0.326939  0.998716  1
  Rh  Rh23  1  0.327546  0.672808  0.000498  1
  Rh  Rh24  1  0.327546  0.672808  0.499502  1
  Rh  Rh25  1  0.672441  0.326939  0.501284  1
  Rh  Rh26  1  0.999840  0.000269  0.999909  1
  Rh  Rh27  1  0.999840  0.000269  0.500091  1
