# generated using pymatgen
data_Ba5Tb4Nd4Mn4O21
_symmetry_space_group_name_H-M   'P 1'
_cell_length_a   10.49012340
_cell_length_b   10.49012635
_cell_length_c   10.49004034
_cell_angle_alpha   94.52805846
_cell_angle_beta   94.52672559
_cell_angle_gamma   147.36574386
_symmetry_Int_Tables_number   1
_chemical_formula_structural   Ba5Tb4Nd4Mn4O21
_chemical_formula_sum   'Ba5 Tb4 Nd4 Mn4 O21'
_cell_volume   597.43829524
_cell_formula_units_Z   1
loop_
 _symmetry_equiv_pos_site_id
 _symmetry_equiv_pos_as_xyz
  1  'x, y, z'
loop_
 _atom_site_type_symbol
 _atom_site_label
 _atom_site_symmetry_multiplicity
 _atom_site_fract_x
 _atom_site_fract_y
 _atom_site_fract_z
 _atom_site_occupancy
  Ba  Ba0  1  0.000000  0.000000  0.000000  1
  Ba  Ba1  1  0.138299  0.530076  0.668377  1
  Ba  Ba2  1  0.861701  0.469924  0.331623  1
  Ba  Ba3  1  0.469919  0.138296  0.608218  1
  Ba  Ba4  1  0.530081  0.861704  0.391782  1
  Tb  Tb5  1  0.360134  0.412286  0.772419  1
  Tb  Tb6  1  0.639866  0.587714  0.227581  1
  Tb  Tb7  1  0.587701  0.360135  0.947838  1
  Tb  Tb8  1  0.412299  0.639865  0.052162  1
  Nd  Nd9  1  0.168711  0.247494  0.416205  1
  Nd  Nd10  1  0.831289  0.752506  0.583795  1
  Nd  Nd11  1  0.752505  0.168706  0.921212  1
  Nd  Nd12  1  0.247495  0.831294  0.078788  1
  Mn  Mn13  1  0.248868  0.040147  0.289015  1
  Mn  Mn14  1  0.751132  0.959853  0.710985  1
  Mn  Mn15  1  0.959855  0.248867  0.208722  1
  Mn  Mn16  1  0.040145  0.751133  0.791278  1
  O  O17  1  0.500000  0.500000  0.000000  1
  O  O18  1  0.966010  0.624980  0.590993  1
  O  O19  1  0.033990  0.375020  0.409007  1
  O  O20  1  0.375012  0.966014  0.341027  1
  O  O21  1  0.624988  0.033986  0.658973  1
  O  O22  1  0.299367  0.429426  0.221595  1
  O  O23  1  0.207829  0.077770  0.778405  1
  O  O24  1  0.077769  0.299366  0.869944  1
  O  O25  1  0.429422  0.207825  0.130056  1
  O  O26  1  0.700633  0.570574  0.778405  1
  O  O27  1  0.792171  0.922230  0.221595  1
  O  O28  1  0.922231  0.700634  0.130056  1
  O  O29  1  0.570578  0.792175  0.869944  1
  O  O30  1  0.493094  0.602291  0.598902  1
  O  O31  1  0.003388  0.894191  0.401097  1
  O  O32  1  0.894187  0.493082  0.890807  1
  O  O33  1  0.602279  0.003384  0.109194  1
  O  O34  1  0.506906  0.397709  0.401098  1
  O  O35  1  0.996612  0.105809  0.598903  1
  O  O36  1  0.105813  0.506918  0.109193  1
  O  O37  1  0.397721  0.996616  0.890806  1
