# generated using pymatgen
data_Hf2MnP2Ir
_symmetry_space_group_name_H-M   'P 1'
_cell_length_a   3.82129500
_cell_length_b   6.33465060
_cell_length_c   7.25521029
_cell_angle_alpha   90.73332459
_cell_angle_beta   90.00000000
_cell_angle_gamma   90.00000000
_symmetry_Int_Tables_number   1
_chemical_formula_structural   Hf2MnP2Ir
_chemical_formula_sum   'Hf4 Mn2 P4 Ir2'
_cell_volume   175.60936156
_cell_formula_units_Z   2
loop_
 _symmetry_equiv_pos_site_id
 _symmetry_equiv_pos_as_xyz
  1  'x, y, z'
loop_
 _atom_site_type_symbol
 _atom_site_label
 _atom_site_symmetry_multiplicity
 _atom_site_fract_x
 _atom_site_fract_y
 _atom_site_fract_z
 _atom_site_occupancy
  Hf  Hf0  1  0.250000  0.518935  0.178178  1
  Hf  Hf1  1  0.750000  0.481065  0.821822  1
  Hf  Hf2  1  0.750000  0.973832  0.682692  1
  Hf  Hf3  1  0.250000  0.026168  0.317308  1
  Mn  Mn4  1  0.750000  0.849043  0.056130  1
  Mn  Mn5  1  0.250000  0.150957  0.943870  1
  P  P6  1  0.250000  0.787115  0.895403  1
  P  P7  1  0.750000  0.212885  0.104597  1
  P  P8  1  0.750000  0.737286  0.358917  1
  P  P9  1  0.250000  0.262714  0.641083  1
  Ir  Ir10  1  0.250000  0.655976  0.565402  1
  Ir  Ir11  1  0.750000  0.344024  0.434598  1
