# generated using pymatgen
data_Tb3Y(Fe5P3)4
_symmetry_space_group_name_H-M   'P 1'
_cell_length_a   3.65265000
_cell_length_b   10.29850092
_cell_length_c   11.81844764
_cell_angle_alpha   89.94605600
_cell_angle_beta   90.00000000
_cell_angle_gamma   90.00000000
_symmetry_Int_Tables_number   1
_chemical_formula_structural   Tb3Y(Fe5P3)4
_chemical_formula_sum   'Tb3 Y1 Fe20 P12'
_cell_volume   444.57221359
_cell_formula_units_Z   1
loop_
 _symmetry_equiv_pos_site_id
 _symmetry_equiv_pos_as_xyz
  1  'x, y, z'
loop_
 _atom_site_type_symbol
 _atom_site_label
 _atom_site_symmetry_multiplicity
 _atom_site_fract_x
 _atom_site_fract_y
 _atom_site_fract_z
 _atom_site_occupancy
  Tb  Tb0  1  0.250000  0.918929  0.204546  1
  Tb  Tb1  1  0.750000  0.419709  0.295635  1
  Tb  Tb2  1  0.750000  0.080712  0.795553  1
  Y  Y3  1  0.250000  0.580754  0.704233  1
  Fe  Fe4  1  0.250000  0.707865  0.989173  1
  Fe  Fe5  1  0.250000  0.792140  0.488826  1
  Fe  Fe6  1  0.750000  0.292117  0.010865  1
  Fe  Fe7  1  0.750000  0.207939  0.511273  1
  Fe  Fe8  1  0.250000  0.405190  0.490548  1
  Fe  Fe9  1  0.250000  0.094867  0.990628  1
  Fe  Fe10  1  0.750000  0.595051  0.509428  1
  Fe  Fe11  1  0.750000  0.905028  0.009496  1
  Fe  Fe12  1  0.250000  0.219215  0.176412  1
  Fe  Fe13  1  0.250000  0.280847  0.676490  1
  Fe  Fe14  1  0.750000  0.780732  0.823622  1
  Fe  Fe15  1  0.750000  0.719401  0.323698  1
  Fe  Fe16  1  0.250000  0.875428  0.701290  1
  Fe  Fe17  1  0.250000  0.624298  0.201190  1
  Fe  Fe18  1  0.750000  0.124423  0.298764  1
  Fe  Fe19  1  0.750000  0.375527  0.798459  1
  Fe  Fe20  1  0.250000  0.463487  0.932313  1
  Fe  Fe21  1  0.250000  0.036553  0.432576  1
  Fe  Fe22  1  0.750000  0.536605  0.067325  1
  Fe  Fe23  1  0.750000  0.963250  0.567576  1
  P  P24  1  0.250000  0.422251  0.112046  1
  P  P25  1  0.250000  0.077899  0.612193  1
  P  P26  1  0.750000  0.577879  0.887508  1
  P  P27  1  0.750000  0.921735  0.388093  1
  P  P28  1  0.250000  0.266620  0.872062  1
  P  P29  1  0.250000  0.233473  0.372015  1
  P  P30  1  0.750000  0.733153  0.128303  1
  P  P31  1  0.750000  0.766426  0.628035  1
  P  P32  1  0.250000  0.601747  0.396626  1
  P  P33  1  0.250000  0.898611  0.896990  1
  P  P34  1  0.750000  0.398832  0.603167  1
  P  P35  1  0.750000  0.101309  0.103042  1
