# generated using pymatgen
data_Dy9Lu3In2FeTc2
_symmetry_space_group_name_H-M   'P 1'
_cell_length_a   8.39138183
_cell_length_b   8.37801675
_cell_length_c   8.37801537
_cell_angle_alpha   108.70344818
_cell_angle_beta   108.78144020
_cell_angle_gamma   110.87245353
_symmetry_Int_Tables_number   1
_chemical_formula_structural   Dy9Lu3In2FeTc2
_chemical_formula_sum   'Dy9 Lu3 In2 Fe1 Tc2'
_cell_volume   453.57000153
_cell_formula_units_Z   1
loop_
 _symmetry_equiv_pos_site_id
 _symmetry_equiv_pos_as_xyz
  1  'x, y, z'
loop_
 _atom_site_type_symbol
 _atom_site_label
 _atom_site_symmetry_multiplicity
 _atom_site_fract_x
 _atom_site_fract_y
 _atom_site_fract_z
 _atom_site_occupancy
  Dy  Dy0  1  0.304698  0.303951  0.609879  1
  Dy  Dy1  1  0.693489  0.692158  0.389141  1
  Dy  Dy2  1  0.693489  0.304348  0.001332  1
  Dy  Dy3  1  0.304698  0.694820  0.000748  1
  Dy  Dy4  1  0.192017  0.432937  0.242639  1
  Dy  Dy5  1  0.806001  0.569621  0.762842  1
  Dy  Dy6  1  0.192017  0.949377  0.759080  1
  Dy  Dy7  1  0.948324  0.189278  0.759047  1
  Dy  Dy8  1  0.806001  0.043161  0.236381  1
  Lu  Lu9  1  0.045297  0.809070  0.236227  1
  Lu  Lu10  1  0.427901  0.188540  0.239361  1
  Lu  Lu11  1  0.571228  0.807919  0.763308  1
  In  In12  1  0.998030  0.498019  0.500011  1
  In  In13  1  0.495718  0.996878  0.498839  1
  Fe  Fe14  1  0.631578  0.631437  0.000142  1
  Tc  Tc15  1  0.388776  0.388267  0.000509  1
  Tc  Tc16  1  0.000737  0.000221  0.000516  1
