# generated using pymatgen
data_Ho3ZnCd3AgIr
_symmetry_space_group_name_H-M   'P 1'
_cell_length_a   7.91257700
_cell_length_b   7.91257665
_cell_length_c   3.69931500
_cell_angle_alpha   90.00000000
_cell_angle_beta   90.00000000
_cell_angle_gamma   120.00000564
_symmetry_Int_Tables_number   1
_chemical_formula_structural   Ho3ZnCd3AgIr
_chemical_formula_sum   'Ho3 Zn1 Cd3 Ag1 Ir1'
_cell_volume   200.58007989
_cell_formula_units_Z   1
loop_
 _symmetry_equiv_pos_site_id
 _symmetry_equiv_pos_as_xyz
  1  'x, y, z'
loop_
 _atom_site_type_symbol
 _atom_site_label
 _atom_site_symmetry_multiplicity
 _atom_site_fract_x
 _atom_site_fract_y
 _atom_site_fract_z
 _atom_site_occupancy
  Ho  Ho0  1  0.607481  0.032046  0.000000  1
  Ho  Ho1  1  0.967954  0.575435  0.000000  1
  Ho  Ho2  1  0.424565  0.392519  0.000000  1
  Zn  Zn3  1  0.000000  0.000000  0.000000  1
  Cd  Cd4  1  0.257482  0.994415  0.500000  1
  Cd  Cd5  1  0.005585  0.263068  0.500000  1
  Cd  Cd6  1  0.736932  0.742518  0.500000  1
  Ag  Ag7  1  0.333333  0.666667  0.500000  1
  Ir  Ir8  1  0.666667  0.333333  0.500000  1
