# generated using pymatgen
data_Pr16Y3TmSn16
_symmetry_space_group_name_H-M   'P 1'
_cell_length_a   8.28020573
_cell_length_b   8.44572717
_cell_length_c   16.04730400
_cell_angle_alpha   90.00000000
_cell_angle_beta   90.00000000
_cell_angle_gamma   90.01276548
_symmetry_Int_Tables_number   1
_chemical_formula_structural   Pr16Y3TmSn16
_chemical_formula_sum   'Pr16 Y3 Tm1 Sn16'
_cell_volume   1122.22578860
_cell_formula_units_Z   1
loop_
 _symmetry_equiv_pos_site_id
 _symmetry_equiv_pos_as_xyz
  1  'x, y, z'
loop_
 _atom_site_type_symbol
 _atom_site_label
 _atom_site_symmetry_multiplicity
 _atom_site_fract_x
 _atom_site_fract_y
 _atom_site_fract_z
 _atom_site_occupancy
  Pr  Pr0  1  0.367024  0.836676  0.879304  1
  Pr  Pr1  1  0.868471  0.662185  0.620725  1
  Pr  Pr2  1  0.632801  0.162518  0.379274  1
  Pr  Pr3  1  0.132659  0.337258  0.121009  1
  Pr  Pr4  1  0.632801  0.162518  0.120726  1
  Pr  Pr5  1  0.132659  0.337258  0.378991  1
  Pr  Pr6  1  0.367024  0.836676  0.620696  1
  Pr  Pr7  1  0.868471  0.662185  0.879275  1
  Pr  Pr8  1  0.518815  0.319647  0.901407  1
  Pr  Pr9  1  0.019661  0.180876  0.598442  1
  Pr  Pr10  1  0.480385  0.680584  0.401092  1
  Pr  Pr11  1  0.980420  0.819436  0.098606  1
  Pr  Pr12  1  0.480385  0.680584  0.098908  1
  Pr  Pr13  1  0.980420  0.819436  0.401394  1
  Pr  Pr14  1  0.518815  0.319647  0.598593  1
  Pr  Pr15  1  0.019661  0.180876  0.901558  1
  Y  Y16  1  0.699088  0.998366  0.750000  1
  Y  Y17  1  0.800890  0.498809  0.250000  1
  Y  Y18  1  0.300759  0.001238  0.250000  1
  Tm  Tm19  1  0.200072  0.501235  0.750000  1
  Sn  Sn20  1  0.292243  0.034192  0.044196  1
  Sn  Sn21  1  0.792387  0.465856  0.455850  1
  Sn  Sn22  1  0.707702  0.965871  0.544150  1
  Sn  Sn23  1  0.207592  0.534639  0.956128  1
  Sn  Sn24  1  0.707702  0.965871  0.955850  1
  Sn  Sn25  1  0.207592  0.534639  0.543872  1
  Sn  Sn26  1  0.292243  0.034192  0.455804  1
  Sn  Sn27  1  0.792387  0.465856  0.044150  1
  Sn  Sn28  1  0.564081  0.616428  0.750000  1
  Sn  Sn29  1  0.064911  0.884253  0.750000  1
  Sn  Sn30  1  0.435599  0.383656  0.250000  1
  Sn  Sn31  1  0.935094  0.115871  0.250000  1
  Sn  Sn32  1  0.325833  0.146836  0.750000  1
  Sn  Sn33  1  0.825143  0.353447  0.750000  1
  Sn  Sn34  1  0.674206  0.853706  0.250000  1
  Sn  Sn35  1  0.174002  0.646678  0.250000  1
