# generated using pymatgen
data_Dy19HoSi15Ag
_symmetry_space_group_name_H-M   'P 1'
_cell_length_a   7.45654145
_cell_length_b   7.69485742
_cell_length_c   14.64411809
_cell_angle_alpha   89.85274801
_cell_angle_beta   89.47452023
_cell_angle_gamma   90.17306224
_symmetry_Int_Tables_number   1
_chemical_formula_structural   Dy19HoSi15Ag
_chemical_formula_sum   'Dy19 Ho1 Si15 Ag1'
_cell_volume   840.19389938
_cell_formula_units_Z   1
loop_
 _symmetry_equiv_pos_site_id
 _symmetry_equiv_pos_as_xyz
  1  'x, y, z'
loop_
 _atom_site_type_symbol
 _atom_site_label
 _atom_site_symmetry_multiplicity
 _atom_site_fract_x
 _atom_site_fract_y
 _atom_site_fract_z
 _atom_site_occupancy
  Dy  Dy0  1  0.149894  0.511462  0.248164  1
  Dy  Dy1  1  0.848552  0.488630  0.749629  1
  Dy  Dy2  1  0.349851  0.012035  0.750080  1
  Dy  Dy3  1  0.975433  0.822599  0.101213  1
  Dy  Dy4  1  0.471535  0.683849  0.401183  1
  Dy  Dy5  1  0.520953  0.315070  0.898913  1
  Dy  Dy6  1  0.029859  0.182510  0.598553  1
  Dy  Dy7  1  0.030278  0.176463  0.899935  1
  Dy  Dy8  1  0.529415  0.316342  0.598399  1
  Dy  Dy9  1  0.473181  0.682816  0.100653  1
  Dy  Dy10  1  0.969566  0.816788  0.400200  1
  Dy  Dy11  1  0.675869  0.825561  0.876136  1
  Dy  Dy12  1  0.181588  0.680205  0.621873  1
  Dy  Dy13  1  0.820287  0.323637  0.124119  1
  Dy  Dy14  1  0.318095  0.178394  0.377192  1
  Dy  Dy15  1  0.322627  0.178584  0.123584  1
  Dy  Dy16  1  0.819264  0.320381  0.377229  1
  Dy  Dy17  1  0.182343  0.676270  0.877772  1
  Dy  Dy18  1  0.681643  0.820957  0.622429  1
  Ho  Ho19  1  0.648209  0.990526  0.249934  1
  Si  Si20  1  0.765865  0.628699  0.251484  1
  Si  Si21  1  0.266806  0.873011  0.251139  1
  Si  Si22  1  0.733986  0.126031  0.748860  1
  Si  Si23  1  0.231436  0.373518  0.747711  1
  Si  Si24  1  0.021753  0.104515  0.250344  1
  Si  Si25  1  0.523510  0.396180  0.252047  1
  Si  Si26  1  0.475618  0.604023  0.748225  1
  Si  Si27  1  0.977152  0.893083  0.748628  1
  Si  Si28  1  0.354402  0.971400  0.540097  1
  Si  Si29  1  0.649663  0.028340  0.041519  1
  Si  Si30  1  0.146565  0.470400  0.460032  1
  Si  Si31  1  0.158210  0.471031  0.042401  1
  Si  Si32  1  0.645723  0.028666  0.459295  1
  Si  Si33  1  0.351733  0.969484  0.961069  1
  Si  Si34  1  0.855171  0.529632  0.539010  1
  Ag  Ag35  1  0.843962  0.528903  0.960947  1
