# generated using pymatgen
data_Yb3Pr(Si5Pt3)2
_symmetry_space_group_name_H-M   'P 1'
_cell_length_a   8.26373236
_cell_length_b   8.27728533
_cell_length_c   8.27728466
_cell_angle_alpha   137.98640026
_cell_angle_beta   104.55563448
_cell_angle_gamma   90.35039670
_symmetry_Int_Tables_number   1
_chemical_formula_structural   Yb3Pr(Si5Pt3)2
_chemical_formula_sum   'Yb3 Pr1 Si10 Pt6'
_cell_volume   350.15589499
_cell_formula_units_Z   1
loop_
 _symmetry_equiv_pos_site_id
 _symmetry_equiv_pos_as_xyz
  1  'x, y, z'
loop_
 _atom_site_type_symbol
 _atom_site_label
 _atom_site_symmetry_multiplicity
 _atom_site_fract_x
 _atom_site_fract_y
 _atom_site_fract_z
 _atom_site_occupancy
  Yb  Yb0  1  0.863161  0.629887  0.233274  1
  Yb  Yb1  1  0.137065  0.371083  0.765982  1
  Yb  Yb2  1  0.393598  0.127900  0.265698  1
  Pr  Pr3  1  0.604021  0.870888  0.733132  1
  Si  Si4  1  0.498894  0.749250  0.248133  1
  Si  Si5  1  0.498894  0.250761  0.749644  1
  Si  Si6  1  0.227560  0.979682  0.749343  1
  Si  Si7  1  0.772215  0.521350  0.752245  1
  Si  Si8  1  0.772215  0.019971  0.250865  1
  Si  Si9  1  0.227560  0.478218  0.247878  1
  Si  Si10  1  0.039298  0.887851  0.151447  1
  Si  Si11  1  0.963260  0.114009  0.849251  1
  Si  Si12  1  0.739379  0.388483  0.350896  1
  Si  Si13  1  0.260991  0.610398  0.650593  1
  Pt  Pt14  1  0.001020  0.751859  0.751776  1
  Pt  Pt15  1  0.001020  0.249244  0.249162  1
  Pt  Pt16  1  0.249111  0.863866  0.385246  1
  Pt  Pt17  1  0.751716  0.137107  0.614607  1
  Pt  Pt18  1  0.478578  0.363419  0.115159  1
  Pt  Pt19  1  0.520443  0.634774  0.885669  1
