# generated using pymatgen
data_Y11(Tm3Bi4)3
_symmetry_space_group_name_H-M   'P 1'
_cell_length_a   8.23331852
_cell_length_b   9.47319017
_cell_length_c   12.05022405
_cell_angle_alpha   90.00746168
_cell_angle_beta   90.06644749
_cell_angle_gamma   90.02073521
_symmetry_Int_Tables_number   1
_chemical_formula_structural   Y11(Tm3Bi4)3
_chemical_formula_sum   'Y11 Tm9 Bi12'
_cell_volume   939.86606832
_cell_formula_units_Z   1
loop_
 _symmetry_equiv_pos_site_id
 _symmetry_equiv_pos_as_xyz
  1  'x, y, z'
loop_
 _atom_site_type_symbol
 _atom_site_label
 _atom_site_symmetry_multiplicity
 _atom_site_fract_x
 _atom_site_fract_y
 _atom_site_fract_z
 _atom_site_occupancy
  Y  Y0  1  0.186476  0.749557  0.719042  1
  Y  Y1  1  0.686438  0.749916  0.781387  1
  Y  Y2  1  0.813616  0.249632  0.280997  1
  Y  Y3  1  0.313275  0.250413  0.218865  1
  Y  Y4  1  0.193690  0.936816  0.440282  1
  Y  Y5  1  0.306648  0.063179  0.940622  1
  Y  Y6  1  0.806020  0.437006  0.559671  1
  Y  Y7  1  0.354499  0.749363  0.215433  1
  Y  Y8  1  0.853104  0.749059  0.283779  1
  Y  Y9  1  0.645755  0.249742  0.784155  1
  Y  Y10  1  0.146133  0.249927  0.715730  1
  Tm  Tm11  1  0.024540  0.749687  0.989198  1
  Tm  Tm12  1  0.525491  0.749600  0.510957  1
  Tm  Tm13  1  0.974181  0.250421  0.011007  1
  Tm  Tm14  1  0.474561  0.249479  0.488999  1
  Tm  Tm15  1  0.306255  0.434528  0.940338  1
  Tm  Tm16  1  0.806318  0.065570  0.559745  1
  Tm  Tm17  1  0.693733  0.933917  0.059572  1
  Tm  Tm18  1  0.193705  0.565636  0.440242  1
  Tm  Tm19  1  0.694082  0.565811  0.059648  1
  Bi  Bi20  1  0.434353  0.003439  0.672376  1
  Bi  Bi21  1  0.934247  0.496161  0.828007  1
  Bi  Bi22  1  0.566035  0.503482  0.327315  1
  Bi  Bi23  1  0.065646  0.996108  0.172178  1
  Bi  Bi24  1  0.566607  0.995914  0.327615  1
  Bi  Bi25  1  0.065950  0.503786  0.171999  1
  Bi  Bi26  1  0.433667  0.496023  0.672435  1
  Bi  Bi27  1  0.933420  0.003777  0.827821  1
  Bi  Bi28  1  0.407989  0.747510  0.958418  1
  Bi  Bi29  1  0.907552  0.751874  0.541713  1
  Bi  Bi30  1  0.593502  0.250830  0.042339  1
  Bi  Bi31  1  0.092513  0.251837  0.458114  1
