# generated using pymatgen
data_La2Ni5B2Rh
_symmetry_space_group_name_H-M   'P 1'
_cell_length_a   5.98800060
_cell_length_b   6.19973714
_cell_length_c   6.19973710
_cell_angle_alpha   133.19599156
_cell_angle_beta   107.39265903
_cell_angle_gamma   91.58968527
_symmetry_Int_Tables_number   1
_chemical_formula_structural   La2Ni5B2Rh
_chemical_formula_sum   'La2 Ni5 B2 Rh1'
_cell_volume   150.92388595
_cell_formula_units_Z   1
loop_
 _symmetry_equiv_pos_site_id
 _symmetry_equiv_pos_as_xyz
  1  'x, y, z'
loop_
 _atom_site_type_symbol
 _atom_site_label
 _atom_site_symmetry_multiplicity
 _atom_site_fract_x
 _atom_site_fract_y
 _atom_site_fract_z
 _atom_site_occupancy
  La  La0  1  0.819595  0.570021  0.249573  1
  La  La1  1  0.180405  0.429979  0.750427  1
  Ni  Ni2  1  0.318486  0.492968  0.324066  1
  Ni  Ni3  1  0.681514  0.507032  0.675934  1
  Ni  Ni4  1  0.681514  0.005580  0.174482  1
  Ni  Ni5  1  0.318486  0.994420  0.825518  1
  Ni  Ni6  1  0.000000  0.000000  0.000000  1
  B  B7  1  0.382128  0.134832  0.247297  1
  B  B8  1  0.617872  0.865168  0.752703  1
  Rh  Rh9  1  0.500000  0.000000  0.500000  1
