# generated using pymatgen
data_Cs2ReH9
_symmetry_space_group_name_H-M   'P 1'
_cell_length_a   10.50772800
_cell_length_b   10.50772730
_cell_length_c   6.08161700
_cell_angle_alpha   90.00000000
_cell_angle_beta   90.00000000
_cell_angle_gamma   120.00000850
_symmetry_Int_Tables_number   1
_chemical_formula_structural   Cs2ReH9
_chemical_formula_sum   'Cs6 Re3 H27'
_cell_volume   581.52350888
_cell_formula_units_Z   3
loop_
 _symmetry_equiv_pos_site_id
 _symmetry_equiv_pos_as_xyz
  1  'x, y, z'
loop_
 _atom_site_type_symbol
 _atom_site_label
 _atom_site_symmetry_multiplicity
 _atom_site_fract_x
 _atom_site_fract_y
 _atom_site_fract_z
 _atom_site_occupancy
  Cs  Cs0  1  0.000000  0.261277  0.500000  1
  Cs  Cs1  1  0.738723  0.738723  0.500000  1
  Cs  Cs2  1  0.261277  0.000000  0.500000  1
  Cs  Cs3  1  0.000000  0.589426  0.000000  1
  Cs  Cs4  1  0.410574  0.410574  0.000000  1
  Cs  Cs5  1  0.589426  0.000000  0.000000  1
  Re  Re6  1  0.666667  0.333333  0.500000  1
  Re  Re7  1  0.333333  0.666667  0.500000  1
  Re  Re8  1  0.000000  0.000000  0.000000  1
  H  H9  1  0.766565  0.309596  0.702254  1
  H  H10  1  0.690404  0.456968  0.702254  1
  H  H11  1  0.543032  0.233435  0.702254  1
  H  H12  1  0.233435  0.543032  0.297746  1
  H  H13  1  0.543032  0.233435  0.297746  1
  H  H14  1  0.766565  0.309596  0.297746  1
  H  H15  1  0.690404  0.456968  0.297746  1
  H  H16  1  0.309596  0.766565  0.702254  1
  H  H17  1  0.456968  0.690404  0.702254  1
  H  H18  1  0.160922  0.000000  0.000000  1
  H  H19  1  0.839078  0.839078  0.000000  1
  H  H20  1  0.000000  0.160922  0.000000  1
  H  H21  1  0.884022  0.000000  0.196901  1
  H  H22  1  0.115978  0.115978  0.803099  1
  H  H23  1  0.000000  0.884022  0.803099  1
  H  H24  1  0.000000  0.884022  0.196901  1
  H  H25  1  0.115978  0.115978  0.196901  1
  H  H26  1  0.884022  0.000000  0.803099  1
  H  H27  1  0.158262  0.633489  0.500000  1
  H  H28  1  0.475227  0.841738  0.500000  1
  H  H29  1  0.366511  0.524773  0.500000  1
  H  H30  1  0.524773  0.366511  0.500000  1
  H  H31  1  0.841738  0.475227  0.500000  1
  H  H32  1  0.633489  0.158262  0.500000  1
  H  H33  1  0.233435  0.543032  0.702254  1
  H  H34  1  0.309596  0.766565  0.297746  1
  H  H35  1  0.456968  0.690404  0.297746  1
