# generated using pymatgen
data_LiSm3(Co4P3)2
_symmetry_space_group_name_H-M   'P 1'
_cell_length_a   3.76066300
_cell_length_b   10.65405700
_cell_length_c   12.33930700
_cell_angle_alpha   90.00000000
_cell_angle_beta   90.00000000
_cell_angle_gamma   90.00000000
_symmetry_Int_Tables_number   1
_chemical_formula_structural   LiSm3(Co4P3)2
_chemical_formula_sum   'Li2 Sm6 Co16 P12'
_cell_volume   494.39059767
_cell_formula_units_Z   2
loop_
 _symmetry_equiv_pos_site_id
 _symmetry_equiv_pos_as_xyz
  1  'x, y, z'
loop_
 _atom_site_type_symbol
 _atom_site_label
 _atom_site_symmetry_multiplicity
 _atom_site_fract_x
 _atom_site_fract_y
 _atom_site_fract_z
 _atom_site_occupancy
  Li  Li0  1  0.500000  0.500000  0.152588  1
  Li  Li1  1  0.000000  0.000000  0.847412  1
  Sm  Sm2  1  0.000000  0.500000  0.522845  1
  Sm  Sm3  1  0.500000  0.000000  0.477155  1
  Sm  Sm4  1  0.500000  0.818291  0.206262  1
  Sm  Sm5  1  0.500000  0.181709  0.206262  1
  Sm  Sm6  1  0.000000  0.681709  0.793738  1
  Sm  Sm7  1  0.000000  0.318291  0.793738  1
  Co  Co8  1  0.500000  0.500000  0.704720  1
  Co  Co9  1  0.000000  0.000000  0.295280  1
  Co  Co10  1  0.000000  0.500000  0.986855  1
  Co  Co11  1  0.500000  0.000000  0.013145  1
  Co  Co12  1  0.500000  0.333167  0.996942  1
  Co  Co13  1  0.500000  0.666833  0.996942  1
  Co  Co14  1  0.000000  0.166833  0.003058  1
  Co  Co15  1  0.000000  0.833167  0.003058  1
  Co  Co16  1  0.500000  0.296783  0.430930  1
  Co  Co17  1  0.500000  0.703217  0.430930  1
  Co  Co18  1  0.000000  0.203217  0.569070  1
  Co  Co19  1  0.000000  0.796783  0.569070  1
  Co  Co20  1  0.500000  0.879992  0.706469  1
  Co  Co21  1  0.500000  0.120008  0.706469  1
  Co  Co22  1  0.000000  0.620008  0.293531  1
  Co  Co23  1  0.000000  0.379992  0.293531  1
  P  P24  1  0.500000  0.500000  0.886103  1
  P  P25  1  0.000000  0.000000  0.113897  1
  P  P26  1  0.500000  0.500000  0.344074  1
  P  P27  1  0.000000  0.000000  0.655926  1
  P  P28  1  0.500000  0.306699  0.614586  1
  P  P29  1  0.500000  0.693301  0.614586  1
  P  P30  1  0.000000  0.193301  0.385414  1
  P  P31  1  0.000000  0.806699  0.385414  1
  P  P32  1  0.500000  0.844620  0.895976  1
  P  P33  1  0.500000  0.155380  0.895976  1
  P  P34  1  0.000000  0.655380  0.104024  1
  P  P35  1  0.000000  0.344620  0.104024  1
