# generated using pymatgen
data_TbTm11Co5Pb
_symmetry_space_group_name_H-M   'P 1'
_cell_length_a   8.19865343
_cell_length_b   8.19909568
_cell_length_c   8.19553140
_cell_angle_alpha   110.92644525
_cell_angle_beta   110.72698320
_cell_angle_gamma   106.81128784
_symmetry_Int_Tables_number   1
_chemical_formula_structural   TbTm11Co5Pb
_chemical_formula_sum   'Tb1 Tm11 Co5 Pb1'
_cell_volume   423.31251908
_cell_formula_units_Z   1
loop_
 _symmetry_equiv_pos_site_id
 _symmetry_equiv_pos_as_xyz
  1  'x, y, z'
loop_
 _atom_site_type_symbol
 _atom_site_label
 _atom_site_symmetry_multiplicity
 _atom_site_fract_x
 _atom_site_fract_y
 _atom_site_fract_z
 _atom_site_occupancy
  Tb  Tb0  1  0.288157  0.184568  0.472727  1
  Tm  Tm1  1  0.712323  0.816147  0.528476  1
  Tm  Tm2  1  0.287786  0.814187  0.101989  1
  Tm  Tm3  1  0.713060  0.184678  0.897725  1
  Tm  Tm4  1  0.620505  0.312985  0.306457  1
  Tm  Tm5  1  0.380077  0.688197  0.693562  1
  Tm  Tm6  1  0.005359  0.313464  0.693570  1
  Tm  Tm7  1  0.993448  0.685954  0.306435  1
  Tm  Tm8  1  0.210402  0.405489  0.193636  1
  Tm  Tm9  1  0.790502  0.596298  0.806653  1
  Tm  Tm10  1  0.210326  0.016143  0.806652  1
  Tm  Tm11  1  0.788167  0.983239  0.193649  1
  Co  Co12  1  0.999300  0.376271  0.375588  1
  Co  Co13  1  0.999787  0.624095  0.623871  1
  Co  Co14  1  0.388528  0.886722  0.499955  1
  Co  Co15  1  0.613274  0.111423  0.499914  1
  Co  Co16  1  0.998892  0.000043  0.998936  1
  Pb  Pb17  1  0.500108  0.500098  0.000204  1
