# generated using pymatgen
data_CsNd2DySe5
_symmetry_space_group_name_H-M   'P 1'
_cell_length_a   4.26428600
_cell_length_b   13.01571900
_cell_length_c   22.44490000
_cell_angle_alpha   90.00000000
_cell_angle_beta   90.00000000
_cell_angle_gamma   90.00000000
_symmetry_Int_Tables_number   1
_chemical_formula_structural   CsNd2DySe5
_chemical_formula_sum   'Cs4 Nd8 Dy4 Se20'
_cell_volume   1245.75363558
_cell_formula_units_Z   4
loop_
 _symmetry_equiv_pos_site_id
 _symmetry_equiv_pos_as_xyz
  1  'x, y, z'
loop_
 _atom_site_type_symbol
 _atom_site_label
 _atom_site_symmetry_multiplicity
 _atom_site_fract_x
 _atom_site_fract_y
 _atom_site_fract_z
 _atom_site_occupancy
  Cs  Cs0  1  0.250000  0.836225  0.098242  1
  Cs  Cs1  1  0.750000  0.163775  0.901758  1
  Cs  Cs2  1  0.750000  0.336225  0.401758  1
  Cs  Cs3  1  0.250000  0.663775  0.598242  1
  Nd  Nd4  1  0.750000  0.802385  0.833448  1
  Nd  Nd5  1  0.250000  0.197615  0.166552  1
  Nd  Nd6  1  0.250000  0.302385  0.666552  1
  Nd  Nd7  1  0.750000  0.697615  0.333448  1
  Nd  Nd8  1  0.250000  0.966527  0.701369  1
  Nd  Nd9  1  0.750000  0.033473  0.298631  1
  Nd  Nd10  1  0.750000  0.466527  0.798631  1
  Nd  Nd11  1  0.250000  0.533473  0.201369  1
  Dy  Dy12  1  0.750000  0.395160  0.051650  1
  Dy  Dy13  1  0.250000  0.604840  0.948350  1
  Dy  Dy14  1  0.250000  0.895160  0.448350  1
  Dy  Dy15  1  0.750000  0.104840  0.551650  1
  Se  Se16  1  0.250000  0.954028  0.569246  1
  Se  Se17  1  0.750000  0.045972  0.430754  1
  Se  Se18  1  0.750000  0.454028  0.930754  1
  Se  Se19  1  0.250000  0.545972  0.069246  1
  Se  Se20  1  0.750000  0.751000  0.961050  1
  Se  Se21  1  0.250000  0.249000  0.038950  1
  Se  Se22  1  0.250000  0.251000  0.538950  1
  Se  Se23  1  0.750000  0.749000  0.461050  1
  Se  Se24  1  0.250000  0.954546  0.832965  1
  Se  Se25  1  0.750000  0.045454  0.167035  1
  Se  Se26  1  0.750000  0.454546  0.667035  1
  Se  Se27  1  0.250000  0.545454  0.332965  1
  Se  Se28  1  0.750000  0.132640  0.681608  1
  Se  Se29  1  0.250000  0.867360  0.318392  1
  Se  Se30  1  0.250000  0.632640  0.818392  1
  Se  Se31  1  0.750000  0.367360  0.181608  1
  Se  Se32  1  0.750000  0.683871  0.202069  1
  Se  Se33  1  0.250000  0.316129  0.797931  1
  Se  Se34  1  0.250000  0.183871  0.297931  1
  Se  Se35  1  0.750000  0.816129  0.702069  1
