# generated using pymatgen
data_Sm8Sb(Pd3Pt5)3
_symmetry_space_group_name_H-M   'P 1'
_cell_length_a   8.49042001
_cell_length_b   8.51103501
_cell_length_c   8.49794200
_cell_angle_alpha   90.00000000
_cell_angle_beta   90.00000000
_cell_angle_gamma   90.00492700
_symmetry_Int_Tables_number   1
_chemical_formula_structural   Sm8Sb(Pd3Pt5)3
_chemical_formula_sum   'Sm8 Sb1 Pd9 Pt15'
_cell_volume   614.08050830
_cell_formula_units_Z   1
loop_
 _symmetry_equiv_pos_site_id
 _symmetry_equiv_pos_as_xyz
  1  'x, y, z'
loop_
 _atom_site_type_symbol
 _atom_site_label
 _atom_site_symmetry_multiplicity
 _atom_site_fract_x
 _atom_site_fract_y
 _atom_site_fract_z
 _atom_site_occupancy
  Sm  Sm0  1  0.747639  0.747286  0.252322  1
  Sm  Sm1  1  0.747745  0.252821  0.747116  1
  Sm  Sm2  1  0.252423  0.747284  0.747545  1
  Sm  Sm3  1  0.747639  0.747286  0.747678  1
  Sm  Sm4  1  0.747745  0.252821  0.252884  1
  Sm  Sm5  1  0.252316  0.252808  0.747172  1
  Sm  Sm6  1  0.252423  0.747284  0.252455  1
  Sm  Sm7  1  0.252316  0.252808  0.252828  1
  Sb  Sb8  1  0.000078  0.999919  0.000000  1
  Pd  Pd9  1  0.999965  0.999913  0.309579  1
  Pd  Pd10  1  0.499888  0.745704  0.500000  1
  Pd  Pd11  1  0.745543  0.499792  0.500000  1
  Pd  Pd12  1  0.309773  0.000088  0.000000  1
  Pd  Pd13  1  0.999965  0.999913  0.690421  1
  Pd  Pd14  1  0.999992  0.309271  0.000000  1
  Pd  Pd15  1  0.999945  0.691199  0.000000  1
  Pd  Pd16  1  0.690519  0.000098  0.000000  1
  Pd  Pd17  1  0.500056  0.264627  0.000000  1
  Pt  Pt18  1  0.735323  0.000277  0.500000  1
  Pt  Pt19  1  0.735203  0.500015  0.000000  1
  Pt  Pt20  1  0.500055  0.000107  0.735409  1
  Pt  Pt21  1  0.000204  0.735468  0.500000  1
  Pt  Pt22  1  0.500055  0.000107  0.264591  1
  Pt  Pt23  1  0.000071  0.264269  0.500000  1
  Pt  Pt24  1  0.500038  0.735004  0.000000  1
  Pt  Pt25  1  0.254288  0.499793  0.500000  1
  Pt  Pt26  1  0.499790  0.499871  0.746232  1
  Pt  Pt27  1  0.499790  0.499871  0.253768  1
  Pt  Pt28  1  0.499900  0.254213  0.500000  1
  Pt  Pt29  1  0.000207  0.499900  0.264575  1
  Pt  Pt30  1  0.264455  0.500091  0.000000  1
  Pt  Pt31  1  0.264445  0.000189  0.500000  1
  Pt  Pt32  1  0.000207  0.499900  0.735425  1
