# generated using pymatgen
data_Y5Lu15(Cd3Re)2
_symmetry_space_group_name_H-M   'P 1'
_cell_length_a   9.38588706
_cell_length_b   9.38588764
_cell_length_c   9.83555400
_cell_angle_alpha   90.00000000
_cell_angle_beta   90.00000000
_cell_angle_gamma   119.98732815
_symmetry_Int_Tables_number   1
_chemical_formula_structural   Y5Lu15(Cd3Re)2
_chemical_formula_sum   'Y5 Lu15 Cd6 Re2'
_cell_volume   750.47386814
_cell_formula_units_Z   1
loop_
 _symmetry_equiv_pos_site_id
 _symmetry_equiv_pos_as_xyz
  1  'x, y, z'
loop_
 _atom_site_type_symbol
 _atom_site_label
 _atom_site_symmetry_multiplicity
 _atom_site_fract_x
 _atom_site_fract_y
 _atom_site_fract_z
 _atom_site_occupancy
  Y  Y0  1  0.537467  0.075977  0.250000  1
  Y  Y1  1  0.924023  0.462533  0.250000  1
  Y  Y2  1  0.462549  0.537451  0.750000  1
  Y  Y3  1  0.462877  0.926087  0.750000  1
  Y  Y4  1  0.073913  0.537123  0.750000  1
  Lu  Lu5  1  0.000105  0.999895  0.500089  1
  Lu  Lu6  1  0.000105  0.999895  0.999911  1
  Lu  Lu7  1  0.210030  0.789970  0.442830  1
  Lu  Lu8  1  0.210826  0.419347  0.442660  1
  Lu  Lu9  1  0.580653  0.789174  0.442660  1
  Lu  Lu10  1  0.790163  0.209837  0.556868  1
  Lu  Lu11  1  0.789109  0.580081  0.556637  1
  Lu  Lu12  1  0.419919  0.210891  0.556637  1
  Lu  Lu13  1  0.790163  0.209837  0.943132  1
  Lu  Lu14  1  0.789109  0.580081  0.943363  1
  Lu  Lu15  1  0.419919  0.210891  0.943363  1
  Lu  Lu16  1  0.210030  0.789970  0.057170  1
  Lu  Lu17  1  0.210826  0.419347  0.057340  1
  Lu  Lu18  1  0.580653  0.789174  0.057340  1
  Lu  Lu19  1  0.536110  0.463890  0.250000  1
  Cd  Cd20  1  0.886868  0.113132  0.250000  1
  Cd  Cd21  1  0.885369  0.772548  0.250000  1
  Cd  Cd22  1  0.227452  0.114631  0.250000  1
  Cd  Cd23  1  0.113069  0.886931  0.750000  1
  Cd  Cd24  1  0.113327  0.226066  0.750000  1
  Cd  Cd25  1  0.773934  0.886673  0.750000  1
  Re  Re26  1  0.334212  0.665788  0.250000  1
  Re  Re27  1  0.667218  0.332782  0.750000  1
