# generated using pymatgen
data_La9Nd7Cd4TcPd3
_symmetry_space_group_name_H-M   'P 1'
_cell_length_a   10.15637861
_cell_length_b   10.15637848
_cell_length_c   10.14730013
_cell_angle_alpha   59.39018629
_cell_angle_beta   59.39018717
_cell_angle_gamma   59.55988390
_symmetry_Int_Tables_number   1
_chemical_formula_structural   La9Nd7Cd4TcPd3
_chemical_formula_sum   'La9 Nd7 Cd4 Tc1 Pd3'
_cell_volume   730.81893285
_cell_formula_units_Z   1
loop_
 _symmetry_equiv_pos_site_id
 _symmetry_equiv_pos_as_xyz
  1  'x, y, z'
loop_
 _atom_site_type_symbol
 _atom_site_label
 _atom_site_symmetry_multiplicity
 _atom_site_fract_x
 _atom_site_fract_y
 _atom_site_fract_z
 _atom_site_occupancy
  La  La0  1  0.351994  0.351994  0.351956  1
  La  La1  1  0.345743  0.345743  0.954403  1
  La  La2  1  0.347285  0.953597  0.345264  1
  La  La3  1  0.953597  0.347285  0.345264  1
  La  La4  1  0.818238  0.187976  0.189675  1
  La  La5  1  0.190597  0.804563  0.806634  1
  La  La6  1  0.187976  0.818238  0.189675  1
  La  La7  1  0.804563  0.190597  0.806634  1
  La  La8  1  0.189336  0.189336  0.818884  1
  Nd  Nd9  1  0.804749  0.804749  0.192329  1
  Nd  Nd10  1  0.932261  0.568495  0.566354  1
  Nd  Nd11  1  0.560223  0.934932  0.936347  1
  Nd  Nd12  1  0.568495  0.932261  0.566354  1
  Nd  Nd13  1  0.934932  0.560223  0.936347  1
  Nd  Nd14  1  0.567375  0.567375  0.933206  1
  Nd  Nd15  1  0.935851  0.935851  0.559165  1
  Cd  Cd16  1  0.580809  0.580809  0.579125  1
  Cd  Cd17  1  0.581366  0.581366  0.255794  1
  Cd  Cd18  1  0.580843  0.255987  0.580765  1
  Cd  Cd19  1  0.255987  0.580843  0.580765  1
  Tc  Tc20  1  0.141456  0.141456  0.140790  1
  Pd  Pd21  1  0.145757  0.145757  0.573900  1
  Pd  Pd22  1  0.146385  0.574185  0.145185  1
  Pd  Pd23  1  0.574185  0.146385  0.145185  1
