# generated using pymatgen
data_GdDy7In3Co
_symmetry_space_group_name_H-M   'P 1'
_cell_length_a   10.37434803
_cell_length_b   10.37434818
_cell_length_c   7.01887000
_cell_angle_alpha   89.99600147
_cell_angle_beta   90.00400405
_cell_angle_gamma   119.98699738
_symmetry_Int_Tables_number   1
_chemical_formula_structural   GdDy7In3Co
_chemical_formula_sum   'Gd2 Dy14 In6 Co2'
_cell_volume   654.29913946
_cell_formula_units_Z   2
loop_
 _symmetry_equiv_pos_site_id
 _symmetry_equiv_pos_as_xyz
  1  'x, y, z'
loop_
 _atom_site_type_symbol
 _atom_site_label
 _atom_site_symmetry_multiplicity
 _atom_site_fract_x
 _atom_site_fract_y
 _atom_site_fract_z
 _atom_site_occupancy
  Gd  Gd0  1  0.535115  0.070562  0.790714  1
  Gd  Gd1  1  0.929438  0.464885  0.790714  1
  Dy  Dy2  1  0.535273  0.464727  0.791431  1
  Dy  Dy3  1  0.464234  0.927985  0.291349  1
  Dy  Dy4  1  0.072015  0.535766  0.291349  1
  Dy  Dy5  1  0.464311  0.535689  0.291736  1
  Dy  Dy6  1  0.822092  0.644577  0.498172  1
  Dy  Dy7  1  0.355423  0.177908  0.498172  1
  Dy  Dy8  1  0.822396  0.177604  0.497977  1
  Dy  Dy9  1  0.178260  0.355743  0.999253  1
  Dy  Dy10  1  0.644257  0.821740  0.999253  1
  Dy  Dy11  1  0.177754  0.822246  0.999665  1
  Dy  Dy12  1  0.666443  0.333557  0.183393  1
  Dy  Dy13  1  0.333651  0.666349  0.683007  1
  Dy  Dy14  1  0.000206  0.999794  0.779375  1
  Dy  Dy15  1  0.999841  0.000159  0.279340  1
  In  In16  1  0.836582  0.674257  0.039637  1
  In  In17  1  0.325743  0.163418  0.039637  1
  In  In18  1  0.837277  0.162723  0.040249  1
  In  In19  1  0.163066  0.326025  0.539333  1
  In  In20  1  0.673975  0.836934  0.539333  1
  In  In21  1  0.163193  0.836807  0.538763  1
  Co  Co22  1  0.666048  0.333952  0.566373  1
  Co  Co23  1  0.333409  0.666591  0.067683  1
