# generated using pymatgen
data_Hf(ScS2)3
_symmetry_space_group_name_H-M   'P 1'
_cell_length_a   6.34299383
_cell_length_b   6.34299411
_cell_length_c   6.38889451
_cell_angle_alpha   80.34664578
_cell_angle_beta   80.34664116
_cell_angle_gamma   119.74746132
_symmetry_Int_Tables_number   1
_chemical_formula_structural   Hf(ScS2)3
_chemical_formula_sum   'Hf1 Sc3 S6'
_cell_volume   210.35038839
_cell_formula_units_Z   1
loop_
 _symmetry_equiv_pos_site_id
 _symmetry_equiv_pos_as_xyz
  1  'x, y, z'
loop_
 _atom_site_type_symbol
 _atom_site_label
 _atom_site_symmetry_multiplicity
 _atom_site_fract_x
 _atom_site_fract_y
 _atom_site_fract_z
 _atom_site_occupancy
  Hf  Hf0  1  0.667840  0.332160  0.500000  1
  Sc  Sc1  1  0.332281  0.667719  0.500000  1
  Sc  Sc2  1  0.999825  0.000175  0.500000  1
  Sc  Sc3  1  0.499653  0.500347  0.000000  1
  S  S4  1  0.910658  0.581362  0.745559  1
  S  S5  1  0.584489  0.917594  0.745068  1
  S  S6  1  0.259257  0.255047  0.746088  1
  S  S7  1  0.082406  0.415511  0.254932  1
  S  S8  1  0.744953  0.740744  0.253912  1
  S  S9  1  0.418638  0.089342  0.254441  1
