# generated using pymatgen
data_Ta2BeBMo
_symmetry_space_group_name_H-M   'P 1'
_cell_length_a   6.27167200
_cell_length_b   6.27822500
_cell_length_c   3.27525000
_cell_angle_alpha   90.00000000
_cell_angle_beta   90.00000000
_cell_angle_gamma   90.00000000
_symmetry_Int_Tables_number   1
_chemical_formula_structural   Ta2BeBMo
_chemical_formula_sum   'Ta4 Be2 B2 Mo2'
_cell_volume   128.96286375
_cell_formula_units_Z   2
loop_
 _symmetry_equiv_pos_site_id
 _symmetry_equiv_pos_as_xyz
  1  'x, y, z'
loop_
 _atom_site_type_symbol
 _atom_site_label
 _atom_site_symmetry_multiplicity
 _atom_site_fract_x
 _atom_site_fract_y
 _atom_site_fract_z
 _atom_site_occupancy
  Ta  Ta0  1  0.320039  0.827206  0.500000  1
  Ta  Ta1  1  0.820039  0.672794  0.500000  1
  Ta  Ta2  1  0.179997  0.314988  0.500000  1
  Ta  Ta3  1  0.679997  0.185012  0.500000  1
  Be  Be4  1  0.112303  0.610211  0.000000  1
  Be  Be5  1  0.612303  0.889789  0.000000  1
  B  B6  1  0.387247  0.114319  0.000000  1
  B  B7  1  0.887247  0.385681  0.000000  1
  Mo  Mo8  1  0.000414  0.003668  0.000000  1
  Mo  Mo9  1  0.500414  0.496332  0.000000  1
