# generated using pymatgen
data_Sc8Cr8Re3Si16Mo
_symmetry_space_group_name_H-M   'P 1'
_cell_length_a   6.56742257
_cell_length_b   6.56742257
_cell_length_c   12.13925399
_cell_angle_alpha   90.06579116
_cell_angle_beta   89.93420884
_cell_angle_gamma   90.14815654
_symmetry_Int_Tables_number   1
_chemical_formula_structural   Sc8Cr8Re3Si16Mo
_chemical_formula_sum   'Sc8 Cr8 Re3 Si16 Mo1'
_cell_volume   523.57620091
_cell_formula_units_Z   1
loop_
 _symmetry_equiv_pos_site_id
 _symmetry_equiv_pos_as_xyz
  1  'x, y, z'
loop_
 _atom_site_type_symbol
 _atom_site_label
 _atom_site_symmetry_multiplicity
 _atom_site_fract_x
 _atom_site_fract_y
 _atom_site_fract_z
 _atom_site_occupancy
  Sc  Sc0  1  0.004348  0.664135  0.029079  1
  Sc  Sc1  1  0.995705  0.335107  0.529482  1
  Sc  Sc2  1  0.335107  0.995705  0.470518  1
  Sc  Sc3  1  0.163891  0.494684  0.779767  1
  Sc  Sc4  1  0.835855  0.503972  0.278306  1
  Sc  Sc5  1  0.494684  0.163891  0.220233  1
  Sc  Sc6  1  0.503972  0.835855  0.721694  1
  Sc  Sc7  1  0.664135  0.004348  0.970921  1
  Cr  Cr8  1  0.004484  0.829618  0.626320  1
  Cr  Cr9  1  0.990314  0.171703  0.127859  1
  Cr  Cr10  1  0.829618  0.004484  0.373680  1
  Cr  Cr11  1  0.333803  0.491428  0.378062  1
  Cr  Cr12  1  0.672027  0.510305  0.879074  1
  Cr  Cr13  1  0.491428  0.333803  0.621938  1
  Cr  Cr14  1  0.510305  0.672027  0.120926  1
  Cr  Cr15  1  0.171703  0.990314  0.872141  1
  Re  Re16  1  0.165915  0.834158  0.248909  1
  Re  Re17  1  0.334207  0.334207  0.000000  1
  Re  Re18  1  0.834158  0.165915  0.751091  1
  Si  Si19  1  0.035697  0.710089  0.434098  1
  Si  Si20  1  0.622273  0.294436  0.431351  1
  Si  Si21  1  0.380025  0.702001  0.931750  1
  Si  Si22  1  0.202290  0.120022  0.681728  1
  Si  Si23  1  0.294436  0.622273  0.568649  1
  Si  Si24  1  0.702001  0.380025  0.068250  1
  Si  Si25  1  0.798477  0.880580  0.181545  1
  Si  Si26  1  0.120022  0.202290  0.318272  1
  Si  Si27  1  0.967436  0.285738  0.936234  1
  Si  Si28  1  0.710089  0.035697  0.565902  1
  Si  Si29  1  0.214665  0.467434  0.185754  1
  Si  Si30  1  0.786306  0.531589  0.687830  1
  Si  Si31  1  0.467434  0.214665  0.814246  1
  Si  Si32  1  0.531589  0.786306  0.312170  1
  Si  Si33  1  0.285738  0.967436  0.063766  1
  Si  Si34  1  0.880580  0.798477  0.818455  1
  Mo  Mo35  1  0.665284  0.665284  0.500000  1
