# generated using pymatgen
data_La3Lu2Mn3(P3Ir4)4
_symmetry_space_group_name_H-M   'P 1'
_cell_length_a   12.76813900
_cell_length_b   12.76813948
_cell_length_c   3.98405000
_cell_angle_alpha   90.00000000
_cell_angle_beta   90.00000000
_cell_angle_gamma   120.00000134
_symmetry_Int_Tables_number   1
_chemical_formula_structural   La3Lu2Mn3(P3Ir4)4
_chemical_formula_sum   'La3 Lu2 Mn3 P12 Ir16'
_cell_volume   562.48458668
_cell_formula_units_Z   1
loop_
 _symmetry_equiv_pos_site_id
 _symmetry_equiv_pos_as_xyz
  1  'x, y, z'
loop_
 _atom_site_type_symbol
 _atom_site_label
 _atom_site_symmetry_multiplicity
 _atom_site_fract_x
 _atom_site_fract_y
 _atom_site_fract_z
 _atom_site_occupancy
  La  La0  1  0.000000  0.809339  0.000000  1
  La  La1  1  0.190661  0.190661  0.000000  1
  La  La2  1  0.809339  0.000000  0.000000  1
  Lu  Lu3  1  0.333333  0.666667  0.500000  1
  Lu  Lu4  1  0.666667  0.333333  0.500000  1
  Mn  Mn5  1  0.000000  0.454327  0.500000  1
  Mn  Mn6  1  0.545673  0.545673  0.500000  1
  Mn  Mn7  1  0.454327  0.000000  0.500000  1
  P  P8  1  0.000000  0.629081  0.500000  1
  P  P9  1  0.370919  0.370919  0.500000  1
  P  P10  1  0.629081  0.000000  0.500000  1
  P  P11  1  0.515183  0.687605  0.000000  1
  P  P12  1  0.312395  0.827579  0.000000  1
  P  P13  1  0.172421  0.484817  0.000000  1
  P  P14  1  0.484817  0.172421  0.000000  1
  P  P15  1  0.687605  0.515183  0.000000  1
  P  P16  1  0.827579  0.312395  0.000000  1
  P  P17  1  0.000000  0.183127  0.500000  1
  P  P18  1  0.816873  0.816873  0.500000  1
  P  P19  1  0.183127  0.000000  0.500000  1
  Ir  Ir20  1  0.504986  0.866849  0.000000  1
  Ir  Ir21  1  0.133151  0.638138  0.000000  1
  Ir  Ir22  1  0.361862  0.495014  0.000000  1
  Ir  Ir23  1  0.495014  0.361862  0.000000  1
  Ir  Ir24  1  0.866849  0.504986  0.000000  1
  Ir  Ir25  1  0.638138  0.133151  0.000000  1
  Ir  Ir26  1  0.000000  0.286515  0.000000  1
  Ir  Ir27  1  0.713485  0.713485  0.000000  1
  Ir  Ir28  1  0.286515  0.000000  0.000000  1
  Ir  Ir29  1  0.617165  0.796439  0.500000  1
  Ir  Ir30  1  0.203561  0.820725  0.500000  1
  Ir  Ir31  1  0.179275  0.382835  0.500000  1
  Ir  Ir32  1  0.382835  0.179275  0.500000  1
  Ir  Ir33  1  0.796439  0.617165  0.500000  1
  Ir  Ir34  1  0.820725  0.203561  0.500000  1
  Ir  Ir35  1  0.000000  0.000000  0.500000  1
