# generated using pymatgen
data_Li2Pr8Y6Sc4Si15As
_symmetry_space_group_name_H-M   'P 1'
_cell_length_a   7.30184010
_cell_length_b   7.73032005
_cell_length_c   14.69524506
_cell_angle_alpha   90.05109366
_cell_angle_beta   90.12951345
_cell_angle_gamma   90.24808133
_symmetry_Int_Tables_number   1
_chemical_formula_structural   Li2Pr8Y6Sc4Si15As
_chemical_formula_sum   'Li2 Pr8 Y6 Sc4 Si15 As1'
_cell_volume   829.47111782
_cell_formula_units_Z   1
loop_
 _symmetry_equiv_pos_site_id
 _symmetry_equiv_pos_as_xyz
  1  'x, y, z'
loop_
 _atom_site_type_symbol
 _atom_site_label
 _atom_site_symmetry_multiplicity
 _atom_site_fract_x
 _atom_site_fract_y
 _atom_site_fract_z
 _atom_site_occupancy
  Li  Li0  1  0.660871  0.987691  0.751191  1
  Li  Li1  1  0.847584  0.500321  0.242037  1
  Pr  Pr2  1  0.013744  0.186437  0.394953  1
  Pr  Pr3  1  0.523894  0.323252  0.393396  1
  Pr  Pr4  1  0.489556  0.683512  0.904042  1
  Pr  Pr5  1  0.488743  0.683584  0.598841  1
  Pr  Pr6  1  0.975873  0.825888  0.602705  1
  Pr  Pr7  1  0.977295  0.825097  0.900366  1
  Pr  Pr8  1  0.522385  0.326121  0.101279  1
  Pr  Pr9  1  0.013184  0.184459  0.100159  1
  Y  Y10  1  0.332044  0.175168  0.625232  1
  Y  Y11  1  0.676963  0.810250  0.371018  1
  Y  Y12  1  0.166837  0.674064  0.372660  1
  Y  Y13  1  0.820746  0.314692  0.878866  1
  Y  Y14  1  0.820081  0.311961  0.626685  1
  Y  Y15  1  0.333576  0.174468  0.878614  1
  Sc  Sc16  1  0.343886  0.000414  0.245491  1
  Sc  Sc17  1  0.166759  0.675501  0.126018  1
  Sc  Sc18  1  0.677188  0.813957  0.127281  1
  Sc  Sc19  1  0.153267  0.503197  0.750802  1
  Si  Si20  1  0.460694  0.614613  0.243211  1
  Si  Si21  1  0.030530  0.119585  0.752339  1
  Si  Si22  1  0.521404  0.403595  0.751823  1
  Si  Si23  1  0.148381  0.470918  0.542562  1
  Si  Si24  1  0.974421  0.894571  0.243845  1
  Si  Si25  1  0.713700  0.102586  0.245787  1
  Si  Si26  1  0.852270  0.544514  0.037010  1
  Si  Si27  1  0.350828  0.962404  0.046536  1
  Si  Si28  1  0.153018  0.474327  0.964374  1
  Si  Si29  1  0.649723  0.035174  0.527793  1
  Si  Si30  1  0.348678  0.969453  0.456710  1
  Si  Si31  1  0.847938  0.536281  0.470819  1
  Si  Si32  1  0.784611  0.612141  0.751621  1
  Si  Si33  1  0.225278  0.381689  0.245896  1
  Si  Si34  1  0.653123  0.029468  0.976369  1
  As  As35  1  0.280930  0.868645  0.751669  1
