# generated using pymatgen
data_Tb4Tm7ThCo4
_symmetry_space_group_name_H-M   'P 1'
_cell_length_a   6.21976762
_cell_length_b   6.89630273
_cell_length_c   9.40216953
_cell_angle_alpha   90.00900360
_cell_angle_beta   89.90114159
_cell_angle_gamma   91.09101331
_symmetry_Int_Tables_number   1
_chemical_formula_structural   Tb4Tm7ThCo4
_chemical_formula_sum   'Tb4 Tm7 Th1 Co4'
_cell_volume   403.21730697
_cell_formula_units_Z   1
loop_
 _symmetry_equiv_pos_site_id
 _symmetry_equiv_pos_as_xyz
  1  'x, y, z'
loop_
 _atom_site_type_symbol
 _atom_site_label
 _atom_site_symmetry_multiplicity
 _atom_site_fract_x
 _atom_site_fract_y
 _atom_site_fract_z
 _atom_site_occupancy
  Tb  Tb0  1  0.173236  0.176080  0.068427  1
  Tb  Tb1  1  0.638534  0.042357  0.250903  1
  Tb  Tb2  1  0.141691  0.455711  0.749256  1
  Tb  Tb3  1  0.360441  0.955880  0.749256  1
  Tm  Tm4  1  0.327510  0.674713  0.067118  1
  Tm  Tm5  1  0.172570  0.175335  0.432396  1
  Tm  Tm6  1  0.675654  0.324883  0.568848  1
  Tm  Tm7  1  0.824229  0.826716  0.929790  1
  Tm  Tm8  1  0.675499  0.325106  0.930452  1
  Tm  Tm9  1  0.824413  0.826780  0.569770  1
  Tm  Tm10  1  0.326674  0.674791  0.432714  1
  Th  Th11  1  0.848523  0.554497  0.250523  1
  Co  Co12  1  0.045924  0.870546  0.250772  1
  Co  Co13  1  0.466248  0.391076  0.251038  1
  Co  Co14  1  0.949519  0.113576  0.748352  1
  Co  Co15  1  0.549335  0.611955  0.750383  1
