# generated using pymatgen
data_Be3Nb16BTe16
_symmetry_space_group_name_H-M   'P 1'
_cell_length_a   4.78538900
_cell_length_b   10.89011514
_cell_length_c   18.91872524
_cell_angle_alpha   89.98172796
_cell_angle_beta   90.00000000
_cell_angle_gamma   90.00000000
_symmetry_Int_Tables_number   1
_chemical_formula_structural   Be3Nb16BTe16
_chemical_formula_sum   'Be3 Nb16 B1 Te16'
_cell_volume   985.91974944
_cell_formula_units_Z   1
loop_
 _symmetry_equiv_pos_site_id
 _symmetry_equiv_pos_as_xyz
  1  'x, y, z'
loop_
 _atom_site_type_symbol
 _atom_site_label
 _atom_site_symmetry_multiplicity
 _atom_site_fract_x
 _atom_site_fract_y
 _atom_site_fract_z
 _atom_site_occupancy
  Be  Be0  1  0.242439  0.500000  0.500000  1
  Be  Be1  1  0.750505  0.000000  0.000000  1
  Be  Be2  1  0.757567  0.500000  0.500000  1
  Nb  Nb3  1  0.500133  0.561082  0.386839  1
  Nb  Nb4  1  0.500133  0.438918  0.613161  1
  Nb  Nb5  1  0.497981  0.060795  0.112484  1
  Nb  Nb6  1  0.497981  0.939205  0.887516  1
  Nb  Nb7  1  0.499914  0.697611  0.535303  1
  Nb  Nb8  1  0.499914  0.302389  0.464697  1
  Nb  Nb9  1  0.497343  0.196481  0.964976  1
  Nb  Nb10  1  0.497343  0.803519  0.035024  1
  Nb  Nb11  1  0.000201  0.687614  0.442913  1
  Nb  Nb12  1  0.000201  0.312386  0.557087  1
  Nb  Nb13  1  0.001695  0.182165  0.055085  1
  Nb  Nb14  1  0.001695  0.817835  0.944915  1
  Nb  Nb15  1  0.999701  0.401758  0.392368  1
  Nb  Nb16  1  0.999701  0.598242  0.607632  1
  Nb  Nb17  1  0.003000  0.904140  0.104236  1
  Nb  Nb18  1  0.003000  0.095860  0.895764  1
  B  B19  1  0.249527  0.000000  0.000000  1
  Te  Te20  1  0.999951  0.847381  0.561799  1
  Te  Te21  1  0.999951  0.152619  0.438201  1
  Te  Te22  1  0.997723  0.346692  0.938343  1
  Te  Te23  1  0.997723  0.653308  0.061657  1
  Te  Te24  1  0.499783  0.331474  0.314879  1
  Te  Te25  1  0.499783  0.668526  0.685121  1
  Te  Te26  1  0.502238  0.832269  0.184192  1
  Te  Te27  1  0.502238  0.167731  0.815808  1
  Te  Te28  1  0.500062  0.821930  0.402425  1
  Te  Te29  1  0.500062  0.178070  0.597575  1
  Te  Te30  1  0.501896  0.320593  0.097251  1
  Te  Te31  1  0.501896  0.679407  0.902749  1
  Te  Te32  1  0.000143  0.607392  0.300303  1
  Te  Te33  1  0.000143  0.392608  0.699697  1
  Te  Te34  1  0.998217  0.106650  0.198504  1
  Te  Te35  1  0.998217  0.893350  0.801496  1
