# generated using pymatgen
data_Nd4Hg2PtAu3
_symmetry_space_group_name_H-M   'P 1'
_cell_length_a   8.12125826
_cell_length_b   8.12125862
_cell_length_c   3.85174600
_cell_angle_alpha   90.00000000
_cell_angle_beta   90.00000000
_cell_angle_gamma   90.34552933
_symmetry_Int_Tables_number   1
_chemical_formula_structural   Nd4Hg2PtAu3
_chemical_formula_sum   'Nd4 Hg2 Pt1 Au3'
_cell_volume   254.03666633
_cell_formula_units_Z   1
loop_
 _symmetry_equiv_pos_site_id
 _symmetry_equiv_pos_as_xyz
  1  'x, y, z'
loop_
 _atom_site_type_symbol
 _atom_site_label
 _atom_site_symmetry_multiplicity
 _atom_site_fract_x
 _atom_site_fract_y
 _atom_site_fract_z
 _atom_site_occupancy
  Nd  Nd0  1  0.671844  0.171844  0.500000  1
  Nd  Nd1  1  0.317727  0.817727  0.500000  1
  Nd  Nd2  1  0.177434  0.339745  0.500000  1
  Nd  Nd3  1  0.839745  0.677434  0.500000  1
  Hg  Hg4  1  0.000722  0.999486  0.000000  1
  Hg  Hg5  1  0.499486  0.500722  0.000000  1
  Pt  Pt6  1  0.122777  0.622777  0.000000  1
  Au  Au7  1  0.874103  0.374103  0.000000  1
  Au  Au8  1  0.623470  0.872693  0.000000  1
  Au  Au9  1  0.372693  0.123470  0.000000  1
