# generated using pymatgen
data_SmDyCo12SiP6
_symmetry_space_group_name_H-M   'P 1'
_cell_length_a   9.04984400
_cell_length_b   9.04984467
_cell_length_c   3.60616200
_cell_angle_alpha   90.00000000
_cell_angle_beta   90.00000000
_cell_angle_gamma   120.00000486
_symmetry_Int_Tables_number   1
_chemical_formula_structural   SmDyCo12SiP6
_chemical_formula_sum   'Sm1 Dy1 Co12 Si1 P6'
_cell_volume   255.77498104
_cell_formula_units_Z   1
loop_
 _symmetry_equiv_pos_site_id
 _symmetry_equiv_pos_as_xyz
  1  'x, y, z'
loop_
 _atom_site_type_symbol
 _atom_site_label
 _atom_site_symmetry_multiplicity
 _atom_site_fract_x
 _atom_site_fract_y
 _atom_site_fract_z
 _atom_site_occupancy
  Sm  Sm0  1  0.333333  0.666667  0.500000  1
  Dy  Dy1  1  0.000000  0.000000  0.000000  1
  Co  Co2  1  0.099325  0.391177  0.000000  1
  Co  Co3  1  0.608823  0.708147  0.000000  1
  Co  Co4  1  0.291853  0.900675  0.000000  1
  Co  Co5  1  0.050315  0.768774  0.500000  1
  Co  Co6  1  0.231226  0.281540  0.500000  1
  Co  Co7  1  0.718460  0.949685  0.500000  1
  Co  Co8  1  0.823893  0.613759  0.000000  1
  Co  Co9  1  0.386241  0.210135  0.000000  1
  Co  Co10  1  0.789865  0.176107  0.000000  1
  Co  Co11  1  0.896340  0.433792  0.500000  1
  Co  Co12  1  0.566208  0.462548  0.500000  1
  Co  Co13  1  0.537452  0.103660  0.500000  1
  Si  Si14  1  0.666667  0.333333  0.000000  1
  P  P15  1  0.777670  0.735500  0.500000  1
  P  P16  1  0.264500  0.042170  0.500000  1
  P  P17  1  0.957830  0.222330  0.500000  1
  P  P18  1  0.070115  0.626726  0.000000  1
  P  P19  1  0.373274  0.443389  0.000000  1
  P  P20  1  0.556611  0.929885  0.000000  1
