# generated using pymatgen
data_Ca2Ho2Tc3B16W
_symmetry_space_group_name_H-M   'P 1'
_cell_length_a   3.57881000
_cell_length_b   6.00631492
_cell_length_c   11.60999711
_cell_angle_alpha   90.08832683
_cell_angle_beta   90.00000000
_cell_angle_gamma   90.00000000
_symmetry_Int_Tables_number   1
_chemical_formula_structural   Ca2Ho2Tc3B16W
_chemical_formula_sum   'Ca2 Ho2 Tc3 B16 W1'
_cell_volume   249.56193060
_cell_formula_units_Z   1
loop_
 _symmetry_equiv_pos_site_id
 _symmetry_equiv_pos_as_xyz
  1  'x, y, z'
loop_
 _atom_site_type_symbol
 _atom_site_label
 _atom_site_symmetry_multiplicity
 _atom_site_fract_x
 _atom_site_fract_y
 _atom_site_fract_z
 _atom_site_occupancy
  Ca  Ca0  1  0.000000  0.125290  0.150626  1
  Ca  Ca1  1  0.000000  0.872116  0.850070  1
  Ho  Ho2  1  0.000000  0.628508  0.348223  1
  Ho  Ho3  1  0.000000  0.371993  0.650197  1
  Tc  Tc4  1  0.000000  0.132406  0.415530  1
  Tc  Tc5  1  0.000000  0.867749  0.583297  1
  Tc  Tc6  1  0.000000  0.628752  0.085074  1
  B  B7  1  0.500000  0.478884  0.193955  1
  B  B8  1  0.500000  0.525186  0.805655  1
  B  B9  1  0.500000  0.976728  0.308075  1
  B  B10  1  0.500000  0.022674  0.691153  1
  B  B11  1  0.500000  0.285083  0.315126  1
  B  B12  1  0.500000  0.715641  0.683589  1
  B  B13  1  0.500000  0.785649  0.185493  1
  B  B14  1  0.500000  0.210910  0.812570  1
  B  B15  1  0.500000  0.364050  0.468339  1
  B  B16  1  0.500000  0.636309  0.530653  1
  B  B17  1  0.500000  0.865236  0.033875  1
  B  B18  1  0.500000  0.131667  0.968980  1
  B  B19  1  0.500000  0.387837  0.049369  1
  B  B20  1  0.500000  0.617380  0.954470  1
  B  B21  1  0.500000  0.887443  0.452155  1
  B  B22  1  0.500000  0.113141  0.547042  1
  W  W23  1  0.000000  0.369368  0.916482  1
