# generated using pymatgen
data_NdDy2RuI3
_symmetry_space_group_name_H-M   'P 1'
_cell_length_a   4.26648600
_cell_length_b   9.01960788
_cell_length_c   12.40277282
_cell_angle_alpha   94.91767787
_cell_angle_beta   90.00000000
_cell_angle_gamma   90.00000000
_symmetry_Int_Tables_number   1
_chemical_formula_structural   NdDy2RuI3
_chemical_formula_sum   'Nd2 Dy4 Ru2 I6'
_cell_volume   475.52695275
_cell_formula_units_Z   2
loop_
 _symmetry_equiv_pos_site_id
 _symmetry_equiv_pos_as_xyz
  1  'x, y, z'
loop_
 _atom_site_type_symbol
 _atom_site_label
 _atom_site_symmetry_multiplicity
 _atom_site_fract_x
 _atom_site_fract_y
 _atom_site_fract_z
 _atom_site_occupancy
  Nd  Nd0  1  0.750000  0.274986  0.604387  1
  Nd  Nd1  1  0.250000  0.725014  0.395613  1
  Dy  Dy2  1  0.750000  0.880874  0.624760  1
  Dy  Dy3  1  0.250000  0.119126  0.375240  1
  Dy  Dy4  1  0.750000  0.895414  0.182435  1
  Dy  Dy5  1  0.250000  0.104586  0.817565  1
  Ru  Ru6  1  0.750000  0.939706  0.403689  1
  Ru  Ru7  1  0.250000  0.060294  0.596311  1
  I  I8  1  0.750000  0.414742  0.362304  1
  I  I9  1  0.250000  0.585258  0.637696  1
  I  I10  1  0.750000  0.868387  0.889240  1
  I  I11  1  0.250000  0.131613  0.110760  1
  I  I12  1  0.750000  0.354713  0.870316  1
  I  I13  1  0.250000  0.645287  0.129684  1
