# generated using pymatgen
data_Tb2Ho4Al19Si5Os8
_symmetry_space_group_name_H-M   'P 1'
_cell_length_a   8.69835400
_cell_length_b   8.68459255
_cell_length_c   9.58622800
_cell_angle_alpha   89.99964572
_cell_angle_beta   90.00008795
_cell_angle_gamma   120.05544139
_symmetry_Int_Tables_number   1
_chemical_formula_structural   Tb2Ho4Al19Si5Os8
_chemical_formula_sum   'Tb2 Ho4 Al19 Si5 Os8'
_cell_volume   626.78993794
_cell_formula_units_Z   1
loop_
 _symmetry_equiv_pos_site_id
 _symmetry_equiv_pos_as_xyz
  1  'x, y, z'
loop_
 _atom_site_type_symbol
 _atom_site_label
 _atom_site_symmetry_multiplicity
 _atom_site_fract_x
 _atom_site_fract_y
 _atom_site_fract_z
 _atom_site_occupancy
  Tb  Tb0  1  0.806351  0.612451  0.750000  1
  Tb  Tb1  1  0.388665  0.194428  0.750000  1
  Ho  Ho2  1  0.194952  0.389932  0.250002  1
  Ho  Ho3  1  0.607957  0.806340  0.249999  1
  Ho  Ho4  1  0.198409  0.806310  0.250000  1
  Ho  Ho5  1  0.805423  0.195126  0.749999  1
  Al  Al6  1  0.164545  0.329355  0.578114  1
  Al  Al7  1  0.834771  0.669534  0.421760  1
  Al  Al8  1  0.669873  0.835435  0.576822  1
  Al  Al9  1  0.834771  0.669532  0.078240  1
  Al  Al10  1  0.329008  0.165466  0.421898  1
  Al  Al11  1  0.164545  0.329354  0.921886  1
  Al  Al12  1  0.165469  0.835239  0.576742  1
  Al  Al13  1  0.329009  0.165466  0.078102  1
  Al  Al14  1  0.836445  0.165467  0.422056  1
  Al  Al15  1  0.669871  0.835434  0.923178  1
  Al  Al16  1  0.836445  0.165467  0.077944  1
  Al  Al17  1  0.165470  0.835239  0.923258  1
  Al  Al18  1  0.437182  0.873950  0.750000  1
  Al  Al19  1  0.872911  0.433547  0.250000  1
  Al  Al20  1  0.127815  0.564303  0.750001  1
  Al  Al21  1  0.560666  0.433551  0.249999  1
  Al  Al22  1  0.436515  0.564674  0.750000  1
  Al  Al23  1  0.999926  0.999820  0.250001  1
  Al  Al24  1  0.000192  0.001055  0.749999  1
  Si  Si25  1  0.332607  0.665148  0.038017  1
  Si  Si26  1  0.667465  0.334297  0.961277  1
  Si  Si27  1  0.667465  0.334297  0.538724  1
  Si  Si28  1  0.332606  0.665150  0.461982  1
  Si  Si29  1  0.563800  0.127575  0.250000  1
  Os  Os30  1  0.500774  0.001215  0.006493  1
  Os  Os31  1  0.999278  0.498951  0.000707  1
  Os  Os32  1  0.500772  0.001212  0.493505  1
  Os  Os33  1  0.499845  0.499170  0.000892  1
  Os  Os34  1  0.999274  0.498951  0.499295  1
  Os  Os35  1  0.499842  0.499172  0.499108  1
  Os  Os36  1  0.999541  0.999192  0.000103  1
  Os  Os37  1  0.999545  0.999195  0.499897  1
