# generated using pymatgen
data_DyHoReB6
_symmetry_space_group_name_H-M   'P 1'
_cell_length_a   3.67888300
_cell_length_b   9.16598400
_cell_length_c   11.55479000
_cell_angle_alpha   90.00000000
_cell_angle_beta   90.00000000
_cell_angle_gamma   90.00000000
_symmetry_Int_Tables_number   1
_chemical_formula_structural   DyHoReB6
_chemical_formula_sum   'Dy4 Ho4 Re4 B24'
_cell_volume   389.63425196
_cell_formula_units_Z   4
loop_
 _symmetry_equiv_pos_site_id
 _symmetry_equiv_pos_as_xyz
  1  'x, y, z'
loop_
 _atom_site_type_symbol
 _atom_site_label
 _atom_site_symmetry_multiplicity
 _atom_site_fract_x
 _atom_site_fract_y
 _atom_site_fract_z
 _atom_site_occupancy
  Dy  Dy0  1  0.000000  0.323659  0.413971  1
  Dy  Dy1  1  0.000000  0.676341  0.586029  1
  Dy  Dy2  1  0.000000  0.823659  0.086029  1
  Dy  Dy3  1  0.000000  0.176341  0.913971  1
  Ho  Ho4  1  0.000000  0.943268  0.370332  1
  Ho  Ho5  1  0.000000  0.056732  0.629668  1
  Ho  Ho6  1  0.000000  0.443268  0.129668  1
  Ho  Ho7  1  0.000000  0.556732  0.870332  1
  Re  Re8  1  0.000000  0.638604  0.320683  1
  Re  Re9  1  0.000000  0.361396  0.679317  1
  Re  Re10  1  0.000000  0.138604  0.179317  1
  Re  Re11  1  0.000000  0.861396  0.820683  1
  B  B12  1  0.500000  0.553265  0.432701  1
  B  B13  1  0.500000  0.446735  0.567299  1
  B  B14  1  0.500000  0.053265  0.067299  1
  B  B15  1  0.500000  0.946735  0.932701  1
  B  B16  1  0.500000  0.748983  0.418497  1
  B  B17  1  0.500000  0.251017  0.581503  1
  B  B18  1  0.500000  0.248983  0.081503  1
  B  B19  1  0.500000  0.751017  0.918497  1
  B  B20  1  0.500000  0.792053  0.265847  1
  B  B21  1  0.500000  0.207947  0.734153  1
  B  B22  1  0.500000  0.292053  0.234153  1
  B  B23  1  0.500000  0.707947  0.765847  1
  B  B24  1  0.500000  0.630719  0.185794  1
  B  B25  1  0.500000  0.369281  0.814206  1
  B  B26  1  0.500000  0.130719  0.314206  1
  B  B27  1  0.500000  0.869281  0.685794  1
  B  B28  1  0.500000  0.982187  0.212165  1
  B  B29  1  0.500000  0.017813  0.787835  1
  B  B30  1  0.500000  0.482187  0.287835  1
  B  B31  1  0.500000  0.517813  0.712165  1
  B  B32  1  0.500000  0.599826  0.027955  1
  B  B33  1  0.500000  0.400174  0.972045  1
  B  B34  1  0.500000  0.099826  0.472045  1
  B  B35  1  0.500000  0.900174  0.527955  1
