# generated using pymatgen
data_Nd2Co10Re2P7
_symmetry_space_group_name_H-M   'P 1'
_cell_length_a   9.06176621
_cell_length_b   9.13439018
_cell_length_c   3.73629100
_cell_angle_alpha   90.00000000
_cell_angle_beta   90.00000000
_cell_angle_gamma   119.66321061
_symmetry_Int_Tables_number   1
_chemical_formula_structural   Nd2Co10Re2P7
_chemical_formula_sum   'Nd2 Co10 Re2 P7'
_cell_volume   268.73710054
_cell_formula_units_Z   1
loop_
 _symmetry_equiv_pos_site_id
 _symmetry_equiv_pos_as_xyz
  1  'x, y, z'
loop_
 _atom_site_type_symbol
 _atom_site_label
 _atom_site_symmetry_multiplicity
 _atom_site_fract_x
 _atom_site_fract_y
 _atom_site_fract_z
 _atom_site_occupancy
  Nd  Nd0  1  0.667711  0.333382  0.500000  1
  Nd  Nd1  1  0.337312  0.669013  0.000000  1
  Co  Co2  1  0.727091  0.879182  0.000000  1
  Co  Co3  1  0.941523  0.370838  0.000000  1
  Co  Co4  1  0.155690  0.278192  0.000000  1
  Co  Co5  1  0.381681  0.433796  0.500000  1
  Co  Co6  1  0.119289  0.844310  0.000000  1
  Co  Co7  1  0.430012  0.060203  0.000000  1
  Co  Co8  1  0.048986  0.618087  0.500000  1
  Co  Co9  1  0.567638  0.948175  0.500000  1
  Co  Co10  1  0.626899  0.567195  0.000000  1
  Co  Co11  1  0.870143  0.767889  0.500000  1
  Re  Re12  1  0.213366  0.100051  0.500000  1
  Re  Re13  1  0.907479  0.124995  0.500000  1
  P  P14  1  0.408100  0.301103  0.000000  1
  P  P15  1  0.291223  0.889305  0.500000  1
  P  P16  1  0.700035  0.105600  0.000000  1
  P  P17  1  0.601376  0.706735  0.500000  1
  P  P18  1  0.891989  0.594634  0.000000  1
  P  P19  1  0.111900  0.408924  0.500000  1
  P  P20  1  0.000555  0.998388  0.000000  1
