# generated using pymatgen
data_Tb2Si7(NiRu3)3
_symmetry_space_group_name_H-M   'P 1'
_cell_length_a   9.53612300
_cell_length_b   9.53612431
_cell_length_c   3.82835700
_cell_angle_alpha   90.00000000
_cell_angle_beta   90.00000000
_cell_angle_gamma   119.99999891
_symmetry_Int_Tables_number   1
_chemical_formula_structural   Tb2Si7(NiRu3)3
_chemical_formula_sum   'Tb2 Si7 Ni3 Ru9'
_cell_volume   301.49965124
_cell_formula_units_Z   1
loop_
 _symmetry_equiv_pos_site_id
 _symmetry_equiv_pos_as_xyz
  1  'x, y, z'
loop_
 _atom_site_type_symbol
 _atom_site_label
 _atom_site_symmetry_multiplicity
 _atom_site_fract_x
 _atom_site_fract_y
 _atom_site_fract_z
 _atom_site_occupancy
  Tb  Tb0  1  0.666667  0.333333  0.000000  1
  Tb  Tb1  1  0.333333  0.666667  0.500000  1
  Si  Si2  1  0.291574  0.892342  0.000000  1
  Si  Si3  1  0.600771  0.708426  0.000000  1
  Si  Si4  1  0.107658  0.399229  0.000000  1
  Si  Si5  1  0.392547  0.288318  0.500000  1
  Si  Si6  1  0.895772  0.607453  0.500000  1
  Si  Si7  1  0.711682  0.104228  0.500000  1
  Si  Si8  1  0.000000  0.000000  0.000000  1
  Ni  Ni9  1  0.273730  0.123282  0.000000  1
  Ni  Ni10  1  0.849552  0.726270  0.000000  1
  Ni  Ni11  1  0.876718  0.150448  0.000000  1
  Ru  Ru12  1  0.058776  0.628875  0.000000  1
  Ru  Ru13  1  0.570100  0.941224  0.000000  1
  Ru  Ru14  1  0.371125  0.429900  0.000000  1
  Ru  Ru15  1  0.435291  0.057980  0.500000  1
  Ru  Ru16  1  0.622689  0.564709  0.500000  1
  Ru  Ru17  1  0.942020  0.377311  0.500000  1
  Ru  Ru18  1  0.096980  0.891381  0.500000  1
  Ru  Ru19  1  0.794401  0.903020  0.500000  1
  Ru  Ru20  1  0.108619  0.205599  0.500000  1
