# generated using pymatgen
data_Eu3B2Pd4Pt3
_symmetry_space_group_name_H-M   'P 1'
_cell_length_a   8.39473751
_cell_length_b   8.38441436
_cell_length_c   8.39428970
_cell_angle_alpha   39.01514756
_cell_angle_beta   38.90528663
_cell_angle_gamma   39.01147677
_symmetry_Int_Tables_number   1
_chemical_formula_structural   Eu3B2Pd4Pt3
_chemical_formula_sum   'Eu3 B2 Pd4 Pt3'
_cell_volume   210.21982770
_cell_formula_units_Z   1
loop_
 _symmetry_equiv_pos_site_id
 _symmetry_equiv_pos_as_xyz
  1  'x, y, z'
loop_
 _atom_site_type_symbol
 _atom_site_label
 _atom_site_symmetry_multiplicity
 _atom_site_fract_x
 _atom_site_fract_y
 _atom_site_fract_z
 _atom_site_occupancy
  Eu  Eu0  1  0.855360  0.852641  0.855341  1
  Eu  Eu1  1  0.142069  0.146018  0.142109  1
  Eu  Eu2  1  0.999228  0.998774  0.999219  1
  B  B3  1  0.672372  0.663916  0.672404  1
  B  B4  1  0.330411  0.336920  0.330373  1
  Pd  Pd5  1  0.438717  0.933801  0.438689  1
  Pd  Pd6  1  0.436493  0.435441  0.933187  1
  Pd  Pd7  1  0.933232  0.435429  0.436446  1
  Pd  Pd8  1  0.564342  0.065976  0.564362  1
  Pt  Pt9  1  0.562943  0.562682  0.067036  1
  Pt  Pt10  1  0.066991  0.562695  0.562990  1
  Pt  Pt11  1  0.497841  0.505705  0.497844  1
