# generated using pymatgen
data_NdY2Nb(Co4P3)2
_symmetry_space_group_name_H-M   'P 1'
_cell_length_a   3.73576200
_cell_length_b   10.68473300
_cell_length_c   12.39366200
_cell_angle_alpha   90.00000000
_cell_angle_beta   90.00000000
_cell_angle_gamma   90.00000000
_symmetry_Int_Tables_number   1
_chemical_formula_structural   NdY2Nb(Co4P3)2
_chemical_formula_sum   'Nd2 Y4 Nb2 Co16 P12'
_cell_volume   494.70069687
_cell_formula_units_Z   2
loop_
 _symmetry_equiv_pos_site_id
 _symmetry_equiv_pos_as_xyz
  1  'x, y, z'
loop_
 _atom_site_type_symbol
 _atom_site_label
 _atom_site_symmetry_multiplicity
 _atom_site_fract_x
 _atom_site_fract_y
 _atom_site_fract_z
 _atom_site_occupancy
  Nd  Nd0  1  0.000000  0.500000  0.526980  1
  Nd  Nd1  1  0.500000  0.000000  0.473020  1
  Y  Y2  1  0.500000  0.819674  0.204137  1
  Y  Y3  1  0.500000  0.180326  0.204137  1
  Y  Y4  1  0.000000  0.680326  0.795863  1
  Y  Y5  1  0.000000  0.319674  0.795863  1
  Nb  Nb6  1  0.500000  0.500000  0.154593  1
  Nb  Nb7  1  0.000000  0.000000  0.845407  1
  Co  Co8  1  0.500000  0.500000  0.705083  1
  Co  Co9  1  0.000000  0.000000  0.294917  1
  Co  Co10  1  0.000000  0.500000  0.985785  1
  Co  Co11  1  0.500000  0.000000  0.014215  1
  Co  Co12  1  0.500000  0.332208  0.991458  1
  Co  Co13  1  0.500000  0.667792  0.991458  1
  Co  Co14  1  0.000000  0.167792  0.008542  1
  Co  Co15  1  0.000000  0.832208  0.008542  1
  Co  Co16  1  0.500000  0.294955  0.431231  1
  Co  Co17  1  0.500000  0.705045  0.431231  1
  Co  Co18  1  0.000000  0.205045  0.568769  1
  Co  Co19  1  0.000000  0.794955  0.568769  1
  Co  Co20  1  0.500000  0.878061  0.706953  1
  Co  Co21  1  0.500000  0.121939  0.706953  1
  Co  Co22  1  0.000000  0.621939  0.293047  1
  Co  Co23  1  0.000000  0.378061  0.293047  1
  P  P24  1  0.500000  0.500000  0.883209  1
  P  P25  1  0.000000  0.000000  0.116791  1
  P  P26  1  0.500000  0.500000  0.351360  1
  P  P27  1  0.000000  0.000000  0.648640  1
  P  P28  1  0.500000  0.307572  0.616809  1
  P  P29  1  0.500000  0.692428  0.616809  1
  P  P30  1  0.000000  0.192428  0.383191  1
  P  P31  1  0.000000  0.807572  0.383191  1
  P  P32  1  0.500000  0.841767  0.894179  1
  P  P33  1  0.500000  0.158233  0.894179  1
  P  P34  1  0.000000  0.658233  0.105821  1
  P  P35  1  0.000000  0.341767  0.105821  1
