# generated using pymatgen
data_U4Re3WC8
_symmetry_space_group_name_H-M   'P 1'
_cell_length_a   3.19228000
_cell_length_b   5.62277066
_cell_length_c   11.05795451
_cell_angle_alpha   90.04515195
_cell_angle_beta   90.00000000
_cell_angle_gamma   90.00000000
_symmetry_Int_Tables_number   1
_chemical_formula_structural   U4Re3WC8
_chemical_formula_sum   'U4 Re3 W1 C8'
_cell_volume   198.48423195
_cell_formula_units_Z   1
loop_
 _symmetry_equiv_pos_site_id
 _symmetry_equiv_pos_as_xyz
  1  'x, y, z'
loop_
 _atom_site_type_symbol
 _atom_site_label
 _atom_site_symmetry_multiplicity
 _atom_site_fract_x
 _atom_site_fract_y
 _atom_site_fract_z
 _atom_site_occupancy
  U  U0  1  0.250000  0.081145  0.859984  1
  U  U1  1  0.250000  0.579974  0.641011  1
  U  U2  1  0.750000  0.919035  0.141737  1
  U  U3  1  0.750000  0.421241  0.357694  1
  Re  Re4  1  0.250000  0.420765  0.104079  1
  Re  Re5  1  0.250000  0.923969  0.396195  1
  Re  Re6  1  0.750000  0.579975  0.896122  1
  W  W7  1  0.750000  0.076653  0.602669  1
  C  C8  1  0.250000  0.163804  0.244520  1
  C  C9  1  0.250000  0.663607  0.254633  1
  C  C10  1  0.750000  0.833602  0.756827  1
  C  C11  1  0.750000  0.336277  0.744962  1
  C  C12  1  0.250000  0.743113  0.993201  1
  C  C13  1  0.250000  0.246516  0.506584  1
  C  C14  1  0.750000  0.256775  0.007884  1
  C  C15  1  0.750000  0.753548  0.491898  1
