# generated using pymatgen
data_Sm2Tm18(Bi3Sb)3
_symmetry_space_group_name_H-M   'P 1'
_cell_length_a   8.11241761
_cell_length_b   9.39877200
_cell_length_c   11.84919200
_cell_angle_alpha   90.00000000
_cell_angle_beta   90.02226877
_cell_angle_gamma   90.00000000
_symmetry_Int_Tables_number   1
_chemical_formula_structural   Sm2Tm18(Bi3Sb)3
_chemical_formula_sum   'Sm2 Tm18 Bi9 Sb3'
_cell_volume   903.46247198
_cell_formula_units_Z   1
loop_
 _symmetry_equiv_pos_site_id
 _symmetry_equiv_pos_as_xyz
  1  'x, y, z'
loop_
 _atom_site_type_symbol
 _atom_site_label
 _atom_site_symmetry_multiplicity
 _atom_site_fract_x
 _atom_site_fract_y
 _atom_site_fract_z
 _atom_site_occupancy
  Sm  Sm0  1  0.682643  0.750000  0.781478  1
  Sm  Sm1  1  0.182779  0.750000  0.718618  1
  Tm  Tm2  1  0.353738  0.750000  0.215096  1
  Tm  Tm3  1  0.853770  0.750000  0.284604  1
  Tm  Tm4  1  0.646590  0.250000  0.785543  1
  Tm  Tm5  1  0.147415  0.250000  0.717738  1
  Tm  Tm6  1  0.688597  0.564445  0.058786  1
  Tm  Tm7  1  0.189746  0.932113  0.441013  1
  Tm  Tm8  1  0.311817  0.064233  0.942169  1
  Tm  Tm9  1  0.809240  0.437845  0.559349  1
  Tm  Tm10  1  0.311817  0.435767  0.942169  1
  Tm  Tm11  1  0.809240  0.062155  0.559349  1
  Tm  Tm12  1  0.688597  0.935555  0.058786  1
  Tm  Tm13  1  0.189746  0.567887  0.441013  1
  Tm  Tm14  1  0.477341  0.250000  0.488272  1
  Tm  Tm15  1  0.974075  0.250000  0.011746  1
  Tm  Tm16  1  0.526976  0.750000  0.510522  1
  Tm  Tm17  1  0.026162  0.750000  0.989742  1
  Tm  Tm18  1  0.317641  0.250000  0.214877  1
  Tm  Tm19  1  0.811694  0.250000  0.280603  1
  Bi  Bi20  1  0.095130  0.250000  0.456815  1
  Bi  Bi21  1  0.565959  0.996103  0.325383  1
  Bi  Bi22  1  0.066234  0.503324  0.174566  1
  Bi  Bi23  1  0.434299  0.492535  0.673325  1
  Bi  Bi24  1  0.934478  0.007097  0.826962  1
  Bi  Bi25  1  0.434299  0.007465  0.673325  1
  Bi  Bi26  1  0.934478  0.492903  0.826962  1
  Bi  Bi27  1  0.565959  0.503897  0.325383  1
  Bi  Bi28  1  0.066234  0.996676  0.174566  1
  Sb  Sb29  1  0.403664  0.750000  0.961430  1
  Sb  Sb30  1  0.904038  0.750000  0.538497  1
  Sb  Sb31  1  0.595605  0.250000  0.041310  1
