# generated using pymatgen
data_Tb20Cd6CoRh
_symmetry_space_group_name_H-M   'P 1'
_cell_length_a   9.63187800
_cell_length_b   9.63187884
_cell_length_c   9.88231900
_cell_angle_alpha   90.00000000
_cell_angle_beta   90.00000000
_cell_angle_gamma   119.99999713
_symmetry_Int_Tables_number   1
_chemical_formula_structural   Tb20Cd6CoRh
_chemical_formula_sum   'Tb20 Cd6 Co1 Rh1'
_cell_volume   793.98353569
_cell_formula_units_Z   1
loop_
 _symmetry_equiv_pos_site_id
 _symmetry_equiv_pos_as_xyz
  1  'x, y, z'
loop_
 _atom_site_type_symbol
 _atom_site_label
 _atom_site_symmetry_multiplicity
 _atom_site_fract_x
 _atom_site_fract_y
 _atom_site_fract_z
 _atom_site_occupancy
  Tb  Tb0  1  0.000000  0.000000  0.499845  1
  Tb  Tb1  1  0.000000  0.000000  0.000155  1
  Tb  Tb2  1  0.543351  0.456649  0.250000  1
  Tb  Tb3  1  0.543351  0.086701  0.250000  1
  Tb  Tb4  1  0.913299  0.456649  0.250000  1
  Tb  Tb5  1  0.457563  0.542437  0.750000  1
  Tb  Tb6  1  0.457563  0.915126  0.750000  1
  Tb  Tb7  1  0.084874  0.542437  0.750000  1
  Tb  Tb8  1  0.209009  0.790991  0.440568  1
  Tb  Tb9  1  0.209009  0.418019  0.440568  1
  Tb  Tb10  1  0.581981  0.790991  0.440568  1
  Tb  Tb11  1  0.787725  0.212275  0.564204  1
  Tb  Tb12  1  0.787725  0.575449  0.564204  1
  Tb  Tb13  1  0.424551  0.212275  0.564204  1
  Tb  Tb14  1  0.787725  0.212275  0.935796  1
  Tb  Tb15  1  0.787725  0.575449  0.935796  1
  Tb  Tb16  1  0.424551  0.212275  0.935796  1
  Tb  Tb17  1  0.209009  0.790991  0.059432  1
  Tb  Tb18  1  0.209009  0.418019  0.059432  1
  Tb  Tb19  1  0.581981  0.790991  0.059432  1
  Cd  Cd20  1  0.885516  0.114484  0.250000  1
  Cd  Cd21  1  0.885516  0.771032  0.250000  1
  Cd  Cd22  1  0.228968  0.114484  0.250000  1
  Cd  Cd23  1  0.114474  0.885526  0.750000  1
  Cd  Cd24  1  0.114474  0.228947  0.750000  1
  Cd  Cd25  1  0.771053  0.885526  0.750000  1
  Co  Co26  1  0.666667  0.333333  0.750000  1
  Rh  Rh27  1  0.333333  0.666667  0.250000  1
