# generated using pymatgen
data_Pu2N2Cl
_symmetry_space_group_name_H-M   'P 1'
_cell_length_a   3.82425400
_cell_length_b   3.82425440
_cell_length_c   7.13084200
_cell_angle_alpha   90.00000000
_cell_angle_beta   90.00000000
_cell_angle_gamma   120.00001383
_symmetry_Int_Tables_number   1
_chemical_formula_structural   Pu2N2Cl
_chemical_formula_sum   'Pu2 N2 Cl1'
_cell_volume   90.31604051
_cell_formula_units_Z   1
loop_
 _symmetry_equiv_pos_site_id
 _symmetry_equiv_pos_as_xyz
  1  'x, y, z'
loop_
 _atom_site_type_symbol
 _atom_site_label
 _atom_site_symmetry_multiplicity
 _atom_site_fract_x
 _atom_site_fract_y
 _atom_site_fract_z
 _atom_site_occupancy
  Pu  Pu0  1  0.666667  0.333333  0.691158  1
  Pu  Pu1  1  0.333333  0.666667  0.308842  1
  N  N2  1  0.666667  0.333333  0.376243  1
  N  N3  1  0.333333  0.666667  0.623757  1
  Cl  Cl4  1  0.000000  0.000000  0.000000  1
