# generated using pymatgen
data_Pr4HoSn3
_symmetry_space_group_name_H-M   'P 1'
_cell_length_a   9.28612100
_cell_length_b   9.28611979
_cell_length_c   6.82513700
_cell_angle_alpha   90.00000000
_cell_angle_beta   90.00000000
_cell_angle_gamma   120.00000788
_symmetry_Int_Tables_number   1
_chemical_formula_structural   Pr4HoSn3
_chemical_formula_sum   'Pr8 Ho2 Sn6'
_cell_volume   509.69525489
_cell_formula_units_Z   2
loop_
 _symmetry_equiv_pos_site_id
 _symmetry_equiv_pos_as_xyz
  1  'x, y, z'
loop_
 _atom_site_type_symbol
 _atom_site_label
 _atom_site_symmetry_multiplicity
 _atom_site_fract_x
 _atom_site_fract_y
 _atom_site_fract_z
 _atom_site_occupancy
  Pr  Pr0  1  0.666667  0.333333  0.000000  1
  Pr  Pr1  1  0.333333  0.666667  0.000000  1
  Pr  Pr2  1  0.757418  0.757418  0.747568  1
  Pr  Pr3  1  0.242582  0.000000  0.747568  1
  Pr  Pr4  1  0.000000  0.242582  0.747568  1
  Pr  Pr5  1  0.242582  0.242582  0.252432  1
  Pr  Pr6  1  0.757418  0.000000  0.252432  1
  Pr  Pr7  1  0.000000  0.757418  0.252432  1
  Ho  Ho8  1  0.333333  0.666667  0.500000  1
  Ho  Ho9  1  0.666667  0.333333  0.500000  1
  Sn  Sn10  1  0.396970  0.396970  0.740013  1
  Sn  Sn11  1  0.603030  0.000000  0.740013  1
  Sn  Sn12  1  0.000000  0.603030  0.740013  1
  Sn  Sn13  1  0.603030  0.603030  0.259987  1
  Sn  Sn14  1  0.396970  0.000000  0.259987  1
  Sn  Sn15  1  0.000000  0.396970  0.259987  1
