# generated using pymatgen
data_Tc3IrO12
_symmetry_space_group_name_H-M   'P 1'
_cell_length_a   10.42703838
_cell_length_b   10.42703774
_cell_length_c   10.42703834
_cell_angle_alpha   49.25264623
_cell_angle_beta   49.25264862
_cell_angle_gamma   49.25264802
_symmetry_Int_Tables_number   1
_chemical_formula_structural   Tc3IrO12
_chemical_formula_sum   'Tc6 Ir2 O24'
_cell_volume   597.77057438
_cell_formula_units_Z   2
loop_
 _symmetry_equiv_pos_site_id
 _symmetry_equiv_pos_as_xyz
  1  'x, y, z'
loop_
 _atom_site_type_symbol
 _atom_site_label
 _atom_site_symmetry_multiplicity
 _atom_site_fract_x
 _atom_site_fract_y
 _atom_site_fract_z
 _atom_site_occupancy
  Tc  Tc0  1  0.597097  0.902903  0.250000  1
  Tc  Tc1  1  0.250000  0.597097  0.902903  1
  Tc  Tc2  1  0.902903  0.250000  0.597097  1
  Tc  Tc3  1  0.750000  0.402903  0.097097  1
  Tc  Tc4  1  0.097097  0.750000  0.402903  1
  Tc  Tc5  1  0.402903  0.097097  0.750000  1
  Ir  Ir6  1  0.500000  0.500000  0.500000  1
  Ir  Ir7  1  0.000000  0.000000  0.000000  1
  O  O8  1  0.821130  0.881020  0.171443  1
  O  O9  1  0.171443  0.821130  0.881020  1
  O  O10  1  0.881020  0.171443  0.821130  1
  O  O11  1  0.671443  0.381020  0.321130  1
  O  O12  1  0.321130  0.671443  0.381020  1
  O  O13  1  0.381020  0.321130  0.671443  1
  O  O14  1  0.178870  0.118980  0.828557  1
  O  O15  1  0.828557  0.178870  0.118980  1
  O  O16  1  0.118980  0.828557  0.178870  1
  O  O17  1  0.328557  0.618980  0.678870  1
  O  O18  1  0.678870  0.328557  0.618980  1
  O  O19  1  0.618980  0.678870  0.328557  1
  O  O20  1  0.441417  0.979131  0.424197  1
  O  O21  1  0.424197  0.441417  0.979131  1
  O  O22  1  0.979131  0.424197  0.441417  1
  O  O23  1  0.924197  0.479131  0.941417  1
  O  O24  1  0.941417  0.924197  0.479131  1
  O  O25  1  0.479131  0.941417  0.924197  1
  O  O26  1  0.558583  0.020869  0.575803  1
  O  O27  1  0.575803  0.558583  0.020869  1
  O  O28  1  0.020869  0.575803  0.558583  1
  O  O29  1  0.075803  0.520869  0.058583  1
  O  O30  1  0.058583  0.075803  0.520869  1
  O  O31  1  0.520869  0.058583  0.075803  1
