# generated using pymatgen
data_Dy4Ho8Co5Pb
_symmetry_space_group_name_H-M   'P 1'
_cell_length_a   8.26945978
_cell_length_b   8.26945919
_cell_length_c   8.26945961
_cell_angle_alpha   106.92509302
_cell_angle_beta   110.63584496
_cell_angle_gamma   110.88244470
_symmetry_Int_Tables_number   1
_chemical_formula_structural   Dy4Ho8Co5Pb
_chemical_formula_sum   'Dy4 Ho8 Co5 Pb1'
_cell_volume   434.67756872
_cell_formula_units_Z   1
loop_
 _symmetry_equiv_pos_site_id
 _symmetry_equiv_pos_as_xyz
  1  'x, y, z'
loop_
 _atom_site_type_symbol
 _atom_site_label
 _atom_site_symmetry_multiplicity
 _atom_site_fract_x
 _atom_site_fract_y
 _atom_site_fract_z
 _atom_site_occupancy
  Dy  Dy0  1  0.193810  0.208131  0.401941  1
  Dy  Dy1  1  0.806190  0.791869  0.598059  1
  Dy  Dy2  1  0.193810  0.791869  0.985679  1
  Dy  Dy3  1  0.806190  0.208131  0.014321  1
  Ho  Ho4  1  0.475575  0.290983  0.184592  1
  Ho  Ho5  1  0.106391  0.290983  0.815408  1
  Ho  Ho6  1  0.893609  0.709017  0.184592  1
  Ho  Ho7  1  0.524425  0.709017  0.815408  1
  Ho  Ho8  1  0.306668  0.620008  0.313338  1
  Ho  Ho9  1  0.306668  0.993331  0.686662  1
  Ho  Ho10  1  0.693332  0.379992  0.686662  1
  Ho  Ho11  1  0.693332  0.006669  0.313338  1
  Co  Co12  1  0.500000  0.612324  0.112324  1
  Co  Co13  1  0.500000  0.387676  0.887676  1
  Co  Co14  1  0.377941  0.000000  0.377941  1
  Co  Co15  1  0.622059  0.000000  0.622059  1
  Co  Co16  1  0.000000  0.000000  0.000000  1
  Pb  Pb17  1  0.000000  0.500000  0.500000  1
