# generated using pymatgen
data_DyHo2Co3(NiP)6
_symmetry_space_group_name_H-M   'P 1'
_cell_length_a   3.75066500
_cell_length_b   10.46277000
_cell_length_c   12.25829400
_cell_angle_alpha   90.00000000
_cell_angle_beta   90.00000000
_cell_angle_gamma   90.00000000
_symmetry_Int_Tables_number   1
_chemical_formula_structural   DyHo2Co3(NiP)6
_chemical_formula_sum   'Dy2 Ho4 Co6 Ni12 P12'
_cell_volume   481.04420523
_cell_formula_units_Z   2
loop_
 _symmetry_equiv_pos_site_id
 _symmetry_equiv_pos_as_xyz
  1  'x, y, z'
loop_
 _atom_site_type_symbol
 _atom_site_label
 _atom_site_symmetry_multiplicity
 _atom_site_fract_x
 _atom_site_fract_y
 _atom_site_fract_z
 _atom_site_occupancy
  Dy  Dy0  1  0.000000  0.500000  0.519856  1
  Dy  Dy1  1  0.500000  0.000000  0.480144  1
  Ho  Ho2  1  0.500000  0.815102  0.205936  1
  Ho  Ho3  1  0.500000  0.184898  0.205936  1
  Ho  Ho4  1  0.000000  0.684898  0.794064  1
  Ho  Ho5  1  0.000000  0.315102  0.794064  1
  Co  Co6  1  0.000000  0.500000  0.983573  1
  Co  Co7  1  0.500000  0.000000  0.016427  1
  Co  Co8  1  0.500000  0.334381  0.994812  1
  Co  Co9  1  0.500000  0.665619  0.994812  1
  Co  Co10  1  0.000000  0.165619  0.005188  1
  Co  Co11  1  0.000000  0.834381  0.005188  1
  Ni  Ni12  1  0.500000  0.300461  0.429325  1
  Ni  Ni13  1  0.500000  0.699539  0.429325  1
  Ni  Ni14  1  0.000000  0.199539  0.570675  1
  Ni  Ni15  1  0.000000  0.800461  0.570675  1
  Ni  Ni16  1  0.500000  0.878831  0.713836  1
  Ni  Ni17  1  0.500000  0.121169  0.713836  1
  Ni  Ni18  1  0.000000  0.621169  0.286164  1
  Ni  Ni19  1  0.000000  0.378831  0.286164  1
  Ni  Ni20  1  0.500000  0.500000  0.157565  1
  Ni  Ni21  1  0.000000  0.000000  0.842435  1
  Ni  Ni22  1  0.500000  0.500000  0.703171  1
  Ni  Ni23  1  0.000000  0.000000  0.296829  1
  P  P24  1  0.500000  0.313271  0.616232  1
  P  P25  1  0.500000  0.686729  0.616232  1
  P  P26  1  0.000000  0.186729  0.383768  1
  P  P27  1  0.000000  0.813271  0.383768  1
  P  P28  1  0.500000  0.500000  0.881005  1
  P  P29  1  0.000000  0.000000  0.118995  1
  P  P30  1  0.500000  0.845792  0.897581  1
  P  P31  1  0.500000  0.154208  0.897581  1
  P  P32  1  0.000000  0.654208  0.102419  1
  P  P33  1  0.000000  0.345792  0.102419  1
  P  P34  1  0.500000  0.500000  0.342709  1
  P  P35  1  0.000000  0.000000  0.657291  1
