# generated using pymatgen
data_Li3YbEuTmPb3
_symmetry_space_group_name_H-M   'P 1'
_cell_length_a   4.92040900
_cell_length_b   4.92040722
_cell_length_c   10.98920000
_cell_angle_alpha   90.00000000
_cell_angle_beta   90.00000000
_cell_angle_gamma   119.99999181
_symmetry_Int_Tables_number   1
_chemical_formula_structural   Li3YbEuTmPb3
_chemical_formula_sum   'Li3 Yb1 Eu1 Tm1 Pb3'
_cell_volume   230.40876505
_cell_formula_units_Z   1
loop_
 _symmetry_equiv_pos_site_id
 _symmetry_equiv_pos_as_xyz
  1  'x, y, z'
loop_
 _atom_site_type_symbol
 _atom_site_label
 _atom_site_symmetry_multiplicity
 _atom_site_fract_x
 _atom_site_fract_y
 _atom_site_fract_z
 _atom_site_occupancy
  Li  Li0  1  0.000000  0.000000  0.808810  1
  Li  Li1  1  0.333333  0.666667  0.506016  1
  Li  Li2  1  0.000000  0.000000  0.184220  1
  Yb  Yb3  1  0.666667  0.333333  0.664918  1
  Eu  Eu4  1  0.666667  0.333333  0.335696  1
  Tm  Tm5  1  0.666667  0.333333  0.997756  1
  Pb  Pb6  1  0.333333  0.666667  0.148022  1
  Pb  Pb7  1  0.333333  0.666667  0.851171  1
  Pb  Pb8  1  0.000000  0.000000  0.503392  1
