# generated using pymatgen
data_Ca11Mg(SiIr)8
_symmetry_space_group_name_H-M   'P 1'
_cell_length_a   5.81791800
_cell_length_b   7.62436715
_cell_length_c   13.35438000
_cell_angle_alpha   90.00000000
_cell_angle_beta   90.00000000
_cell_angle_gamma   89.80947631
_symmetry_Int_Tables_number   1
_chemical_formula_structural   Ca11Mg(SiIr)8
_chemical_formula_sum   'Ca11 Mg1 Si8 Ir8'
_cell_volume   592.36955041
_cell_formula_units_Z   1
loop_
 _symmetry_equiv_pos_site_id
 _symmetry_equiv_pos_as_xyz
  1  'x, y, z'
loop_
 _atom_site_type_symbol
 _atom_site_label
 _atom_site_symmetry_multiplicity
 _atom_site_fract_x
 _atom_site_fract_y
 _atom_site_fract_z
 _atom_site_occupancy
  Ca  Ca0  1  0.634205  0.225358  0.250000  1
  Ca  Ca1  1  0.366854  0.774475  0.750000  1
  Ca  Ca2  1  0.368828  0.725188  0.250000  1
  Ca  Ca3  1  0.134309  0.391476  0.099891  1
  Ca  Ca4  1  0.863330  0.604080  0.895500  1
  Ca  Ca5  1  0.863330  0.604080  0.604500  1
  Ca  Ca6  1  0.867337  0.890800  0.400648  1
  Ca  Ca7  1  0.134309  0.391476  0.400109  1
  Ca  Ca8  1  0.130584  0.111998  0.602035  1
  Ca  Ca9  1  0.130584  0.111998  0.897965  1
  Ca  Ca10  1  0.867337  0.890800  0.099352  1
  Mg  Mg11  1  0.618303  0.266022  0.750000  1
  Si  Si12  1  0.163778  0.075410  0.250000  1
  Si  Si13  1  0.830883  0.937980  0.750000  1
  Si  Si14  1  0.839832  0.574924  0.250000  1
  Si  Si15  1  0.173340  0.418366  0.750000  1
  Si  Si16  1  0.581326  0.250000  0.001178  1
  Si  Si17  1  0.422862  0.749990  0.998060  1
  Si  Si18  1  0.422862  0.749990  0.501940  1
  Si  Si19  1  0.581326  0.250000  0.498822  1
  Ir  Ir20  1  0.359806  0.023560  0.090914  1
  Ir  Ir21  1  0.633430  0.980759  0.906841  1
  Ir  Ir22  1  0.633430  0.980759  0.593159  1
  Ir  Ir23  1  0.640487  0.524251  0.409463  1
  Ir  Ir24  1  0.359806  0.023560  0.409086  1
  Ir  Ir25  1  0.368517  0.474224  0.594015  1
  Ir  Ir26  1  0.368517  0.474224  0.905985  1
  Ir  Ir27  1  0.640487  0.524251  0.090537  1
