# generated using pymatgen
data_Ce2Cr3P7Ir9
_symmetry_space_group_name_H-M   'P 1'
_cell_length_a   9.59074000
_cell_length_b   9.59073958
_cell_length_c   3.95705900
_cell_angle_alpha   90.00000000
_cell_angle_beta   90.00000000
_cell_angle_gamma   120.00000144
_symmetry_Int_Tables_number   1
_chemical_formula_structural   Ce2Cr3P7Ir9
_chemical_formula_sum   'Ce2 Cr3 P7 Ir9'
_cell_volume   315.21535683
_cell_formula_units_Z   1
loop_
 _symmetry_equiv_pos_site_id
 _symmetry_equiv_pos_as_xyz
  1  'x, y, z'
loop_
 _atom_site_type_symbol
 _atom_site_label
 _atom_site_symmetry_multiplicity
 _atom_site_fract_x
 _atom_site_fract_y
 _atom_site_fract_z
 _atom_site_occupancy
  Ce  Ce0  1  0.333333  0.666667  0.000000  1
  Ce  Ce1  1  0.000000  0.000000  0.500000  1
  Cr  Cr2  1  0.806545  0.235555  0.500000  1
  Cr  Cr3  1  0.764445  0.570990  0.500000  1
  Cr  Cr4  1  0.429010  0.193455  0.500000  1
  P  P5  1  0.783266  0.042304  0.000000  1
  P  P6  1  0.957696  0.740962  0.000000  1
  P  P7  1  0.259038  0.216734  0.000000  1
  P  P8  1  0.378539  0.935294  0.500000  1
  P  P9  1  0.064706  0.443247  0.500000  1
  P  P10  1  0.556753  0.621461  0.500000  1
  P  P11  1  0.666667  0.333333  0.000000  1
  Ir  Ir12  1  0.038343  0.263556  0.000000  1
  Ir  Ir13  1  0.736444  0.774787  0.000000  1
  Ir  Ir14  1  0.225213  0.961657  0.000000  1
  Ir  Ir15  1  0.553657  0.064113  0.000000  1
  Ir  Ir16  1  0.935887  0.489544  0.000000  1
  Ir  Ir17  1  0.510456  0.446343  0.000000  1
  Ir  Ir18  1  0.609307  0.891090  0.500000  1
  Ir  Ir19  1  0.108910  0.718215  0.500000  1
  Ir  Ir20  1  0.281785  0.390693  0.500000  1
