# generated using pymatgen
data_Er4GaTcRu6
_symmetry_space_group_name_H-M   'P 1'
_cell_length_a   5.17457911
_cell_length_b   5.36134029
_cell_length_c   8.84666900
_cell_angle_alpha   90.00000000
_cell_angle_beta   90.00000000
_cell_angle_gamma   119.25167900
_symmetry_Int_Tables_number   1
_chemical_formula_structural   Er4GaTcRu6
_chemical_formula_sum   'Er4 Ga1 Tc1 Ru6'
_cell_volume   214.13344434
_cell_formula_units_Z   1
loop_
 _symmetry_equiv_pos_site_id
 _symmetry_equiv_pos_as_xyz
  1  'x, y, z'
loop_
 _atom_site_type_symbol
 _atom_site_label
 _atom_site_symmetry_multiplicity
 _atom_site_fract_x
 _atom_site_fract_y
 _atom_site_fract_z
 _atom_site_occupancy
  Er  Er0  1  0.335342  0.670062  0.436764  1
  Er  Er1  1  0.663158  0.327762  0.566313  1
  Er  Er2  1  0.663158  0.327762  0.933687  1
  Er  Er3  1  0.335342  0.670062  0.063236  1
  Ga  Ga4  1  0.836511  0.170236  0.250000  1
  Tc  Tc5  1  0.653957  0.827669  0.750000  1
  Ru  Ru6  1  0.996248  0.988831  0.500274  1
  Ru  Ru7  1  0.996248  0.988831  0.999726  1
  Ru  Ru8  1  0.825246  0.658678  0.250000  1
  Ru  Ru9  1  0.349865  0.183324  0.250000  1
  Ru  Ru10  1  0.165174  0.835624  0.750000  1
  Ru  Ru11  1  0.179752  0.351157  0.750000  1
