# generated using pymatgen
data_Tb2ErIn3Ni2Hg
_symmetry_space_group_name_H-M   'P 1'
_cell_length_a   7.71438166
_cell_length_b   7.71137239
_cell_length_c   3.80196700
_cell_angle_alpha   90.00000000
_cell_angle_beta   90.00000000
_cell_angle_gamma   120.10798702
_symmetry_Int_Tables_number   1
_chemical_formula_structural   Tb2ErIn3Ni2Hg
_chemical_formula_sum   'Tb2 Er1 In3 Ni2 Hg1'
_cell_volume   195.65825036
_cell_formula_units_Z   1
loop_
 _symmetry_equiv_pos_site_id
 _symmetry_equiv_pos_as_xyz
  1  'x, y, z'
loop_
 _atom_site_type_symbol
 _atom_site_label
 _atom_site_symmetry_multiplicity
 _atom_site_fract_x
 _atom_site_fract_y
 _atom_site_fract_z
 _atom_site_occupancy
  Tb  Tb0  1  0.970563  0.579930  0.500000  1
  Tb  Tb1  1  0.419325  0.390134  0.500000  1
  Er  Er2  1  0.610826  0.030670  0.500000  1
  In  In3  1  0.249371  0.001335  0.000000  1
  In  In4  1  0.752931  0.752317  0.000000  1
  In  In5  1  0.997109  0.246306  0.000000  1
  Ni  Ni6  1  0.999821  0.999986  0.500000  1
  Ni  Ni7  1  0.665363  0.330430  0.000000  1
  Hg  Hg8  1  0.334691  0.668892  0.000000  1
