# generated using pymatgen
data_Rb4TmPaBr12
_symmetry_space_group_name_H-M   'P 1'
_cell_length_a   7.80383900
_cell_length_b   7.80383900
_cell_length_c   12.09287100
_cell_angle_alpha   90.00000000
_cell_angle_beta   90.00000000
_cell_angle_gamma   90.00000000
_symmetry_Int_Tables_number   1
_chemical_formula_structural   Rb4TmPaBr12
_chemical_formula_sum   'Rb4 Tm1 Pa1 Br12'
_cell_volume   736.45467256
_cell_formula_units_Z   1
loop_
 _symmetry_equiv_pos_site_id
 _symmetry_equiv_pos_as_xyz
  1  'x, y, z'
loop_
 _atom_site_type_symbol
 _atom_site_label
 _atom_site_symmetry_multiplicity
 _atom_site_fract_x
 _atom_site_fract_y
 _atom_site_fract_z
 _atom_site_occupancy
  Rb  Rb0  1  0.500000  0.000000  0.806141  1
  Rb  Rb1  1  0.500000  0.000000  0.193859  1
  Rb  Rb2  1  0.000000  0.500000  0.193859  1
  Rb  Rb3  1  0.000000  0.500000  0.806141  1
  Tm  Tm4  1  0.000000  0.000000  0.000000  1
  Pa  Pa5  1  0.500000  0.500000  0.500000  1
  Br  Br6  1  0.745550  0.247407  0.000000  1
  Br  Br7  1  0.254450  0.752593  0.000000  1
  Br  Br8  1  0.500000  0.500000  0.272214  1
  Br  Br9  1  0.311889  0.208098  0.500000  1
  Br  Br10  1  0.247407  0.254450  0.000000  1
  Br  Br11  1  0.791902  0.311889  0.500000  1
  Br  Br12  1  0.000000  0.000000  0.228501  1
  Br  Br13  1  0.688111  0.791902  0.500000  1
  Br  Br14  1  0.208098  0.688111  0.500000  1
  Br  Br15  1  0.500000  0.500000  0.727786  1
  Br  Br16  1  0.752593  0.745550  0.000000  1
  Br  Br17  1  0.000000  0.000000  0.771499  1
