# generated using pymatgen
data_Ta(Pd3Pt)2
_symmetry_space_group_name_H-M   'P 1'
_cell_length_a   6.33402812
_cell_length_b   6.33402778
_cell_length_c   6.23094432
_cell_angle_alpha   95.69039792
_cell_angle_beta   95.69039989
_cell_angle_gamma   143.60265161
_symmetry_Int_Tables_number   1
_chemical_formula_structural   Ta(Pd3Pt)2
_chemical_formula_sum   'Ta1 Pd6 Pt2'
_cell_volume   140.66228925
_cell_formula_units_Z   1
loop_
 _symmetry_equiv_pos_site_id
 _symmetry_equiv_pos_as_xyz
  1  'x, y, z'
loop_
 _atom_site_type_symbol
 _atom_site_label
 _atom_site_symmetry_multiplicity
 _atom_site_fract_x
 _atom_site_fract_y
 _atom_site_fract_z
 _atom_site_occupancy
  Ta  Ta0  1  0.000000  0.000000  0.000000  1
  Pd  Pd1  1  0.329115  0.999252  0.328368  1
  Pd  Pd2  1  0.670885  0.000748  0.671632  1
  Pd  Pd3  1  0.999252  0.329115  0.328368  1
  Pd  Pd4  1  0.000748  0.670885  0.671632  1
  Pd  Pd5  1  0.335325  0.335325  0.670648  1
  Pd  Pd6  1  0.664675  0.664675  0.329352  1
  Pt  Pt7  1  0.661057  0.338943  0.000000  1
  Pt  Pt8  1  0.338943  0.661057  0.000000  1
