# generated using pymatgen
data_Ho6Er4BiPb5
_symmetry_space_group_name_H-M   'P 1'
_cell_length_a   9.03869174
_cell_length_b   9.03869204
_cell_length_c   6.51980800
_cell_angle_alpha   90.00000000
_cell_angle_beta   90.00000000
_cell_angle_gamma   119.97642450
_symmetry_Int_Tables_number   1
_chemical_formula_structural   Ho6Er4BiPb5
_chemical_formula_sum   'Ho6 Er4 Bi1 Pb5'
_cell_volume   461.40226919
_cell_formula_units_Z   1
loop_
 _symmetry_equiv_pos_site_id
 _symmetry_equiv_pos_as_xyz
  1  'x, y, z'
loop_
 _atom_site_type_symbol
 _atom_site_label
 _atom_site_symmetry_multiplicity
 _atom_site_fract_x
 _atom_site_fract_y
 _atom_site_fract_z
 _atom_site_occupancy
  Ho  Ho0  1  0.762948  0.762948  0.750000  1
  Ho  Ho1  1  0.237385  0.996921  0.750000  1
  Ho  Ho2  1  0.996921  0.237385  0.750000  1
  Ho  Ho3  1  0.238387  0.238387  0.250000  1
  Ho  Ho4  1  0.761638  0.000545  0.250000  1
  Ho  Ho5  1  0.000545  0.761638  0.250000  1
  Er  Er6  1  0.668204  0.332934  0.999851  1
  Er  Er7  1  0.332934  0.668204  0.999851  1
  Er  Er8  1  0.332934  0.668204  0.500149  1
  Er  Er9  1  0.668204  0.332934  0.500149  1
  Bi  Bi10  1  0.393058  0.393058  0.750000  1
  Pb  Pb11  1  0.605844  0.999763  0.750000  1
  Pb  Pb12  1  0.999763  0.605844  0.750000  1
  Pb  Pb13  1  0.606779  0.606779  0.250000  1
  Pb  Pb14  1  0.393601  0.000853  0.250000  1
  Pb  Pb15  1  0.000853  0.393601  0.250000  1
