# generated using pymatgen
data_LiPaI6
_symmetry_space_group_name_H-M   'P 1'
_cell_length_a   8.02209758
_cell_length_b   8.02209853
_cell_length_c   7.52422599
_cell_angle_alpha   81.18954421
_cell_angle_beta   81.18954146
_cell_angle_gamma   118.47601289
_symmetry_Int_Tables_number   1
_chemical_formula_structural   LiPaI6
_chemical_formula_sum   'Li1 Pa1 I6'
_cell_volume   406.09975355
_cell_formula_units_Z   1
loop_
 _symmetry_equiv_pos_site_id
 _symmetry_equiv_pos_as_xyz
  1  'x, y, z'
loop_
 _atom_site_type_symbol
 _atom_site_label
 _atom_site_symmetry_multiplicity
 _atom_site_fract_x
 _atom_site_fract_y
 _atom_site_fract_z
 _atom_site_occupancy
  Li  Li0  1  0.895915  0.104085  0.500000  1
  Pa  Pa1  1  0.994127  0.005873  0.000000  1
  I  I2  1  0.240022  0.257121  0.218697  1
  I  I3  1  0.742879  0.759978  0.781303  1
  I  I4  1  0.030279  0.352910  0.742131  1
  I  I5  1  0.350056  0.066369  0.761421  1
  I  I6  1  0.933631  0.649944  0.238579  1
  I  I7  1  0.647090  0.969721  0.257869  1
