# generated using pymatgen
data_LaYb4(Pr5Ir4)3
_symmetry_space_group_name_H-M   'P 1'
_cell_length_a   11.30789320
_cell_length_b   11.32334438
_cell_length_c   6.50334808
_cell_angle_alpha   90.02772761
_cell_angle_beta   89.93190833
_cell_angle_gamma   89.95926705
_symmetry_Int_Tables_number   1
_chemical_formula_structural   LaYb4(Pr5Ir4)3
_chemical_formula_sum   'La1 Yb4 Pr15 Ir12'
_cell_volume   832.70840102
_cell_formula_units_Z   1
loop_
 _symmetry_equiv_pos_site_id
 _symmetry_equiv_pos_as_xyz
  1  'x, y, z'
loop_
 _atom_site_type_symbol
 _atom_site_label
 _atom_site_symmetry_multiplicity
 _atom_site_fract_x
 _atom_site_fract_y
 _atom_site_fract_z
 _atom_site_occupancy
  La  La0  1  0.288437  0.089407  0.387074  1
  Yb  Yb1  1  0.000426  0.999622  0.499772  1
  Yb  Yb2  1  0.999496  0.000097  0.999210  1
  Yb  Yb3  1  0.500489  0.500328  0.998444  1
  Yb  Yb4  1  0.499865  0.500615  0.498808  1
  Pr  Pr5  1  0.287846  0.910626  0.885479  1
  Pr  Pr6  1  0.711423  0.088791  0.885411  1
  Pr  Pr7  1  0.712535  0.911426  0.385340  1
  Pr  Pr8  1  0.588620  0.788471  0.885490  1
  Pr  Pr9  1  0.589390  0.212869  0.384335  1
  Pr  Pr10  1  0.411392  0.787513  0.384758  1
  Pr  Pr11  1  0.411898  0.212684  0.884825  1
  Pr  Pr12  1  0.211791  0.411984  0.615790  1
  Pr  Pr13  1  0.212113  0.588203  0.115302  1
  Pr  Pr14  1  0.788305  0.411055  0.115327  1
  Pr  Pr15  1  0.787908  0.588546  0.615470  1
  Pr  Pr16  1  0.911281  0.711545  0.115174  1
  Pr  Pr17  1  0.910746  0.287902  0.615580  1
  Pr  Pr18  1  0.088425  0.711695  0.615722  1
  Pr  Pr19  1  0.088666  0.288132  0.115205  1
  Ir  Ir20  1  0.845494  0.154467  0.250332  1
  Ir  Ir21  1  0.845956  0.845479  0.749956  1
  Ir  Ir22  1  0.156248  0.153747  0.746630  1
  Ir  Ir23  1  0.153457  0.844303  0.248522  1
  Ir  Ir24  1  0.654045  0.345085  0.750298  1
  Ir  Ir25  1  0.654578  0.654683  0.249578  1
  Ir  Ir26  1  0.345030  0.346255  0.249201  1
  Ir  Ir27  1  0.345420  0.654882  0.749791  1
  Ir  Ir28  1  0.498856  0.000525  0.115793  1
  Ir  Ir29  1  0.499747  0.000201  0.614445  1
  Ir  Ir30  1  0.000202  0.499251  0.886516  1
  Ir  Ir31  1  0.999915  0.499608  0.386424  1
