# generated using pymatgen
data_Dy3TmCo8(PRu)12
_symmetry_space_group_name_H-M   'P 1'
_cell_length_a   3.78297400
_cell_length_b   10.62506401
_cell_length_c   12.09274401
_cell_angle_alpha   90.00539154
_cell_angle_beta   90.00000000
_cell_angle_gamma   90.00000000
_symmetry_Int_Tables_number   1
_chemical_formula_structural   Dy3TmCo8(PRu)12
_chemical_formula_sum   'Dy3 Tm1 Co8 P12 Ru12'
_cell_volume   486.05987320
_cell_formula_units_Z   1
loop_
 _symmetry_equiv_pos_site_id
 _symmetry_equiv_pos_as_xyz
  1  'x, y, z'
loop_
 _atom_site_type_symbol
 _atom_site_label
 _atom_site_symmetry_multiplicity
 _atom_site_fract_x
 _atom_site_fract_y
 _atom_site_fract_z
 _atom_site_occupancy
  Dy  Dy0  1  0.250000  0.584457  0.706795  1
  Dy  Dy1  1  0.250000  0.915547  0.206701  1
  Dy  Dy2  1  0.750000  0.415416  0.293323  1
  Tm  Tm3  1  0.750000  0.084551  0.793340  1
  Co  Co4  1  0.250000  0.888557  0.696163  1
  Co  Co5  1  0.250000  0.612078  0.195670  1
  Co  Co6  1  0.750000  0.112103  0.304457  1
  Co  Co7  1  0.750000  0.387655  0.804244  1
  Co  Co8  1  0.250000  0.462627  0.934832  1
  Co  Co9  1  0.250000  0.037116  0.435364  1
  Co  Co10  1  0.750000  0.537026  0.064841  1
  Co  Co11  1  0.750000  0.963152  0.565472  1
  P  P12  1  0.250000  0.425533  0.112602  1
  P  P13  1  0.250000  0.074253  0.613569  1
  P  P14  1  0.750000  0.574415  0.887221  1
  P  P15  1  0.750000  0.925636  0.387476  1
  P  P16  1  0.250000  0.271023  0.871378  1
  P  P17  1  0.250000  0.228199  0.371679  1
  P  P18  1  0.750000  0.728403  0.128243  1
  P  P19  1  0.750000  0.771726  0.628272  1
  P  P20  1  0.250000  0.601119  0.386725  1
  P  P21  1  0.250000  0.899563  0.886255  1
  P  P22  1  0.750000  0.398867  0.613288  1
  P  P23  1  0.750000  0.101216  0.113286  1
  Ru  Ru24  1  0.250000  0.706358  0.986095  1
  Ru  Ru25  1  0.250000  0.793936  0.486286  1
  Ru  Ru26  1  0.750000  0.293748  0.013706  1
  Ru  Ru27  1  0.750000  0.206228  0.513799  1
  Ru  Ru28  1  0.250000  0.405375  0.486207  1
  Ru  Ru29  1  0.250000  0.094562  0.984802  1
  Ru  Ru30  1  0.750000  0.594577  0.514002  1
  Ru  Ru31  1  0.750000  0.905774  0.013797  1
  Ru  Ru32  1  0.250000  0.223401  0.180541  1
  Ru  Ru33  1  0.250000  0.275431  0.681041  1
  Ru  Ru34  1  0.750000  0.776638  0.819224  1
  Ru  Ru35  1  0.750000  0.723734  0.319307  1
