# generated using pymatgen
data_Nd2Sm4Zn4Pd12Rh
_symmetry_space_group_name_H-M   'P 1'
_cell_length_a   8.33936994
_cell_length_b   8.33937011
_cell_length_c   8.34069200
_cell_angle_alpha   109.47614853
_cell_angle_beta   109.47614600
_cell_angle_gamma   109.45494781
_symmetry_Int_Tables_number   1
_chemical_formula_structural   Nd2Sm4Zn4Pd12Rh
_chemical_formula_sum   'Nd2 Sm4 Zn4 Pd12 Rh1'
_cell_volume   446.56128587
_cell_formula_units_Z   1
loop_
 _symmetry_equiv_pos_site_id
 _symmetry_equiv_pos_as_xyz
  1  'x, y, z'
loop_
 _atom_site_type_symbol
 _atom_site_label
 _atom_site_symmetry_multiplicity
 _atom_site_fract_x
 _atom_site_fract_y
 _atom_site_fract_z
 _atom_site_occupancy
  Nd  Nd0  1  0.703094  0.000209  0.703303  1
  Nd  Nd1  1  0.000209  0.703094  0.703303  1
  Sm  Sm2  1  0.702132  0.702132  0.000373  1
  Sm  Sm3  1  0.297455  0.000178  0.297633  1
  Sm  Sm4  1  0.000178  0.297455  0.297633  1
  Sm  Sm5  1  0.298241  0.298241  0.000373  1
  Zn  Zn6  1  0.000069  0.000069  0.499224  1
  Zn  Zn7  1  0.000088  0.500088  0.000177  1
  Zn  Zn8  1  0.500088  0.000088  0.000177  1
  Zn  Zn9  1  0.499154  0.499154  0.499224  1
  Pd  Pd10  1  0.332218  0.332218  0.664435  1
  Pd  Pd11  1  0.667888  0.999961  0.331308  1
  Pd  Pd12  1  0.999961  0.667888  0.331308  1
  Pd  Pd13  1  0.667600  0.332727  0.000327  1
  Pd  Pd14  1  0.331348  0.663419  0.331308  1
  Pd  Pd15  1  0.000371  0.331848  0.667773  1
  Pd  Pd16  1  0.332727  0.667600  0.000327  1
  Pd  Pd17  1  0.331848  0.000371  0.667773  1
  Pd  Pd18  1  0.663419  0.331348  0.331308  1
  Pd  Pd19  1  0.667106  0.667106  0.334214  1
  Pd  Pd20  1  0.667402  0.335926  0.667773  1
  Pd  Pd21  1  0.335926  0.667402  0.667773  1
  Rh  Rh22  1  0.001476  0.001476  0.002952  1
