# generated using pymatgen
data_Y5HoU4O20
_symmetry_space_group_name_H-M   'P 1'
_cell_length_a   6.65649712
_cell_length_b   7.51413229
_cell_length_c   8.42445610
_cell_angle_alpha   100.92404732
_cell_angle_beta   97.65571603
_cell_angle_gamma   107.25746900
_symmetry_Int_Tables_number   1
_chemical_formula_structural   Y5HoU4O20
_chemical_formula_sum   'Y5 Ho1 U4 O20'
_cell_volume   386.96363083
_cell_formula_units_Z   1
loop_
 _symmetry_equiv_pos_site_id
 _symmetry_equiv_pos_as_xyz
  1  'x, y, z'
loop_
 _atom_site_type_symbol
 _atom_site_label
 _atom_site_symmetry_multiplicity
 _atom_site_fract_x
 _atom_site_fract_y
 _atom_site_fract_z
 _atom_site_occupancy
  Y  Y0  1  0.614690  0.704268  0.699194  1
  Y  Y1  1  0.385310  0.295732  0.300806  1
  Y  Y2  1  0.197497  0.896708  0.891211  1
  Y  Y3  1  0.000000  0.500000  0.500000  1
  Y  Y4  1  0.802503  0.103292  0.108789  1
  Ho  Ho5  1  0.000000  0.000000  0.500000  1
  U  U6  1  0.401396  0.804668  0.301481  1
  U  U7  1  0.199186  0.399885  0.899213  1
  U  U8  1  0.800814  0.600115  0.100787  1
  U  U9  1  0.598604  0.195332  0.698519  1
  O  O10  1  0.439606  0.532155  0.137262  1
  O  O11  1  0.555584  0.987759  0.841561  1
  O  O12  1  0.268272  0.144287  0.743861  1
  O  O13  1  0.359656  0.594742  0.442027  1
  O  O14  1  0.053792  0.730130  0.332347  1
  O  O15  1  0.444416  0.012241  0.158439  1
  O  O16  1  0.150750  0.183757  0.032166  1
  O  O17  1  0.560394  0.467845  0.862738  1
  O  O18  1  0.854568  0.336533  0.951057  1
  O  O19  1  0.257504  0.606208  0.758922  1
  O  O20  1  0.953982  0.773417  0.650678  1
  O  O21  1  0.353110  0.061915  0.453177  1
  O  O22  1  0.646890  0.938085  0.546823  1
  O  O23  1  0.046018  0.226583  0.349322  1
  O  O24  1  0.742496  0.393792  0.241078  1
  O  O25  1  0.145432  0.663467  0.048943  1
  O  O26  1  0.849250  0.816243  0.967834  1
  O  O27  1  0.946208  0.269870  0.667653  1
  O  O28  1  0.640344  0.405258  0.557973  1
  O  O29  1  0.731728  0.855713  0.256139  1
