# generated using pymatgen
data_ThZn9Ni2
_symmetry_space_group_name_H-M   'P 1'
_cell_length_a   8.11537771
_cell_length_b   8.11537812
_cell_length_c   8.11537783
_cell_angle_alpha   99.81498867
_cell_angle_beta   99.81499706
_cell_angle_gamma   131.22861671
_symmetry_Int_Tables_number   1
_chemical_formula_structural   ThZn9Ni2
_chemical_formula_sum   'Th2 Zn18 Ni4'
_cell_volume   366.10900035
_cell_formula_units_Z   2
loop_
 _symmetry_equiv_pos_site_id
 _symmetry_equiv_pos_as_xyz
  1  'x, y, z'
loop_
 _atom_site_type_symbol
 _atom_site_label
 _atom_site_symmetry_multiplicity
 _atom_site_fract_x
 _atom_site_fract_y
 _atom_site_fract_z
 _atom_site_occupancy
  Th  Th0  1  0.000000  0.000000  0.000000  1
  Th  Th1  1  0.250000  0.750000  0.500000  1
  Zn  Zn2  1  0.764936  0.183716  0.825047  1
  Zn  Zn3  1  0.060111  0.235064  0.418780  1
  Zn  Zn4  1  0.358669  0.183716  0.418780  1
  Zn  Zn5  1  0.060111  0.641331  0.825047  1
  Zn  Zn6  1  0.891331  0.566284  0.081220  1
  Zn  Zn7  1  0.358669  0.939889  0.174953  1
  Zn  Zn8  1  0.750000  0.250000  0.500000  1
  Zn  Zn9  1  0.891331  0.810111  0.325047  1
  Zn  Zn10  1  0.500000  0.500000  0.000000  1
  Zn  Zn11  1  0.433716  0.108669  0.918780  1
  Zn  Zn12  1  0.485064  0.566284  0.674953  1
  Zn  Zn13  1  0.189889  0.108669  0.674953  1
  Zn  Zn14  1  0.764936  0.939889  0.581220  1
  Zn  Zn15  1  0.816284  0.641331  0.581220  1
  Zn  Zn16  1  0.433716  0.514936  0.325047  1
  Zn  Zn17  1  0.485064  0.810111  0.918780  1
  Zn  Zn18  1  0.189889  0.514936  0.081220  1
  Zn  Zn19  1  0.816284  0.235064  0.174953  1
  Ni  Ni20  1  0.625000  0.875000  0.250000  1
  Ni  Ni21  1  0.625000  0.375000  0.250000  1
  Ni  Ni22  1  0.125000  0.375000  0.750000  1
  Ni  Ni23  1  0.625000  0.375000  0.750000  1
