# generated using pymatgen
data_TbEr2Cd3AgSn2
_symmetry_space_group_name_H-M   'P 1'
_cell_length_a   7.47790960
_cell_length_b   7.47790976
_cell_length_c   4.52974500
_cell_angle_alpha   90.00000000
_cell_angle_beta   90.00000000
_cell_angle_gamma   120.13298781
_symmetry_Int_Tables_number   1
_chemical_formula_structural   TbEr2Cd3AgSn2
_chemical_formula_sum   'Tb1 Er2 Cd3 Ag1 Sn2'
_cell_volume   219.06917317
_cell_formula_units_Z   1
loop_
 _symmetry_equiv_pos_site_id
 _symmetry_equiv_pos_as_xyz
  1  'x, y, z'
loop_
 _atom_site_type_symbol
 _atom_site_label
 _atom_site_symmetry_multiplicity
 _atom_site_fract_x
 _atom_site_fract_y
 _atom_site_fract_z
 _atom_site_occupancy
  Tb  Tb0  1  0.416819  0.416819  0.000000  1
  Er  Er1  1  0.584773  0.000785  0.000000  1
  Er  Er2  1  0.000785  0.584773  0.000000  1
  Cd  Cd3  1  0.238394  0.000236  0.500000  1
  Cd  Cd4  1  0.000236  0.238394  0.500000  1
  Cd  Cd5  1  0.760698  0.760698  0.500000  1
  Ag  Ag6  1  0.997275  0.997275  0.000000  1
  Sn  Sn7  1  0.332883  0.668135  0.500000  1
  Sn  Sn8  1  0.668135  0.332883  0.500000  1
