# generated using pymatgen
data_TaMnOF5
_symmetry_space_group_name_H-M   'P 1'
_cell_length_a   5.67600198
_cell_length_b   5.72919777
_cell_length_c   5.62533780
_cell_angle_alpha   118.22269490
_cell_angle_beta   118.78888755
_cell_angle_gamma   91.81746790
_symmetry_Int_Tables_number   1
_chemical_formula_structural   TaMnOF5
_chemical_formula_sum   'Ta1 Mn1 O1 F5'
_cell_volume   133.04825620
_cell_formula_units_Z   1
loop_
 _symmetry_equiv_pos_site_id
 _symmetry_equiv_pos_as_xyz
  1  'x, y, z'
loop_
 _atom_site_type_symbol
 _atom_site_label
 _atom_site_symmetry_multiplicity
 _atom_site_fract_x
 _atom_site_fract_y
 _atom_site_fract_z
 _atom_site_occupancy
  Ta  Ta0  1  0.681651  0.994283  0.321393  1
  Mn  Mn1  1  0.157296  0.472994  0.318131  1
  O  O2  1  0.946553  0.217366  0.365168  1
  F  F3  1  0.365885  0.732102  0.266827  1
  F  F4  1  0.406551  0.193825  0.239509  1
  F  F5  1  0.483111  0.726151  0.846427  1
  F  F6  1  0.897141  0.744518  0.389721  1
  F  F7  1  0.822966  0.213994  0.786300  1
