# generated using pymatgen
data_Ho16In4Pd2PtRh
_symmetry_space_group_name_H-M   'P 1'
_cell_length_a   9.66094657
_cell_length_b   9.67219614
_cell_length_c   9.66540766
_cell_angle_alpha   60.06770695
_cell_angle_beta   60.01526521
_cell_angle_gamma   60.03846658
_symmetry_Int_Tables_number   1
_chemical_formula_structural   Ho16In4Pd2PtRh
_chemical_formula_sum   'Ho16 In4 Pd2 Pt1 Rh1'
_cell_volume   639.21663712
_cell_formula_units_Z   1
loop_
 _symmetry_equiv_pos_site_id
 _symmetry_equiv_pos_as_xyz
  1  'x, y, z'
loop_
 _atom_site_type_symbol
 _atom_site_label
 _atom_site_symmetry_multiplicity
 _atom_site_fract_x
 _atom_site_fract_y
 _atom_site_fract_z
 _atom_site_occupancy
  Ho  Ho0  1  0.186668  0.186372  0.816096  1
  Ho  Ho1  1  0.603047  0.604418  0.189487  1
  Ho  Ho2  1  0.439220  0.058471  0.441641  1
  Ho  Ho3  1  0.438875  0.440322  0.056577  1
  Ho  Ho4  1  0.810865  0.186372  0.816096  1
  Ho  Ho5  1  0.187437  0.814181  0.187662  1
  Ho  Ho6  1  0.439626  0.063505  0.057244  1
  Ho  Ho7  1  0.185455  0.813248  0.815843  1
  Ho  Ho8  1  0.064227  0.440322  0.056577  1
  Ho  Ho9  1  0.810720  0.814181  0.187662  1
  Ho  Ho10  1  0.199525  0.599753  0.603365  1
  Ho  Ho11  1  0.059743  0.440412  0.440102  1
  Ho  Ho12  1  0.060670  0.058471  0.441641  1
  Ho  Ho13  1  0.812481  0.186902  0.188136  1
  Ho  Ho14  1  0.599799  0.194683  0.605719  1
  Ho  Ho15  1  0.597357  0.599753  0.603365  1
  In  In16  1  0.834323  0.833570  0.832888  1
  In  In17  1  0.833279  0.832035  0.501406  1
  In  In18  1  0.499219  0.833570  0.832888  1
  In  In19  1  0.833389  0.500707  0.832515  1
  Pd  Pd20  1  0.396030  0.393309  0.391500  1
  Pd  Pd21  1  0.819161  0.393309  0.391500  1
  Pt  Pt22  1  0.395064  0.820826  0.389045  1
  Rh  Rh23  1  0.393823  0.391312  0.821042  1
