# generated using pymatgen
data_Nd4FeCo(RuI)2
_symmetry_space_group_name_H-M   'P 1'
_cell_length_a   4.16834300
_cell_length_b   4.16834318
_cell_length_c   17.91863900
_cell_angle_alpha   90.00000000
_cell_angle_beta   90.00000000
_cell_angle_gamma   119.99997479
_symmetry_Int_Tables_number   1
_chemical_formula_structural   Nd4FeCo(RuI)2
_chemical_formula_sum   'Nd4 Fe1 Co1 Ru2 I2'
_cell_volume   269.62656411
_cell_formula_units_Z   1
loop_
 _symmetry_equiv_pos_site_id
 _symmetry_equiv_pos_as_xyz
  1  'x, y, z'
loop_
 _atom_site_type_symbol
 _atom_site_label
 _atom_site_symmetry_multiplicity
 _atom_site_fract_x
 _atom_site_fract_y
 _atom_site_fract_z
 _atom_site_occupancy
  Nd  Nd0  1  0.000000  0.000000  0.102765  1
  Nd  Nd1  1  0.000000  0.000000  0.897124  1
  Nd  Nd2  1  0.000000  0.000000  0.605318  1
  Nd  Nd3  1  0.000000  0.000000  0.395378  1
  Fe  Fe4  1  0.333333  0.666667  0.504158  1
  Co  Co5  1  0.333333  0.666667  0.998535  1
  Ru  Ru6  1  0.666667  0.333333  0.496250  1
  Ru  Ru7  1  0.666667  0.333333  0.001106  1
  I  I8  1  0.333333  0.666667  0.248684  1
  I  I9  1  0.666667  0.333333  0.750681  1
