# generated using pymatgen
data_Ta8Nb4Al7Ga(FeC)4
_symmetry_space_group_name_H-M   'P 1'
_cell_length_a   8.19644334
_cell_length_b   8.19644327
_cell_length_c   8.19699700
_cell_angle_alpha   60.00977143
_cell_angle_beta   60.00977173
_cell_angle_gamma   60.00806056
_symmetry_Int_Tables_number   1
_chemical_formula_structural   Ta8Nb4Al7Ga(FeC)4
_chemical_formula_sum   'Ta8 Nb4 Al7 Ga1 Fe4 C4'
_cell_volume   389.47648535
_cell_formula_units_Z   1
loop_
 _symmetry_equiv_pos_site_id
 _symmetry_equiv_pos_as_xyz
  1  'x, y, z'
loop_
 _atom_site_type_symbol
 _atom_site_label
 _atom_site_symmetry_multiplicity
 _atom_site_fract_x
 _atom_site_fract_y
 _atom_site_fract_z
 _atom_site_occupancy
  Ta  Ta0  1  0.694008  0.693583  0.306463  1
  Ta  Ta1  1  0.306111  0.305270  0.695031  1
  Ta  Ta2  1  0.557645  0.557361  0.942996  1
  Ta  Ta3  1  0.944801  0.555489  0.555686  1
  Ta  Ta4  1  0.555532  0.944349  0.945101  1
  Ta  Ta5  1  0.943162  0.942213  0.557496  1
  Ta  Ta6  1  0.694949  0.305020  0.694959  1
  Ta  Ta7  1  0.943848  0.556310  0.943778  1
  Nb  Nb8  1  0.557825  0.942360  0.557673  1
  Nb  Nb9  1  0.308049  0.692245  0.692332  1
  Nb  Nb10  1  0.693367  0.306627  0.307521  1
  Nb  Nb11  1  0.306472  0.694108  0.306318  1
  Al  Al12  1  0.919386  0.917421  0.917313  1
  Al  Al13  1  0.004290  0.330876  0.331122  1
  Al  Al14  1  0.330894  0.004771  0.333280  1
  Al  Al15  1  0.331077  0.333528  0.004534  1
  Al  Al16  1  0.917336  0.245478  0.919357  1
  Al  Al17  1  0.917204  0.919538  0.245331  1
  Al  Al18  1  0.245401  0.917504  0.917083  1
  Ga  Ga19  1  0.334787  0.332399  0.332536  1
  Fe  Fe20  1  0.126991  0.127259  0.121064  1
  Fe  Fe21  1  0.625540  0.124217  0.118368  1
  Fe  Fe22  1  0.119970  0.625563  0.126086  1
  Fe  Fe23  1  0.118077  0.129731  0.625645  1
  C  C24  1  0.627975  0.622363  0.625344  1
  C  C25  1  0.123441  0.623306  0.626582  1
  C  C26  1  0.625090  0.124929  0.627716  1
  C  C27  1  0.626769  0.626179  0.123284  1
