# generated using pymatgen
data_Tb3Er5Hf9Si16Mo3
_symmetry_space_group_name_H-M   'P 1'
_cell_length_a   7.18867105
_cell_length_b   7.18759801
_cell_length_c   13.14377248
_cell_angle_alpha   90.08480305
_cell_angle_beta   90.10985854
_cell_angle_gamma   90.08675420
_symmetry_Int_Tables_number   1
_chemical_formula_structural   Tb3Er5Hf9Si16Mo3
_chemical_formula_sum   'Tb3 Er5 Hf9 Si16 Mo3'
_cell_volume   679.12645732
_cell_formula_units_Z   1
loop_
 _symmetry_equiv_pos_site_id
 _symmetry_equiv_pos_as_xyz
  1  'x, y, z'
loop_
 _atom_site_type_symbol
 _atom_site_label
 _atom_site_symmetry_multiplicity
 _atom_site_fract_x
 _atom_site_fract_y
 _atom_site_fract_z
 _atom_site_occupancy
  Tb  Tb0  1  0.498162  0.154097  0.532214  1
  Tb  Tb1  1  0.343164  0.996053  0.785507  1
  Tb  Tb2  1  0.655935  0.000797  0.284482  1
  Er  Er3  1  0.999994  0.344655  0.215010  1
  Er  Er4  1  0.002972  0.656372  0.714392  1
  Er  Er5  1  0.154483  0.500783  0.463820  1
  Er  Er6  1  0.499305  0.845244  0.036113  1
  Er  Er7  1  0.846691  0.501062  0.967746  1
  Hf  Hf8  1  0.675865  0.324980  0.750204  1
  Hf  Hf9  1  0.146241  0.993012  0.373458  1
  Hf  Hf10  1  0.855020  0.004308  0.876876  1
  Hf  Hf11  1  0.505831  0.648942  0.621607  1
  Hf  Hf12  1  0.351164  0.494686  0.878544  1
  Hf  Hf13  1  0.492926  0.353325  0.125443  1
  Hf  Hf14  1  0.647115  0.506938  0.374220  1
  Hf  Hf15  1  0.995671  0.145074  0.623267  1
  Hf  Hf16  1  0.006546  0.853673  0.126216  1
  Si  Si17  1  0.359616  0.297621  0.317181  1
  Si  Si18  1  0.639343  0.704783  0.818069  1
  Si  Si19  1  0.203473  0.860210  0.566261  1
  Si  Si20  1  0.138313  0.794651  0.934003  1
  Si  Si21  1  0.796293  0.139148  0.067761  1
  Si  Si22  1  0.862869  0.204981  0.432389  1
  Si  Si23  1  0.293655  0.363032  0.682356  1
  Si  Si24  1  0.703576  0.638663  0.182172  1
  Si  Si25  1  0.295651  0.051373  0.183905  1
  Si  Si26  1  0.705481  0.946841  0.682645  1
  Si  Si27  1  0.447486  0.794513  0.432612  1
  Si  Si28  1  0.203594  0.551342  0.067511  1
  Si  Si29  1  0.548627  0.202736  0.936453  1
  Si  Si30  1  0.798447  0.452835  0.563938  1
  Si  Si31  1  0.051648  0.296649  0.817560  1
  Si  Si32  1  0.949508  0.702824  0.315722  1
  Mo  Mo33  1  0.176159  0.175589  0.001645  1
  Mo  Mo34  1  0.825280  0.822982  0.498813  1
  Mo  Mo35  1  0.323899  0.675226  0.249884  1
