# generated using pymatgen
data_Hf3ZnCo2N
_symmetry_space_group_name_H-M   'P 1'
_cell_length_a   8.26694938
_cell_length_b   8.26694888
_cell_length_c   8.26694900
_cell_angle_alpha   59.99999551
_cell_angle_beta   59.99999753
_cell_angle_gamma   59.99999402
_symmetry_Int_Tables_number   1
_chemical_formula_structural   Hf3ZnCo2N
_chemical_formula_sum   'Hf12 Zn4 Co8 N4'
_cell_volume   399.50364729
_cell_formula_units_Z   4
loop_
 _symmetry_equiv_pos_site_id
 _symmetry_equiv_pos_as_xyz
  1  'x, y, z'
loop_
 _atom_site_type_symbol
 _atom_site_label
 _atom_site_symmetry_multiplicity
 _atom_site_fract_x
 _atom_site_fract_y
 _atom_site_fract_z
 _atom_site_occupancy
  Hf  Hf0  1  0.806757  0.193243  0.193243  1
  Hf  Hf1  1  0.193243  0.806757  0.193243  1
  Hf  Hf2  1  0.806757  0.806757  0.193243  1
  Hf  Hf3  1  0.193243  0.806757  0.806757  1
  Hf  Hf4  1  0.806757  0.193243  0.806757  1
  Hf  Hf5  1  0.193243  0.193243  0.806757  1
  Hf  Hf6  1  0.443243  0.056757  0.056757  1
  Hf  Hf7  1  0.056757  0.443243  0.056757  1
  Hf  Hf8  1  0.443243  0.443243  0.056757  1
  Hf  Hf9  1  0.056757  0.443243  0.443243  1
  Hf  Hf10  1  0.443243  0.056757  0.443243  1
  Hf  Hf11  1  0.056757  0.056757  0.443243  1
  Zn  Zn12  1  0.625000  0.625000  0.125000  1
  Zn  Zn13  1  0.625000  0.625000  0.625000  1
  Zn  Zn14  1  0.125000  0.625000  0.625000  1
  Zn  Zn15  1  0.625000  0.125000  0.625000  1
  Co  Co16  1  0.417613  0.417613  0.747162  1
  Co  Co17  1  0.417613  0.417613  0.417613  1
  Co  Co18  1  0.747162  0.417613  0.417613  1
  Co  Co19  1  0.417613  0.747162  0.417613  1
  Co  Co20  1  0.832387  0.832387  0.502838  1
  Co  Co21  1  0.832387  0.832387  0.832387  1
  Co  Co22  1  0.502838  0.832387  0.832387  1
  Co  Co23  1  0.832387  0.502838  0.832387  1
  N  N24  1  0.125000  0.125000  0.625000  1
  N  N25  1  0.125000  0.125000  0.125000  1
  N  N26  1  0.625000  0.125000  0.125000  1
  N  N27  1  0.125000  0.625000  0.125000  1
