# generated using pymatgen
data_Zr10Ag2Sn2Bi3Pb
_symmetry_space_group_name_H-M   'P 1'
_cell_length_a   8.86711402
_cell_length_b   8.86819272
_cell_length_c   5.97259200
_cell_angle_alpha   90.00000000
_cell_angle_beta   90.00000000
_cell_angle_gamma   120.00345291
_symmetry_Int_Tables_number   1
_chemical_formula_structural   Zr10Ag2Sn2Bi3Pb
_chemical_formula_sum   'Zr10 Ag2 Sn2 Bi3 Pb1'
_cell_volume   406.72023862
_cell_formula_units_Z   1
loop_
 _symmetry_equiv_pos_site_id
 _symmetry_equiv_pos_as_xyz
  1  'x, y, z'
loop_
 _atom_site_type_symbol
 _atom_site_label
 _atom_site_symmetry_multiplicity
 _atom_site_fract_x
 _atom_site_fract_y
 _atom_site_fract_z
 _atom_site_occupancy
  Zr  Zr0  1  0.663649  0.332959  0.004212  1
  Zr  Zr1  1  0.336356  0.669317  0.004212  1
  Zr  Zr2  1  0.336356  0.669317  0.495788  1
  Zr  Zr3  1  0.663649  0.332959  0.495788  1
  Zr  Zr4  1  0.722154  0.723339  0.750000  1
  Zr  Zr5  1  0.277863  0.001217  0.750000  1
  Zr  Zr6  1  0.000038  0.276320  0.750000  1
  Zr  Zr7  1  0.283979  0.278762  0.250000  1
  Zr  Zr8  1  0.715986  0.994736  0.250000  1
  Zr  Zr9  1  0.999961  0.721643  0.250000  1
  Ag  Ag10  1  0.000010  0.000379  0.003987  1
  Ag  Ag11  1  0.000010  0.000379  0.496013  1
  Sn  Sn12  1  0.622223  0.621157  0.250000  1
  Sn  Sn13  1  0.377718  0.998933  0.250000  1
  Bi  Bi14  1  0.380555  0.382261  0.750000  1
  Bi  Bi15  1  0.619493  0.001723  0.750000  1
  Bi  Bi16  1  0.000012  0.618470  0.750000  1
  Pb  Pb17  1  0.999986  0.376129  0.250000  1
