# generated using pymatgen
data_LiPr15HoIn3Rh4
_symmetry_space_group_name_H-M   'P 1'
_cell_length_a   10.02102712
_cell_length_b   10.02102581
_cell_length_c   10.02102627
_cell_angle_alpha   59.87455747
_cell_angle_beta   59.87455720
_cell_angle_gamma   59.87455770
_symmetry_Int_Tables_number   1
_chemical_formula_structural   LiPr15HoIn3Rh4
_chemical_formula_sum   'Li1 Pr15 Ho1 In3 Rh4'
_cell_volume   709.55115618
_cell_formula_units_Z   1
loop_
 _symmetry_equiv_pos_site_id
 _symmetry_equiv_pos_as_xyz
  1  'x, y, z'
loop_
 _atom_site_type_symbol
 _atom_site_label
 _atom_site_symmetry_multiplicity
 _atom_site_fract_x
 _atom_site_fract_y
 _atom_site_fract_z
 _atom_site_occupancy
  Li  Li0  1  0.820380  0.820380  0.820380  1
  Pr  Pr1  1  0.189632  0.189632  0.807960  1
  Pr  Pr2  1  0.598834  0.598834  0.205604  1
  Pr  Pr3  1  0.443285  0.055759  0.443285  1
  Pr  Pr4  1  0.443285  0.443285  0.055759  1
  Pr  Pr5  1  0.811043  0.190680  0.811043  1
  Pr  Pr6  1  0.189632  0.807960  0.189632  1
  Pr  Pr7  1  0.436696  0.061304  0.061304  1
  Pr  Pr8  1  0.190680  0.811043  0.811043  1
  Pr  Pr9  1  0.061304  0.436696  0.061304  1
  Pr  Pr10  1  0.811043  0.811043  0.190680  1
  Pr  Pr11  1  0.205604  0.598834  0.598834  1
  Pr  Pr12  1  0.055759  0.443285  0.443285  1
  Pr  Pr13  1  0.061304  0.061304  0.436696  1
  Pr  Pr14  1  0.807960  0.189632  0.189632  1
  Pr  Pr15  1  0.598834  0.205604  0.598834  1
  Ho  Ho16  1  0.598037  0.598037  0.598037  1
  In  In17  1  0.829548  0.829548  0.509063  1
  In  In18  1  0.509063  0.829548  0.829548  1
  In  In19  1  0.829548  0.509063  0.829548  1
  Rh  Rh20  1  0.396673  0.822372  0.396673  1
  Rh  Rh21  1  0.392814  0.392814  0.392814  1
  Rh  Rh22  1  0.822372  0.396673  0.396673  1
  Rh  Rh23  1  0.396673  0.396673  0.822372  1
