# generated using pymatgen
data_Cs4AlGa3Sb16
_symmetry_space_group_name_H-M   'P 1'
_cell_length_a   4.32325400
_cell_length_b   10.97991706
_cell_length_c   18.84609210
_cell_angle_alpha   90.01191800
_cell_angle_beta   90.00000000
_cell_angle_gamma   90.00000000
_symmetry_Int_Tables_number   1
_chemical_formula_structural   Cs4AlGa3Sb16
_chemical_formula_sum   'Cs4 Al1 Ga3 Sb16'
_cell_volume   894.60456778
_cell_formula_units_Z   1
loop_
 _symmetry_equiv_pos_site_id
 _symmetry_equiv_pos_as_xyz
  1  'x, y, z'
loop_
 _atom_site_type_symbol
 _atom_site_label
 _atom_site_symmetry_multiplicity
 _atom_site_fract_x
 _atom_site_fract_y
 _atom_site_fract_z
 _atom_site_occupancy
  Cs  Cs0  1  0.750000  0.182512  0.431153  1
  Cs  Cs1  1  0.250000  0.817449  0.568689  1
  Cs  Cs2  1  0.750000  0.682646  0.068731  1
  Cs  Cs3  1  0.250000  0.317416  0.931283  1
  Al  Al4  1  0.750000  0.320292  0.632225  1
  Ga  Ga5  1  0.250000  0.679670  0.367996  1
  Ga  Ga6  1  0.750000  0.820290  0.867928  1
  Ga  Ga7  1  0.250000  0.179703  0.132047  1
  Sb  Sb8  1  0.750000  0.823970  0.389059  1
  Sb  Sb9  1  0.250000  0.175711  0.610519  1
  Sb  Sb10  1  0.750000  0.323968  0.110893  1
  Sb  Sb11  1  0.250000  0.676029  0.889082  1
  Sb  Sb12  1  0.750000  0.406910  0.766839  1
  Sb  Sb13  1  0.250000  0.593158  0.233732  1
  Sb  Sb14  1  0.750000  0.906740  0.733789  1
  Sb  Sb15  1  0.250000  0.093159  0.266276  1
  Sb  Sb16  1  0.750000  0.524872  0.549437  1
  Sb  Sb17  1  0.250000  0.475693  0.450230  1
  Sb  Sb18  1  0.750000  0.024271  0.950358  1
  Sb  Sb19  1  0.250000  0.975693  0.049663  1
  Sb  Sb20  1  0.750000  0.918937  0.246719  1
  Sb  Sb21  1  0.250000  0.080969  0.753347  1
  Sb  Sb22  1  0.750000  0.418914  0.253283  1
  Sb  Sb23  1  0.250000  0.581028  0.746721  1
