# generated using pymatgen
data_SrDyIr2O7
_symmetry_space_group_name_H-M   'P 1'
_cell_length_a   7.36166501
_cell_length_b   7.35021737
_cell_length_c   7.36166471
_cell_angle_alpha   60.05143362
_cell_angle_beta   59.79301186
_cell_angle_gamma   60.05143566
_symmetry_Int_Tables_number   1
_chemical_formula_structural   SrDyIr2O7
_chemical_formula_sum   'Sr2 Dy2 Ir4 O14'
_cell_volume   281.44234306
_cell_formula_units_Z   2
loop_
 _symmetry_equiv_pos_site_id
 _symmetry_equiv_pos_as_xyz
  1  'x, y, z'
loop_
 _atom_site_type_symbol
 _atom_site_label
 _atom_site_symmetry_multiplicity
 _atom_site_fract_x
 _atom_site_fract_y
 _atom_site_fract_z
 _atom_site_occupancy
  Sr  Sr0  1  0.125000  0.625000  0.125000  1
  Sr  Sr1  1  0.125000  0.125000  0.125000  1
  Dy  Dy2  1  0.125000  0.125000  0.625000  1
  Dy  Dy3  1  0.625000  0.125000  0.125000  1
  Ir  Ir4  1  0.625000  0.625000  0.625000  1
  Ir  Ir5  1  0.125000  0.625000  0.625000  1
  Ir  Ir6  1  0.625000  0.125000  0.625000  1
  Ir  Ir7  1  0.625000  0.625000  0.125000  1
  O  O8  1  0.298888  0.716016  0.689371  1
  O  O9  1  0.560629  0.954275  0.951112  1
  O  O10  1  0.703103  0.296897  0.703103  1
  O  O11  1  0.298888  0.295725  0.689371  1
  O  O12  1  0.689371  0.716016  0.298888  1
  O  O13  1  0.983785  0.016215  0.983785  1
  O  O14  1  0.302389  0.697611  0.302389  1
  O  O15  1  0.947611  0.552389  0.947611  1
  O  O16  1  0.951112  0.954275  0.560629  1
  O  O17  1  0.560629  0.533984  0.951112  1
  O  O18  1  0.266215  0.233785  0.266215  1
  O  O19  1  0.546897  0.953103  0.546897  1
  O  O20  1  0.689371  0.295725  0.298888  1
  O  O21  1  0.951112  0.533984  0.560629  1
