# generated using pymatgen
data_Tb9Ho11(TlBi)8
_symmetry_space_group_name_H-M   'P 1'
_cell_length_a   8.17963419
_cell_length_b   8.20597414
_cell_length_c   15.63714600
_cell_angle_alpha   90.00830882
_cell_angle_beta   90.01246134
_cell_angle_gamma   90.02903718
_symmetry_Int_Tables_number   1
_chemical_formula_structural   Tb9Ho11(TlBi)8
_chemical_formula_sum   'Tb9 Ho11 Tl8 Bi8'
_cell_volume   1049.59425821
_cell_formula_units_Z   1
loop_
 _symmetry_equiv_pos_site_id
 _symmetry_equiv_pos_as_xyz
  1  'x, y, z'
loop_
 _atom_site_type_symbol
 _atom_site_label
 _atom_site_symmetry_multiplicity
 _atom_site_fract_x
 _atom_site_fract_y
 _atom_site_fract_z
 _atom_site_occupancy
  Tb  Tb0  1  0.889168  0.663676  0.878692  1
  Tb  Tb1  1  0.550657  0.327568  0.892591  1
  Tb  Tb2  1  0.050570  0.172312  0.607182  1
  Tb  Tb3  1  0.449465  0.672265  0.392638  1
  Tb  Tb4  1  0.949174  0.828139  0.107715  1
  Tb  Tb5  1  0.449554  0.672123  0.107444  1
  Tb  Tb6  1  0.949508  0.827760  0.392526  1
  Tb  Tb7  1  0.550300  0.327574  0.607181  1
  Tb  Tb8  1  0.050650  0.172001  0.892405  1
  Ho  Ho9  1  0.388250  0.836959  0.877753  1
  Ho  Ho10  1  0.888221  0.662947  0.622062  1
  Ho  Ho11  1  0.611723  0.162979  0.377866  1
  Ho  Ho12  1  0.111590  0.337056  0.122021  1
  Ho  Ho13  1  0.611281  0.162907  0.122432  1
  Ho  Ho14  1  0.111604  0.336957  0.377911  1
  Ho  Ho15  1  0.388457  0.837010  0.621977  1
  Ho  Ho16  1  0.222132  0.499505  0.749728  1
  Ho  Ho17  1  0.721636  0.000346  0.749807  1
  Ho  Ho18  1  0.778071  0.500233  0.250332  1
  Ho  Ho19  1  0.278028  0.999732  0.250020  1
  Tl  Tl20  1  0.587078  0.624146  0.749773  1
  Tl  Tl21  1  0.087566  0.876272  0.749670  1
  Tl  Tl22  1  0.412593  0.375703  0.250029  1
  Tl  Tl23  1  0.912762  0.124382  0.249995  1
  Tl  Tl24  1  0.353528  0.140657  0.749910  1
  Tl  Tl25  1  0.853288  0.359041  0.749755  1
  Tl  Tl26  1  0.646467  0.859249  0.250016  1
  Tl  Tl27  1  0.146544  0.640632  0.249950  1
  Bi  Bi28  1  0.272332  0.021701  0.043879  1
  Bi  Bi29  1  0.772541  0.478159  0.456136  1
  Bi  Bi30  1  0.727435  0.978028  0.543674  1
  Bi  Bi31  1  0.228952  0.520962  0.956156  1
  Bi  Bi32  1  0.726829  0.979629  0.956360  1
  Bi  Bi33  1  0.227217  0.521905  0.543707  1
  Bi  Bi34  1  0.272680  0.021897  0.456083  1
  Bi  Bi35  1  0.772149  0.477591  0.044623  1
