# generated using pymatgen
data_LiPr16Ag3Rh4
_symmetry_space_group_name_H-M   'P 1'
_cell_length_a   9.99151635
_cell_length_b   9.99151655
_cell_length_c   9.99151664
_cell_angle_alpha   59.96663697
_cell_angle_beta   59.96663643
_cell_angle_gamma   59.96664052
_symmetry_Int_Tables_number   1
_chemical_formula_structural   LiPr16Ag3Rh4
_chemical_formula_sum   'Li1 Pr16 Ag3 Rh4'
_cell_volume   704.77508024
_cell_formula_units_Z   1
loop_
 _symmetry_equiv_pos_site_id
 _symmetry_equiv_pos_as_xyz
  1  'x, y, z'
loop_
 _atom_site_type_symbol
 _atom_site_label
 _atom_site_symmetry_multiplicity
 _atom_site_fract_x
 _atom_site_fract_y
 _atom_site_fract_z
 _atom_site_occupancy
  Li  Li0  1  0.565575  0.565575  0.565575  1
  Pr  Pr1  1  0.351437  0.351437  0.351437  1
  Pr  Pr2  1  0.349607  0.349607  0.950564  1
  Pr  Pr3  1  0.349607  0.950564  0.349607  1
  Pr  Pr4  1  0.950564  0.349607  0.349607  1
  Pr  Pr5  1  0.810261  0.190551  0.190551  1
  Pr  Pr6  1  0.186895  0.813343  0.813342  1
  Pr  Pr7  1  0.190551  0.810261  0.190550  1
  Pr  Pr8  1  0.813342  0.186895  0.813342  1
  Pr  Pr9  1  0.190551  0.190551  0.810261  1
  Pr  Pr10  1  0.813343  0.813343  0.186894  1
  Pr  Pr11  1  0.939911  0.564016  0.564016  1
  Pr  Pr12  1  0.564400  0.937759  0.937759  1
  Pr  Pr13  1  0.564016  0.939911  0.564016  1
  Pr  Pr14  1  0.937759  0.564400  0.937759  1
  Pr  Pr15  1  0.564016  0.564016  0.939911  1
  Pr  Pr16  1  0.937759  0.937759  0.564400  1
  Ag  Ag17  1  0.582672  0.582672  0.252032  1
  Ag  Ag18  1  0.582672  0.252032  0.582672  1
  Ag  Ag19  1  0.252032  0.582672  0.582672  1
  Rh  Rh20  1  0.142786  0.142786  0.142786  1
  Rh  Rh21  1  0.143759  0.143759  0.572729  1
  Rh  Rh22  1  0.143759  0.572729  0.143759  1
  Rh  Rh23  1  0.572729  0.143759  0.143759  1
