# generated using pymatgen
data_Ta8Re3Mo4Rh
_symmetry_space_group_name_H-M   'P 1'
_cell_length_a   6.44836200
_cell_length_b   4.55121800
_cell_length_c   9.07606700
_cell_angle_alpha   90.00003153
_cell_angle_beta   89.99997849
_cell_angle_gamma   90.00003036
_symmetry_Int_Tables_number   1
_chemical_formula_structural   Ta8Re3Mo4Rh
_chemical_formula_sum   'Ta8 Re3 Mo4 Rh1'
_cell_volume   266.36351765
_cell_formula_units_Z   1
loop_
 _symmetry_equiv_pos_site_id
 _symmetry_equiv_pos_as_xyz
  1  'x, y, z'
loop_
 _atom_site_type_symbol
 _atom_site_label
 _atom_site_symmetry_multiplicity
 _atom_site_fract_x
 _atom_site_fract_y
 _atom_site_fract_z
 _atom_site_occupancy
  Ta  Ta0  1  0.003696  0.749999  0.124999  1
  Ta  Ta1  1  0.496335  0.749999  0.125001  1
  Ta  Ta2  1  0.001565  0.250003  0.377306  1
  Ta  Ta3  1  0.498465  0.250000  0.377308  1
  Ta  Ta4  1  0.501281  0.750000  0.625004  1
  Ta  Ta5  1  0.998691  0.749998  0.625005  1
  Ta  Ta6  1  0.498440  0.249999  0.872689  1
  Ta  Ta7  1  0.001518  0.249999  0.872686  1
  Re  Re8  1  0.250015  0.750000  0.373878  1
  Re  Re9  1  0.749986  0.250000  0.624997  1
  Re  Re10  1  0.249984  0.749998  0.876131  1
  Mo  Mo11  1  0.250018  0.250000  0.125001  1
  Mo  Mo12  1  0.750017  0.750000  0.372966  1
  Mo  Mo13  1  0.249987  0.249998  0.625005  1
  Mo  Mo14  1  0.749985  0.750004  0.877019  1
  Rh  Rh15  1  0.750020  0.250002  0.124999  1
