# generated using pymatgen
data_Dy2Al7Ga2Ir2Pt
_symmetry_space_group_name_H-M   'P 1'
_cell_length_a   7.55674968
_cell_length_b   7.55920853
_cell_length_c   9.51359300
_cell_angle_alpha   90.00000000
_cell_angle_beta   90.00000000
_cell_angle_gamma   119.66613965
_symmetry_Int_Tables_number   1
_chemical_formula_structural   Dy2Al7Ga2Ir2Pt
_chemical_formula_sum   'Dy4 Al14 Ga4 Ir4 Pt2'
_cell_volume   472.21285589
_cell_formula_units_Z   2
loop_
 _symmetry_equiv_pos_site_id
 _symmetry_equiv_pos_as_xyz
  1  'x, y, z'
loop_
 _atom_site_type_symbol
 _atom_site_label
 _atom_site_symmetry_multiplicity
 _atom_site_fract_x
 _atom_site_fract_y
 _atom_site_fract_z
 _atom_site_occupancy
  Dy  Dy0  1  0.997924  0.673562  0.750000  1
  Dy  Dy1  1  0.002076  0.326438  0.250000  1
  Dy  Dy2  1  0.670041  0.994011  0.750000  1
  Dy  Dy3  1  0.329959  0.005989  0.250000  1
  Al  Al4  1  0.000509  0.337998  0.575536  1
  Al  Al5  1  0.999491  0.662002  0.424464  1
  Al  Al6  1  0.999491  0.662002  0.075536  1
  Al  Al7  1  0.338516  0.001250  0.924812  1
  Al  Al8  1  0.000509  0.337998  0.924464  1
  Al  Al9  1  0.661484  0.998750  0.075188  1
  Al  Al10  1  0.661484  0.998750  0.424812  1
  Al  Al11  1  0.338516  0.001250  0.575188  1
  Al  Al12  1  0.336846  0.337245  0.057843  1
  Al  Al13  1  0.663154  0.662755  0.942157  1
  Al  Al14  1  0.663154  0.662755  0.557843  1
  Al  Al15  1  0.336846  0.337245  0.442157  1
  Al  Al16  1  0.550252  0.338235  0.750000  1
  Al  Al17  1  0.449748  0.661765  0.250000  1
  Ga  Ga18  1  0.134117  0.135066  0.750000  1
  Ga  Ga19  1  0.865883  0.864934  0.250000  1
  Ga  Ga20  1  0.337805  0.547053  0.750000  1
  Ga  Ga21  1  0.662195  0.452947  0.250000  1
  Ir  Ir22  1  0.671205  0.328254  0.502172  1
  Ir  Ir23  1  0.328795  0.671746  0.497828  1
  Ir  Ir24  1  0.328795  0.671746  0.002172  1
  Ir  Ir25  1  0.671205  0.328254  0.997828  1
  Pt  Pt26  1  0.000000  0.000000  0.500000  1
  Pt  Pt27  1  0.000000  0.000000  0.000000  1
