# generated using pymatgen
data_Tb2Tm3(ReO6)2
_symmetry_space_group_name_H-M   'P 1'
_cell_length_a   6.78824401
_cell_length_b   6.78824453
_cell_length_c   7.49775263
_cell_angle_alpha   74.02852638
_cell_angle_beta   74.02852790
_cell_angle_gamma   49.28396866
_symmetry_Int_Tables_number   1
_chemical_formula_structural   Tb2Tm3(ReO6)2
_chemical_formula_sum   'Tb2 Tm3 Re2 O12'
_cell_volume   249.58337358
_cell_formula_units_Z   1
loop_
 _symmetry_equiv_pos_site_id
 _symmetry_equiv_pos_as_xyz
  1  'x, y, z'
loop_
 _atom_site_type_symbol
 _atom_site_label
 _atom_site_symmetry_multiplicity
 _atom_site_fract_x
 _atom_site_fract_y
 _atom_site_fract_z
 _atom_site_occupancy
  Tb  Tb0  1  0.803309  0.803309  0.357718  1
  Tb  Tb1  1  0.196691  0.196691  0.642282  1
  Tm  Tm2  1  0.185516  0.185516  0.175723  1
  Tm  Tm3  1  0.814484  0.814484  0.824277  1
  Tm  Tm4  1  0.500000  0.500000  0.500000  1
  Re  Re5  1  0.286134  0.713866  0.000000  1
  Re  Re6  1  0.713866  0.286134  0.000000  1
  O  O7  1  0.415094  0.917981  0.916213  1
  O  O8  1  0.082019  0.584906  0.083787  1
  O  O9  1  0.584906  0.082019  0.083787  1
  O  O10  1  0.917981  0.415094  0.916213  1
  O  O11  1  0.600385  0.095618  0.576412  1
  O  O12  1  0.904382  0.399615  0.423588  1
  O  O13  1  0.399615  0.904382  0.423588  1
  O  O14  1  0.999187  0.999187  0.822788  1
  O  O15  1  0.000813  0.000813  0.177212  1
  O  O16  1  0.499093  0.499093  0.791691  1
  O  O17  1  0.500907  0.500907  0.208309  1
  O  O18  1  0.095618  0.600385  0.576412  1
