# generated using pymatgen
data_Ba4GdOsO8
_symmetry_space_group_name_H-M   'P 1'
_cell_length_a   7.45993532
_cell_length_b   7.45993307
_cell_length_c   6.02812500
_cell_angle_alpha   90.00000000
_cell_angle_beta   90.00000000
_cell_angle_gamma   132.54172849
_symmetry_Int_Tables_number   1
_chemical_formula_structural   Ba4GdOsO8
_chemical_formula_sum   'Ba4 Gd1 Os1 O8'
_cell_volume   247.16847742
_cell_formula_units_Z   1
loop_
 _symmetry_equiv_pos_site_id
 _symmetry_equiv_pos_as_xyz
  1  'x, y, z'
loop_
 _atom_site_type_symbol
 _atom_site_label
 _atom_site_symmetry_multiplicity
 _atom_site_fract_x
 _atom_site_fract_y
 _atom_site_fract_z
 _atom_site_occupancy
  Ba  Ba0  1  0.355300  0.644700  0.000000  1
  Ba  Ba1  1  0.853639  0.146361  0.500000  1
  Ba  Ba2  1  0.146361  0.853639  0.500000  1
  Ba  Ba3  1  0.644700  0.355300  0.000000  1
  Gd  Gd4  1  0.000000  0.000000  0.000000  1
  Os  Os5  1  0.500000  0.500000  0.500000  1
  O  O6  1  0.264053  0.264053  0.729961  1
  O  O7  1  0.735947  0.735947  0.270039  1
  O  O8  1  0.735947  0.735947  0.729961  1
  O  O9  1  0.264053  0.264053  0.270039  1
  O  O10  1  0.167110  0.832890  0.000000  1
  O  O11  1  0.648742  0.351258  0.500000  1
  O  O12  1  0.351258  0.648742  0.500000  1
  O  O13  1  0.832890  0.167110  0.000000  1
