# generated using pymatgen
data_Nd2Lu2HgRh
_symmetry_space_group_name_H-M   'P 1'
_cell_length_a   9.65497969
_cell_length_b   9.65497968
_cell_length_c   9.68653500
_cell_angle_alpha   59.89183008
_cell_angle_beta   59.89183011
_cell_angle_gamma   60.21634992
_symmetry_Int_Tables_number   1
_chemical_formula_structural   Nd2Lu2HgRh
_chemical_formula_sum   'Nd8 Lu8 Hg4 Rh4'
_cell_volume   638.47942589
_cell_formula_units_Z   4
loop_
 _symmetry_equiv_pos_site_id
 _symmetry_equiv_pos_as_xyz
  1  'x, y, z'
loop_
 _atom_site_type_symbol
 _atom_site_label
 _atom_site_symmetry_multiplicity
 _atom_site_fract_x
 _atom_site_fract_y
 _atom_site_fract_z
 _atom_site_occupancy
  Nd  Nd0  1  0.436034  0.436034  0.063966  1
  Nd  Nd1  1  0.063966  0.063966  0.436034  1
  Nd  Nd2  1  0.190457  0.809543  0.809543  1
  Nd  Nd3  1  0.809543  0.190457  0.190457  1
  Nd  Nd4  1  0.809543  0.190457  0.809543  1
  Nd  Nd5  1  0.190457  0.809543  0.190457  1
  Nd  Nd6  1  0.809249  0.809249  0.190751  1
  Nd  Nd7  1  0.190751  0.190751  0.809249  1
  Lu  Lu8  1  0.599243  0.599243  0.595714  1
  Lu  Lu9  1  0.599243  0.599243  0.205801  1
  Lu  Lu10  1  0.595714  0.205801  0.599243  1
  Lu  Lu11  1  0.205801  0.595714  0.599243  1
  Lu  Lu12  1  0.060245  0.439755  0.439755  1
  Lu  Lu13  1  0.439755  0.060245  0.060245  1
  Lu  Lu14  1  0.439755  0.060245  0.439755  1
  Lu  Lu15  1  0.060245  0.439755  0.060245  1
  Hg  Hg16  1  0.831589  0.831589  0.834329  1
  Hg  Hg17  1  0.831589  0.831589  0.502492  1
  Hg  Hg18  1  0.834329  0.502492  0.831589  1
  Hg  Hg19  1  0.502492  0.834329  0.831589  1
  Rh  Rh20  1  0.390443  0.390443  0.398536  1
  Rh  Rh21  1  0.390443  0.390443  0.820578  1
  Rh  Rh22  1  0.398536  0.820578  0.390443  1
  Rh  Rh23  1  0.820578  0.398536  0.390443  1
