# generated using pymatgen
data_Er8TiPd19Pt5
_symmetry_space_group_name_H-M   'P 1'
_cell_length_a   8.30321500
_cell_length_b   8.30321500
_cell_length_c   8.31312300
_cell_angle_alpha   90.00000000
_cell_angle_beta   90.00000000
_cell_angle_gamma   90.00000000
_symmetry_Int_Tables_number   1
_chemical_formula_structural   Er8TiPd19Pt5
_chemical_formula_sum   'Er8 Ti1 Pd19 Pt5'
_cell_volume   573.13479246
_cell_formula_units_Z   1
loop_
 _symmetry_equiv_pos_site_id
 _symmetry_equiv_pos_as_xyz
  1  'x, y, z'
loop_
 _atom_site_type_symbol
 _atom_site_label
 _atom_site_symmetry_multiplicity
 _atom_site_fract_x
 _atom_site_fract_y
 _atom_site_fract_z
 _atom_site_occupancy
  Er  Er0  1  0.250489  0.250489  0.250535  1
  Er  Er1  1  0.748244  0.748244  0.748455  1
  Er  Er2  1  0.749511  0.749511  0.250535  1
  Er  Er3  1  0.748244  0.251756  0.748455  1
  Er  Er4  1  0.251756  0.251756  0.748455  1
  Er  Er5  1  0.250489  0.749511  0.250535  1
  Er  Er6  1  0.251756  0.748244  0.748455  1
  Er  Er7  1  0.749511  0.250489  0.250535  1
  Ti  Ti8  1  0.000000  0.000000  0.009005  1
  Pd  Pd9  1  0.263534  0.500000  0.999920  1
  Pd  Pd10  1  0.736466  0.500000  0.999920  1
  Pd  Pd11  1  0.000000  0.263917  0.500497  1
  Pd  Pd12  1  0.500000  0.263534  0.999920  1
  Pd  Pd13  1  0.000000  0.736083  0.500497  1
  Pd  Pd14  1  0.500000  0.736466  0.999920  1
  Pd  Pd15  1  0.500000  0.000000  0.262135  1
  Pd  Pd16  1  0.263917  0.000000  0.500497  1
  Pd  Pd17  1  0.500000  0.000000  0.735305  1
  Pd  Pd18  1  0.736083  0.000000  0.500497  1
  Pd  Pd19  1  0.000000  0.500000  0.262135  1
  Pd  Pd20  1  0.000000  0.500000  0.735305  1
  Pd  Pd21  1  0.254310  0.500000  0.499347  1
  Pd  Pd22  1  0.745690  0.500000  0.499347  1
  Pd  Pd23  1  0.500000  0.254310  0.499347  1
  Pd  Pd24  1  0.500000  0.745690  0.499347  1
  Pd  Pd25  1  0.500000  0.500000  0.254086  1
  Pd  Pd26  1  0.500000  0.500000  0.745552  1
  Pd  Pd27  1  0.000000  0.000000  0.705958  1
  Pt  Pt28  1  0.298118  0.000000  0.997588  1
  Pt  Pt29  1  0.701882  0.000000  0.997588  1
  Pt  Pt30  1  0.000000  0.298118  0.997588  1
  Pt  Pt31  1  0.000000  0.701882  0.997588  1
  Pt  Pt32  1  0.000000  0.000000  0.305148  1
