# generated using pymatgen
data_PrCr2AgO8
_symmetry_space_group_name_H-M   'P 1'
_cell_length_a   6.17392072
_cell_length_b   6.17392034
_cell_length_c   6.17392083
_cell_angle_alpha   106.09844735
_cell_angle_beta   106.09845176
_cell_angle_gamma   116.45038571
_symmetry_Int_Tables_number   1
_chemical_formula_structural   PrCr2AgO8
_chemical_formula_sum   'Pr1 Cr2 Ag1 O8'
_cell_volume   179.11998500
_cell_formula_units_Z   1
loop_
 _symmetry_equiv_pos_site_id
 _symmetry_equiv_pos_as_xyz
  1  'x, y, z'
loop_
 _atom_site_type_symbol
 _atom_site_label
 _atom_site_symmetry_multiplicity
 _atom_site_fract_x
 _atom_site_fract_y
 _atom_site_fract_z
 _atom_site_occupancy
  Pr  Pr0  1  0.250000  0.750000  0.500000  1
  Cr  Cr1  1  0.750000  0.250000  0.500000  1
  Cr  Cr2  1  0.500000  0.500000  0.000000  1
  Ag  Ag3  1  0.000000  0.000000  0.000000  1
  O  O4  1  0.350771  0.533372  0.182601  1
  O  O5  1  0.412228  0.087724  0.324505  1
  O  O6  1  0.763219  0.087724  0.675495  1
  O  O7  1  0.350771  0.168169  0.817399  1
  O  O8  1  0.831831  0.649229  0.182601  1
  O  O9  1  0.912276  0.236781  0.324505  1
  O  O10  1  0.912276  0.587772  0.675495  1
  O  O11  1  0.466628  0.649229  0.817399  1
