# generated using pymatgen
data_Y3Ho3TcSb2
_symmetry_space_group_name_H-M   'P 1'
_cell_length_a   8.17874800
_cell_length_b   8.17874790
_cell_length_c   4.25353300
_cell_angle_alpha   90.00000000
_cell_angle_beta   90.00000000
_cell_angle_gamma   119.99999232
_symmetry_Int_Tables_number   1
_chemical_formula_structural   Y3Ho3TcSb2
_chemical_formula_sum   'Y3 Ho3 Tc1 Sb2'
_cell_volume   246.40761246
_cell_formula_units_Z   1
loop_
 _symmetry_equiv_pos_site_id
 _symmetry_equiv_pos_as_xyz
  1  'x, y, z'
loop_
 _atom_site_type_symbol
 _atom_site_label
 _atom_site_symmetry_multiplicity
 _atom_site_fract_x
 _atom_site_fract_y
 _atom_site_fract_z
 _atom_site_occupancy
  Y  Y0  1  0.601962  0.000000  0.500000  1
  Y  Y1  1  0.398038  0.398038  0.500000  1
  Y  Y2  1  0.000000  0.601962  0.500000  1
  Ho  Ho3  1  0.234559  0.000000  0.000000  1
  Ho  Ho4  1  0.765441  0.765441  0.000000  1
  Ho  Ho5  1  0.000000  0.234559  0.000000  1
  Tc  Tc6  1  0.000000  0.000000  0.500000  1
  Sb  Sb7  1  0.333333  0.666667  0.000000  1
  Sb  Sb8  1  0.666667  0.333333  0.000000  1
