# generated using pymatgen
data_La3Er5(TmBi)12
_symmetry_space_group_name_H-M   'P 1'
_cell_length_a   8.30554046
_cell_length_b   9.50548200
_cell_length_c   12.16443100
_cell_angle_alpha   90.00000000
_cell_angle_beta   89.98101532
_cell_angle_gamma   90.00000000
_symmetry_Int_Tables_number   1
_chemical_formula_structural   La3Er5(TmBi)12
_chemical_formula_sum   'La3 Er5 Tm12 Bi12'
_cell_volume   960.35945670
_cell_formula_units_Z   1
loop_
 _symmetry_equiv_pos_site_id
 _symmetry_equiv_pos_as_xyz
  1  'x, y, z'
loop_
 _atom_site_type_symbol
 _atom_site_label
 _atom_site_symmetry_multiplicity
 _atom_site_fract_x
 _atom_site_fract_y
 _atom_site_fract_z
 _atom_site_occupancy
  La  La0  1  0.182659  0.750000  0.720443  1
  La  La1  1  0.683377  0.750000  0.779065  1
  La  La2  1  0.816418  0.250000  0.279729  1
  Er  Er3  1  0.314922  0.250000  0.218027  1
  Er  Er4  1  0.352127  0.750000  0.218337  1
  Er  Er5  1  0.853053  0.750000  0.280395  1
  Er  Er6  1  0.647535  0.250000  0.783271  1
  Er  Er7  1  0.149344  0.250000  0.717741  1
  Tm  Tm8  1  0.023622  0.750000  0.990187  1
  Tm  Tm9  1  0.521015  0.750000  0.510291  1
  Tm  Tm10  1  0.977893  0.250000  0.013359  1
  Tm  Tm11  1  0.477283  0.250000  0.488011  1
  Tm  Tm12  1  0.307786  0.433710  0.940026  1
  Tm  Tm13  1  0.809627  0.067114  0.560758  1
  Tm  Tm14  1  0.692644  0.933890  0.061138  1
  Tm  Tm15  1  0.190234  0.566140  0.437621  1
  Tm  Tm16  1  0.692644  0.566110  0.061138  1
  Tm  Tm17  1  0.190234  0.933860  0.437621  1
  Tm  Tm18  1  0.307786  0.066290  0.940026  1
  Tm  Tm19  1  0.809627  0.432886  0.560758  1
  Bi  Bi20  1  0.435227  0.010468  0.670046  1
  Bi  Bi21  1  0.934935  0.489027  0.830926  1
  Bi  Bi22  1  0.560500  0.507065  0.328098  1
  Bi  Bi23  1  0.070877  0.993014  0.171361  1
  Bi  Bi24  1  0.560500  0.992935  0.328098  1
  Bi  Bi25  1  0.070877  0.506986  0.171361  1
  Bi  Bi26  1  0.435227  0.489532  0.670046  1
  Bi  Bi27  1  0.934935  0.010973  0.830926  1
  Bi  Bi28  1  0.403745  0.750000  0.964605  1
  Bi  Bi29  1  0.901850  0.750000  0.534615  1
  Bi  Bi30  1  0.591583  0.250000  0.039823  1
  Bi  Bi31  1  0.099917  0.250000  0.462156  1
