# generated using pymatgen
data_NaY2(B3Ir4)2
_symmetry_space_group_name_H-M   'P 1'
_cell_length_a   9.90186002
_cell_length_b   9.05251486
_cell_length_c   5.60882558
_cell_angle_alpha   81.30005929
_cell_angle_beta   64.64938151
_cell_angle_gamma   34.05054724
_symmetry_Int_Tables_number   1
_chemical_formula_structural   NaY2(B3Ir4)2
_chemical_formula_sum   'Na1 Y2 B6 Ir8'
_cell_volume   232.92092254
_cell_formula_units_Z   1
loop_
 _symmetry_equiv_pos_site_id
 _symmetry_equiv_pos_as_xyz
  1  'x, y, z'
loop_
 _atom_site_type_symbol
 _atom_site_label
 _atom_site_symmetry_multiplicity
 _atom_site_fract_x
 _atom_site_fract_y
 _atom_site_fract_z
 _atom_site_occupancy
  Na  Na0  1  0.183881  0.183881  0.816119  1
  Y  Y1  1  0.008063  0.008063  0.991937  1
  Y  Y2  1  0.820217  0.820217  0.179783  1
  B  B3  1  0.826864  0.517499  0.482501  1
  B  B4  1  0.170316  0.478796  0.521204  1
  B  B5  1  0.478796  0.170316  0.829684  1
  B  B6  1  0.668700  0.330055  0.669945  1
  B  B7  1  0.517499  0.826864  0.173136  1
  B  B8  1  0.330055  0.668700  0.331300  1
  Ir  Ir9  1  0.412697  0.412697  0.587303  1
  Ir  Ir10  1  0.585678  0.585678  0.914322  1
  Ir  Ir11  1  0.085678  0.085678  0.414322  1
  Ir  Ir12  1  0.914655  0.914655  0.585345  1
  Ir  Ir13  1  0.585056  0.585056  0.414944  1
  Ir  Ir14  1  0.248594  0.248594  0.251406  1
  Ir  Ir15  1  0.414655  0.414655  0.085345  1
  Ir  Ir16  1  0.748594  0.748594  0.751406  1
