# generated using pymatgen
data_Dy2Y(Ga2Si)2
_symmetry_space_group_name_H-M   'P 1'
_cell_length_a   4.07295572
_cell_length_b   4.14971657
_cell_length_c   21.76819706
_cell_angle_alpha   84.57187116
_cell_angle_beta   84.64670674
_cell_angle_gamma   89.99468366
_symmetry_Int_Tables_number   1
_chemical_formula_structural   Dy2Y(Ga2Si)2
_chemical_formula_sum   'Dy4 Y2 Ga8 Si4'
_cell_volume   364.65605738
_cell_formula_units_Z   2
loop_
 _symmetry_equiv_pos_site_id
 _symmetry_equiv_pos_as_xyz
  1  'x, y, z'
loop_
 _atom_site_type_symbol
 _atom_site_label
 _atom_site_symmetry_multiplicity
 _atom_site_fract_x
 _atom_site_fract_y
 _atom_site_fract_z
 _atom_site_occupancy
  Dy  Dy0  1  0.623998  0.373562  0.752997  1
  Dy  Dy1  1  0.376397  0.626986  0.245992  1
  Dy  Dy2  1  0.708651  0.959302  0.581259  1
  Dy  Dy3  1  0.040805  0.291237  0.917265  1
  Y  Y4  1  0.958732  0.708568  0.083557  1
  Y  Y5  1  0.291227  0.040756  0.418775  1
  Ga  Ga6  1  0.819832  0.570202  0.359887  1
  Ga  Ga7  1  0.152528  0.902811  0.694541  1
  Ga  Ga8  1  0.431435  0.181392  0.137057  1
  Ga  Ga9  1  0.764100  0.514493  0.471031  1
  Ga  Ga10  1  0.096833  0.847076  0.805624  1
  Ga  Ga11  1  0.847795  0.097604  0.304449  1
  Ga  Ga12  1  0.180516  0.430285  0.639085  1
  Ga  Ga13  1  0.513276  0.763634  0.972728  1
  Si  Si14  1  0.903052  0.152620  0.194954  1
  Si  Si15  1  0.235786  0.485128  0.529572  1
  Si  Si16  1  0.568670  0.818186  0.863442  1
  Si  Si17  1  0.486371  0.236161  0.027782  1
