# generated using pymatgen
data_Lu5P12Ru18Pt
_symmetry_space_group_name_H-M   'P 1'
_cell_length_a   12.53451251
_cell_length_b   12.42573111
_cell_length_c   3.96289800
_cell_angle_alpha   90.00000000
_cell_angle_beta   90.00000000
_cell_angle_gamma   119.71332476
_symmetry_Int_Tables_number   1
_chemical_formula_structural   Lu5P12Ru18Pt
_chemical_formula_sum   'Lu5 P12 Ru18 Pt1'
_cell_volume   536.06845360
_cell_formula_units_Z   1
loop_
 _symmetry_equiv_pos_site_id
 _symmetry_equiv_pos_as_xyz
  1  'x, y, z'
loop_
 _atom_site_type_symbol
 _atom_site_label
 _atom_site_symmetry_multiplicity
 _atom_site_fract_x
 _atom_site_fract_y
 _atom_site_fract_z
 _atom_site_occupancy
  Lu  Lu0  1  0.000000  0.182007  0.500000  1
  Lu  Lu1  1  0.817024  0.816545  0.500000  1
  Lu  Lu2  1  0.182976  0.999521  0.500000  1
  Lu  Lu3  1  0.660403  0.329247  0.000000  1
  Lu  Lu4  1  0.339597  0.668845  0.000000  1
  P  P5  1  0.000000  0.813107  0.000000  1
  P  P6  1  0.181300  0.182764  0.000000  1
  P  P7  1  0.818700  0.001465  0.000000  1
  P  P8  1  0.692235  0.173016  0.500000  1
  P  P9  1  0.817988  0.518107  0.500000  1
  P  P10  1  0.474744  0.306769  0.500000  1
  P  P11  1  0.182012  0.700119  0.500000  1
  P  P12  1  0.525256  0.832025  0.500000  1
  P  P13  1  0.307765  0.480780  0.500000  1
  P  P14  1  0.000000  0.362818  0.000000  1
  P  P15  1  0.627941  0.628151  0.000000  1
  P  P16  1  0.372059  0.000210  0.000000  1
  Ru  Ru17  1  0.444261  0.446565  0.000000  1
  Ru  Ru18  1  0.555739  0.002304  0.000000  1
  Ru  Ru19  1  0.000000  0.711633  0.500000  1
  Ru  Ru20  1  0.279715  0.282137  0.500000  1
  Ru  Ru21  1  0.720285  0.002422  0.500000  1
  Ru  Ru22  1  0.808268  0.186415  0.000000  1
  Ru  Ru23  1  0.814366  0.620964  0.000000  1
  Ru  Ru24  1  0.373005  0.189707  0.000000  1
  Ru  Ru25  1  0.185634  0.806598  0.000000  1
  Ru  Ru26  1  0.626995  0.816702  0.000000  1
  Ru  Ru27  1  0.191732  0.378146  0.000000  1
  Ru  Ru28  1  0.871200  0.366728  0.500000  1
  Ru  Ru29  1  0.630420  0.507986  0.500000  1
  Ru  Ru30  1  0.492621  0.129319  0.500000  1
  Ru  Ru31  1  0.369580  0.877566  0.500000  1
  Ru  Ru32  1  0.507379  0.636698  0.500000  1
  Ru  Ru33  1  0.128800  0.495529  0.500000  1
  Ru  Ru34  1  0.000000  0.997420  0.000000  1
  Pt  Pt35  1  0.000000  0.549661  0.000000  1
