# generated using pymatgen
data_Sr4AlInPt4
_symmetry_space_group_name_H-M   'P 1'
_cell_length_a   5.93890567
_cell_length_b   5.93890636
_cell_length_c   8.23224752
_cell_angle_alpha   79.70838602
_cell_angle_beta   79.70838559
_cell_angle_gamma   61.52320702
_symmetry_Int_Tables_number   1
_chemical_formula_structural   Sr4AlInPt4
_chemical_formula_sum   'Sr4 Al1 In1 Pt4'
_cell_volume   249.64897382
_cell_formula_units_Z   1
loop_
 _symmetry_equiv_pos_site_id
 _symmetry_equiv_pos_as_xyz
  1  'x, y, z'
loop_
 _atom_site_type_symbol
 _atom_site_label
 _atom_site_symmetry_multiplicity
 _atom_site_fract_x
 _atom_site_fract_y
 _atom_site_fract_z
 _atom_site_occupancy
  Sr  Sr0  1  0.512353  0.784375  0.353103  1
  Sr  Sr1  1  0.215625  0.487647  0.146897  1
  Sr  Sr2  1  0.485129  0.216009  0.648429  1
  Sr  Sr3  1  0.783991  0.514871  0.851571  1
  Al  Al4  1  0.896826  0.103174  0.250000  1
  In  In5  1  0.131917  0.868083  0.750000  1
  Pt  Pt6  1  0.262052  0.008260  0.010495  1
  Pt  Pt7  1  0.991740  0.737948  0.489505  1
  Pt  Pt8  1  0.732274  0.011906  0.016613  1
  Pt  Pt9  1  0.988094  0.267726  0.483387  1
