# generated using pymatgen
data_Ce6IrRhAu6
_symmetry_space_group_name_H-M   'P 1'
_cell_length_a   8.20519814
_cell_length_b   8.20519820
_cell_length_c   8.20519800
_cell_angle_alpha   114.31190773
_cell_angle_beta   114.31190027
_cell_angle_gamma   114.31191958
_symmetry_Int_Tables_number   1
_chemical_formula_structural   Ce6IrRhAu6
_chemical_formula_sum   'Ce6 Ir1 Rh1 Au6'
_cell_volume   327.71538173
_cell_formula_units_Z   1
loop_
 _symmetry_equiv_pos_site_id
 _symmetry_equiv_pos_as_xyz
  1  'x, y, z'
loop_
 _atom_site_type_symbol
 _atom_site_label
 _atom_site_symmetry_multiplicity
 _atom_site_fract_x
 _atom_site_fract_y
 _atom_site_fract_z
 _atom_site_occupancy
  Ce  Ce0  1  0.962456  0.608507  0.721678  1
  Ce  Ce1  1  0.721678  0.962456  0.608507  1
  Ce  Ce2  1  0.608507  0.721678  0.962456  1
  Ce  Ce3  1  0.037544  0.391493  0.278322  1
  Ce  Ce4  1  0.278322  0.037544  0.391493  1
  Ce  Ce5  1  0.391493  0.278322  0.037544  1
  Ir  Ir6  1  0.000000  0.000000  0.000000  1
  Rh  Rh7  1  0.500000  0.500000  0.500000  1
  Au  Au8  1  0.937808  0.772289  0.436988  1
  Au  Au9  1  0.436988  0.937808  0.772289  1
  Au  Au10  1  0.772289  0.436988  0.937808  1
  Au  Au11  1  0.062192  0.227711  0.563012  1
  Au  Au12  1  0.563012  0.062192  0.227711  1
  Au  Au13  1  0.227711  0.563012  0.062192  1
