# generated using pymatgen
data_Th5SiBi3
_symmetry_space_group_name_H-M   'P 1'
_cell_length_a   9.66285700
_cell_length_b   9.66285707
_cell_length_c   6.59938000
_cell_angle_alpha   90.00000000
_cell_angle_beta   90.00000000
_cell_angle_gamma   119.99999635
_symmetry_Int_Tables_number   1
_chemical_formula_structural   Th5SiBi3
_chemical_formula_sum   'Th10 Si2 Bi6'
_cell_volume   533.63571952
_cell_formula_units_Z   2
loop_
 _symmetry_equiv_pos_site_id
 _symmetry_equiv_pos_as_xyz
  1  'x, y, z'
loop_
 _atom_site_type_symbol
 _atom_site_label
 _atom_site_symmetry_multiplicity
 _atom_site_fract_x
 _atom_site_fract_y
 _atom_site_fract_z
 _atom_site_occupancy
  Th  Th0  1  0.666667  0.333333  0.500000  1
  Th  Th1  1  0.333333  0.666667  0.500000  1
  Th  Th2  1  0.333333  0.666667  0.000000  1
  Th  Th3  1  0.666667  0.333333  0.000000  1
  Th  Th4  1  0.746325  0.746325  0.250000  1
  Th  Th5  1  0.253675  0.000000  0.250000  1
  Th  Th6  1  0.000000  0.253675  0.250000  1
  Th  Th7  1  0.253675  0.253675  0.750000  1
  Th  Th8  1  0.746325  0.000000  0.750000  1
  Th  Th9  1  0.000000  0.746325  0.750000  1
  Si  Si10  1  0.000000  0.000000  0.500000  1
  Si  Si11  1  0.000000  0.000000  0.000000  1
  Bi  Bi12  1  0.390823  0.390823  0.250000  1
  Bi  Bi13  1  0.609177  0.000000  0.250000  1
  Bi  Bi14  1  0.000000  0.609177  0.250000  1
  Bi  Bi15  1  0.609177  0.609177  0.750000  1
  Bi  Bi16  1  0.390823  0.000000  0.750000  1
  Bi  Bi17  1  0.000000  0.390823  0.750000  1
