# generated using pymatgen
data_Nd12Si3AsI12
_symmetry_space_group_name_H-M   'P 1'
_cell_length_a   10.84709984
_cell_length_b   10.83615208
_cell_length_c   10.83615150
_cell_angle_alpha   109.45074839
_cell_angle_beta   109.49169050
_cell_angle_gamma   109.49168497
_symmetry_Int_Tables_number   1
_chemical_formula_structural   Nd12Si3AsI12
_chemical_formula_sum   'Nd12 Si3 As1 I12'
_cell_volume   980.23934695
_cell_formula_units_Z   1
loop_
 _symmetry_equiv_pos_site_id
 _symmetry_equiv_pos_as_xyz
  1  'x, y, z'
loop_
 _atom_site_type_symbol
 _atom_site_label
 _atom_site_symmetry_multiplicity
 _atom_site_fract_x
 _atom_site_fract_y
 _atom_site_fract_z
 _atom_site_occupancy
  Nd  Nd0  1  0.464500  0.479776  0.233991  1
  Nd  Nd1  1  0.750000  0.231950  0.268050  1
  Nd  Nd2  1  0.750000  0.018138  0.481862  1
  Nd  Nd3  1  0.231862  0.463723  0.481862  1
  Nd  Nd4  1  0.269489  0.754214  0.233991  1
  Nd  Nd5  1  0.035500  0.266009  0.020224  1
  Nd  Nd6  1  0.018050  0.036102  0.268050  1
  Nd  Nd7  1  0.484725  0.754214  0.020224  1
  Nd  Nd8  1  0.481950  0.231950  0.463898  1
  Nd  Nd9  1  0.015275  0.479776  0.745786  1
  Nd  Nd10  1  0.268138  0.018138  0.036277  1
  Nd  Nd11  1  0.230511  0.266009  0.745786  1
  Si  Si12  1  0.250000  0.249902  0.250098  1
  Si  Si13  1  0.500098  0.000197  0.250098  1
  Si  Si14  1  0.999902  0.249902  0.499803  1
  As  As15  1  0.250000  0.500000  0.000000  1
  I  I16  1  0.250000  0.756645  0.743355  1
  I  I17  1  0.513965  0.507125  0.757599  1
  I  I18  1  0.986035  0.742401  0.992875  1
  I  I19  1  0.743633  0.250474  0.757599  1
  I  I20  1  0.993355  0.986712  0.743355  1
  I  I21  1  0.250000  0.992604  0.507396  1
  I  I22  1  0.757396  0.514792  0.507396  1
  I  I23  1  0.506841  0.250474  0.992875  1
  I  I24  1  0.756367  0.742401  0.249526  1
  I  I25  1  0.742604  0.992604  0.985208  1
  I  I26  1  0.993159  0.507125  0.249526  1
  I  I27  1  0.506645  0.756645  0.513288  1
