# generated using pymatgen
data_MgU3Tc2Ge6Ru5
_symmetry_space_group_name_H-M   'P 1'
_cell_length_a   7.16476132
_cell_length_b   7.16129218
_cell_length_c   7.16129218
_cell_angle_alpha   109.64552705
_cell_angle_beta   109.29274991
_cell_angle_gamma   109.29274353
_symmetry_Int_Tables_number   1
_chemical_formula_structural   MgU3Tc2Ge6Ru5
_chemical_formula_sum   'Mg1 U3 Tc2 Ge6 Ru5'
_cell_volume   283.48727548
_cell_formula_units_Z   1
loop_
 _symmetry_equiv_pos_site_id
 _symmetry_equiv_pos_as_xyz
  1  'x, y, z'
loop_
 _atom_site_type_symbol
 _atom_site_label
 _atom_site_symmetry_multiplicity
 _atom_site_fract_x
 _atom_site_fract_y
 _atom_site_fract_z
 _atom_site_occupancy
  Mg  Mg0  1  0.500000  0.500599  0.499401  1
  U  U1  1  0.998458  0.990999  0.496174  1
  U  U2  1  0.500000  0.003511  0.996489  1
  U  U3  1  0.001542  0.503826  0.009001  1
  Tc  Tc4  1  0.750434  0.499583  0.248306  1
  Tc  Tc5  1  0.249566  0.751694  0.500417  1
  Ge  Ge6  1  0.308304  0.310902  0.004977  1
  Ge  Ge7  1  0.007258  0.307833  0.312978  1
  Ge  Ge8  1  0.992742  0.687022  0.692167  1
  Ge  Ge9  1  0.691696  0.995023  0.689098  1
  Ge  Ge10  1  0.313527  0.010403  0.310977  1
  Ge  Ge11  1  0.686473  0.689023  0.989597  1
  Ru  Ru12  1  0.752016  0.248515  0.499972  1
  Ru  Ru13  1  0.500000  0.250155  0.749845  1
  Ru  Ru14  1  0.500000  0.751129  0.248871  1
  Ru  Ru15  1  0.247984  0.500028  0.751485  1
  Ru  Ru16  1  0.000000  0.999756  0.000244  1
