# generated using pymatgen
data_Dy3Y7Si5Sb
_symmetry_space_group_name_H-M   'P 1'
_cell_length_a   8.55083200
_cell_length_b   8.59740980
_cell_length_c   6.38798000
_cell_angle_alpha   90.00214591
_cell_angle_beta   89.99990619
_cell_angle_gamma   119.82316664
_symmetry_Int_Tables_number   1
_chemical_formula_structural   Dy3Y7Si5Sb
_chemical_formula_sum   'Dy3 Y7 Si5 Sb1'
_cell_volume   407.41901205
_cell_formula_units_Z   1
loop_
 _symmetry_equiv_pos_site_id
 _symmetry_equiv_pos_as_xyz
  1  'x, y, z'
loop_
 _atom_site_type_symbol
 _atom_site_label
 _atom_site_symmetry_multiplicity
 _atom_site_fract_x
 _atom_site_fract_y
 _atom_site_fract_z
 _atom_site_occupancy
  Dy  Dy0  1  0.330973  0.656361  0.496713  1
  Dy  Dy1  1  0.330980  0.656335  0.003341  1
  Dy  Dy2  1  0.674679  0.343722  0.496760  1
  Y  Y3  1  0.989066  0.747007  0.749949  1
  Y  Y4  1  0.998120  0.243871  0.250012  1
  Y  Y5  1  0.754233  0.756154  0.250015  1
  Y  Y6  1  0.764127  0.000006  0.750028  1
  Y  Y7  1  0.242098  0.253082  0.749983  1
  Y  Y8  1  0.242641  0.999989  0.249971  1
  Y  Y9  1  0.674481  0.343465  0.003122  1
  Si  Si10  1  0.392479  0.390197  0.250203  1
  Si  Si11  1  0.002525  0.609917  0.250238  1
  Si  Si12  1  0.998737  0.393855  0.749816  1
  Si  Si13  1  0.604776  0.606216  0.749807  1
  Si  Si14  1  0.607095  0.999874  0.250146  1
  Sb  Sb15  1  0.392984  0.999950  0.749896  1
