# generated using pymatgen
data_CeY4(CoTe)2
_symmetry_space_group_name_H-M   'P 1'
_cell_length_a   7.85978258
_cell_length_b   7.85978311
_cell_length_c   14.86511589
_cell_angle_alpha   91.62601764
_cell_angle_beta   88.37398293
_cell_angle_gamma   150.34493562
_symmetry_Int_Tables_number   1
_chemical_formula_structural   CeY4(CoTe)2
_chemical_formula_sum   'Ce2 Y8 Co4 Te4'
_cell_volume   454.16321953
_cell_formula_units_Z   2
loop_
 _symmetry_equiv_pos_site_id
 _symmetry_equiv_pos_as_xyz
  1  'x, y, z'
loop_
 _atom_site_type_symbol
 _atom_site_label
 _atom_site_symmetry_multiplicity
 _atom_site_fract_x
 _atom_site_fract_y
 _atom_site_fract_z
 _atom_site_occupancy
  Ce  Ce0  1  0.952365  0.047635  0.134308  1
  Ce  Ce1  1  0.047635  0.952365  0.865692  1
  Y  Y2  1  0.038595  0.961405  0.622941  1
  Y  Y3  1  0.961405  0.038595  0.377059  1
  Y  Y4  1  0.737187  0.262813  0.630820  1
  Y  Y5  1  0.262813  0.737187  0.369180  1
  Y  Y6  1  0.256101  0.743899  0.125051  1
  Y  Y7  1  0.743899  0.256101  0.874949  1
  Y  Y8  1  0.609234  0.390766  0.250031  1
  Y  Y9  1  0.390766  0.609234  0.749969  1
  Co  Co10  1  0.417362  0.582638  0.246923  1
  Co  Co11  1  0.582638  0.417362  0.753077  1
  Co  Co12  1  0.819455  0.180545  0.245630  1
  Co  Co13  1  0.180545  0.819455  0.754370  1
  Te  Te14  1  0.616262  0.383738  0.041223  1
  Te  Te15  1  0.383738  0.616262  0.958777  1
  Te  Te16  1  0.381599  0.618401  0.540070  1
  Te  Te17  1  0.618401  0.381599  0.459930  1
