# generated using pymatgen
data_YbDyGaIr2
_symmetry_space_group_name_H-M   'P 1'
_cell_length_a   5.70536830
_cell_length_b   5.70536807
_cell_length_c   7.72310907
_cell_angle_alpha   102.31335703
_cell_angle_beta   102.31335826
_cell_angle_gamma   57.84925920
_symmetry_Int_Tables_number   1
_chemical_formula_structural   YbDyGaIr2
_chemical_formula_sum   'Yb2 Dy2 Ga2 Ir4'
_cell_volume   206.43065513
_cell_formula_units_Z   2
loop_
 _symmetry_equiv_pos_site_id
 _symmetry_equiv_pos_as_xyz
  1  'x, y, z'
loop_
 _atom_site_type_symbol
 _atom_site_label
 _atom_site_symmetry_multiplicity
 _atom_site_fract_x
 _atom_site_fract_y
 _atom_site_fract_z
 _atom_site_occupancy
  Yb  Yb0  1  0.499914  0.791316  0.645747  1
  Yb  Yb1  1  0.208684  0.500086  0.854253  1
  Dy  Dy2  1  0.792817  0.496808  0.144879  1
  Dy  Dy3  1  0.503192  0.207183  0.355120  1
  Ga  Ga4  1  0.118925  0.881075  0.249999  1
  Ga  Ga5  1  0.891463  0.108537  0.750000  1
  Ir  Ir6  1  0.287761  0.996888  0.017747  1
  Ir  Ir7  1  0.003111  0.712239  0.482253  1
  Ir  Ir8  1  0.979969  0.285837  0.507413  1
  Ir  Ir9  1  0.714162  0.020030  0.992588  1
