# generated using pymatgen
data_AcTcP2Os
_symmetry_space_group_name_H-M   'P 1'
_cell_length_a   6.28397310
_cell_length_b   6.28397240
_cell_length_c   6.28397359
_cell_angle_alpha   141.51090102
_cell_angle_beta   141.51088554
_cell_angle_gamma   55.56623781
_symmetry_Int_Tables_number   1
_chemical_formula_structural   AcTcP2Os
_chemical_formula_sum   'Ac1 Tc1 P2 Os1'
_cell_volume   95.39919984
_cell_formula_units_Z   1
loop_
 _symmetry_equiv_pos_site_id
 _symmetry_equiv_pos_as_xyz
  1  'x, y, z'
loop_
 _atom_site_type_symbol
 _atom_site_label
 _atom_site_symmetry_multiplicity
 _atom_site_fract_x
 _atom_site_fract_y
 _atom_site_fract_z
 _atom_site_occupancy
  Ac  Ac0  1  0.000000  0.000000  0.000000  1
  Tc  Tc1  1  0.250000  0.750000  0.500000  1
  P  P2  1  0.649163  0.649163  0.000000  1
  P  P3  1  0.350837  0.350837  0.000000  1
  Os  Os4  1  0.750000  0.250000  0.500000  1
