# generated using pymatgen
data_Ba8LaUSe12
_symmetry_space_group_name_H-M   'P 1'
_cell_length_a   9.11797118
_cell_length_b   9.11797030
_cell_length_c   9.11797143
_cell_angle_alpha   89.56299640
_cell_angle_beta   89.56299608
_cell_angle_gamma   89.56299884
_symmetry_Int_Tables_number   1
_chemical_formula_structural   Ba8LaUSe12
_chemical_formula_sum   'Ba8 La1 U1 Se12'
_cell_volume   757.97853873
_cell_formula_units_Z   1
loop_
 _symmetry_equiv_pos_site_id
 _symmetry_equiv_pos_as_xyz
  1  'x, y, z'
loop_
 _atom_site_type_symbol
 _atom_site_label
 _atom_site_symmetry_multiplicity
 _atom_site_fract_x
 _atom_site_fract_y
 _atom_site_fract_z
 _atom_site_occupancy
  Ba  Ba0  1  0.871822  0.622854  0.254708  1
  Ba  Ba1  1  0.254708  0.871822  0.622854  1
  Ba  Ba2  1  0.622854  0.254708  0.871822  1
  Ba  Ba3  1  0.745292  0.128178  0.377146  1
  Ba  Ba4  1  0.377146  0.745292  0.128178  1
  Ba  Ba5  1  0.128178  0.377146  0.745292  1
  Ba  Ba6  1  0.253747  0.253747  0.253747  1
  Ba  Ba7  1  0.746253  0.746253  0.746253  1
  La  La8  1  0.500000  0.500000  0.500000  1
  U  U9  1  0.000000  0.000000  0.000000  1
  Se  Se10  1  0.190613  0.565331  0.416996  1
  Se  Se11  1  0.416996  0.190613  0.565331  1
  Se  Se12  1  0.565331  0.416996  0.190613  1
  Se  Se13  1  0.927377  0.057859  0.709724  1
  Se  Se14  1  0.709724  0.927377  0.057859  1
  Se  Se15  1  0.057859  0.709724  0.927377  1
  Se  Se16  1  0.809387  0.434669  0.583004  1
  Se  Se17  1  0.583004  0.809387  0.434669  1
  Se  Se18  1  0.434669  0.583004  0.809387  1
  Se  Se19  1  0.072623  0.942141  0.290276  1
  Se  Se20  1  0.290276  0.072623  0.942141  1
  Se  Se21  1  0.942141  0.290276  0.072623  1
