# generated using pymatgen
data_Sm8Y11ScSi15Hg
_symmetry_space_group_name_H-M   'P 1'
_cell_length_a   7.46790408
_cell_length_b   7.76393837
_cell_length_c   14.79460803
_cell_angle_alpha   90.06895447
_cell_angle_beta   89.65099405
_cell_angle_gamma   90.53341423
_symmetry_Int_Tables_number   1
_chemical_formula_structural   Sm8Y11ScSi15Hg
_chemical_formula_sum   'Sm8 Y11 Sc1 Si15 Hg1'
_cell_volume   857.74285748
_cell_formula_units_Z   1
loop_
 _symmetry_equiv_pos_site_id
 _symmetry_equiv_pos_as_xyz
  1  'x, y, z'
loop_
 _atom_site_type_symbol
 _atom_site_label
 _atom_site_symmetry_multiplicity
 _atom_site_fract_x
 _atom_site_fract_y
 _atom_site_fract_z
 _atom_site_occupancy
  Sm  Sm0  1  0.018482  0.178994  0.099110  1
  Sm  Sm1  1  0.983176  0.822299  0.905650  1
  Sm  Sm2  1  0.480230  0.681790  0.903241  1
  Sm  Sm3  1  0.982581  0.827973  0.599102  1
  Sm  Sm4  1  0.516389  0.319842  0.097205  1
  Sm  Sm5  1  0.013440  0.174308  0.396284  1
  Sm  Sm6  1  0.515918  0.319096  0.397300  1
  Sm  Sm7  1  0.490595  0.685841  0.600804  1
  Y  Y8  1  0.161938  0.510209  0.754259  1
  Y  Y9  1  0.838589  0.491163  0.248973  1
  Y  Y10  1  0.337700  0.006289  0.247061  1
  Y  Y11  1  0.664410  0.988590  0.752144  1
  Y  Y12  1  0.337170  0.170525  0.626429  1
  Y  Y13  1  0.667522  0.822652  0.374235  1
  Y  Y14  1  0.169159  0.678651  0.372364  1
  Y  Y15  1  0.671907  0.820819  0.121311  1
  Y  Y16  1  0.824898  0.324948  0.623090  1
  Y  Y17  1  0.326317  0.178281  0.879994  1
  Y  Y18  1  0.826858  0.321715  0.880078  1
  Sc  Sc19  1  0.171556  0.677375  0.124806  1
  Si  Si20  1  0.036011  0.114659  0.752108  1
  Si  Si21  1  0.966474  0.886100  0.245824  1
  Si  Si22  1  0.460901  0.608679  0.244446  1
  Si  Si23  1  0.535105  0.393597  0.752792  1
  Si  Si24  1  0.276424  0.876187  0.752367  1
  Si  Si25  1  0.720539  0.124374  0.246938  1
  Si  Si26  1  0.220974  0.376232  0.245949  1
  Si  Si27  1  0.780596  0.624518  0.753099  1
  Si  Si28  1  0.834646  0.534051  0.458258  1
  Si  Si29  1  0.342763  0.967091  0.459992  1
  Si  Si30  1  0.858017  0.534125  0.041170  1
  Si  Si31  1  0.656263  0.033841  0.536855  1
  Si  Si32  1  0.154455  0.471562  0.967444  1
  Si  Si33  1  0.651209  0.030506  0.961164  1
  Si  Si34  1  0.338926  0.960235  0.040119  1
  Hg  Hg35  1  0.167864  0.462882  0.538033  1
