# generated using pymatgen
data_Ac3Nd(ZnPb)4
_symmetry_space_group_name_H-M   'P 1'
_cell_length_a   4.78402000
_cell_length_b   4.78401926
_cell_length_c   17.60795500
_cell_angle_alpha   90.00000000
_cell_angle_beta   90.00000000
_cell_angle_gamma   120.00000510
_symmetry_Int_Tables_number   1
_chemical_formula_structural   Ac3Nd(ZnPb)4
_chemical_formula_sum   'Ac3 Nd1 Zn4 Pb4'
_cell_volume   349.00000660
_cell_formula_units_Z   1
loop_
 _symmetry_equiv_pos_site_id
 _symmetry_equiv_pos_as_xyz
  1  'x, y, z'
loop_
 _atom_site_type_symbol
 _atom_site_label
 _atom_site_symmetry_multiplicity
 _atom_site_fract_x
 _atom_site_fract_y
 _atom_site_fract_z
 _atom_site_occupancy
  Ac  Ac0  1  0.000000  0.000000  0.506167  1
  Ac  Ac1  1  0.000000  0.000000  0.993833  1
  Ac  Ac2  1  0.000000  0.000000  0.250000  1
  Nd  Nd3  1  0.000000  0.000000  0.750000  1
  Zn  Zn4  1  0.333333  0.666667  0.345272  1
  Zn  Zn5  1  0.666667  0.333333  0.670680  1
  Zn  Zn6  1  0.666667  0.333333  0.829320  1
  Zn  Zn7  1  0.333333  0.666667  0.154728  1
  Pb  Pb8  1  0.333333  0.666667  0.876872  1
  Pb  Pb9  1  0.666667  0.333333  0.111784  1
  Pb  Pb10  1  0.666667  0.333333  0.388216  1
  Pb  Pb11  1  0.333333  0.666667  0.623128  1
