# generated using pymatgen
data_SrY2Tm(Ir2O7)2
_symmetry_space_group_name_H-M   'P 1'
_cell_length_a   7.27170650
_cell_length_b   7.30271525
_cell_length_c   7.27456000
_cell_angle_alpha   60.12745552
_cell_angle_beta   59.98701829
_cell_angle_gamma   60.17299010
_symmetry_Int_Tables_number   1
_chemical_formula_structural   SrY2Tm(Ir2O7)2
_chemical_formula_sum   'Sr1 Y2 Tm1 Ir4 O14'
_cell_volume   273.74858239
_cell_formula_units_Z   1
loop_
 _symmetry_equiv_pos_site_id
 _symmetry_equiv_pos_as_xyz
  1  'x, y, z'
loop_
 _atom_site_type_symbol
 _atom_site_label
 _atom_site_symmetry_multiplicity
 _atom_site_fract_x
 _atom_site_fract_y
 _atom_site_fract_z
 _atom_site_occupancy
  Sr  Sr0  1  0.125000  0.625000  0.125000  1
  Y  Y1  1  0.125000  0.125000  0.625000  1
  Y  Y2  1  0.125000  0.125000  0.125000  1
  Tm  Tm3  1  0.625000  0.125000  0.125000  1
  Ir  Ir4  1  0.125000  0.625000  0.625000  1
  Ir  Ir5  1  0.625000  0.125000  0.625000  1
  Ir  Ir6  1  0.625000  0.625000  0.125000  1
  Ir  Ir7  1  0.625000  0.625000  0.625000  1
  O  O8  1  0.689874  0.723840  0.293143  1
  O  O9  1  0.293565  0.290352  0.708041  1
  O  O10  1  0.705410  0.290364  0.711388  1
  O  O11  1  0.294294  0.720063  0.293527  1
  O  O12  1  0.294294  0.720063  0.692116  1
  O  O13  1  0.705410  0.290364  0.292838  1
  O  O14  1  0.560126  0.526160  0.956857  1
  O  O15  1  0.956435  0.959648  0.541959  1
  O  O16  1  0.544590  0.959636  0.538612  1
  O  O17  1  0.955706  0.529937  0.956473  1
  O  O18  1  0.955706  0.529937  0.557884  1
  O  O19  1  0.544590  0.959636  0.957162  1
  O  O20  1  0.261544  0.226570  0.255944  1
  O  O21  1  0.988456  0.023430  0.994056  1
