# generated using pymatgen
data_TbNd5NiBr10
_symmetry_space_group_name_H-M   'P 1'
_cell_length_a   7.54454681
_cell_length_b   9.52469905
_cell_length_c   9.56449535
_cell_angle_alpha   108.63064070
_cell_angle_beta   96.22197536
_cell_angle_gamma   105.47423405
_symmetry_Int_Tables_number   1
_chemical_formula_structural   TbNd5NiBr10
_chemical_formula_sum   'Tb1 Nd5 Ni1 Br10'
_cell_volume   613.40704676
_cell_formula_units_Z   1
loop_
 _symmetry_equiv_pos_site_id
 _symmetry_equiv_pos_as_xyz
  1  'x, y, z'
loop_
 _atom_site_type_symbol
 _atom_site_label
 _atom_site_symmetry_multiplicity
 _atom_site_fract_x
 _atom_site_fract_y
 _atom_site_fract_z
 _atom_site_occupancy
  Tb  Tb0  1  0.650756  0.872510  0.827513  1
  Nd  Nd1  1  0.127888  0.046401  0.756065  1
  Nd  Nd2  1  0.866755  0.950021  0.242781  1
  Nd  Nd3  1  0.966809  0.295817  0.095090  1
  Nd  Nd4  1  0.029673  0.702682  0.902213  1
  Nd  Nd5  1  0.356694  0.132146  0.178261  1
  Ni  Ni6  1  0.998935  0.000003  0.000602  1
  Br  Br7  1  0.549922  0.171838  0.915266  1
  Br  Br8  1  0.451888  0.822046  0.075609  1
  Br  Br9  1  0.352350  0.451825  0.265607  1
  Br  Br10  1  0.642172  0.558476  0.731048  1
  Br  Br11  1  0.243596  0.077405  0.451034  1
  Br  Br12  1  0.747485  0.916498  0.553920  1
  Br  Br13  1  0.782914  0.253731  0.348814  1
  Br  Br14  1  0.235338  0.751664  0.659933  1
  Br  Br15  1  0.083885  0.365013  0.827905  1
  Br  Br16  1  0.912941  0.631924  0.168340  1
