# generated using pymatgen
data_Cs(AuO2)2
_symmetry_space_group_name_H-M   'P 1'
_cell_length_a   7.14811803
_cell_length_b   7.14811720
_cell_length_c   7.14811709
_cell_angle_alpha   120.63027423
_cell_angle_beta   120.63027802
_cell_angle_gamma   88.91174930
_symmetry_Int_Tables_number   1
_chemical_formula_structural   Cs(AuO2)2
_chemical_formula_sum   'Cs2 Au4 O8'
_cell_volume   255.75133438
_cell_formula_units_Z   2
loop_
 _symmetry_equiv_pos_site_id
 _symmetry_equiv_pos_as_xyz
  1  'x, y, z'
loop_
 _atom_site_type_symbol
 _atom_site_label
 _atom_site_symmetry_multiplicity
 _atom_site_fract_x
 _atom_site_fract_y
 _atom_site_fract_z
 _atom_site_occupancy
  Cs  Cs0  1  0.750000  0.250000  0.500000  1
  Cs  Cs1  1  0.000000  0.000000  0.000000  1
  Au  Au2  1  0.375000  0.625000  0.750000  1
  Au  Au3  1  0.375000  0.125000  0.750000  1
  Au  Au4  1  0.875000  0.625000  0.250000  1
  Au  Au5  1  0.375000  0.625000  0.250000  1
  O  O6  1  0.059384  0.473021  0.115224  1
  O  O7  1  0.694162  0.309384  0.086364  1
  O  O8  1  0.223021  0.607798  0.913636  1
  O  O9  1  0.357798  0.944162  0.884776  1
  O  O10  1  0.690616  0.776979  0.384776  1
  O  O11  1  0.055838  0.940616  0.413636  1
  O  O12  1  0.392202  0.305838  0.615224  1
  O  O13  1  0.526979  0.642202  0.586364  1
