# generated using pymatgen
data_Pr2Al3Si2Au3
_symmetry_space_group_name_H-M   'P 1'
_cell_length_a   8.62213165
_cell_length_b   8.62213266
_cell_length_c   8.62213221
_cell_angle_alpha   137.91204461
_cell_angle_beta   103.33420918
_cell_angle_gamma   91.56164826
_symmetry_Int_Tables_number   1
_chemical_formula_structural   Pr2Al3Si2Au3
_chemical_formula_sum   'Pr4 Al6 Si4 Au6'
_cell_volume   398.23374052
_cell_formula_units_Z   2
loop_
 _symmetry_equiv_pos_site_id
 _symmetry_equiv_pos_as_xyz
  1  'x, y, z'
loop_
 _atom_site_type_symbol
 _atom_site_label
 _atom_site_symmetry_multiplicity
 _atom_site_fract_x
 _atom_site_fract_y
 _atom_site_fract_z
 _atom_site_occupancy
  Pr  Pr0  1  0.867382  0.625039  0.242344  1
  Pr  Pr1  1  0.132618  0.374961  0.757656  1
  Pr  Pr2  1  0.382695  0.125039  0.257656  1
  Pr  Pr3  1  0.617305  0.874961  0.742344  1
  Al  Al4  1  0.500000  0.750000  0.250000  1
  Al  Al5  1  0.500000  0.250000  0.750000  1
  Al  Al6  1  0.237603  0.987603  0.750000  1
  Al  Al7  1  0.762397  0.512397  0.750000  1
  Al  Al8  1  0.762397  0.012397  0.250000  1
  Al  Al9  1  0.237603  0.487603  0.250000  1
  Si  Si10  1  0.023281  0.878803  0.144480  1
  Si  Si11  1  0.976719  0.121197  0.855520  1
  Si  Si12  1  0.734323  0.378803  0.355520  1
  Si  Si13  1  0.265677  0.621197  0.644480  1
  Au  Au14  1  0.000000  0.750000  0.750000  1
  Au  Au15  1  0.000000  0.250000  0.250000  1
  Au  Au16  1  0.243723  0.868360  0.375365  1
  Au  Au17  1  0.756277  0.131640  0.624635  1
  Au  Au18  1  0.492996  0.368360  0.124635  1
  Au  Au19  1  0.507004  0.631640  0.875365  1
