# generated using pymatgen
data_Y4Co9ReSi4
_symmetry_space_group_name_H-M   'P 1'
_cell_length_a   11.43476244
_cell_length_b   11.43476217
_cell_length_c   11.43476242
_cell_angle_alpha   26.26767046
_cell_angle_beta   26.26767112
_cell_angle_gamma   26.26767081
_symmetry_Int_Tables_number   1
_chemical_formula_structural   Y4Co9ReSi4
_chemical_formula_sum   'Y4 Co9 Re1 Si4'
_cell_volume   258.04850936
_cell_formula_units_Z   1
loop_
 _symmetry_equiv_pos_site_id
 _symmetry_equiv_pos_as_xyz
  1  'x, y, z'
loop_
 _atom_site_type_symbol
 _atom_site_label
 _atom_site_symmetry_multiplicity
 _atom_site_fract_x
 _atom_site_fract_y
 _atom_site_fract_z
 _atom_site_occupancy
  Y  Y0  1  0.949831  0.949831  0.949831  1
  Y  Y1  1  0.852252  0.852252  0.852252  1
  Y  Y2  1  0.147748  0.147748  0.147748  1
  Y  Y3  1  0.050169  0.050169  0.050169  1
  Co  Co4  1  0.607465  0.607465  0.106726  1
  Co  Co5  1  0.893274  0.392535  0.392535  1
  Co  Co6  1  0.500000  0.000000  0.500000  1
  Co  Co7  1  0.392535  0.893274  0.392535  1
  Co  Co8  1  0.500000  0.500000  0.000000  1
  Co  Co9  1  0.106726  0.607465  0.607465  1
  Co  Co10  1  0.000000  0.500000  0.500000  1
  Co  Co11  1  0.392535  0.392535  0.893274  1
  Co  Co12  1  0.607465  0.106726  0.607465  1
  Re  Re13  1  0.500000  0.500000  0.500000  1
  Si  Si14  1  0.280092  0.280092  0.280092  1
  Si  Si15  1  0.387148  0.387148  0.387148  1
  Si  Si16  1  0.719908  0.719908  0.719908  1
  Si  Si17  1  0.612852  0.612852  0.612852  1
