# generated using pymatgen
data_Hf4Ta5TcN12
_symmetry_space_group_name_H-M   'P 1'
_cell_length_a   5.25998302
_cell_length_b   5.25998485
_cell_length_c   10.61941800
_cell_angle_alpha   90.00000000
_cell_angle_beta   90.00000000
_cell_angle_gamma   120.01096870
_symmetry_Int_Tables_number   1
_chemical_formula_structural   Hf4Ta5TcN12
_chemical_formula_sum   'Hf4 Ta5 Tc1 N12'
_cell_volume   254.42054071
_cell_formula_units_Z   1
loop_
 _symmetry_equiv_pos_site_id
 _symmetry_equiv_pos_as_xyz
  1  'x, y, z'
loop_
 _atom_site_type_symbol
 _atom_site_label
 _atom_site_symmetry_multiplicity
 _atom_site_fract_x
 _atom_site_fract_y
 _atom_site_fract_z
 _atom_site_occupancy
  Hf  Hf0  1  0.667759  0.335128  0.004788  1
  Hf  Hf1  1  0.335128  0.667759  0.004788  1
  Hf  Hf2  1  0.335128  0.667759  0.495212  1
  Hf  Hf3  1  0.667759  0.335128  0.495212  1
  Ta  Ta4  1  0.322529  0.998110  0.750000  1
  Ta  Ta5  1  0.998110  0.322529  0.750000  1
  Ta  Ta6  1  0.323724  0.323724  0.250000  1
  Ta  Ta7  1  0.675868  0.000367  0.250000  1
  Ta  Ta8  1  0.000367  0.675868  0.250000  1
  Tc  Tc9  1  0.673823  0.673823  0.750000  1
  N  N10  1  0.659068  0.659068  0.375915  1
  N  N11  1  0.341832  0.000557  0.375513  1
  N  N12  1  0.000557  0.341832  0.375513  1
  N  N13  1  0.340266  0.340266  0.628508  1
  N  N14  1  0.654100  0.004079  0.628630  1
  N  N15  1  0.004079  0.654100  0.628630  1
  N  N16  1  0.340266  0.340266  0.871492  1
  N  N17  1  0.654100  0.004079  0.871370  1
  N  N18  1  0.004079  0.654100  0.871370  1
  N  N19  1  0.659068  0.659068  0.124085  1
  N  N20  1  0.341832  0.000557  0.124487  1
  N  N21  1  0.000557  0.341832  0.124487  1
