# generated using pymatgen
data_Tb7YPd24Pb
_symmetry_space_group_name_H-M   'P 1'
_cell_length_a   8.44727200
_cell_length_b   8.44727200
_cell_length_c   8.44727200
_cell_angle_alpha   89.99963373
_cell_angle_beta   89.99963373
_cell_angle_gamma   89.99963373
_symmetry_Int_Tables_number   1
_chemical_formula_structural   Tb7YPd24Pb
_chemical_formula_sum   'Tb7 Y1 Pd24 Pb1'
_cell_volume   602.76695556
_cell_formula_units_Z   1
loop_
 _symmetry_equiv_pos_site_id
 _symmetry_equiv_pos_as_xyz
  1  'x, y, z'
loop_
 _atom_site_type_symbol
 _atom_site_label
 _atom_site_symmetry_multiplicity
 _atom_site_fract_x
 _atom_site_fract_y
 _atom_site_fract_z
 _atom_site_occupancy
  Tb  Tb0  1  0.747249  0.747249  0.747249  1
  Tb  Tb1  1  0.747319  0.747319  0.252709  1
  Tb  Tb2  1  0.747319  0.252709  0.747319  1
  Tb  Tb3  1  0.252700  0.252700  0.747300  1
  Tb  Tb4  1  0.252700  0.747300  0.252700  1
  Tb  Tb5  1  0.252709  0.747319  0.747319  1
  Tb  Tb6  1  0.747300  0.252700  0.252700  1
  Y  Y7  1  0.252563  0.252563  0.252563  1
  Pd  Pd8  1  0.267540  0.500008  0.000016  1
  Pd  Pd9  1  0.732459  0.500011  0.000001  1
  Pd  Pd10  1  0.000016  0.267540  0.500008  1
  Pd  Pd11  1  0.500008  0.267540  0.000016  1
  Pd  Pd12  1  0.000001  0.732459  0.500011  1
  Pd  Pd13  1  0.500011  0.732459  0.000001  1
  Pd  Pd14  1  0.500008  0.000016  0.267540  1
  Pd  Pd15  1  0.267540  0.000016  0.500008  1
  Pd  Pd16  1  0.500011  0.000001  0.732459  1
  Pd  Pd17  1  0.732459  0.000001  0.500011  1
  Pd  Pd18  1  0.000016  0.500008  0.267540  1
  Pd  Pd19  1  0.000001  0.500011  0.732459  1
  Pd  Pd20  1  0.255600  0.500001  0.500001  1
  Pd  Pd21  1  0.744388  0.500000  0.500000  1
  Pd  Pd22  1  0.500001  0.255600  0.500001  1
  Pd  Pd23  1  0.500000  0.744388  0.500000  1
  Pd  Pd24  1  0.500001  0.500001  0.255600  1
  Pd  Pd25  1  0.500000  0.500000  0.744388  1
  Pd  Pd26  1  0.316307  0.000034  0.000034  1
  Pd  Pd27  1  0.683679  0.000008  0.000008  1
  Pd  Pd28  1  0.000034  0.316307  0.000034  1
  Pd  Pd29  1  0.000008  0.683679  0.000008  1
  Pd  Pd30  1  0.000034  0.000034  0.316307  1
  Pd  Pd31  1  0.000008  0.000008  0.683679  1
  Pb  Pb32  1  0.000008  0.000008  0.000008  1
