# generated using pymatgen
data_PrNdAl8(SiAu2)2
_symmetry_space_group_name_H-M   'P 1'
_cell_length_a   6.10383300
_cell_length_b   6.10383300
_cell_length_c   8.27322200
_cell_angle_alpha   90.00000000
_cell_angle_beta   90.00000000
_cell_angle_gamma   90.00000000
_symmetry_Int_Tables_number   1
_chemical_formula_structural   PrNdAl8(SiAu2)2
_chemical_formula_sum   'Pr1 Nd1 Al8 Si2 Au4'
_cell_volume   308.23358954
_cell_formula_units_Z   1
loop_
 _symmetry_equiv_pos_site_id
 _symmetry_equiv_pos_as_xyz
  1  'x, y, z'
loop_
 _atom_site_type_symbol
 _atom_site_label
 _atom_site_symmetry_multiplicity
 _atom_site_fract_x
 _atom_site_fract_y
 _atom_site_fract_z
 _atom_site_occupancy
  Pr  Pr0  1  0.750000  0.250000  0.500000  1
  Nd  Nd1  1  0.250000  0.750000  0.500000  1
  Al  Al2  1  0.501239  0.501361  0.178556  1
  Al  Al3  1  0.998761  0.501361  0.178556  1
  Al  Al4  1  0.501239  0.998639  0.178556  1
  Al  Al5  1  0.998761  0.998639  0.178556  1
  Al  Al6  1  0.001361  0.001239  0.821443  1
  Al  Al7  1  0.498639  0.001239  0.821443  1
  Al  Al8  1  0.001361  0.498761  0.821443  1
  Al  Al9  1  0.498639  0.498761  0.821443  1
  Si  Si10  1  0.750000  0.750000  0.353186  1
  Si  Si11  1  0.250000  0.250000  0.646815  1
  Au  Au12  1  0.750000  0.250000  0.000000  1
  Au  Au13  1  0.250000  0.750000  0.000000  1
  Au  Au14  1  0.250000  0.250000  0.348530  1
  Au  Au15  1  0.750000  0.750000  0.651471  1
