# generated using pymatgen
data_Er5CoRuO12
_symmetry_space_group_name_H-M   'P 1'
_cell_length_a   6.74921973
_cell_length_b   6.74922094
_cell_length_c   7.17808529
_cell_angle_alpha   74.48195552
_cell_angle_beta   74.48195263
_cell_angle_gamma   50.90143239
_symmetry_Int_Tables_number   1
_chemical_formula_structural   Er5CoRuO12
_chemical_formula_sum   'Er5 Co1 Ru1 O12'
_cell_volume   242.35917649
_cell_formula_units_Z   1
loop_
 _symmetry_equiv_pos_site_id
 _symmetry_equiv_pos_as_xyz
  1  'x, y, z'
loop_
 _atom_site_type_symbol
 _atom_site_label
 _atom_site_symmetry_multiplicity
 _atom_site_fract_x
 _atom_site_fract_y
 _atom_site_fract_z
 _atom_site_occupancy
  Er  Er0  1  0.685810  0.693634  0.669194  1
  Er  Er1  1  0.680148  0.712646  0.142043  1
  Er  Er2  1  0.996716  0.003284  0.000000  1
  Er  Er3  1  0.287354  0.319852  0.857957  1
  Er  Er4  1  0.306366  0.314190  0.330806  1
  Co  Co5  1  0.259077  0.740923  0.500000  1
  Ru  Ru6  1  0.769936  0.230064  0.500000  1
  O  O7  1  0.397682  0.911940  0.922413  1
  O  O8  1  0.575054  0.102855  0.583051  1
  O  O9  1  0.897145  0.424946  0.416949  1
  O  O10  1  0.088060  0.602318  0.077587  1
  O  O11  1  0.015577  0.984172  0.322701  1
  O  O12  1  0.503069  0.496772  0.683917  1
  O  O13  1  0.894336  0.403882  0.929667  1
  O  O14  1  0.097100  0.568604  0.582994  1
  O  O15  1  0.431396  0.902900  0.417006  1
  O  O16  1  0.596118  0.105664  0.070333  1
  O  O17  1  0.503228  0.496931  0.316083  1
  O  O18  1  0.015828  0.984423  0.677299  1
