# generated using pymatgen
data_CeEr11Tc4
_symmetry_space_group_name_H-M   'P 1'
_cell_length_a   6.23813681
_cell_length_b   7.32192403
_cell_length_c   9.16687000
_cell_angle_alpha   90.00000000
_cell_angle_beta   90.00000000
_cell_angle_gamma   91.18117188
_symmetry_Int_Tables_number   1
_chemical_formula_structural   CeEr11Tc4
_chemical_formula_sum   'Ce1 Er11 Tc4'
_cell_volume   418.60931982
_cell_formula_units_Z   1
loop_
 _symmetry_equiv_pos_site_id
 _symmetry_equiv_pos_as_xyz
  1  'x, y, z'
loop_
 _atom_site_type_symbol
 _atom_site_label
 _atom_site_symmetry_multiplicity
 _atom_site_fract_x
 _atom_site_fract_y
 _atom_site_fract_z
 _atom_site_occupancy
  Ce  Ce0  1  0.357005  0.560158  0.250000  1
  Er  Er1  1  0.663726  0.177001  0.061226  1
  Er  Er2  1  0.124007  0.041461  0.250000  1
  Er  Er3  1  0.835497  0.674215  0.439785  1
  Er  Er4  1  0.332956  0.825002  0.933202  1
  Er  Er5  1  0.167441  0.323613  0.565661  1
  Er  Er6  1  0.663726  0.177001  0.438774  1
  Er  Er7  1  0.167441  0.323613  0.934339  1
  Er  Er8  1  0.332956  0.825002  0.566798  1
  Er  Er9  1  0.872966  0.958784  0.750000  1
  Er  Er10  1  0.626542  0.460492  0.750000  1
  Er  Er11  1  0.835497  0.674215  0.060215  1
  Tc  Tc12  1  0.002591  0.391180  0.250000  1
  Tc  Tc13  1  0.464928  0.114121  0.750000  1
  Tc  Tc14  1  0.517968  0.861035  0.250000  1
  Tc  Tc15  1  0.034750  0.613109  0.750000  1
