# generated using pymatgen
data_Tb7Dy5TcOs3
_symmetry_space_group_name_H-M   'P 1'
_cell_length_a   6.32746833
_cell_length_b   7.42422692
_cell_length_c   9.13781848
_cell_angle_alpha   90.01548963
_cell_angle_beta   90.03362738
_cell_angle_gamma   90.06434621
_symmetry_Int_Tables_number   1
_chemical_formula_structural   Tb7Dy5TcOs3
_chemical_formula_sum   'Tb7 Dy5 Tc1 Os3'
_cell_volume   429.26292371
_cell_formula_units_Z   1
loop_
 _symmetry_equiv_pos_site_id
 _symmetry_equiv_pos_as_xyz
  1  'x, y, z'
loop_
 _atom_site_type_symbol
 _atom_site_label
 _atom_site_symmetry_multiplicity
 _atom_site_fract_x
 _atom_site_fract_y
 _atom_site_fract_z
 _atom_site_occupancy
  Tb  Tb0  1  0.334200  0.674638  0.063150  1
  Tb  Tb1  1  0.166668  0.175074  0.436305  1
  Tb  Tb2  1  0.668288  0.324846  0.563401  1
  Tb  Tb3  1  0.870584  0.540229  0.249904  1
  Tb  Tb4  1  0.627952  0.039909  0.249836  1
  Tb  Tb5  1  0.131405  0.459310  0.750121  1
  Tb  Tb6  1  0.368453  0.959926  0.750129  1
  Dy  Dy7  1  0.833183  0.825255  0.936027  1
  Dy  Dy8  1  0.668502  0.324829  0.936655  1
  Dy  Dy9  1  0.833100  0.825014  0.564001  1
  Dy  Dy10  1  0.334197  0.674547  0.436779  1
  Dy  Dy11  1  0.166622  0.174980  0.063483  1
  Tc  Tc12  1  0.038958  0.884658  0.250082  1
  Os  Os13  1  0.458869  0.384014  0.249656  1
  Os  Os14  1  0.958177  0.116559  0.750588  1
  Os  Os15  1  0.540843  0.616210  0.749882  1
