# generated using pymatgen
data_La8ZnCdPd23
_symmetry_space_group_name_H-M   'P 1'
_cell_length_a   8.51009000
_cell_length_b   8.63710900
_cell_length_c   8.63710900
_cell_angle_alpha   90.00000000
_cell_angle_beta   90.00000000
_cell_angle_gamma   90.00000000
_symmetry_Int_Tables_number   1
_chemical_formula_structural   La8ZnCdPd23
_chemical_formula_sum   'La8 Zn1 Cd1 Pd23'
_cell_volume   634.84975145
_cell_formula_units_Z   1
loop_
 _symmetry_equiv_pos_site_id
 _symmetry_equiv_pos_as_xyz
  1  'x, y, z'
loop_
 _atom_site_type_symbol
 _atom_site_label
 _atom_site_symmetry_multiplicity
 _atom_site_fract_x
 _atom_site_fract_y
 _atom_site_fract_z
 _atom_site_occupancy
  La  La0  1  0.250123  0.240662  0.240662  1
  La  La1  1  0.748876  0.748343  0.748343  1
  La  La2  1  0.748876  0.748343  0.251657  1
  La  La3  1  0.748876  0.251657  0.748343  1
  La  La4  1  0.250123  0.240662  0.759338  1
  La  La5  1  0.250123  0.759338  0.240662  1
  La  La6  1  0.250123  0.759338  0.759338  1
  La  La7  1  0.748876  0.251657  0.251657  1
  Zn  Zn8  1  0.998259  0.000000  0.000000  1
  Cd  Cd9  1  0.257245  0.500000  0.500000  1
  Pd  Pd10  1  0.261019  0.500000  0.000000  1
  Pd  Pd11  1  0.738466  0.500000  0.000000  1
  Pd  Pd12  1  0.003530  0.260053  0.500000  1
  Pd  Pd13  1  0.501642  0.262862  0.000000  1
  Pd  Pd14  1  0.003530  0.739947  0.500000  1
  Pd  Pd15  1  0.501642  0.737138  0.000000  1
  Pd  Pd16  1  0.501642  0.000000  0.262862  1
  Pd  Pd17  1  0.261019  0.000000  0.500000  1
  Pd  Pd18  1  0.501642  0.000000  0.737138  1
  Pd  Pd19  1  0.738466  0.000000  0.500000  1
  Pd  Pd20  1  0.003530  0.500000  0.260053  1
  Pd  Pd21  1  0.003530  0.500000  0.739947  1
  Pd  Pd22  1  0.746123  0.500000  0.500000  1
  Pd  Pd23  1  0.496813  0.251842  0.500000  1
  Pd  Pd24  1  0.496813  0.748158  0.500000  1
  Pd  Pd25  1  0.496813  0.500000  0.251842  1
  Pd  Pd26  1  0.496813  0.500000  0.748158  1
  Pd  Pd27  1  0.300242  0.000000  0.000000  1
  Pd  Pd28  1  0.701852  0.000000  0.000000  1
  Pd  Pd29  1  0.998343  0.296240  0.000000  1
  Pd  Pd30  1  0.998343  0.703760  0.000000  1
  Pd  Pd31  1  0.998343  0.000000  0.296240  1
  Pd  Pd32  1  0.998343  0.000000  0.703760  1
