# generated using pymatgen
data_CePu3Al8
_symmetry_space_group_name_H-M   'P 1'
_cell_length_a   9.52579124
_cell_length_b   9.52579104
_cell_length_c   9.52579100
_cell_angle_alpha   33.63179688
_cell_angle_beta   33.63179872
_cell_angle_gamma   33.63179986
_symmetry_Int_Tables_number   1
_chemical_formula_structural   CePu3Al8
_chemical_formula_sum   'Ce1 Pu3 Al8'
_cell_volume   236.20522818
_cell_formula_units_Z   1
loop_
 _symmetry_equiv_pos_site_id
 _symmetry_equiv_pos_as_xyz
  1  'x, y, z'
loop_
 _atom_site_type_symbol
 _atom_site_label
 _atom_site_symmetry_multiplicity
 _atom_site_fract_x
 _atom_site_fract_y
 _atom_site_fract_z
 _atom_site_occupancy
  Ce  Ce0  1  0.874511  0.874511  0.874511  1
  Pu  Pu1  1  0.375337  0.375337  0.375337  1
  Pu  Pu2  1  0.000904  0.000904  0.000904  1
  Pu  Pu3  1  0.498875  0.498875  0.498875  1
  Al  Al4  1  0.437949  0.937408  0.437949  1
  Al  Al5  1  0.937537  0.437040  0.937537  1
  Al  Al6  1  0.437949  0.437949  0.937408  1
  Al  Al7  1  0.937537  0.937537  0.437040  1
  Al  Al8  1  0.187475  0.187475  0.187475  1
  Al  Al9  1  0.687475  0.687475  0.687475  1
  Al  Al10  1  0.937408  0.437949  0.437949  1
  Al  Al11  1  0.437040  0.937537  0.937537  1
