# generated using pymatgen
data_Ba3TbPrS6
_symmetry_space_group_name_H-M   'P 1'
_cell_length_a   8.60512198
_cell_length_b   8.60512136
_cell_length_c   8.60512200
_cell_angle_alpha   92.04171775
_cell_angle_beta   92.04172426
_cell_angle_gamma   92.04171003
_symmetry_Int_Tables_number   1
_chemical_formula_structural   Ba3TbPrS6
_chemical_formula_sum   'Ba6 Tb2 Pr2 S12'
_cell_volume   635.94989281
_cell_formula_units_Z   2
loop_
 _symmetry_equiv_pos_site_id
 _symmetry_equiv_pos_as_xyz
  1  'x, y, z'
loop_
 _atom_site_type_symbol
 _atom_site_label
 _atom_site_symmetry_multiplicity
 _atom_site_fract_x
 _atom_site_fract_y
 _atom_site_fract_z
 _atom_site_occupancy
  Ba  Ba0  1  0.373833  0.750000  0.126167  1
  Ba  Ba1  1  0.126167  0.373833  0.750000  1
  Ba  Ba2  1  0.750000  0.126167  0.373833  1
  Ba  Ba3  1  0.626167  0.250000  0.873833  1
  Ba  Ba4  1  0.873833  0.626167  0.250000  1
  Ba  Ba5  1  0.250000  0.873833  0.626167  1
  Tb  Tb6  1  0.500000  0.500000  0.500000  1
  Tb  Tb7  1  0.000000  0.000000  0.000000  1
  Pr  Pr8  1  0.250000  0.250000  0.250000  1
  Pr  Pr9  1  0.750000  0.750000  0.750000  1
  S  S10  1  0.544250  0.408174  0.198722  1
  S  S11  1  0.198722  0.544250  0.408174  1
  S  S12  1  0.408174  0.198722  0.544250  1
  S  S13  1  0.955750  0.301278  0.091826  1
  S  S14  1  0.091826  0.955750  0.301278  1
  S  S15  1  0.301278  0.091826  0.955750  1
  S  S16  1  0.455750  0.591826  0.801278  1
  S  S17  1  0.801278  0.455750  0.591826  1
  S  S18  1  0.591826  0.801278  0.455750  1
  S  S19  1  0.044250  0.698722  0.908174  1
  S  S20  1  0.698722  0.908174  0.044250  1
  S  S21  1  0.908174  0.044250  0.698722  1
