# generated using pymatgen
data_La2Pr4BiO12
_symmetry_space_group_name_H-M   'P 1'
_cell_length_a   6.87449418
_cell_length_b   6.90143856
_cell_length_c   6.88913027
_cell_angle_alpha   99.00902349
_cell_angle_beta   98.78286197
_cell_angle_gamma   98.57963283
_symmetry_Int_Tables_number   1
_chemical_formula_structural   La2Pr4BiO12
_chemical_formula_sum   'La2 Pr4 Bi1 O12'
_cell_volume   313.97336516
_cell_formula_units_Z   1
loop_
 _symmetry_equiv_pos_site_id
 _symmetry_equiv_pos_as_xyz
  1  'x, y, z'
loop_
 _atom_site_type_symbol
 _atom_site_label
 _atom_site_symmetry_multiplicity
 _atom_site_fract_x
 _atom_site_fract_y
 _atom_site_fract_z
 _atom_site_occupancy
  La  La0  1  0.858582  0.697230  0.394763  1
  La  La1  1  0.141418  0.302770  0.605237  1
  Pr  Pr2  1  0.301332  0.609455  0.140105  1
  Pr  Pr3  1  0.607757  0.140158  0.300640  1
  Pr  Pr4  1  0.392243  0.859842  0.699360  1
  Pr  Pr5  1  0.698668  0.390545  0.859895  1
  Bi  Bi6  1  0.000000  0.000000  0.000000  1
  O  O7  1  0.439117  0.176963  0.589542  1
  O  O8  1  0.933341  0.693283  0.041771  1
  O  O9  1  0.177578  0.593267  0.439717  1
  O  O10  1  0.822422  0.406733  0.560283  1
  O  O11  1  0.560883  0.823037  0.410458  1
  O  O12  1  0.586655  0.437921  0.177376  1
  O  O13  1  0.413345  0.562079  0.822624  1
  O  O14  1  0.950791  0.067004  0.304952  1
  O  O15  1  0.049209  0.932996  0.695048  1
  O  O16  1  0.692972  0.047003  0.931737  1
  O  O17  1  0.066659  0.306717  0.958229  1
  O  O18  1  0.307028  0.952997  0.068263  1
