# generated using pymatgen
data_Ho3Mg2InIrPb2
_symmetry_space_group_name_H-M   'P 1'
_cell_length_a   7.53571400
_cell_length_b   7.49373183
_cell_length_c   4.51831700
_cell_angle_alpha   90.00000000
_cell_angle_beta   90.00000000
_cell_angle_gamma   120.18550527
_symmetry_Int_Tables_number   1
_chemical_formula_structural   Ho3Mg2InIrPb2
_chemical_formula_sum   'Ho3 Mg2 In1 Ir1 Pb2'
_cell_volume   220.55404635
_cell_formula_units_Z   1
loop_
 _symmetry_equiv_pos_site_id
 _symmetry_equiv_pos_as_xyz
  1  'x, y, z'
loop_
 _atom_site_type_symbol
 _atom_site_label
 _atom_site_symmetry_multiplicity
 _atom_site_fract_x
 _atom_site_fract_y
 _atom_site_fract_z
 _atom_site_occupancy
  Ho  Ho0  1  0.611313  0.000000  0.000000  1
  Ho  Ho1  1  0.001278  0.614046  0.000000  1
  Ho  Ho2  1  0.387233  0.385954  0.000000  1
  Mg  Mg3  1  0.994940  0.223356  0.500000  1
  Mg  Mg4  1  0.771584  0.776644  0.500000  1
  In  In5  1  0.227285  0.000000  0.500000  1
  Ir  Ir6  1  0.996762  0.000000  0.000000  1
  Pb  Pb7  1  0.334459  0.659313  0.500000  1
  Pb  Pb8  1  0.675147  0.340687  0.500000  1
