# generated using pymatgen
data_La3Nd5SiPd24
_symmetry_space_group_name_H-M   'P 1'
_cell_length_a   8.49379048
_cell_length_b   8.49379048
_cell_length_c   8.49306810
_cell_angle_alpha   89.98763955
_cell_angle_beta   89.98763955
_cell_angle_gamma   89.96347861
_symmetry_Int_Tables_number   1
_chemical_formula_structural   La3Nd5SiPd24
_chemical_formula_sum   'La3 Nd5 Si1 Pd24'
_cell_volume   612.72780085
_cell_formula_units_Z   1
loop_
 _symmetry_equiv_pos_site_id
 _symmetry_equiv_pos_as_xyz
  1  'x, y, z'
loop_
 _atom_site_type_symbol
 _atom_site_label
 _atom_site_symmetry_multiplicity
 _atom_site_fract_x
 _atom_site_fract_y
 _atom_site_fract_z
 _atom_site_occupancy
  La  La0  1  0.254224  0.254224  0.254276  1
  La  La1  1  0.745822  0.745822  0.745992  1
  La  La2  1  0.745791  0.745791  0.254014  1
  Nd  Nd3  1  0.746314  0.253457  0.746348  1
  Nd  Nd4  1  0.253635  0.253635  0.746581  1
  Nd  Nd5  1  0.253390  0.746621  0.253598  1
  Nd  Nd6  1  0.253457  0.746314  0.746348  1
  Nd  Nd7  1  0.746621  0.253390  0.253598  1
  Si  Si8  1  0.000124  0.000124  0.999908  1
  Pd  Pd9  1  0.256884  0.500333  0.999543  1
  Pd  Pd10  1  0.743127  0.499127  0.999883  1
  Pd  Pd11  1  0.999719  0.256890  0.500507  1
  Pd  Pd12  1  0.500333  0.256884  0.999543  1
  Pd  Pd13  1  0.000872  0.743132  0.500075  1
  Pd  Pd14  1  0.499127  0.743127  0.999883  1
  Pd  Pd15  1  0.499936  0.000136  0.256878  1
  Pd  Pd16  1  0.256890  0.999719  0.500507  1
  Pd  Pd17  1  0.499498  0.000473  0.743115  1
  Pd  Pd18  1  0.743132  0.000872  0.500075  1
  Pd  Pd19  1  0.000136  0.499936  0.256878  1
  Pd  Pd20  1  0.000473  0.499498  0.743115  1
  Pd  Pd21  1  0.251946  0.500340  0.500482  1
  Pd  Pd22  1  0.748056  0.499065  0.500093  1
  Pd  Pd23  1  0.500340  0.251946  0.500482  1
  Pd  Pd24  1  0.499065  0.748056  0.500093  1
  Pd  Pd25  1  0.499897  0.499897  0.251937  1
  Pd  Pd26  1  0.499492  0.499492  0.748060  1
  Pd  Pd27  1  0.279928  0.999305  0.999108  1
  Pd  Pd28  1  0.719860  0.001632  0.999883  1
  Pd  Pd29  1  0.999305  0.279928  0.999108  1
  Pd  Pd30  1  0.001632  0.719860  0.999883  1
  Pd  Pd31  1  0.000095  0.000095  0.280131  1
  Pd  Pd32  1  0.000878  0.000878  0.720075  1
