# generated using pymatgen
data_Er5Nb3(Si3Ni4)4
_symmetry_space_group_name_H-M   'P 1'
_cell_length_a   12.43779400
_cell_length_b   12.43779264
_cell_length_c   3.80499500
_cell_angle_alpha   90.00000000
_cell_angle_beta   90.00000000
_cell_angle_gamma   120.00000362
_symmetry_Int_Tables_number   1
_chemical_formula_structural   Er5Nb3(Si3Ni4)4
_chemical_formula_sum   'Er5 Nb3 Si12 Ni16'
_cell_volume   509.76660105
_cell_formula_units_Z   1
loop_
 _symmetry_equiv_pos_site_id
 _symmetry_equiv_pos_as_xyz
  1  'x, y, z'
loop_
 _atom_site_type_symbol
 _atom_site_label
 _atom_site_symmetry_multiplicity
 _atom_site_fract_x
 _atom_site_fract_y
 _atom_site_fract_z
 _atom_site_occupancy
  Er  Er0  1  0.185467  0.185467  0.500000  1
  Er  Er1  1  0.814533  0.000000  0.500000  1
  Er  Er2  1  0.000000  0.814533  0.500000  1
  Er  Er3  1  0.333333  0.666667  0.000000  1
  Er  Er4  1  0.666667  0.333333  0.000000  1
  Nb  Nb5  1  0.564508  0.564508  0.000000  1
  Nb  Nb6  1  0.435492  0.000000  0.000000  1
  Nb  Nb7  1  0.000000  0.435492  0.000000  1
  Si  Si8  1  0.819153  0.819153  0.000000  1
  Si  Si9  1  0.180847  0.000000  0.000000  1
  Si  Si10  1  0.000000  0.180847  0.000000  1
  Si  Si11  1  0.169012  0.477778  0.500000  1
  Si  Si12  1  0.522222  0.691234  0.500000  1
  Si  Si13  1  0.308766  0.830988  0.500000  1
  Si  Si14  1  0.691234  0.522222  0.500000  1
  Si  Si15  1  0.830988  0.308766  0.500000  1
  Si  Si16  1  0.477778  0.169012  0.500000  1
  Si  Si17  1  0.360568  0.360568  0.000000  1
  Si  Si18  1  0.639432  0.000000  0.000000  1
  Si  Si19  1  0.000000  0.639432  0.000000  1
  Ni  Ni20  1  0.723649  0.723649  0.500000  1
  Ni  Ni21  1  0.276351  0.000000  0.500000  1
  Ni  Ni22  1  0.000000  0.276351  0.500000  1
  Ni  Ni23  1  0.182940  0.376618  0.000000  1
  Ni  Ni24  1  0.623382  0.806322  0.000000  1
  Ni  Ni25  1  0.193678  0.817060  0.000000  1
  Ni  Ni26  1  0.806322  0.623382  0.000000  1
  Ni  Ni27  1  0.817060  0.193678  0.000000  1
  Ni  Ni28  1  0.376618  0.182940  0.000000  1
  Ni  Ni29  1  0.358658  0.480421  0.500000  1
  Ni  Ni30  1  0.519579  0.878238  0.500000  1
  Ni  Ni31  1  0.121762  0.641342  0.500000  1
  Ni  Ni32  1  0.878238  0.519579  0.500000  1
  Ni  Ni33  1  0.641342  0.121762  0.500000  1
  Ni  Ni34  1  0.480421  0.358658  0.500000  1
  Ni  Ni35  1  0.000000  0.000000  0.000000  1
