# generated using pymatgen
data_Y11In9(NiAu)2
_symmetry_space_group_name_H-M   'P 1'
_cell_length_a   13.13599627
_cell_length_b   13.16392327
_cell_length_c   3.65921600
_cell_angle_alpha   90.00000000
_cell_angle_beta   90.00000000
_cell_angle_gamma   110.75675805
_symmetry_Int_Tables_number   1
_chemical_formula_structural   Y11In9(NiAu)2
_chemical_formula_sum   'Y11 In9 Ni2 Au2'
_cell_volume   591.68614981
_cell_formula_units_Z   1
loop_
 _symmetry_equiv_pos_site_id
 _symmetry_equiv_pos_as_xyz
  1  'x, y, z'
loop_
 _atom_site_type_symbol
 _atom_site_label
 _atom_site_symmetry_multiplicity
 _atom_site_fract_x
 _atom_site_fract_y
 _atom_site_fract_z
 _atom_site_occupancy
  Y  Y0  1  0.068074  0.416994  0.000000  1
  Y  Y1  1  0.931926  0.583006  0.000000  1
  Y  Y2  1  0.419654  0.075736  0.000000  1
  Y  Y3  1  0.580346  0.924264  0.000000  1
  Y  Y4  1  0.619190  0.360829  0.000000  1
  Y  Y5  1  0.380810  0.639171  0.000000  1
  Y  Y6  1  0.840747  0.157187  0.000000  1
  Y  Y7  1  0.159253  0.842813  0.000000  1
  Y  Y8  1  0.000000  0.000000  0.000000  1
  Y  Y9  1  0.316427  0.302290  0.000000  1
  Y  Y10  1  0.683573  0.697710  0.000000  1
  In  In11  1  0.841598  0.365105  0.500000  1
  In  In12  1  0.158402  0.634895  0.500000  1
  In  In13  1  0.368056  0.844668  0.500000  1
  In  In14  1  0.631944  0.155332  0.500000  1
  In  In15  1  0.071244  0.215698  0.500000  1
  In  In16  1  0.928756  0.784302  0.500000  1
  In  In17  1  0.218689  0.072718  0.500000  1
  In  In18  1  0.781311  0.927282  0.500000  1
  In  In19  1  0.500000  0.500000  0.500000  1
  Ni  Ni20  1  0.451174  0.244288  0.500000  1
  Ni  Ni21  1  0.548826  0.755712  0.500000  1
  Au  Au22  1  0.253569  0.452391  0.500000  1
  Au  Au23  1  0.746431  0.547609  0.500000  1
