# generated using pymatgen
data_YPa2Al12CoRu3
_symmetry_space_group_name_H-M   'P 1'
_cell_length_a   8.83358000
_cell_length_b   8.81428102
_cell_length_c   9.36700300
_cell_angle_alpha   90.00000000
_cell_angle_beta   90.00000000
_cell_angle_gamma   120.07245498
_symmetry_Int_Tables_number   1
_chemical_formula_structural   YPa2Al12CoRu3
_chemical_formula_sum   'Y2 Pa4 Al24 Co2 Ru6'
_cell_volume   631.15697561
_cell_formula_units_Z   2
loop_
 _symmetry_equiv_pos_site_id
 _symmetry_equiv_pos_as_xyz
  1  'x, y, z'
loop_
 _atom_site_type_symbol
 _atom_site_label
 _atom_site_symmetry_multiplicity
 _atom_site_fract_x
 _atom_site_fract_y
 _atom_site_fract_z
 _atom_site_occupancy
  Y  Y0  1  0.196882  0.393763  0.250000  1
  Y  Y1  1  0.803118  0.606237  0.750000  1
  Pa  Pa2  1  0.605844  0.805197  0.250000  1
  Pa  Pa3  1  0.394156  0.194803  0.750000  1
  Pa  Pa4  1  0.199352  0.805197  0.250000  1
  Pa  Pa5  1  0.800648  0.194803  0.750000  1
  Al  Al6  1  0.331646  0.663293  0.018141  1
  Al  Al7  1  0.668354  0.336707  0.981859  1
  Al  Al8  1  0.668354  0.336707  0.518141  1
  Al  Al9  1  0.331646  0.663293  0.481859  1
  Al  Al10  1  0.159900  0.319800  0.578773  1
  Al  Al11  1  0.840100  0.680200  0.421227  1
  Al  Al12  1  0.679919  0.838518  0.578428  1
  Al  Al13  1  0.840100  0.680200  0.078773  1
  Al  Al14  1  0.320081  0.161482  0.421572  1
  Al  Al15  1  0.159900  0.319800  0.921227  1
  Al  Al16  1  0.158600  0.838518  0.578428  1
  Al  Al17  1  0.320081  0.161482  0.078428  1
  Al  Al18  1  0.841400  0.161482  0.421572  1
  Al  Al19  1  0.679919  0.838518  0.921572  1
  Al  Al20  1  0.841400  0.161482  0.078428  1
  Al  Al21  1  0.158600  0.838518  0.921572  1
  Al  Al22  1  0.563793  0.127587  0.250000  1
  Al  Al23  1  0.436207  0.872413  0.750000  1
  Al  Al24  1  0.877386  0.438286  0.250000  1
  Al  Al25  1  0.122614  0.561714  0.750000  1
  Al  Al26  1  0.560898  0.438286  0.250000  1
  Al  Al27  1  0.439102  0.561714  0.750000  1
  Al  Al28  1  0.998209  0.996418  0.250000  1
  Al  Al29  1  0.001791  0.003582  0.750000  1
  Co  Co30  1  0.000000  0.000000  0.000000  1
  Co  Co31  1  0.000000  0.000000  0.500000  1
  Ru  Ru32  1  0.500000  0.000000  0.000000  1
  Ru  Ru33  1  0.000000  0.500000  0.000000  1
  Ru  Ru34  1  0.500000  0.000000  0.500000  1
  Ru  Ru35  1  0.500000  0.500000  0.000000  1
  Ru  Ru36  1  0.000000  0.500000  0.500000  1
  Ru  Ru37  1  0.500000  0.500000  0.500000  1
