# generated using pymatgen
data_Ta4Nb2Zn6N
_symmetry_space_group_name_H-M   'P 1'
_cell_length_a   8.17716781
_cell_length_b   8.16856507
_cell_length_c   8.17012655
_cell_angle_alpha   60.00632720
_cell_angle_beta   59.96728200
_cell_angle_gamma   60.03480359
_symmetry_Int_Tables_number   1
_chemical_formula_structural   Ta4Nb2Zn6N
_chemical_formula_sum   'Ta8 Nb4 Zn12 N2'
_cell_volume   385.91332646
_cell_formula_units_Z   2
loop_
 _symmetry_equiv_pos_site_id
 _symmetry_equiv_pos_as_xyz
  1  'x, y, z'
loop_
 _atom_site_type_symbol
 _atom_site_label
 _atom_site_symmetry_multiplicity
 _atom_site_fract_x
 _atom_site_fract_y
 _atom_site_fract_z
 _atom_site_occupancy
  Ta  Ta0  1  0.188882  0.810868  0.811038  1
  Ta  Ta1  1  0.060502  0.439555  0.060388  1
  Ta  Ta2  1  0.811886  0.809844  0.189147  1
  Ta  Ta3  1  0.060473  0.439012  0.439953  1
  Ta  Ta4  1  0.188882  0.189213  0.811038  1
  Ta  Ta5  1  0.811886  0.189122  0.189147  1
  Ta  Ta6  1  0.811008  0.189896  0.809200  1
  Ta  Ta7  1  0.060473  0.060563  0.439953  1
  Nb  Nb8  1  0.189833  0.809964  0.190240  1
  Nb  Nb9  1  0.439995  0.060240  0.439526  1
  Nb  Nb10  1  0.440461  0.060342  0.060112  1
  Nb  Nb11  1  0.440461  0.439085  0.060112  1
  Zn  Zn12  1  0.833323  0.500338  0.833171  1
  Zn  Zn13  1  0.416731  0.417089  0.749089  1
  Zn  Zn14  1  0.749575  0.416813  0.416796  1
  Zn  Zn15  1  0.416870  0.416958  0.417183  1
  Zn  Zn16  1  0.833059  0.833173  0.500597  1
  Zn  Zn17  1  0.416870  0.748987  0.417183  1
  Zn  Zn18  1  0.833323  0.833170  0.833171  1
  Zn  Zn19  1  0.500720  0.833202  0.832877  1
  Zn  Zn20  1  0.625171  0.124870  0.625004  1
  Zn  Zn21  1  0.625267  0.624929  0.124876  1
  Zn  Zn22  1  0.124849  0.625011  0.625129  1
  Zn  Zn23  1  0.625171  0.624955  0.625004  1
  N  N24  1  0.998471  0.001341  0.998847  1
  N  N25  1  0.245859  0.251461  0.251220  1
