# generated using pymatgen
data_KSn6IrRh3
_symmetry_space_group_name_H-M   'P 1'
_cell_length_a   6.99825054
_cell_length_b   7.00274825
_cell_length_c   6.98322457
_cell_angle_alpha   91.19881110
_cell_angle_beta   119.23934230
_cell_angle_gamma   119.33290684
_symmetry_Int_Tables_number   1
_chemical_formula_structural   KSn6IrRh3
_chemical_formula_sum   'K1 Sn6 Ir1 Rh3'
_cell_volume   244.63159405
_cell_formula_units_Z   1
loop_
 _symmetry_equiv_pos_site_id
 _symmetry_equiv_pos_as_xyz
  1  'x, y, z'
loop_
 _atom_site_type_symbol
 _atom_site_label
 _atom_site_symmetry_multiplicity
 _atom_site_fract_x
 _atom_site_fract_y
 _atom_site_fract_z
 _atom_site_occupancy
  K  K0  1  0.000000  0.000547  0.000535  1
  Sn  Sn1  1  0.653438  0.122327  0.123082  1
  Sn  Sn2  1  0.346562  0.468890  0.469645  1
  Sn  Sn3  1  0.000000  0.876981  0.530971  1
  Sn  Sn4  1  0.000000  0.532873  0.876132  1
  Sn  Sn5  1  0.500830  0.500094  0.999361  1
  Sn  Sn6  1  0.499170  0.999264  0.498531  1
  Ir  Ir7  1  0.000000  0.588957  0.247368  1
  Rh  Rh8  1  0.341246  0.752052  0.752706  1
  Rh  Rh9  1  0.658754  0.410806  0.411459  1
  Rh  Rh10  1  0.000000  0.247210  0.590210  1
