# generated using pymatgen
data_Hf6Ta6Ga10Os7
_symmetry_space_group_name_H-M   'P 1'
_cell_length_a   8.93297396
_cell_length_b   8.88397131
_cell_length_c   8.88043322
_cell_angle_alpha   59.60463925
_cell_angle_beta   59.83105457
_cell_angle_gamma   59.79231512
_symmetry_Int_Tables_number   1
_chemical_formula_structural   Hf6Ta6Ga10Os7
_chemical_formula_sum   'Hf6 Ta6 Ga10 Os7'
_cell_volume   495.41954535
_cell_formula_units_Z   1
loop_
 _symmetry_equiv_pos_site_id
 _symmetry_equiv_pos_as_xyz
  1  'x, y, z'
loop_
 _atom_site_type_symbol
 _atom_site_label
 _atom_site_symmetry_multiplicity
 _atom_site_fract_x
 _atom_site_fract_y
 _atom_site_fract_z
 _atom_site_occupancy
  Hf  Hf0  1  0.684885  0.699251  0.310645  1
  Hf  Hf1  1  0.306823  0.697441  0.312034  1
  Hf  Hf2  1  0.699951  0.299985  0.300053  1
  Hf  Hf3  1  0.305053  0.310577  0.699269  1
  Hf  Hf4  1  0.683776  0.311812  0.697667  1
  Hf  Hf5  1  0.310002  0.689940  0.690000  1
  Ta  Ta6  1  0.875471  0.880055  0.369069  1
  Ta  Ta7  1  0.875385  0.369171  0.880016  1
  Ta  Ta8  1  0.376181  0.876074  0.876483  1
  Ta  Ta9  1  0.871304  0.876526  0.876118  1
  Ta  Ta10  1  0.126342  0.127328  0.619742  1
  Ta  Ta11  1  0.126636  0.619847  0.127252  1
  Ga  Ga12  1  0.646219  0.118598  0.118485  1
  Ga  Ga13  1  0.116755  0.118515  0.118635  1
  Ga  Ga14  1  0.654867  0.651273  0.039477  1
  Ga  Ga15  1  0.654373  0.039402  0.651338  1
  Ga  Ga16  1  0.032947  0.655049  0.654970  1
  Ga  Ga17  1  0.657014  0.654904  0.654907  1
  Ga  Ga18  1  0.341116  0.337700  0.980070  1
  Ga  Ga19  1  0.340991  0.980038  0.337762  1
  Ga  Ga20  1  0.963008  0.344882  0.344341  1
  Ga  Ga21  1  0.347809  0.344420  0.344805  1
  Os  Os22  1  0.011219  0.988921  0.988797  1
  Os  Os23  1  0.998624  0.999253  0.505413  1
  Os  Os24  1  0.496542  0.998918  0.505591  1
  Os  Os25  1  0.999251  0.500821  0.500730  1
  Os  Os26  1  0.496726  0.505414  0.999167  1
  Os  Os27  1  0.998920  0.505682  0.998898  1
  Os  Os28  1  0.501809  0.998208  0.998271  1
