# generated using pymatgen
data_Y7HoRe(TcB8)3
_symmetry_space_group_name_H-M   'P 1'
_cell_length_a   3.68718700
_cell_length_b   9.17847944
_cell_length_c   11.56403701
_cell_angle_alpha   90.03458826
_cell_angle_beta   90.00000000
_cell_angle_gamma   90.00000000
_symmetry_Int_Tables_number   1
_chemical_formula_structural   Y7HoRe(TcB8)3
_chemical_formula_sum   'Y7 Ho1 Re1 Tc3 B24'
_cell_volume   391.35897440
_cell_formula_units_Z   1
loop_
 _symmetry_equiv_pos_site_id
 _symmetry_equiv_pos_as_xyz
  1  'x, y, z'
loop_
 _atom_site_type_symbol
 _atom_site_label
 _atom_site_symmetry_multiplicity
 _atom_site_fract_x
 _atom_site_fract_y
 _atom_site_fract_z
 _atom_site_occupancy
  Y  Y0  1  0.000000  0.324117  0.414245  1
  Y  Y1  1  0.000000  0.676158  0.585934  1
  Y  Y2  1  0.000000  0.823661  0.085780  1
  Y  Y3  1  0.000000  0.176606  0.914305  1
  Y  Y4  1  0.000000  0.942659  0.369225  1
  Y  Y5  1  0.000000  0.057920  0.630025  1
  Y  Y6  1  0.000000  0.442708  0.130478  1
  Ho  Ho7  1  0.000000  0.556422  0.869408  1
  Re  Re8  1  0.000000  0.860881  0.820688  1
  Tc  Tc9  1  0.000000  0.638659  0.320452  1
  Tc  Tc10  1  0.000000  0.361673  0.679798  1
  Tc  Tc11  1  0.000000  0.138783  0.179431  1
  B  B12  1  0.500000  0.553469  0.432832  1
  B  B13  1  0.500000  0.446849  0.567486  1
  B  B14  1  0.500000  0.053350  0.067274  1
  B  B15  1  0.500000  0.946482  0.932905  1
  B  B16  1  0.500000  0.748601  0.418282  1
  B  B17  1  0.500000  0.251835  0.581764  1
  B  B18  1  0.500000  0.248584  0.081645  1
  B  B19  1  0.500000  0.750411  0.918346  1
  B  B20  1  0.500000  0.791571  0.265074  1
  B  B21  1  0.500000  0.208632  0.734823  1
  B  B22  1  0.500000  0.291662  0.234888  1
  B  B23  1  0.500000  0.707662  0.765498  1
  B  B24  1  0.500000  0.630694  0.185641  1
  B  B25  1  0.500000  0.369561  0.814405  1
  B  B26  1  0.500000  0.130858  0.314245  1
  B  B27  1  0.500000  0.869245  0.685731  1
  B  B28  1  0.500000  0.982423  0.211468  1
  B  B29  1  0.500000  0.017691  0.788357  1
  B  B30  1  0.500000  0.482350  0.288458  1
  B  B31  1  0.500000  0.517693  0.712071  1
  B  B32  1  0.500000  0.599788  0.027530  1
  B  B33  1  0.500000  0.400085  0.971808  1
  B  B34  1  0.500000  0.100632  0.471706  1
  B  B35  1  0.500000  0.899622  0.527991  1
