# generated using pymatgen
data_Yb7Y(Si3Ni)4
_symmetry_space_group_name_H-M   'P 1'
_cell_length_a   8.04480000
_cell_length_b   8.04479935
_cell_length_c   8.40632900
_cell_angle_alpha   90.00000000
_cell_angle_beta   90.00000000
_cell_angle_gamma   119.99999443
_symmetry_Int_Tables_number   1
_chemical_formula_structural   Yb7Y(Si3Ni)4
_chemical_formula_sum   'Yb7 Y1 Si12 Ni4'
_cell_volume   471.15901763
_cell_formula_units_Z   1
loop_
 _symmetry_equiv_pos_site_id
 _symmetry_equiv_pos_as_xyz
  1  'x, y, z'
loop_
 _atom_site_type_symbol
 _atom_site_label
 _atom_site_symmetry_multiplicity
 _atom_site_fract_x
 _atom_site_fract_y
 _atom_site_fract_z
 _atom_site_occupancy
  Yb  Yb0  1  0.501326  0.002653  0.250000  1
  Yb  Yb1  1  0.498497  0.996996  0.750000  1
  Yb  Yb2  1  0.997347  0.498674  0.250000  1
  Yb  Yb3  1  0.003004  0.501503  0.750000  1
  Yb  Yb4  1  0.501326  0.498674  0.250000  1
  Yb  Yb5  1  0.498497  0.501503  0.750000  1
  Yb  Yb6  1  0.000000  0.000000  0.250000  1
  Y  Y7  1  0.000000  0.000000  0.750000  1
  Si  Si8  1  0.170081  0.340163  0.998183  1
  Si  Si9  1  0.829901  0.659803  0.995480  1
  Si  Si10  1  0.659837  0.829919  0.998183  1
  Si  Si11  1  0.829901  0.659803  0.504520  1
  Si  Si12  1  0.340197  0.170099  0.995480  1
  Si  Si13  1  0.170081  0.340163  0.501817  1
  Si  Si14  1  0.170081  0.829919  0.998183  1
  Si  Si15  1  0.340197  0.170099  0.504520  1
  Si  Si16  1  0.829901  0.170099  0.995480  1
  Si  Si17  1  0.659837  0.829919  0.501817  1
  Si  Si18  1  0.829901  0.170099  0.504520  1
  Si  Si19  1  0.170081  0.829919  0.501817  1
  Ni  Ni20  1  0.333333  0.666667  0.001754  1
  Ni  Ni21  1  0.666667  0.333333  0.997399  1
  Ni  Ni22  1  0.666667  0.333333  0.502601  1
  Ni  Ni23  1  0.333333  0.666667  0.498246  1
