# generated using pymatgen
data_Nd8Sc11Si16Au
_symmetry_space_group_name_H-M   'P 1'
_cell_length_a   7.16216531
_cell_length_b   7.53305154
_cell_length_c   14.23349600
_cell_angle_alpha   90.00000000
_cell_angle_beta   90.00000000
_cell_angle_gamma   89.75721529
_symmetry_Int_Tables_number   1
_chemical_formula_structural   Nd8Sc11Si16Au
_chemical_formula_sum   'Nd8 Sc11 Si16 Au1'
_cell_volume   767.93235216
_cell_formula_units_Z   1
loop_
 _symmetry_equiv_pos_site_id
 _symmetry_equiv_pos_as_xyz
  1  'x, y, z'
loop_
 _atom_site_type_symbol
 _atom_site_label
 _atom_site_symmetry_multiplicity
 _atom_site_fract_x
 _atom_site_fract_y
 _atom_site_fract_z
 _atom_site_occupancy
  Nd  Nd0  1  0.010849  0.171162  0.096947  1
  Nd  Nd1  1  0.991939  0.816559  0.899112  1
  Nd  Nd2  1  0.481441  0.671809  0.898645  1
  Nd  Nd3  1  0.991939  0.816559  0.600888  1
  Nd  Nd4  1  0.511865  0.325840  0.097154  1
  Nd  Nd5  1  0.010849  0.171162  0.403053  1
  Nd  Nd6  1  0.511865  0.325840  0.402846  1
  Nd  Nd7  1  0.481441  0.671809  0.601355  1
  Sc  Sc8  1  0.839871  0.500651  0.250000  1
  Sc  Sc9  1  0.340600  0.999674  0.250000  1
  Sc  Sc10  1  0.657611  0.003849  0.750000  1
  Sc  Sc11  1  0.325768  0.185060  0.626545  1
  Sc  Sc12  1  0.671462  0.823370  0.375454  1
  Sc  Sc13  1  0.171240  0.677842  0.373731  1
  Sc  Sc14  1  0.671462  0.823370  0.124546  1
  Sc  Sc15  1  0.836766  0.328132  0.626452  1
  Sc  Sc16  1  0.325768  0.185060  0.873455  1
  Sc  Sc17  1  0.836766  0.328132  0.873548  1
  Sc  Sc18  1  0.171240  0.677842  0.126269  1
  Si  Si19  1  0.029786  0.108369  0.750000  1
  Si  Si20  1  0.967281  0.879399  0.250000  1
  Si  Si21  1  0.467092  0.623985  0.250000  1
  Si  Si22  1  0.541525  0.378186  0.750000  1
  Si  Si23  1  0.291312  0.900496  0.750000  1
  Si  Si24  1  0.711230  0.117760  0.250000  1
  Si  Si25  1  0.211217  0.380439  0.250000  1
  Si  Si26  1  0.779018  0.619291  0.750000  1
  Si  Si27  1  0.155297  0.458635  0.530872  1
  Si  Si28  1  0.847833  0.536429  0.461282  1
  Si  Si29  1  0.349100  0.963576  0.462836  1
  Si  Si30  1  0.847833  0.536429  0.038718  1
  Si  Si31  1  0.653689  0.034449  0.541053  1
  Si  Si32  1  0.155297  0.458635  0.969128  1
  Si  Si33  1  0.653689  0.034449  0.958947  1
  Si  Si34  1  0.349100  0.963576  0.037164  1
  Au  Au35  1  0.148959  0.502175  0.750000  1
