# generated using pymatgen
data_Sc10Tl2ZnIn6Ir2Rh
_symmetry_space_group_name_H-M   'P 1'
_cell_length_a   3.36809900
_cell_length_b   7.73497621
_cell_length_c   17.70582900
_cell_angle_alpha   90.03202944
_cell_angle_beta   90.00000000
_cell_angle_gamma   90.00000000
_symmetry_Int_Tables_number   1
_chemical_formula_structural   Sc10Tl2ZnIn6Ir2Rh
_chemical_formula_sum   'Sc10 Tl2 Zn1 In6 Ir2 Rh1'
_cell_volume   461.27511771
_cell_formula_units_Z   1
loop_
 _symmetry_equiv_pos_site_id
 _symmetry_equiv_pos_as_xyz
  1  'x, y, z'
loop_
 _atom_site_type_symbol
 _atom_site_label
 _atom_site_symmetry_multiplicity
 _atom_site_fract_x
 _atom_site_fract_y
 _atom_site_fract_z
 _atom_site_occupancy
  Sc  Sc0  1  0.000000  0.000460  0.999454  1
  Sc  Sc1  1  0.000000  0.499596  0.499832  1
  Sc  Sc2  1  0.000000  0.765262  0.780170  1
  Sc  Sc3  1  0.000000  0.252187  0.220353  1
  Sc  Sc4  1  0.000000  0.232032  0.717768  1
  Sc  Sc5  1  0.000000  0.757530  0.278214  1
  Sc  Sc6  1  0.000000  0.876354  0.584998  1
  Sc  Sc7  1  0.000000  0.123935  0.412999  1
  Sc  Sc8  1  0.000000  0.370865  0.921612  1
  Sc  Sc9  1  0.000000  0.622209  0.085744  1
  Tl  Tl10  1  0.500000  0.794528  0.435279  1
  Tl  Tl11  1  0.500000  0.204949  0.563970  1
  Zn  Zn12  1  0.500000  0.463184  0.802947  1
  In  In13  1  0.500000  0.294138  0.067749  1
  In  In14  1  0.500000  0.700125  0.934598  1
  In  In15  1  0.500000  0.929031  0.146930  1
  In  In16  1  0.500000  0.074612  0.853198  1
  In  In17  1  0.500000  0.429750  0.349968  1
  In  In18  1  0.500000  0.573558  0.650199  1
  Ir  Ir19  1  0.500000  0.959412  0.696816  1
  Ir  Ir20  1  0.500000  0.039191  0.303081  1
  Rh  Rh21  1  0.500000  0.537091  0.194123  1
