# generated using pymatgen
data_DyHo9(SiBi)4
_symmetry_space_group_name_H-M   'P 1'
_cell_length_a   8.63103700
_cell_length_b   8.63002630
_cell_length_c   7.90088102
_cell_angle_alpha   89.99334494
_cell_angle_beta   89.99954961
_cell_angle_gamma   125.63387584
_symmetry_Int_Tables_number   1
_chemical_formula_structural   DyHo9(SiBi)4
_chemical_formula_sum   'Dy1 Ho9 Si4 Bi4'
_cell_volume   478.31173387
_cell_formula_units_Z   1
loop_
 _symmetry_equiv_pos_site_id
 _symmetry_equiv_pos_as_xyz
  1  'x, y, z'
loop_
 _atom_site_type_symbol
 _atom_site_label
 _atom_site_symmetry_multiplicity
 _atom_site_fract_x
 _atom_site_fract_y
 _atom_site_fract_z
 _atom_site_occupancy
  Dy  Dy0  1  0.043543  0.286996  0.335116  1
  Ho  Ho1  1  0.956357  0.713170  0.664811  1
  Ho  Ho2  1  0.456375  0.213196  0.835176  1
  Ho  Ho3  1  0.786793  0.543632  0.164815  1
  Ho  Ho4  1  0.543642  0.786784  0.164819  1
  Ho  Ho5  1  0.213213  0.456351  0.835181  1
  Ho  Ho6  1  0.713183  0.956349  0.664833  1
  Ho  Ho7  1  0.286822  0.043628  0.335198  1
  Ho  Ho8  1  0.999994  0.999960  0.999947  1
  Ho  Ho9  1  0.500085  0.500033  0.500029  1
  Si  Si10  1  0.366445  0.366315  0.132467  1
  Si  Si11  1  0.633686  0.633687  0.867463  1
  Si  Si12  1  0.133718  0.133653  0.632647  1
  Si  Si13  1  0.866249  0.866176  0.367462  1
  Bi  Bi14  1  0.792317  0.207548  0.999892  1
  Bi  Bi15  1  0.207589  0.792389  0.000012  1
  Bi  Bi16  1  0.707484  0.292400  0.500053  1
  Bi  Bi17  1  0.292505  0.707733  0.500079  1
