# generated using pymatgen
data_Sm3Zr(Co4P3)2
_symmetry_space_group_name_H-M   'P 1'
_cell_length_a   3.75108000
_cell_length_b   10.76830000
_cell_length_c   12.53322100
_cell_angle_alpha   90.00000000
_cell_angle_beta   90.00000000
_cell_angle_gamma   90.00000000
_symmetry_Int_Tables_number   1
_chemical_formula_structural   Sm3Zr(Co4P3)2
_chemical_formula_sum   'Sm6 Zr2 Co16 P12'
_cell_volume   506.25132226
_cell_formula_units_Z   2
loop_
 _symmetry_equiv_pos_site_id
 _symmetry_equiv_pos_as_xyz
  1  'x, y, z'
loop_
 _atom_site_type_symbol
 _atom_site_label
 _atom_site_symmetry_multiplicity
 _atom_site_fract_x
 _atom_site_fract_y
 _atom_site_fract_z
 _atom_site_occupancy
  Sm  Sm0  1  0.000000  0.500000  0.529593  1
  Sm  Sm1  1  0.500000  0.000000  0.470407  1
  Sm  Sm2  1  0.500000  0.820942  0.205430  1
  Sm  Sm3  1  0.500000  0.179058  0.205430  1
  Sm  Sm4  1  0.000000  0.679058  0.794570  1
  Sm  Sm5  1  0.000000  0.320942  0.794570  1
  Zr  Zr6  1  0.500000  0.500000  0.157887  1
  Zr  Zr7  1  0.000000  0.000000  0.842113  1
  Co  Co8  1  0.500000  0.500000  0.704845  1
  Co  Co9  1  0.000000  0.000000  0.295155  1
  Co  Co10  1  0.000000  0.500000  0.986747  1
  Co  Co11  1  0.500000  0.000000  0.013253  1
  Co  Co12  1  0.500000  0.332006  0.993379  1
  Co  Co13  1  0.500000  0.667994  0.993379  1
  Co  Co14  1  0.000000  0.167994  0.006621  1
  Co  Co15  1  0.000000  0.832006  0.006621  1
  Co  Co16  1  0.500000  0.295601  0.433598  1
  Co  Co17  1  0.500000  0.704399  0.433598  1
  Co  Co18  1  0.000000  0.204399  0.566402  1
  Co  Co19  1  0.000000  0.795601  0.566402  1
  Co  Co20  1  0.500000  0.879248  0.700318  1
  Co  Co21  1  0.500000  0.120752  0.700318  1
  Co  Co22  1  0.000000  0.620752  0.299682  1
  Co  Co23  1  0.000000  0.379248  0.299682  1
  P  P24  1  0.500000  0.500000  0.885886  1
  P  P25  1  0.000000  0.000000  0.114114  1
  P  P26  1  0.500000  0.500000  0.361423  1
  P  P27  1  0.000000  0.000000  0.638577  1
  P  P28  1  0.500000  0.307184  0.614483  1
  P  P29  1  0.500000  0.692816  0.614483  1
  P  P30  1  0.000000  0.192816  0.385517  1
  P  P31  1  0.000000  0.807184  0.385517  1
  P  P32  1  0.500000  0.839491  0.896229  1
  P  P33  1  0.500000  0.160509  0.896229  1
  P  P34  1  0.000000  0.660509  0.103771  1
  P  P35  1  0.000000  0.339491  0.103771  1
