# generated using pymatgen
data_Tb7Dy12HoSn16
_symmetry_space_group_name_H-M   'P 1'
_cell_length_a   8.04756431
_cell_length_b   8.19169256
_cell_length_c   15.48354260
_cell_angle_alpha   90.00272782
_cell_angle_beta   90.03166116
_cell_angle_gamma   89.97656423
_symmetry_Int_Tables_number   1
_chemical_formula_structural   Tb7Dy12HoSn16
_chemical_formula_sum   'Tb7 Dy12 Ho1 Sn16'
_cell_volume   1020.72401074
_cell_formula_units_Z   1
loop_
 _symmetry_equiv_pos_site_id
 _symmetry_equiv_pos_as_xyz
  1  'x, y, z'
loop_
 _atom_site_type_symbol
 _atom_site_label
 _atom_site_symmetry_multiplicity
 _atom_site_fract_x
 _atom_site_fract_y
 _atom_site_fract_z
 _atom_site_occupancy
  Tb  Tb0  1  0.020095  0.179757  0.597781  1
  Tb  Tb1  1  0.479984  0.679637  0.402420  1
  Tb  Tb2  1  0.979890  0.820385  0.097653  1
  Tb  Tb3  1  0.479900  0.679537  0.097557  1
  Tb  Tb4  1  0.979962  0.820340  0.402359  1
  Tb  Tb5  1  0.519959  0.320476  0.597636  1
  Tb  Tb6  1  0.020132  0.179788  0.902292  1
  Dy  Dy7  1  0.367371  0.836401  0.877913  1
  Dy  Dy8  1  0.867412  0.663501  0.622130  1
  Dy  Dy9  1  0.632639  0.163636  0.377977  1
  Dy  Dy10  1  0.132499  0.336389  0.121861  1
  Dy  Dy11  1  0.632504  0.163679  0.121956  1
  Dy  Dy12  1  0.132664  0.336385  0.378098  1
  Dy  Dy13  1  0.367311  0.836423  0.622171  1
  Dy  Dy14  1  0.867497  0.663460  0.877937  1
  Dy  Dy15  1  0.520270  0.320538  0.902192  1
  Dy  Dy16  1  0.698645  0.997340  0.750076  1
  Dy  Dy17  1  0.801270  0.497165  0.249975  1
  Dy  Dy18  1  0.301273  0.002791  0.249972  1
  Ho  Ho19  1  0.198869  0.502747  0.750108  1
  Sn  Sn20  1  0.293312  0.036359  0.041689  1
  Sn  Sn21  1  0.793329  0.463573  0.458330  1
  Sn  Sn22  1  0.706647  0.963585  0.541816  1
  Sn  Sn23  1  0.207184  0.535944  0.957883  1
  Sn  Sn24  1  0.706588  0.963884  0.958130  1
  Sn  Sn25  1  0.206619  0.536378  0.542035  1
  Sn  Sn26  1  0.293372  0.036355  0.458335  1
  Sn  Sn27  1  0.792945  0.463301  0.041436  1
  Sn  Sn28  1  0.564844  0.618804  0.750014  1
  Sn  Sn29  1  0.065401  0.880650  0.750020  1
  Sn  Sn30  1  0.434588  0.380972  0.249989  1
  Sn  Sn31  1  0.934772  0.119202  0.250012  1
  Sn  Sn32  1  0.328692  0.147069  0.750165  1
  Sn  Sn33  1  0.828535  0.353765  0.750055  1
  Sn  Sn34  1  0.671439  0.853485  0.250006  1
  Sn  Sn35  1  0.171587  0.646301  0.250018  1
