# generated using pymatgen
data_BaEu(BeH4)2
_symmetry_space_group_name_H-M   'P 1'
_cell_length_a   4.66353208
_cell_length_b   4.66512699
_cell_length_c   6.39085397
_cell_angle_alpha   89.75488077
_cell_angle_beta   89.97851223
_cell_angle_gamma   89.99924753
_symmetry_Int_Tables_number   1
_chemical_formula_structural   BaEu(BeH4)2
_chemical_formula_sum   'Ba1 Eu1 Be2 H8'
_cell_volume   139.03794107
_cell_formula_units_Z   1
loop_
 _symmetry_equiv_pos_site_id
 _symmetry_equiv_pos_as_xyz
  1  'x, y, z'
loop_
 _atom_site_type_symbol
 _atom_site_label
 _atom_site_symmetry_multiplicity
 _atom_site_fract_x
 _atom_site_fract_y
 _atom_site_fract_z
 _atom_site_occupancy
  Ba  Ba0  1  0.681588  0.251897  0.750002  1
  Eu  Eu1  1  0.181985  0.750079  0.249987  1
  Be  Be2  1  0.681828  0.245465  0.249941  1
  Be  Be3  1  0.181691  0.754074  0.750045  1
  H  H4  1  0.425054  0.254181  0.127135  1
  H  H5  1  0.937268  0.747247  0.885788  1
  H  H6  1  0.675748  0.988370  0.373469  1
  H  H7  1  0.178215  0.999675  0.614757  1
  H  H8  1  0.689790  0.500073  0.373741  1
  H  H9  1  0.187087  0.512831  0.612232  1
  H  H10  1  0.936764  0.239852  0.125223  1
  H  H11  1  0.424205  0.756255  0.887680  1
