# generated using pymatgen
data_Ho7ErSi8(Pd3Pt)2
_symmetry_space_group_name_H-M   'P 1'
_cell_length_a   4.30618500
_cell_length_b   7.47325703
_cell_length_c   13.91177904
_cell_angle_alpha   89.99116516
_cell_angle_beta   90.00012839
_cell_angle_gamma   90.00243546
_symmetry_Int_Tables_number   1
_chemical_formula_structural   Ho7ErSi8(Pd3Pt)2
_chemical_formula_sum   'Ho7 Er1 Si8 Pd6 Pt2'
_cell_volume   447.69811783
_cell_formula_units_Z   1
loop_
 _symmetry_equiv_pos_site_id
 _symmetry_equiv_pos_as_xyz
  1  'x, y, z'
loop_
 _atom_site_type_symbol
 _atom_site_label
 _atom_site_symmetry_multiplicity
 _atom_site_fract_x
 _atom_site_fract_y
 _atom_site_fract_z
 _atom_site_occupancy
  Ho  Ho0  1  0.000036  0.299703  0.999890  1
  Ho  Ho1  1  0.499967  0.702114  0.500145  1
  Ho  Ho2  1  0.999972  0.290601  0.500043  1
  Ho  Ho3  1  0.500031  0.709301  0.999905  1
  Ho  Ho4  1  0.999986  0.208029  0.249646  1
  Ho  Ho5  1  0.500022  0.791118  0.250840  1
  Ho  Ho6  1  0.999978  0.207754  0.750342  1
  Er  Er7  1  0.500028  0.790711  0.749198  1
  Si  Si8  1  0.999994  0.909442  0.593778  1
  Si  Si9  1  0.500006  0.091542  0.906818  1
  Si  Si10  1  0.999991  0.909557  0.406580  1
  Si  Si11  1  0.500006  0.091578  0.092887  1
  Si  Si12  1  0.000006  0.592181  0.143863  1
  Si  Si13  1  0.499993  0.406762  0.356670  1
  Si  Si14  1  0.000012  0.592563  0.855902  1
  Si  Si15  1  0.499992  0.406747  0.643363  1
  Pd  Pd16  1  0.999979  0.923695  0.891387  1
  Pd  Pd17  1  0.999980  0.923909  0.108187  1
  Pd  Pd18  1  0.499992  0.420893  0.156669  1
  Pd  Pd19  1  0.999995  0.579839  0.342907  1
  Pd  Pd20  1  0.500001  0.421322  0.843119  1
  Pd  Pd21  1  0.999995  0.580329  0.657404  1
  Pt  Pt22  1  0.500021  0.074888  0.610038  1
  Pt  Pt23  1  0.500017  0.075420  0.390418  1
