# generated using pymatgen
data_Pr2TmHf3(SnRh)6
_symmetry_space_group_name_H-M   'P 1'
_cell_length_a   7.50220601
_cell_length_b   7.49284275
_cell_length_c   7.65590700
_cell_angle_alpha   90.00000000
_cell_angle_beta   90.00000000
_cell_angle_gamma   120.04672963
_symmetry_Int_Tables_number   1
_chemical_formula_structural   Pr2TmHf3(SnRh)6
_chemical_formula_sum   'Pr2 Tm1 Hf3 Sn6 Rh6'
_cell_volume   372.52737473
_cell_formula_units_Z   1
loop_
 _symmetry_equiv_pos_site_id
 _symmetry_equiv_pos_as_xyz
  1  'x, y, z'
loop_
 _atom_site_type_symbol
 _atom_site_label
 _atom_site_symmetry_multiplicity
 _atom_site_fract_x
 _atom_site_fract_y
 _atom_site_fract_z
 _atom_site_occupancy
  Pr  Pr0  1  0.999780  0.408362  0.750000  1
  Pr  Pr1  1  0.591402  0.591587  0.750000  1
  Tm  Tm2  1  0.404303  0.000179  0.750000  1
  Hf  Hf3  1  0.998708  0.393202  0.250000  1
  Hf  Hf4  1  0.606203  0.606182  0.250000  1
  Hf  Hf5  1  0.395483  0.000635  0.250000  1
  Sn  Sn6  1  0.265236  0.263221  0.487510  1
  Sn  Sn7  1  0.003008  0.737273  0.487574  1
  Sn  Sn8  1  0.003008  0.737273  0.012426  1
  Sn  Sn9  1  0.732491  0.999587  0.492372  1
  Sn  Sn10  1  0.732491  0.999587  0.007628  1
  Sn  Sn11  1  0.265236  0.263221  0.012490  1
  Rh  Rh12  1  0.333816  0.668945  0.453566  1
  Rh  Rh13  1  0.664759  0.330940  0.454532  1
  Rh  Rh14  1  0.333816  0.668945  0.046434  1
  Rh  Rh15  1  0.008047  0.999969  0.750000  1
  Rh  Rh16  1  0.997451  0.999954  0.250000  1
  Rh  Rh17  1  0.664759  0.330940  0.045468  1
