# generated using pymatgen
data_Nb12Al9Co3N4
_symmetry_space_group_name_H-M   'P 1'
_cell_length_a   8.23205321
_cell_length_b   8.23245896
_cell_length_c   8.24082978
_cell_angle_alpha   60.03383897
_cell_angle_beta   60.03275108
_cell_angle_gamma   59.99874643
_symmetry_Int_Tables_number   1
_chemical_formula_structural   Nb12Al9Co3N4
_chemical_formula_sum   'Nb12 Al9 Co3 N4'
_cell_volume   395.10083499
_cell_formula_units_Z   1
loop_
 _symmetry_equiv_pos_site_id
 _symmetry_equiv_pos_as_xyz
  1  'x, y, z'
loop_
 _atom_site_type_symbol
 _atom_site_label
 _atom_site_symmetry_multiplicity
 _atom_site_fract_x
 _atom_site_fract_y
 _atom_site_fract_z
 _atom_site_occupancy
  Nb  Nb0  1  0.808208  0.808210  0.186783  1
  Nb  Nb1  1  0.185952  0.185964  0.816076  1
  Nb  Nb2  1  0.812012  0.185958  0.816079  1
  Nb  Nb3  1  0.196799  0.808210  0.186784  1
  Nb  Nb4  1  0.185958  0.812006  0.816072  1
  Nb  Nb5  1  0.808215  0.196798  0.186772  1
  Nb  Nb6  1  0.441792  0.441790  0.063217  1
  Nb  Nb7  1  0.064048  0.064036  0.433924  1
  Nb  Nb8  1  0.437988  0.064042  0.433921  1
  Nb  Nb9  1  0.053201  0.441790  0.063216  1
  Nb  Nb10  1  0.064042  0.437994  0.433928  1
  Nb  Nb11  1  0.441785  0.053202  0.063228  1
  Al  Al12  1  0.625000  0.625000  0.125000  1
  Al  Al13  1  0.747726  0.409438  0.433404  1
  Al  Al14  1  0.409460  0.747716  0.433395  1
  Al  Al15  1  0.415585  0.415561  0.753298  1
  Al  Al16  1  0.409460  0.409432  0.433395  1
  Al  Al17  1  0.502274  0.840562  0.816596  1
  Al  Al18  1  0.840540  0.502284  0.816605  1
  Al  Al19  1  0.834415  0.834439  0.496702  1
  Al  Al20  1  0.840540  0.840568  0.816605  1
  Co  Co21  1  0.125000  0.625000  0.625000  1
  Co  Co22  1  0.625000  0.125000  0.625000  1
  Co  Co23  1  0.625000  0.625000  0.625000  1
  N  N24  1  0.625000  0.125000  0.125000  1
  N  N25  1  0.125000  0.625000  0.125000  1
  N  N26  1  0.125000  0.125000  0.625000  1
  N  N27  1  0.125000  0.125000  0.125000  1
