# generated using pymatgen
data_Lu3BeP2Ru3
_symmetry_space_group_name_H-M   'P 1'
_cell_length_a   6.76972100
_cell_length_b   6.76972180
_cell_length_c   3.61821600
_cell_angle_alpha   90.00000000
_cell_angle_beta   90.00000000
_cell_angle_gamma   120.00000097
_symmetry_Int_Tables_number   1
_chemical_formula_structural   Lu3BeP2Ru3
_chemical_formula_sum   'Lu3 Be1 P2 Ru3'
_cell_volume   143.60405708
_cell_formula_units_Z   1
loop_
 _symmetry_equiv_pos_site_id
 _symmetry_equiv_pos_as_xyz
  1  'x, y, z'
loop_
 _atom_site_type_symbol
 _atom_site_label
 _atom_site_symmetry_multiplicity
 _atom_site_fract_x
 _atom_site_fract_y
 _atom_site_fract_z
 _atom_site_occupancy
  Lu  Lu0  1  0.399128  0.399128  0.500000  1
  Lu  Lu1  1  0.600872  0.000000  0.500000  1
  Lu  Lu2  1  0.000000  0.600872  0.500000  1
  Be  Be3  1  0.000000  0.000000  0.500000  1
  P  P4  1  0.666667  0.333333  0.000000  1
  P  P5  1  0.333333  0.666667  0.000000  1
  Ru  Ru6  1  0.000000  0.241659  0.000000  1
  Ru  Ru7  1  0.241659  0.000000  0.000000  1
  Ru  Ru8  1  0.758341  0.758341  0.000000  1
