# generated using pymatgen
data_LaY2Rh8Au
_symmetry_space_group_name_H-M   'P 1'
_cell_length_a   5.37504301
_cell_length_b   5.37482139
_cell_length_c   17.55457300
_cell_angle_alpha   90.00000000
_cell_angle_beta   90.00000000
_cell_angle_gamma   119.99376099
_symmetry_Int_Tables_number   1
_chemical_formula_structural   LaY2Rh8Au
_chemical_formula_sum   'La2 Y4 Rh16 Au2'
_cell_volume   439.23221187
_cell_formula_units_Z   2
loop_
 _symmetry_equiv_pos_site_id
 _symmetry_equiv_pos_as_xyz
  1  'x, y, z'
loop_
 _atom_site_type_symbol
 _atom_site_label
 _atom_site_symmetry_multiplicity
 _atom_site_fract_x
 _atom_site_fract_y
 _atom_site_fract_z
 _atom_site_occupancy
  La  La0  1  0.333355  0.666657  0.750000  1
  La  La1  1  0.666645  0.333343  0.250000  1
  Y  Y2  1  0.333335  0.666666  0.958704  1
  Y  Y3  1  0.666665  0.333334  0.041296  1
  Y  Y4  1  0.666665  0.333334  0.458704  1
  Y  Y5  1  0.333335  0.666666  0.541296  1
  Rh  Rh6  1  0.166829  0.833181  0.378287  1
  Rh  Rh7  1  0.166817  0.333632  0.378271  1
  Rh  Rh8  1  0.666379  0.833185  0.378267  1
  Rh  Rh9  1  0.833171  0.166819  0.621713  1
  Rh  Rh10  1  0.833183  0.666368  0.621729  1
  Rh  Rh11  1  0.333621  0.166815  0.621733  1
  Rh  Rh12  1  0.833171  0.166819  0.878287  1
  Rh  Rh13  1  0.833183  0.666368  0.878271  1
  Rh  Rh14  1  0.333621  0.166815  0.878267  1
  Rh  Rh15  1  0.166829  0.833181  0.121713  1
  Rh  Rh16  1  0.166817  0.333632  0.121729  1
  Rh  Rh17  1  0.666379  0.833185  0.121733  1
  Rh  Rh18  1  0.999882  0.999993  0.250000  1
  Rh  Rh19  1  0.000118  0.000007  0.750000  1
  Rh  Rh20  1  0.000000  0.000000  0.500000  1
  Rh  Rh21  1  0.000000  0.000000  0.000000  1
  Au  Au22  1  0.333417  0.666682  0.250000  1
  Au  Au23  1  0.666583  0.333318  0.750000  1
