# generated using pymatgen
data_Nd4Dy3Ho(B6Ru)4
_symmetry_space_group_name_H-M   'P 1'
_cell_length_a   3.71974000
_cell_length_b   9.22703701
_cell_length_c   11.64352502
_cell_angle_alpha   90.00605036
_cell_angle_beta   90.00000000
_cell_angle_gamma   90.00000000
_symmetry_Int_Tables_number   1
_chemical_formula_structural   Nd4Dy3Ho(B6Ru)4
_chemical_formula_sum   'Nd4 Dy3 Ho1 B24 Ru4'
_cell_volume   399.63114359
_cell_formula_units_Z   1
loop_
 _symmetry_equiv_pos_site_id
 _symmetry_equiv_pos_as_xyz
  1  'x, y, z'
loop_
 _atom_site_type_symbol
 _atom_site_label
 _atom_site_symmetry_multiplicity
 _atom_site_fract_x
 _atom_site_fract_y
 _atom_site_fract_z
 _atom_site_occupancy
  Nd  Nd0  1  0.000000  0.323184  0.414194  1
  Nd  Nd1  1  0.000000  0.676809  0.585882  1
  Nd  Nd2  1  0.000000  0.823105  0.085755  1
  Nd  Nd3  1  0.000000  0.176905  0.914152  1
  Dy  Dy4  1  0.000000  0.943978  0.371658  1
  Dy  Dy5  1  0.000000  0.056019  0.628376  1
  Dy  Dy6  1  0.000000  0.444036  0.128195  1
  Ho  Ho7  1  0.000000  0.556027  0.871652  1
  B  B8  1  0.500000  0.556315  0.430413  1
  B  B9  1  0.500000  0.443699  0.569644  1
  B  B10  1  0.500000  0.056303  0.069581  1
  B  B11  1  0.500000  0.943608  0.930391  1
  B  B12  1  0.500000  0.749238  0.417529  1
  B  B13  1  0.500000  0.250799  0.582489  1
  B  B14  1  0.500000  0.249255  0.082466  1
  B  B15  1  0.500000  0.750456  0.917523  1
  B  B16  1  0.500000  0.790166  0.266982  1
  B  B17  1  0.500000  0.209927  0.733046  1
  B  B18  1  0.500000  0.290184  0.233003  1
  B  B19  1  0.500000  0.709523  0.767058  1
  B  B20  1  0.500000  0.631060  0.185357  1
  B  B21  1  0.500000  0.369167  0.814755  1
  B  B22  1  0.500000  0.131077  0.314629  1
  B  B23  1  0.500000  0.868873  0.685413  1
  B  B24  1  0.500000  0.986234  0.213778  1
  B  B25  1  0.500000  0.013726  0.786229  1
  B  B26  1  0.500000  0.486222  0.286206  1
  B  B27  1  0.500000  0.513962  0.714006  1
  B  B28  1  0.500000  0.603878  0.028159  1
  B  B29  1  0.500000  0.396366  0.971326  1
  B  B30  1  0.500000  0.103999  0.471524  1
  B  B31  1  0.500000  0.895990  0.528486  1
  Ru  Ru32  1  0.000000  0.639413  0.319681  1
  Ru  Ru33  1  0.000000  0.360795  0.680457  1
  Ru  Ru34  1  0.000000  0.139446  0.180262  1
  Ru  Ru35  1  0.000000  0.860259  0.819742  1
