# generated using pymatgen
data_SrSb12MoRuPt2
_symmetry_space_group_name_H-M   'P 1'
_cell_length_a   8.27843609
_cell_length_b   8.18110785
_cell_length_c   8.28203008
_cell_angle_alpha   109.30210440
_cell_angle_beta   109.66261104
_cell_angle_gamma   109.28237522
_symmetry_Int_Tables_number   1
_chemical_formula_structural   SrSb12MoRuPt2
_chemical_formula_sum   'Sr1 Sb12 Mo1 Ru1 Pt2'
_cell_volume   432.67356291
_cell_formula_units_Z   1
loop_
 _symmetry_equiv_pos_site_id
 _symmetry_equiv_pos_as_xyz
  1  'x, y, z'
loop_
 _atom_site_type_symbol
 _atom_site_label
 _atom_site_symmetry_multiplicity
 _atom_site_fract_x
 _atom_site_fract_y
 _atom_site_fract_z
 _atom_site_occupancy
  Sr  Sr0  1  0.000000  0.000000  0.000000  1
  Sb  Sb1  1  0.161464  0.496643  0.338816  1
  Sb  Sb2  1  0.501180  0.651650  0.837544  1
  Sb  Sb3  1  0.340235  0.842030  0.187683  1
  Sb  Sb4  1  0.812349  0.653570  0.152186  1
  Sb  Sb5  1  0.653583  0.839940  0.501201  1
  Sb  Sb6  1  0.187651  0.346430  0.847814  1
  Sb  Sb7  1  0.659765  0.157970  0.812317  1
  Sb  Sb8  1  0.346417  0.160060  0.498799  1
  Sb  Sb9  1  0.498820  0.348350  0.162456  1
  Sb  Sb10  1  0.838536  0.503357  0.661184  1
  Sb  Sb11  1  0.846169  0.193320  0.345508  1
  Sb  Sb12  1  0.153831  0.806680  0.654492  1
  Mo  Mo13  1  0.000000  0.500000  0.000000  1
  Ru  Ru14  1  0.500000  0.500000  0.500000  1
  Pt  Pt15  1  0.500000  0.000000  0.000000  1
  Pt  Pt16  1  0.000000  0.000000  0.500000  1
