# generated using pymatgen
data_AcPr(Si2Ir3)2
_symmetry_space_group_name_H-M   'P 1'
_cell_length_a   6.77416897
_cell_length_b   6.77416884
_cell_length_c   6.77416940
_cell_angle_alpha   130.23987736
_cell_angle_beta   115.01353858
_cell_angle_gamma   86.05370100
_symmetry_Int_Tables_number   1
_chemical_formula_structural   AcPr(Si2Ir3)2
_chemical_formula_sum   'Ac1 Pr1 Si4 Ir6'
_cell_volume   205.44470254
_cell_formula_units_Z   1
loop_
 _symmetry_equiv_pos_site_id
 _symmetry_equiv_pos_as_xyz
  1  'x, y, z'
loop_
 _atom_site_type_symbol
 _atom_site_label
 _atom_site_symmetry_multiplicity
 _atom_site_fract_x
 _atom_site_fract_y
 _atom_site_fract_z
 _atom_site_occupancy
  Ac  Ac0  1  0.250000  0.974770  0.724770  1
  Pr  Pr1  1  0.750000  0.029714  0.279714  1
  Si  Si2  1  0.077158  0.281439  0.204282  1
  Si  Si3  1  0.919790  0.717531  0.797741  1
  Si  Si4  1  0.422842  0.627124  0.204282  1
  Si  Si5  1  0.580210  0.377951  0.797741  1
  Ir  Ir6  1  0.502473  0.499653  0.502127  1
  Ir  Ir7  1  0.997527  0.499653  0.997180  1
  Ir  Ir8  1  0.281379  0.999943  0.277517  1
  Ir  Ir9  1  0.722426  0.999943  0.718564  1
  Ir  Ir10  1  0.218621  0.496139  0.718564  1
  Ir  Ir11  1  0.777574  0.496139  0.277517  1
