# generated using pymatgen
data_DyHoTa2(B6Os)2
_symmetry_space_group_name_H-M   'P 1'
_cell_length_a   3.50032500
_cell_length_b   8.98860000
_cell_length_c   11.27773802
_cell_angle_alpha   90.00180417
_cell_angle_beta   90.00000000
_cell_angle_gamma   90.00000000
_symmetry_Int_Tables_number   1
_chemical_formula_structural   DyHoTa2(B6Os)2
_chemical_formula_sum   'Dy2 Ho2 Ta4 B24 Os4'
_cell_volume   354.83171124
_cell_formula_units_Z   2
loop_
 _symmetry_equiv_pos_site_id
 _symmetry_equiv_pos_as_xyz
  1  'x, y, z'
loop_
 _atom_site_type_symbol
 _atom_site_label
 _atom_site_symmetry_multiplicity
 _atom_site_fract_x
 _atom_site_fract_y
 _atom_site_fract_z
 _atom_site_occupancy
  Dy  Dy0  1  0.000000  0.823754  0.086688  1
  Dy  Dy1  1  0.000000  0.176246  0.913312  1
  Ho  Ho2  1  0.000000  0.323708  0.413163  1
  Ho  Ho3  1  0.000000  0.676292  0.586837  1
  Ta  Ta4  1  0.000000  0.947208  0.377204  1
  Ta  Ta5  1  0.000000  0.052792  0.622796  1
  Ta  Ta6  1  0.000000  0.447342  0.122958  1
  Ta  Ta7  1  0.000000  0.552658  0.877042  1
  B  B8  1  0.500000  0.554578  0.434267  1
  B  B9  1  0.500000  0.445422  0.565733  1
  B  B10  1  0.500000  0.054676  0.066102  1
  B  B11  1  0.500000  0.945324  0.933898  1
  B  B12  1  0.500000  0.754281  0.419308  1
  B  B13  1  0.500000  0.245719  0.580692  1
  B  B14  1  0.500000  0.254488  0.081127  1
  B  B15  1  0.500000  0.745512  0.918873  1
  B  B16  1  0.500000  0.798154  0.263189  1
  B  B17  1  0.500000  0.201846  0.736811  1
  B  B18  1  0.500000  0.298279  0.237366  1
  B  B19  1  0.500000  0.701721  0.762634  1
  B  B20  1  0.500000  0.629337  0.181172  1
  B  B21  1  0.500000  0.370663  0.818828  1
  B  B22  1  0.500000  0.129587  0.319179  1
  B  B23  1  0.500000  0.870413  0.680821  1
  B  B24  1  0.500000  0.980823  0.214139  1
  B  B25  1  0.500000  0.019177  0.785861  1
  B  B26  1  0.500000  0.480656  0.286353  1
  B  B27  1  0.500000  0.519344  0.713647  1
  B  B28  1  0.500000  0.600483  0.026741  1
  B  B29  1  0.500000  0.399517  0.973259  1
  B  B30  1  0.500000  0.100748  0.473222  1
  B  B31  1  0.500000  0.899252  0.526778  1
  Os  Os32  1  0.000000  0.643584  0.317875  1
  Os  Os33  1  0.000000  0.356416  0.682125  1
  Os  Os34  1  0.000000  0.143992  0.182692  1
  Os  Os35  1  0.000000  0.856008  0.817308  1
