# generated using pymatgen
data_Tb7DySc11Si16Tc
_symmetry_space_group_name_H-M   'P 1'
_cell_length_a   7.04501104
_cell_length_b   7.37258127
_cell_length_c   13.93887806
_cell_angle_alpha   89.99053538
_cell_angle_beta   89.99617375
_cell_angle_gamma   90.10994766
_symmetry_Int_Tables_number   1
_chemical_formula_structural   Tb7DySc11Si16Tc
_chemical_formula_sum   'Tb7 Dy1 Sc11 Si16 Tc1'
_cell_volume   723.98281647
_cell_formula_units_Z   1
loop_
 _symmetry_equiv_pos_site_id
 _symmetry_equiv_pos_as_xyz
  1  'x, y, z'
loop_
 _atom_site_type_symbol
 _atom_site_label
 _atom_site_symmetry_multiplicity
 _atom_site_fract_x
 _atom_site_fract_y
 _atom_site_fract_z
 _atom_site_occupancy
  Tb  Tb0  1  0.992941  0.819154  0.900461  1
  Tb  Tb1  1  0.487028  0.671818  0.901290  1
  Tb  Tb2  1  0.992946  0.819147  0.599561  1
  Tb  Tb3  1  0.511372  0.324271  0.095774  1
  Tb  Tb4  1  0.011845  0.176591  0.406044  1
  Tb  Tb5  1  0.511346  0.324301  0.404223  1
  Tb  Tb6  1  0.487025  0.671848  0.598728  1
  Dy  Dy7  1  0.011871  0.176709  0.094042  1
  Sc  Sc8  1  0.841099  0.496595  0.249982  1
  Sc  Sc9  1  0.341401  0.003128  0.249964  1
  Sc  Sc10  1  0.657930  0.996998  0.750007  1
  Sc  Sc11  1  0.326223  0.178663  0.627355  1
  Sc  Sc12  1  0.671743  0.824055  0.374721  1
  Sc  Sc13  1  0.171819  0.674762  0.376586  1
  Sc  Sc14  1  0.671762  0.824093  0.125260  1
  Sc  Sc15  1  0.829180  0.330751  0.628137  1
  Sc  Sc16  1  0.326187  0.178699  0.872667  1
  Sc  Sc17  1  0.829209  0.330687  0.871878  1
  Sc  Sc18  1  0.171827  0.674794  0.123409  1
  Si  Si19  1  0.030370  0.122134  0.750006  1
  Si  Si20  1  0.971246  0.884182  0.249955  1
  Si  Si21  1  0.468077  0.617877  0.249993  1
  Si  Si22  1  0.520934  0.391587  0.750004  1
  Si  Si23  1  0.285617  0.866400  0.749995  1
  Si  Si24  1  0.716120  0.127486  0.249920  1
  Si  Si25  1  0.213854  0.372926  0.249922  1
  Si  Si26  1  0.794812  0.626975  0.750001  1
  Si  Si27  1  0.155447  0.465448  0.546944  1
  Si  Si28  1  0.843419  0.535821  0.462837  1
  Si  Si29  1  0.346322  0.964674  0.463042  1
  Si  Si30  1  0.843462  0.535684  0.037189  1
  Si  Si31  1  0.656705  0.034600  0.540069  1
  Si  Si32  1  0.155430  0.465319  0.953092  1
  Si  Si33  1  0.656787  0.034629  0.959937  1
  Si  Si34  1  0.346111  0.964762  0.036999  1
  Tc  Tc35  1  0.150535  0.492430  0.750005  1
