# generated using pymatgen
data_Er6Al24Fe3Os5
_symmetry_space_group_name_H-M   'P 1'
_cell_length_a   8.75994600
_cell_length_b   8.73625861
_cell_length_c   9.45663941
_cell_angle_alpha   90.15411133
_cell_angle_beta   90.00000000
_cell_angle_gamma   120.08972501
_symmetry_Int_Tables_number   1
_chemical_formula_structural   Er6Al24Fe3Os5
_chemical_formula_sum   'Er6 Al24 Fe3 Os5'
_cell_volume   626.17958526
_cell_formula_units_Z   1
loop_
 _symmetry_equiv_pos_site_id
 _symmetry_equiv_pos_as_xyz
  1  'x, y, z'
loop_
 _atom_site_type_symbol
 _atom_site_label
 _atom_site_symmetry_multiplicity
 _atom_site_fract_x
 _atom_site_fract_y
 _atom_site_fract_z
 _atom_site_occupancy
  Er  Er0  1  0.194642  0.389284  0.247935  1
  Er  Er1  1  0.805358  0.610716  0.752065  1
  Er  Er2  1  0.612126  0.804009  0.250238  1
  Er  Er3  1  0.387874  0.195991  0.749762  1
  Er  Er4  1  0.191882  0.804009  0.250238  1
  Er  Er5  1  0.808118  0.195991  0.749762  1
  Al  Al6  1  0.337151  0.674304  0.014295  1
  Al  Al7  1  0.662849  0.325696  0.985705  1
  Al  Al8  1  0.666599  0.333197  0.513995  1
  Al  Al9  1  0.333401  0.666803  0.486005  1
  Al  Al10  1  0.159217  0.318434  0.575124  1
  Al  Al11  1  0.840783  0.681566  0.424876  1
  Al  Al12  1  0.681613  0.841482  0.576327  1
  Al  Al13  1  0.840153  0.680305  0.075487  1
  Al  Al14  1  0.318387  0.158518  0.423673  1
  Al  Al15  1  0.159847  0.319695  0.924513  1
  Al  Al16  1  0.159869  0.841482  0.576327  1
  Al  Al17  1  0.319441  0.156863  0.075230  1
  Al  Al18  1  0.840131  0.158518  0.423673  1
  Al  Al19  1  0.680559  0.843137  0.924770  1
  Al  Al20  1  0.837422  0.156863  0.075230  1
  Al  Al21  1  0.162578  0.843137  0.924770  1
  Al  Al22  1  0.558208  0.116417  0.244423  1
  Al  Al23  1  0.441792  0.883583  0.755577  1
  Al  Al24  1  0.876342  0.437235  0.249643  1
  Al  Al25  1  0.123658  0.562765  0.750357  1
  Al  Al26  1  0.560893  0.437235  0.249643  1
  Al  Al27  1  0.439107  0.562765  0.750357  1
  Al  Al28  1  0.999863  0.999725  0.250041  1
  Al  Al29  1  0.000137  0.000275  0.749959  1
  Fe  Fe30  1  0.500000  0.000000  0.000000  1
  Fe  Fe31  1  0.000000  0.000000  0.000000  1
  Fe  Fe32  1  0.000000  0.000000  0.500000  1
  Os  Os33  1  0.000000  0.500000  0.000000  1
  Os  Os34  1  0.500000  0.000000  0.500000  1
  Os  Os35  1  0.500000  0.500000  0.000000  1
  Os  Os36  1  0.000000  0.500000  0.500000  1
  Os  Os37  1  0.500000  0.500000  0.500000  1
