# generated using pymatgen
data_Yb5Eu7(TmSi2)8
_symmetry_space_group_name_H-M   'P 1'
_cell_length_a   7.47012792
_cell_length_b   7.86655661
_cell_length_c   14.94993000
_cell_angle_alpha   90.06977560
_cell_angle_beta   90.15380642
_cell_angle_gamma   89.97439350
_symmetry_Int_Tables_number   1
_chemical_formula_structural   Yb5Eu7(TmSi2)8
_chemical_formula_sum   'Yb5 Eu7 Tm8 Si16'
_cell_volume   878.51653570
_cell_formula_units_Z   1
loop_
 _symmetry_equiv_pos_site_id
 _symmetry_equiv_pos_as_xyz
  1  'x, y, z'
loop_
 _atom_site_type_symbol
 _atom_site_label
 _atom_site_symmetry_multiplicity
 _atom_site_fract_x
 _atom_site_fract_y
 _atom_site_fract_z
 _atom_site_occupancy
  Yb  Yb0  1  0.976243  0.817700  0.096256  1
  Yb  Yb1  1  0.349179  0.016949  0.750432  1
  Yb  Yb2  1  0.849141  0.483768  0.750609  1
  Yb  Yb3  1  0.149867  0.517230  0.249134  1
  Yb  Yb4  1  0.651711  0.981496  0.249033  1
  Eu  Eu5  1  0.975355  0.819568  0.402578  1
  Eu  Eu6  1  0.475681  0.681256  0.097493  1
  Eu  Eu7  1  0.524206  0.320128  0.597236  1
  Eu  Eu8  1  0.025171  0.180453  0.903851  1
  Eu  Eu9  1  0.024303  0.180531  0.597706  1
  Eu  Eu10  1  0.525371  0.320584  0.903665  1
  Eu  Eu11  1  0.474548  0.680321  0.402061  1
  Tm  Tm12  1  0.318216  0.178116  0.121234  1
  Tm  Tm13  1  0.818723  0.320570  0.378058  1
  Tm  Tm14  1  0.181531  0.679897  0.879706  1
  Tm  Tm15  1  0.680958  0.821112  0.621409  1
  Tm  Tm16  1  0.318314  0.178403  0.377630  1
  Tm  Tm17  1  0.818464  0.321262  0.121099  1
  Tm  Tm18  1  0.181095  0.679068  0.621503  1
  Tm  Tm19  1  0.682401  0.821251  0.879404  1
  Si  Si20  1  0.856843  0.533458  0.537644  1
  Si  Si21  1  0.358385  0.967214  0.962190  1
  Si  Si22  1  0.642459  0.033547  0.461797  1
  Si  Si23  1  0.143732  0.467186  0.038452  1
  Si  Si24  1  0.142672  0.465630  0.461938  1
  Si  Si25  1  0.644186  0.033315  0.038230  1
  Si  Si26  1  0.356399  0.966328  0.537539  1
  Si  Si27  1  0.857690  0.534350  0.962359  1
  Si  Si28  1  0.971161  0.882069  0.750607  1
  Si  Si29  1  0.471186  0.618771  0.750655  1
  Si  Si30  1  0.527762  0.381850  0.249291  1
  Si  Si31  1  0.027965  0.117704  0.249051  1
  Si  Si32  1  0.242979  0.398624  0.750601  1
  Si  Si33  1  0.742870  0.102103  0.750593  1
  Si  Si34  1  0.256414  0.897030  0.249034  1
  Si  Si35  1  0.756823  0.601156  0.249918  1
