# generated using pymatgen
data_Tb3SiGeRu2
_symmetry_space_group_name_H-M   'P 1'
_cell_length_a   5.61600300
_cell_length_b   7.60409200
_cell_length_c   13.61702300
_cell_angle_alpha   90.00000000
_cell_angle_beta   90.00000000
_cell_angle_gamma   90.00000000
_symmetry_Int_Tables_number   1
_chemical_formula_structural   Tb3SiGeRu2
_chemical_formula_sum   'Tb12 Si4 Ge4 Ru8'
_cell_volume   581.50956785
_cell_formula_units_Z   4
loop_
 _symmetry_equiv_pos_site_id
 _symmetry_equiv_pos_as_xyz
  1  'x, y, z'
loop_
 _atom_site_type_symbol
 _atom_site_label
 _atom_site_symmetry_multiplicity
 _atom_site_fract_x
 _atom_site_fract_y
 _atom_site_fract_z
 _atom_site_occupancy
  Tb  Tb0  1  0.147056  0.401962  0.599386  1
  Tb  Tb1  1  0.852944  0.598038  0.099386  1
  Tb  Tb2  1  0.147056  0.098038  0.400614  1
  Tb  Tb3  1  0.852944  0.901962  0.900614  1
  Tb  Tb4  1  0.852944  0.598038  0.400614  1
  Tb  Tb5  1  0.147056  0.401962  0.900614  1
  Tb  Tb6  1  0.852944  0.901962  0.599386  1
  Tb  Tb7  1  0.147056  0.098038  0.099386  1
  Tb  Tb8  1  0.627434  0.261405  0.750000  1
  Tb  Tb9  1  0.372566  0.738595  0.250000  1
  Tb  Tb10  1  0.627434  0.238595  0.250000  1
  Tb  Tb11  1  0.372566  0.761405  0.750000  1
  Si  Si12  1  0.606457  0.250000  0.500000  1
  Si  Si13  1  0.393543  0.750000  0.000000  1
  Si  Si14  1  0.393543  0.750000  0.500000  1
  Si  Si15  1  0.606457  0.250000  0.000000  1
  Ge  Ge16  1  0.130294  0.112552  0.750000  1
  Ge  Ge17  1  0.869706  0.887448  0.250000  1
  Ge  Ge18  1  0.130294  0.387448  0.250000  1
  Ge  Ge19  1  0.869706  0.612552  0.750000  1
  Ru  Ru20  1  0.355776  0.029910  0.589022  1
  Ru  Ru21  1  0.644224  0.970090  0.089022  1
  Ru  Ru22  1  0.355776  0.470090  0.410978  1
  Ru  Ru23  1  0.644224  0.529910  0.910978  1
  Ru  Ru24  1  0.644224  0.970090  0.410978  1
  Ru  Ru25  1  0.355776  0.029910  0.910978  1
  Ru  Ru26  1  0.644224  0.529910  0.589022  1
  Ru  Ru27  1  0.355776  0.470090  0.089022  1
