# generated using pymatgen
data_Dy5Ho5(Bi3C)2
_symmetry_space_group_name_H-M   'P 1'
_cell_length_a   6.48487800
_cell_length_b   9.13567116
_cell_length_c   9.13271909
_cell_angle_alpha   120.01068690
_cell_angle_beta   89.99964759
_cell_angle_gamma   90.00071364
_symmetry_Int_Tables_number   1
_chemical_formula_structural   Dy5Ho5(Bi3C)2
_chemical_formula_sum   'Dy5 Ho5 Bi6 C2'
_cell_volume   468.51793608
_cell_formula_units_Z   1
loop_
 _symmetry_equiv_pos_site_id
 _symmetry_equiv_pos_as_xyz
  1  'x, y, z'
loop_
 _atom_site_type_symbol
 _atom_site_label
 _atom_site_symmetry_multiplicity
 _atom_site_fract_x
 _atom_site_fract_y
 _atom_site_fract_z
 _atom_site_occupancy
  Dy  Dy0  1  0.500035  0.333327  0.666656  1
  Dy  Dy1  1  0.500035  0.666671  0.333344  1
  Dy  Dy2  1  0.999960  0.666676  0.333343  1
  Dy  Dy3  1  0.999960  0.333333  0.666657  1
  Dy  Dy4  1  0.749997  0.208027  0.000000  1
  Ho  Ho5  1  0.750008  0.792749  0.792820  1
  Ho  Ho6  1  0.750008  0.999929  0.207180  1
  Ho  Ho7  1  0.249997  0.792882  0.000000  1
  Ho  Ho8  1  0.249998  0.207062  0.207150  1
  Ho  Ho9  1  0.249998  0.999912  0.792850  1
  Bi  Bi10  1  0.750007  0.598906  0.000000  1
  Bi  Bi11  1  0.750000  0.401329  0.401524  1
  Bi  Bi12  1  0.750000  0.999805  0.598476  1
  Bi  Bi13  1  0.250003  0.401240  0.000000  1
  Bi  Bi14  1  0.249998  0.598729  0.598686  1
  Bi  Bi15  1  0.249998  0.000043  0.401314  1
  C  C16  1  0.499677  0.999689  0.000000  1
  C  C17  1  0.000322  0.999689  0.000000  1
