# generated using pymatgen
data_Dy2Co4P6(RuRh)3
_symmetry_space_group_name_H-M   'P 1'
_cell_length_a   3.78954200
_cell_length_b   10.74077300
_cell_length_c   12.08208400
_cell_angle_alpha   90.00000000
_cell_angle_beta   90.00000000
_cell_angle_gamma   90.00000000
_symmetry_Int_Tables_number   1
_chemical_formula_structural   Dy2Co4P6(RuRh)3
_chemical_formula_sum   'Dy4 Co8 P12 Ru6 Rh6'
_cell_volume   491.77235782
_cell_formula_units_Z   2
loop_
 _symmetry_equiv_pos_site_id
 _symmetry_equiv_pos_as_xyz
  1  'x, y, z'
loop_
 _atom_site_type_symbol
 _atom_site_label
 _atom_site_symmetry_multiplicity
 _atom_site_fract_x
 _atom_site_fract_y
 _atom_site_fract_z
 _atom_site_occupancy
  Dy  Dy0  1  0.250000  0.584082  0.706957  1
  Dy  Dy1  1  0.250000  0.915918  0.206957  1
  Dy  Dy2  1  0.750000  0.415619  0.293244  1
  Dy  Dy3  1  0.750000  0.084381  0.793244  1
  Co  Co4  1  0.250000  0.887262  0.697929  1
  Co  Co5  1  0.250000  0.612738  0.197929  1
  Co  Co6  1  0.750000  0.112243  0.300495  1
  Co  Co7  1  0.750000  0.387757  0.800495  1
  Co  Co8  1  0.250000  0.463366  0.931612  1
  Co  Co9  1  0.250000  0.036634  0.431612  1
  Co  Co10  1  0.750000  0.535723  0.067107  1
  Co  Co11  1  0.750000  0.964277  0.567107  1
  P  P12  1  0.250000  0.429929  0.110782  1
  P  P13  1  0.250000  0.070071  0.610782  1
  P  P14  1  0.750000  0.569766  0.888456  1
  P  P15  1  0.750000  0.930234  0.388456  1
  P  P16  1  0.250000  0.271497  0.876189  1
  P  P17  1  0.250000  0.228503  0.376189  1
  P  P18  1  0.750000  0.724765  0.125576  1
  P  P19  1  0.750000  0.775235  0.625576  1
  P  P20  1  0.250000  0.598231  0.385157  1
  P  P21  1  0.250000  0.901769  0.885157  1
  P  P22  1  0.750000  0.398926  0.612887  1
  P  P23  1  0.750000  0.101074  0.112887  1
  Ru  Ru24  1  0.250000  0.714770  0.991474  1
  Ru  Ru25  1  0.250000  0.785230  0.491474  1
  Ru  Ru26  1  0.750000  0.286597  0.008409  1
  Ru  Ru27  1  0.750000  0.213403  0.508409  1
  Ru  Ru28  1  0.250000  0.407635  0.488662  1
  Ru  Ru29  1  0.250000  0.092365  0.988662  1
  Rh  Rh30  1  0.750000  0.594433  0.514809  1
  Rh  Rh31  1  0.750000  0.905567  0.014809  1
  Rh  Rh32  1  0.250000  0.229417  0.182569  1
  Rh  Rh33  1  0.250000  0.270583  0.682569  1
  Rh  Rh34  1  0.750000  0.771514  0.817683  1
  Rh  Rh35  1  0.750000  0.728486  0.317683  1
