# generated using pymatgen
data_Pm4Zn3Ru
_symmetry_space_group_name_H-M   'P 1'
_cell_length_a   7.56207263
_cell_length_b   5.80416220
_cell_length_c   4.51350900
_cell_angle_alpha   90.00000000
_cell_angle_beta   90.00000000
_cell_angle_gamma   88.48278013
_symmetry_Int_Tables_number   1
_chemical_formula_structural   Pm4Zn3Ru
_chemical_formula_sum   'Pm4 Zn3 Ru1'
_cell_volume   198.03520961
_cell_formula_units_Z   1
loop_
 _symmetry_equiv_pos_site_id
 _symmetry_equiv_pos_as_xyz
  1  'x, y, z'
loop_
 _atom_site_type_symbol
 _atom_site_label
 _atom_site_symmetry_multiplicity
 _atom_site_fract_x
 _atom_site_fract_y
 _atom_site_fract_z
 _atom_site_occupancy
  Pm  Pm0  1  0.101541  0.489933  0.000000  1
  Pm  Pm1  1  0.589989  0.749902  0.000000  1
  Pm  Pm2  1  0.250409  0.023486  0.499999  1
  Pm  Pm3  1  0.719022  0.239902  0.499999  1
  Zn  Zn4  1  0.955684  0.992360  0.000000  1
  Zn  Zn5  1  0.379035  0.509986  0.499999  1
  Zn  Zn6  1  0.889820  0.739496  0.499999  1
  Ru  Ru7  1  0.447833  0.254937  0.000000  1
