# generated using pymatgen
data_Ba9(SrSb5)2
_symmetry_space_group_name_H-M   'P 1'
_cell_length_a   13.57689620
_cell_length_b   13.57689652
_cell_length_c   13.57689600
_cell_angle_alpha   123.54302543
_cell_angle_beta   120.98330910
_cell_angle_gamma   86.13812790
_symmetry_Int_Tables_number   1
_chemical_formula_structural   Ba9(SrSb5)2
_chemical_formula_sum   'Ba18 Sr4 Sb20'
_cell_volume   1703.73381695
_cell_formula_units_Z   2
loop_
 _symmetry_equiv_pos_site_id
 _symmetry_equiv_pos_as_xyz
  1  'x, y, z'
loop_
 _atom_site_type_symbol
 _atom_site_label
 _atom_site_symmetry_multiplicity
 _atom_site_fract_x
 _atom_site_fract_y
 _atom_site_fract_z
 _atom_site_occupancy
  Ba  Ba0  1  0.146405  0.146405  0.000000  1
  Ba  Ba1  1  0.853595  0.853595  0.000000  1
  Ba  Ba2  1  0.563156  0.311279  0.251877  1
  Ba  Ba3  1  0.436844  0.688721  0.748123  1
  Ba  Ba4  1  0.940597  0.688721  0.251877  1
  Ba  Ba5  1  0.059403  0.311279  0.748123  1
  Ba  Ba6  1  0.100584  0.427913  0.327329  1
  Ba  Ba7  1  0.899416  0.226745  0.327329  1
  Ba  Ba8  1  0.899416  0.572087  0.672671  1
  Ba  Ba9  1  0.100584  0.773255  0.672671  1
  Ba  Ba10  1  0.304428  0.553955  0.249528  1
  Ba  Ba11  1  0.695572  0.945099  0.249528  1
  Ba  Ba12  1  0.695572  0.446045  0.750472  1
  Ba  Ba13  1  0.304428  0.054901  0.750472  1
  Ba  Ba14  1  0.334728  0.325265  0.659993  1
  Ba  Ba15  1  0.665272  0.325265  0.990537  1
  Ba  Ba16  1  0.334728  0.674735  0.009463  1
  Ba  Ba17  1  0.665272  0.674735  0.340007  1
  Sr  Sr18  1  0.434440  0.109184  0.325255  1
  Sr  Sr19  1  0.565560  0.890816  0.674745  1
  Sr  Sr20  1  0.216071  0.890816  0.325255  1
  Sr  Sr21  1  0.783929  0.109184  0.674745  1
  Sb  Sb22  1  0.385986  0.385986  0.000000  1
  Sb  Sb23  1  0.614014  0.614014  0.000000  1
  Sb  Sb24  1  0.248076  0.748076  0.500000  1
  Sb  Sb25  1  0.751924  0.251924  0.500000  1
  Sb  Sb26  1  0.848838  0.500000  0.348838  1
  Sb  Sb27  1  0.151162  0.500000  0.651162  1
  Sb  Sb28  1  0.500000  0.112793  0.612793  1
  Sb  Sb29  1  0.500000  0.887207  0.387207  1
  Sb  Sb30  1  0.397004  0.393840  0.423694  1
  Sb  Sb31  1  0.602996  0.026689  0.996836  1
  Sb  Sb32  1  0.029854  0.606160  0.003164  1
  Sb  Sb33  1  0.970146  0.973311  0.576306  1
  Sb  Sb34  1  0.602996  0.606160  0.576306  1
  Sb  Sb35  1  0.397004  0.973311  0.003164  1
  Sb  Sb36  1  0.970146  0.393840  0.996836  1
  Sb  Sb37  1  0.029854  0.026689  0.423694  1
  Sb  Sb38  1  0.133360  0.109549  0.242909  1
  Sb  Sb39  1  0.866640  0.109549  0.976189  1
  Sb  Sb40  1  0.133360  0.890451  0.023811  1
  Sb  Sb41  1  0.866640  0.890451  0.757091  1
