# generated using pymatgen
data_Tb11YOsRu3
_symmetry_space_group_name_H-M   'P 1'
_cell_length_a   6.34258615
_cell_length_b   7.34761670
_cell_length_c   9.23167705
_cell_angle_alpha   90.01170155
_cell_angle_beta   90.00178678
_cell_angle_gamma   90.08352362
_symmetry_Int_Tables_number   1
_chemical_formula_structural   Tb11YOsRu3
_chemical_formula_sum   'Tb11 Y1 Os1 Ru3'
_cell_volume   430.22238153
_cell_formula_units_Z   1
loop_
 _symmetry_equiv_pos_site_id
 _symmetry_equiv_pos_as_xyz
  1  'x, y, z'
loop_
 _atom_site_type_symbol
 _atom_site_label
 _atom_site_symmetry_multiplicity
 _atom_site_fract_x
 _atom_site_fract_y
 _atom_site_fract_z
 _atom_site_occupancy
  Tb  Tb0  1  0.169347  0.176347  0.435262  1
  Tb  Tb1  1  0.669684  0.323729  0.564327  1
  Tb  Tb2  1  0.829588  0.823191  0.934984  1
  Tb  Tb3  1  0.669698  0.323865  0.935704  1
  Tb  Tb4  1  0.829658  0.823186  0.565019  1
  Tb  Tb5  1  0.331605  0.676145  0.436575  1
  Tb  Tb6  1  0.169361  0.176352  0.064648  1
  Tb  Tb7  1  0.866490  0.539966  0.249945  1
  Tb  Tb8  1  0.633625  0.039717  0.249958  1
  Tb  Tb9  1  0.132758  0.460691  0.749990  1
  Tb  Tb10  1  0.366053  0.961427  0.749970  1
  Y  Y11  1  0.331735  0.676140  0.063214  1
  Os  Os12  1  0.541781  0.615426  0.750065  1
  Ru  Ru13  1  0.040306  0.884816  0.250125  1
  Ru  Ru14  1  0.459172  0.383751  0.250281  1
  Ru  Ru15  1  0.959141  0.115252  0.749932  1
