# generated using pymatgen
data_PaVSi3
_symmetry_space_group_name_H-M   'P 1'
_cell_length_a   5.93676100
_cell_length_b   5.93676089
_cell_length_c   5.44413000
_cell_angle_alpha   90.00000000
_cell_angle_beta   90.00000000
_cell_angle_gamma   119.99999506
_symmetry_Int_Tables_number   1
_chemical_formula_structural   PaVSi3
_chemical_formula_sum   'Pa2 V2 Si6'
_cell_volume   166.17215934
_cell_formula_units_Z   2
loop_
 _symmetry_equiv_pos_site_id
 _symmetry_equiv_pos_as_xyz
  1  'x, y, z'
loop_
 _atom_site_type_symbol
 _atom_site_label
 _atom_site_symmetry_multiplicity
 _atom_site_fract_x
 _atom_site_fract_y
 _atom_site_fract_z
 _atom_site_occupancy
  Pa  Pa0  1  0.666666  0.333334  0.250000  1
  Pa  Pa1  1  0.333334  0.666667  0.750000  1
  V  V2  1  0.000000  0.000000  0.000000  1
  V  V3  1  0.000000  0.000000  0.500000  1
  Si  Si4  1  0.199117  0.398234  0.250000  1
  Si  Si5  1  0.199117  0.800883  0.250000  1
  Si  Si6  1  0.601766  0.800883  0.250000  1
  Si  Si7  1  0.398233  0.199116  0.750000  1
  Si  Si8  1  0.800882  0.199116  0.750000  1
  Si  Si9  1  0.800883  0.601767  0.750000  1
