# generated using pymatgen
data_Ho11Th3Sc2(InRh)4
_symmetry_space_group_name_H-M   'P 1'
_cell_length_a   9.69617205
_cell_length_b   9.70697176
_cell_length_c   9.71947700
_cell_angle_alpha   59.95757624
_cell_angle_beta   59.91936425
_cell_angle_gamma   59.99082795
_symmetry_Int_Tables_number   1
_chemical_formula_structural   Ho11Th3Sc2(InRh)4
_chemical_formula_sum   'Ho11 Th3 Sc2 In4 Rh4'
_cell_volume   646.21538576
_cell_formula_units_Z   1
loop_
 _symmetry_equiv_pos_site_id
 _symmetry_equiv_pos_as_xyz
  1  'x, y, z'
loop_
 _atom_site_type_symbol
 _atom_site_label
 _atom_site_symmetry_multiplicity
 _atom_site_fract_x
 _atom_site_fract_y
 _atom_site_fract_z
 _atom_site_occupancy
  Ho  Ho0  1  0.195902  0.599767  0.602165  1
  Ho  Ho1  1  0.061610  0.440164  0.439414  1
  Ho  Ho2  1  0.439273  0.061179  0.060972  1
  Ho  Ho3  1  0.439266  0.061173  0.438572  1
  Ho  Ho4  1  0.061622  0.440157  0.058824  1
  Ho  Ho5  1  0.439014  0.438273  0.061351  1
  Ho  Ho6  1  0.062041  0.059360  0.439293  1
  Ho  Ho7  1  0.183944  0.815532  0.815477  1
  Ho  Ho8  1  0.816044  0.183776  0.184199  1
  Ho  Ho9  1  0.816018  0.183829  0.815987  1
  Ho  Ho10  1  0.183885  0.815582  0.185058  1
  Th  Th11  1  0.596924  0.599764  0.597838  1
  Th  Th12  1  0.596931  0.599776  0.205468  1
  Th  Th13  1  0.594378  0.204578  0.600536  1
  Sc  Sc14  1  0.812286  0.812810  0.187474  1
  Sc  Sc15  1  0.187929  0.189126  0.811475  1
  In  In16  1  0.835864  0.833286  0.837414  1
  In  In17  1  0.835892  0.833304  0.493382  1
  In  In18  1  0.839671  0.494426  0.832928  1
  In  In19  1  0.494495  0.837674  0.833918  1
  Rh  Rh20  1  0.395672  0.390896  0.392212  1
  Rh  Rh21  1  0.395659  0.390903  0.821238  1
  Rh  Rh22  1  0.395804  0.821280  0.391457  1
  Rh  Rh23  1  0.819878  0.393387  0.393344  1
