# generated using pymatgen
data_Y4Zr3ReF28
_symmetry_space_group_name_H-M   'P 1'
_cell_length_a   5.71568377
_cell_length_b   9.07633859
_cell_length_c   12.22716905
_cell_angle_alpha   62.56365836
_cell_angle_beta   90.00568489
_cell_angle_gamma   90.05504106
_symmetry_Int_Tables_number   1
_chemical_formula_structural   Y4Zr3ReF28
_chemical_formula_sum   'Y4 Zr3 Re1 F28'
_cell_volume   562.96880900
_cell_formula_units_Z   1
loop_
 _symmetry_equiv_pos_site_id
 _symmetry_equiv_pos_as_xyz
  1  'x, y, z'
loop_
 _atom_site_type_symbol
 _atom_site_label
 _atom_site_symmetry_multiplicity
 _atom_site_fract_x
 _atom_site_fract_y
 _atom_site_fract_z
 _atom_site_occupancy
  Y  Y0  1  0.256786  0.815489  0.266438  1
  Y  Y1  1  0.743732  0.185853  0.734367  1
  Y  Y2  1  0.756713  0.183015  0.235539  1
  Y  Y3  1  0.242526  0.815964  0.762211  1
  Zr  Zr4  1  0.755826  0.725756  0.043281  1
  Zr  Zr5  1  0.244524  0.275035  0.955961  1
  Zr  Zr6  1  0.255447  0.274768  0.456562  1
  Re  Re7  1  0.742228  0.726362  0.543876  1
  F  F8  1  0.950835  0.708222  0.421085  1
  F  F9  1  0.040575  0.289962  0.583174  1
  F  F10  1  0.459287  0.290590  0.082821  1
  F  F11  1  0.540885  0.710276  0.916331  1
  F  F12  1  0.477837  0.732767  0.145664  1
  F  F13  1  0.522718  0.268334  0.853898  1
  F  F14  1  0.976735  0.265913  0.355566  1
  F  F15  1  0.016795  0.731035  0.641616  1
  F  F16  1  0.962527  0.747001  0.173326  1
  F  F17  1  0.038329  0.253263  0.826745  1
  F  F18  1  0.462912  0.251857  0.327951  1
  F  F19  1  0.540116  0.744665  0.670008  1
  F  F20  1  0.772368  0.473897  0.142495  1
  F  F21  1  0.227404  0.526863  0.856265  1
  F  F22  1  0.270094  0.526742  0.358718  1
  F  F23  1  0.731060  0.480962  0.641552  1
  F  F24  1  0.947633  0.278502  0.049579  1
  F  F25  1  0.052229  0.722103  0.949441  1
  F  F26  1  0.456693  0.720197  0.452242  1
  F  F27  1  0.552476  0.279658  0.549297  1
  F  F28  1  0.741677  0.971445  0.446685  1
  F  F29  1  0.260042  0.023061  0.557445  1
  F  F30  1  0.239759  0.023519  0.058304  1
  F  F31  1  0.760008  0.977374  0.941941  1
  F  F32  1  0.575137  0.971658  0.233225  1
  F  F33  1  0.425000  0.027662  0.765674  1
  F  F34  1  0.076144  0.028101  0.267249  1
  F  F35  1  0.924944  0.972131  0.733467  1
