# generated using pymatgen
data_FeBiTeO6
_symmetry_space_group_name_H-M   'P 1'
_cell_length_a   5.27538601
_cell_length_b   9.13752407
_cell_length_c   10.04197600
_cell_angle_alpha   89.99713990
_cell_angle_beta   90.00125782
_cell_angle_gamma   90.00390998
_symmetry_Int_Tables_number   1
_chemical_formula_structural   FeBiTeO6
_chemical_formula_sum   'Fe4 Bi4 Te4 O24'
_cell_volume   484.06307380
_cell_formula_units_Z   4
loop_
 _symmetry_equiv_pos_site_id
 _symmetry_equiv_pos_as_xyz
  1  'x, y, z'
loop_
 _atom_site_type_symbol
 _atom_site_label
 _atom_site_symmetry_multiplicity
 _atom_site_fract_x
 _atom_site_fract_y
 _atom_site_fract_z
 _atom_site_occupancy
  Fe  Fe0  1  0.500040  0.833342  0.750001  1
  Fe  Fe1  1  0.499960  0.166658  0.249999  1
  Fe  Fe2  1  0.000040  0.333342  0.750001  1
  Fe  Fe3  1  0.999960  0.666658  0.249999  1
  Bi  Bi4  1  0.000000  0.000000  0.500000  1
  Bi  Bi5  1  0.500000  0.500000  0.500000  1
  Bi  Bi6  1  0.000000  0.000000  0.000000  1
  Bi  Bi7  1  0.500000  0.500000  0.000000  1
  Te  Te8  1  0.500076  0.166669  0.749998  1
  Te  Te9  1  0.000076  0.666669  0.749998  1
  Te  Te10  1  0.999924  0.333331  0.250002  1
  Te  Te11  1  0.499924  0.833331  0.250002  1
  O  O12  1  0.631636  0.006073  0.641368  1
  O  O13  1  0.131636  0.506073  0.641368  1
  O  O14  1  0.675197  0.312783  0.641369  1
  O  O15  1  0.175197  0.812783  0.641369  1
  O  O16  1  0.193286  0.181181  0.641374  1
  O  O17  1  0.693286  0.681181  0.641374  1
  O  O18  1  0.175114  0.187225  0.141360  1
  O  O19  1  0.675114  0.687225  0.141360  1
  O  O20  1  0.131573  0.493941  0.141365  1
  O  O21  1  0.631573  0.993941  0.141365  1
  O  O22  1  0.693215  0.318820  0.141375  1
  O  O23  1  0.193215  0.818820  0.141375  1
  O  O24  1  0.868364  0.493927  0.358632  1
  O  O25  1  0.368364  0.993927  0.358632  1
  O  O26  1  0.824803  0.187217  0.358631  1
  O  O27  1  0.324803  0.687217  0.358631  1
  O  O28  1  0.306714  0.318819  0.358626  1
  O  O29  1  0.806714  0.818819  0.358626  1
  O  O30  1  0.324886  0.312775  0.858640  1
  O  O31  1  0.824886  0.812775  0.858640  1
  O  O32  1  0.368427  0.006059  0.858635  1
  O  O33  1  0.868427  0.506059  0.858635  1
  O  O34  1  0.806785  0.181180  0.858625  1
  O  O35  1  0.306785  0.681180  0.858625  1
