# generated using pymatgen
data_EuDyErRuO7
_symmetry_space_group_name_H-M   'P 1'
_cell_length_a   6.42015300
_cell_length_b   6.41865199
_cell_length_c   7.45318700
_cell_angle_alpha   90.00000000
_cell_angle_beta   90.00000000
_cell_angle_gamma   109.29527002
_symmetry_Int_Tables_number   1
_chemical_formula_structural   EuDyErRuO7
_chemical_formula_sum   'Eu2 Dy2 Er2 Ru2 O14'
_cell_volume   289.88396297
_cell_formula_units_Z   2
loop_
 _symmetry_equiv_pos_site_id
 _symmetry_equiv_pos_as_xyz
  1  'x, y, z'
loop_
 _atom_site_type_symbol
 _atom_site_label
 _atom_site_symmetry_multiplicity
 _atom_site_fract_x
 _atom_site_fract_y
 _atom_site_fract_z
 _atom_site_occupancy
  Eu  Eu0  1  0.000000  0.000000  0.500000  1
  Eu  Eu1  1  0.000000  0.000000  0.000000  1
  Dy  Dy2  1  0.932349  0.482848  0.750000  1
  Dy  Dy3  1  0.067651  0.517152  0.250000  1
  Er  Er4  1  0.484211  0.934596  0.750000  1
  Er  Er5  1  0.515789  0.065404  0.250000  1
  Ru  Ru6  1  0.500000  0.500000  0.500000  1
  Ru  Ru7  1  0.500000  0.500000  0.000000  1
  O  O8  1  0.588189  0.592565  0.750000  1
  O  O9  1  0.411811  0.407435  0.250000  1
  O  O10  1  0.840215  0.113053  0.750000  1
  O  O11  1  0.159785  0.886947  0.250000  1
  O  O12  1  0.120124  0.840899  0.750000  1
  O  O13  1  0.879876  0.159101  0.250000  1
  O  O14  1  0.450360  0.184456  0.961770  1
  O  O15  1  0.549640  0.815544  0.461770  1
  O  O16  1  0.181826  0.438980  0.962473  1
  O  O17  1  0.818174  0.561020  0.462473  1
  O  O18  1  0.450360  0.184456  0.538230  1
  O  O19  1  0.549640  0.815544  0.038230  1
  O  O20  1  0.818174  0.561020  0.037527  1
  O  O21  1  0.181826  0.438980  0.537527  1
