# generated using pymatgen
data_Lu2Fe9P6W
_symmetry_space_group_name_H-M   'P 1'
_cell_length_a   3.65551900
_cell_length_b   10.31127800
_cell_length_c   11.85687100
_cell_angle_alpha   90.00000000
_cell_angle_beta   90.00000000
_cell_angle_gamma   90.00000000
_symmetry_Int_Tables_number   1
_chemical_formula_structural   Lu2Fe9P6W
_chemical_formula_sum   'Lu4 Fe18 P12 W2'
_cell_volume   446.92189993
_cell_formula_units_Z   2
loop_
 _symmetry_equiv_pos_site_id
 _symmetry_equiv_pos_as_xyz
  1  'x, y, z'
loop_
 _atom_site_type_symbol
 _atom_site_label
 _atom_site_symmetry_multiplicity
 _atom_site_fract_x
 _atom_site_fract_y
 _atom_site_fract_z
 _atom_site_occupancy
  Lu  Lu0  1  0.250000  0.579440  0.704620  1
  Lu  Lu1  1  0.250000  0.920560  0.204620  1
  Lu  Lu2  1  0.750000  0.418481  0.293659  1
  Lu  Lu3  1  0.750000  0.081519  0.793659  1
  Fe  Fe4  1  0.750000  0.292719  0.011167  1
  Fe  Fe5  1  0.750000  0.207281  0.511167  1
  Fe  Fe6  1  0.250000  0.402585  0.490538  1
  Fe  Fe7  1  0.250000  0.097415  0.990538  1
  Fe  Fe8  1  0.750000  0.590999  0.511738  1
  Fe  Fe9  1  0.750000  0.909001  0.011738  1
  Fe  Fe10  1  0.250000  0.221410  0.176055  1
  Fe  Fe11  1  0.250000  0.278590  0.676055  1
  Fe  Fe12  1  0.750000  0.781090  0.824286  1
  Fe  Fe13  1  0.750000  0.718910  0.324286  1
  Fe  Fe14  1  0.250000  0.878381  0.702047  1
  Fe  Fe15  1  0.250000  0.621619  0.202047  1
  Fe  Fe16  1  0.750000  0.125264  0.299110  1
  Fe  Fe17  1  0.750000  0.374736  0.799110  1
  Fe  Fe18  1  0.250000  0.458938  0.932318  1
  Fe  Fe19  1  0.250000  0.041062  0.432318  1
  Fe  Fe20  1  0.750000  0.532936  0.066455  1
  Fe  Fe21  1  0.750000  0.967064  0.566455  1
  P  P22  1  0.250000  0.421525  0.113819  1
  P  P23  1  0.250000  0.078475  0.613819  1
  P  P24  1  0.750000  0.572270  0.883292  1
  P  P25  1  0.750000  0.927730  0.383292  1
  P  P26  1  0.250000  0.262467  0.869028  1
  P  P27  1  0.250000  0.237533  0.369028  1
  P  P28  1  0.750000  0.734006  0.135268  1
  P  P29  1  0.750000  0.765994  0.635268  1
  P  P30  1  0.250000  0.588668  0.391599  1
  P  P31  1  0.250000  0.911332  0.891599  1
  P  P32  1  0.750000  0.396328  0.606237  1
  P  P33  1  0.750000  0.103672  0.106237  1
  W  W34  1  0.250000  0.704738  0.988765  1
  W  W35  1  0.250000  0.795262  0.488765  1
