# generated using pymatgen
data_Ca6NdY(Si3Au)4
_symmetry_space_group_name_H-M   'P 1'
_cell_length_a   8.30612800
_cell_length_b   8.30612626
_cell_length_c   8.47237400
_cell_angle_alpha   90.00000000
_cell_angle_beta   90.00000000
_cell_angle_gamma   119.99999100
_symmetry_Int_Tables_number   1
_chemical_formula_structural   Ca6NdY(Si3Au)4
_chemical_formula_sum   'Ca6 Nd1 Y1 Si12 Au4'
_cell_volume   506.21258470
_cell_formula_units_Z   1
loop_
 _symmetry_equiv_pos_site_id
 _symmetry_equiv_pos_as_xyz
  1  'x, y, z'
loop_
 _atom_site_type_symbol
 _atom_site_label
 _atom_site_symmetry_multiplicity
 _atom_site_fract_x
 _atom_site_fract_y
 _atom_site_fract_z
 _atom_site_occupancy
  Ca  Ca0  1  0.500727  0.001453  0.250000  1
  Ca  Ca1  1  0.499275  0.998548  0.750000  1
  Ca  Ca2  1  0.998547  0.499273  0.250000  1
  Ca  Ca3  1  0.001452  0.500725  0.750000  1
  Ca  Ca4  1  0.500727  0.499273  0.250000  1
  Ca  Ca5  1  0.499275  0.500725  0.750000  1
  Nd  Nd6  1  0.000000  0.000000  0.250000  1
  Y  Y7  1  0.000000  0.000000  0.750000  1
  Si  Si8  1  0.162235  0.324470  0.998380  1
  Si  Si9  1  0.837787  0.675575  0.996762  1
  Si  Si10  1  0.675530  0.837765  0.998380  1
  Si  Si11  1  0.837787  0.675575  0.503238  1
  Si  Si12  1  0.324425  0.162213  0.996762  1
  Si  Si13  1  0.162235  0.324470  0.501620  1
  Si  Si14  1  0.162235  0.837765  0.998380  1
  Si  Si15  1  0.324425  0.162213  0.503238  1
  Si  Si16  1  0.837787  0.162213  0.996762  1
  Si  Si17  1  0.675530  0.837765  0.501620  1
  Si  Si18  1  0.837787  0.162213  0.503238  1
  Si  Si19  1  0.162235  0.837765  0.501620  1
  Au  Au20  1  0.333333  0.666667  0.000702  1
  Au  Au21  1  0.666667  0.333333  0.997746  1
  Au  Au22  1  0.666667  0.333333  0.502254  1
  Au  Au23  1  0.333333  0.666667  0.499298  1
