# generated using pymatgen
data_Ta14Nb2Al3GeTe16
_symmetry_space_group_name_H-M   'P 1'
_cell_length_a   4.86624800
_cell_length_b   11.07714834
_cell_length_c   19.35630220
_cell_angle_alpha   89.82393567
_cell_angle_beta   89.99900980
_cell_angle_gamma   90.00289348
_symmetry_Int_Tables_number   1
_chemical_formula_structural   Ta14Nb2Al3GeTe16
_chemical_formula_sum   'Ta14 Nb2 Al3 Ge1 Te16'
_cell_volume   1043.38010817
_cell_formula_units_Z   1
loop_
 _symmetry_equiv_pos_site_id
 _symmetry_equiv_pos_as_xyz
  1  'x, y, z'
loop_
 _atom_site_type_symbol
 _atom_site_label
 _atom_site_symmetry_multiplicity
 _atom_site_fract_x
 _atom_site_fract_y
 _atom_site_fract_z
 _atom_site_occupancy
  Ta  Ta0  1  0.500124  0.434988  0.616874  1
  Ta  Ta1  1  0.501349  0.064574  0.116495  1
  Ta  Ta2  1  0.501270  0.935354  0.883364  1
  Ta  Ta3  1  0.499933  0.706593  0.536588  1
  Ta  Ta4  1  0.499919  0.294658  0.463790  1
  Ta  Ta5  1  0.501732  0.204661  0.963403  1
  Ta  Ta6  1  0.501748  0.795195  0.036545  1
  Ta  Ta7  1  0.000013  0.309470  0.556963  1
  Ta  Ta8  1  0.998402  0.190149  0.056481  1
  Ta  Ta9  1  0.998387  0.809725  0.943436  1
  Ta  Ta10  1  0.999970  0.399548  0.391037  1
  Ta  Ta11  1  0.999960  0.599570  0.608624  1
  Ta  Ta12  1  0.998409  0.900622  0.108408  1
  Ta  Ta13  1  0.998574  0.099215  0.891515  1
  Nb  Nb14  1  0.500074  0.565450  0.381861  1
  Nb  Nb15  1  0.000101  0.692973  0.442806  1
  Al  Al16  1  0.249985  0.500992  0.499440  1
  Al  Al17  1  0.750023  0.999940  0.999955  1
  Al  Al18  1  0.750041  0.501001  0.499433  1
  Ge  Ge19  1  0.249968  0.999862  0.999923  1
  Te  Te20  1  0.999957  0.845394  0.562880  1
  Te  Te21  1  0.999905  0.154181  0.438864  1
  Te  Te22  1  0.999372  0.345862  0.937504  1
  Te  Te23  1  0.999274  0.653967  0.062369  1
  Te  Te24  1  0.500060  0.331729  0.317690  1
  Te  Te25  1  0.500055  0.665852  0.682851  1
  Te  Te26  1  0.501162  0.832981  0.183231  1
  Te  Te27  1  0.501169  0.166905  0.816659  1
  Te  Te28  1  0.500148  0.821889  0.404601  1
  Te  Te29  1  0.500038  0.178911  0.596524  1
  Te  Te30  1  0.500808  0.321523  0.095731  1
  Te  Te31  1  0.500699  0.678408  0.904127  1
  Te  Te32  1  0.000073  0.606451  0.303043  1
  Te  Te33  1  0.000059  0.391571  0.697109  1
  Te  Te34  1  0.998587  0.107882  0.197101  1
  Te  Te35  1  0.998652  0.891952  0.802777  1
