# generated using pymatgen
data_CeNd4USe10
_symmetry_space_group_name_H-M   'P 1'
_cell_length_a   7.84611100
_cell_length_b   8.45480000
_cell_length_c   12.52825300
_cell_angle_alpha   90.00000000
_cell_angle_beta   90.00000000
_cell_angle_gamma   90.00000000
_symmetry_Int_Tables_number   1
_chemical_formula_structural   CeNd4USe10
_chemical_formula_sum   'Ce2 Nd8 U2 Se20'
_cell_volume   831.09046875
_cell_formula_units_Z   2
loop_
 _symmetry_equiv_pos_site_id
 _symmetry_equiv_pos_as_xyz
  1  'x, y, z'
loop_
 _atom_site_type_symbol
 _atom_site_label
 _atom_site_symmetry_multiplicity
 _atom_site_fract_x
 _atom_site_fract_y
 _atom_site_fract_z
 _atom_site_occupancy
  Ce  Ce0  1  0.077131  0.750000  0.491047  1
  Ce  Ce1  1  0.422869  0.750000  0.991047  1
  Nd  Nd2  1  0.524792  0.499096  0.321693  1
  Nd  Nd3  1  0.975208  0.000904  0.821693  1
  Nd  Nd4  1  0.477468  0.998165  0.678722  1
  Nd  Nd5  1  0.022532  0.501835  0.178722  1
  Nd  Nd6  1  0.477468  0.501835  0.678722  1
  Nd  Nd7  1  0.022532  0.998165  0.178722  1
  Nd  Nd8  1  0.524792  0.000904  0.321693  1
  Nd  Nd9  1  0.975208  0.499096  0.821693  1
  U  U10  1  0.929665  0.250000  0.508004  1
  U  U11  1  0.570335  0.250000  0.008004  1
  Se  Se12  1  0.835585  0.960412  0.595698  1
  Se  Se13  1  0.664415  0.539588  0.095698  1
  Se  Se14  1  0.164806  0.452594  0.403811  1
  Se  Se15  1  0.335194  0.047406  0.903811  1
  Se  Se16  1  0.164806  0.047406  0.403811  1
  Se  Se17  1  0.335194  0.452594  0.903811  1
  Se  Se18  1  0.835585  0.539588  0.595698  1
  Se  Se19  1  0.664415  0.960412  0.095698  1
  Se  Se20  1  0.826797  0.750000  0.312547  1
  Se  Se21  1  0.673203  0.750000  0.812547  1
  Se  Se22  1  0.168925  0.250000  0.683667  1
  Se  Se23  1  0.331075  0.250000  0.183667  1
  Se  Se24  1  0.459657  0.750000  0.499935  1
  Se  Se25  1  0.040343  0.750000  0.999935  1
  Se  Se26  1  0.546379  0.250000  0.500352  1
  Se  Se27  1  0.953621  0.250000  0.000352  1
  Se  Se28  1  0.196759  0.750000  0.717373  1
  Se  Se29  1  0.303241  0.750000  0.217373  1
  Se  Se30  1  0.805336  0.250000  0.287226  1
  Se  Se31  1  0.694664  0.250000  0.787226  1
