# generated using pymatgen
data_LiEu2Rh3
_symmetry_space_group_name_H-M   'P 1'
_cell_length_a   5.39975363
_cell_length_b   5.39975389
_cell_length_c   5.39975493
_cell_angle_alpha   61.09663171
_cell_angle_beta   61.09662956
_cell_angle_gamma   61.09662265
_symmetry_Int_Tables_number   1
_chemical_formula_structural   LiEu2Rh3
_chemical_formula_sum   'Li1 Eu2 Rh3'
_cell_volume   114.07682541
_cell_formula_units_Z   1
loop_
 _symmetry_equiv_pos_site_id
 _symmetry_equiv_pos_as_xyz
  1  'x, y, z'
loop_
 _atom_site_type_symbol
 _atom_site_label
 _atom_site_symmetry_multiplicity
 _atom_site_fract_x
 _atom_site_fract_y
 _atom_site_fract_z
 _atom_site_occupancy
  Li  Li0  1  0.625000  0.625000  0.625000  1
  Eu  Eu1  1  0.247034  0.247034  0.247034  1
  Eu  Eu2  1  0.002966  0.002966  0.002966  1
  Rh  Rh3  1  0.125000  0.625000  0.625000  1
  Rh  Rh4  1  0.625000  0.625000  0.125000  1
  Rh  Rh5  1  0.625000  0.125000  0.625000  1
