# generated using pymatgen
data_Er4MgAl(B2Ir5)2
_symmetry_space_group_name_H-M   'P 1'
_cell_length_a   9.63411500
_cell_length_b   9.63411500
_cell_length_c   3.13600000
_cell_angle_alpha   90.00000000
_cell_angle_beta   90.00000000
_cell_angle_gamma   90.00000000
_symmetry_Int_Tables_number   1
_chemical_formula_structural   Er4MgAl(B2Ir5)2
_chemical_formula_sum   'Er4 Mg1 Al1 B4 Ir10'
_cell_volume   291.07151487
_cell_formula_units_Z   1
loop_
 _symmetry_equiv_pos_site_id
 _symmetry_equiv_pos_as_xyz
  1  'x, y, z'
loop_
 _atom_site_type_symbol
 _atom_site_label
 _atom_site_symmetry_multiplicity
 _atom_site_fract_x
 _atom_site_fract_y
 _atom_site_fract_z
 _atom_site_occupancy
  Er  Er0  1  0.176620  0.677109  0.000000  1
  Er  Er1  1  0.322891  0.176620  0.000000  1
  Er  Er2  1  0.677109  0.823380  0.000000  1
  Er  Er3  1  0.823380  0.322891  0.000000  1
  Mg  Mg4  1  0.000000  0.000000  0.000000  1
  Al  Al5  1  0.500000  0.500000  0.000000  1
  B  B6  1  0.121732  0.376828  0.000000  1
  B  B7  1  0.376828  0.878268  0.000000  1
  B  B8  1  0.623172  0.121732  0.000000  1
  B  B9  1  0.878268  0.623172  0.000000  1
  Ir  Ir10  1  0.000000  0.500000  0.500000  1
  Ir  Ir11  1  0.070822  0.223591  0.500000  1
  Ir  Ir12  1  0.223591  0.929178  0.500000  1
  Ir  Ir13  1  0.282289  0.433147  0.500000  1
  Ir  Ir14  1  0.433147  0.717711  0.500000  1
  Ir  Ir15  1  0.500000  0.000000  0.500000  1
  Ir  Ir16  1  0.566853  0.282289  0.500000  1
  Ir  Ir17  1  0.717711  0.566853  0.500000  1
  Ir  Ir18  1  0.776409  0.070822  0.500000  1
  Ir  Ir19  1  0.929178  0.776409  0.500000  1
