# generated using pymatgen
data_AlH5
_symmetry_space_group_name_H-M   'P 1'
_cell_length_a   2.62013584
_cell_length_b   3.42880602
_cell_length_c   7.10026808
_cell_angle_alpha   87.18719443
_cell_angle_beta   88.97269919
_cell_angle_gamma   89.74651223
_symmetry_Int_Tables_number   1
_chemical_formula_structural   AlH5
_chemical_formula_sum   'Al1 H5'
_cell_volume   63.70087056
_cell_formula_units_Z   1
loop_
 _symmetry_equiv_pos_site_id
 _symmetry_equiv_pos_as_xyz
  1  'x, y, z'
loop_
 _atom_site_type_symbol
 _atom_site_label
 _atom_site_symmetry_multiplicity
 _atom_site_fract_x
 _atom_site_fract_y
 _atom_site_fract_z
 _atom_site_occupancy
  Al  Al0  1  0.911503  0.109076  0.705175  1
  H  H1  1  0.912819  0.609746  0.705413  1
  H  H2  1  0.418596  0.126208  0.541121  1
  H  H3  1  0.405338  0.092884  0.869589  1
  H  H4  1  0.129928  0.649526  0.162574  1
  H  H5  1  0.951570  0.492981  0.199758  1
