# generated using pymatgen
data_LiY10Ho6In3Rh4
_symmetry_space_group_name_H-M   'P 1'
_cell_length_a   9.67184462
_cell_length_b   9.67835418
_cell_length_c   9.68259817
_cell_angle_alpha   59.75570854
_cell_angle_beta   59.89424464
_cell_angle_gamma   59.73698992
_symmetry_Int_Tables_number   1
_chemical_formula_structural   LiY10Ho6In3Rh4
_chemical_formula_sum   'Li1 Y10 Ho6 In3 Rh4'
_cell_volume   637.92018608
_cell_formula_units_Z   1
loop_
 _symmetry_equiv_pos_site_id
 _symmetry_equiv_pos_as_xyz
  1  'x, y, z'
loop_
 _atom_site_type_symbol
 _atom_site_label
 _atom_site_symmetry_multiplicity
 _atom_site_fract_x
 _atom_site_fract_y
 _atom_site_fract_z
 _atom_site_occupancy
  Li  Li0  1  0.821999  0.821910  0.821787  1
  Y  Y1  1  0.188189  0.188510  0.811859  1
  Y  Y2  1  0.600638  0.599868  0.201267  1
  Y  Y3  1  0.441653  0.058688  0.441490  1
  Y  Y4  1  0.441999  0.441357  0.058491  1
  Y  Y5  1  0.813118  0.186935  0.812300  1
  Y  Y6  1  0.187414  0.812633  0.188627  1
  Y  Y7  1  0.436422  0.062750  0.062569  1
  Y  Y8  1  0.186856  0.813069  0.812184  1
  Y  Y9  1  0.062809  0.435850  0.062935  1
  Y  Y10  1  0.813066  0.813184  0.187025  1
  Ho  Ho11  1  0.203055  0.599669  0.599439  1
  Ho  Ho12  1  0.058737  0.441114  0.441748  1
  Ho  Ho13  1  0.062754  0.062960  0.436379  1
  Ho  Ho14  1  0.812234  0.187954  0.188862  1
  Ho  Ho15  1  0.599683  0.203545  0.598805  1
  Ho  Ho16  1  0.599771  0.599721  0.599347  1
  In  In17  1  0.832799  0.832966  0.503544  1
  In  In18  1  0.503482  0.832978  0.832847  1
  In  In19  1  0.832897  0.503564  0.832920  1
  Rh  Rh20  1  0.391020  0.822309  0.395120  1
  Rh  Rh21  1  0.391618  0.393321  0.395277  1
  Rh  Rh22  1  0.823911  0.391229  0.395092  1
  Rh  Rh23  1  0.393877  0.393918  0.820090  1
