# generated using pymatgen
data_Nb6B4Os3Ru7
_symmetry_space_group_name_H-M   'P 1'
_cell_length_a   9.48329349
_cell_length_b   9.54585348
_cell_length_c   3.01896600
_cell_angle_alpha   90.00000000
_cell_angle_beta   90.00000000
_cell_angle_gamma   89.93599227
_symmetry_Int_Tables_number   1
_chemical_formula_structural   Nb6B4Os3Ru7
_chemical_formula_sum   'Nb6 B4 Os3 Ru7'
_cell_volume   273.29513850
_cell_formula_units_Z   1
loop_
 _symmetry_equiv_pos_site_id
 _symmetry_equiv_pos_as_xyz
  1  'x, y, z'
loop_
 _atom_site_type_symbol
 _atom_site_label
 _atom_site_symmetry_multiplicity
 _atom_site_fract_x
 _atom_site_fract_y
 _atom_site_fract_z
 _atom_site_occupancy
  Nb  Nb0  1  0.823741  0.677187  0.000000  1
  Nb  Nb1  1  0.177016  0.323585  0.000000  1
  Nb  Nb2  1  0.323487  0.823118  0.000000  1
  Nb  Nb3  1  0.676160  0.177208  0.000000  1
  Nb  Nb4  1  0.500133  0.499868  0.000000  1
  Nb  Nb5  1  0.999453  0.001988  0.000000  1
  B  B6  1  0.621413  0.878855  0.000000  1
  B  B7  1  0.378928  0.120473  0.000000  1
  B  B8  1  0.120489  0.620887  0.000000  1
  B  B9  1  0.879116  0.378534  0.000000  1
  Os  Os10  1  0.571621  0.719892  0.500000  1
  Os  Os11  1  0.428105  0.279861  0.500000  1
  Os  Os12  1  0.071027  0.780353  0.500000  1
  Ru  Ru13  1  0.928413  0.220014  0.500000  1
  Ru  Ru14  1  0.281038  0.570692  0.500000  1
  Ru  Ru15  1  0.719170  0.428551  0.500000  1
  Ru  Ru16  1  0.218630  0.070224  0.500000  1
  Ru  Ru17  1  0.781590  0.929497  0.500000  1
  Ru  Ru18  1  0.500488  0.000099  0.500000  1
  Ru  Ru19  1  0.999980  0.499111  0.500000  1
