# generated using pymatgen
data_La8Gd2CoRu3
_symmetry_space_group_name_H-M   'P 1'
_cell_length_a   9.11719177
_cell_length_b   9.11107637
_cell_length_c   7.21429700
_cell_angle_alpha   85.76546269
_cell_angle_beta   85.68860842
_cell_angle_gamma   42.89963485
_symmetry_Int_Tables_number   1
_chemical_formula_structural   La8Gd2CoRu3
_chemical_formula_sum   'La8 Gd2 Co1 Ru3'
_cell_volume   406.62501796
_cell_formula_units_Z   1
loop_
 _symmetry_equiv_pos_site_id
 _symmetry_equiv_pos_as_xyz
  1  'x, y, z'
loop_
 _atom_site_type_symbol
 _atom_site_label
 _atom_site_symmetry_multiplicity
 _atom_site_fract_x
 _atom_site_fract_y
 _atom_site_fract_z
 _atom_site_occupancy
  La  La0  1  0.201400  0.982619  0.590834  1
  La  La1  1  0.022452  0.794626  0.897751  1
  La  La2  1  0.210618  0.367541  0.324846  1
  La  La3  1  0.636617  0.790989  0.185494  1
  La  La4  1  0.783486  0.638207  0.685863  1
  La  La5  1  0.361978  0.214558  0.817702  1
  La  La6  1  0.982064  0.199658  0.091242  1
  La  La7  1  0.804665  0.013657  0.406162  1
  Gd  Gd8  1  0.565884  0.431764  0.747645  1
  Gd  Gd9  1  0.430762  0.567672  0.250836  1
  Co  Co10  1  0.179454  0.602634  0.582321  1
  Ru  Ru11  1  0.393688  0.823201  0.920831  1
  Ru  Ru12  1  0.820359  0.398147  0.422067  1
  Ru  Ru13  1  0.606573  0.174727  0.076404  1
