# generated using pymatgen
data_Lu4Ga4IrPt3
_symmetry_space_group_name_H-M   'P 1'
_cell_length_a   4.38471100
_cell_length_b   6.71165219
_cell_length_c   7.68446528
_cell_angle_alpha   89.97102461
_cell_angle_beta   90.00000000
_cell_angle_gamma   90.00000000
_symmetry_Int_Tables_number   1
_chemical_formula_structural   Lu4Ga4IrPt3
_chemical_formula_sum   'Lu4 Ga4 Ir1 Pt3'
_cell_volume   226.14344998
_cell_formula_units_Z   1
loop_
 _symmetry_equiv_pos_site_id
 _symmetry_equiv_pos_as_xyz
  1  'x, y, z'
loop_
 _atom_site_type_symbol
 _atom_site_label
 _atom_site_symmetry_multiplicity
 _atom_site_fract_x
 _atom_site_fract_y
 _atom_site_fract_z
 _atom_site_occupancy
  Lu  Lu0  1  0.250000  0.975756  0.311994  1
  Lu  Lu1  1  0.250000  0.473583  0.185206  1
  Lu  Lu2  1  0.750000  0.024766  0.690869  1
  Lu  Lu3  1  0.750000  0.518953  0.812165  1
  Ga  Ga4  1  0.250000  0.337110  0.566446  1
  Ga  Ga5  1  0.250000  0.846362  0.934827  1
  Ga  Ga6  1  0.750000  0.660237  0.435814  1
  Ga  Ga7  1  0.750000  0.161277  0.063607  1
  Ir  Ir8  1  0.250000  0.235569  0.886722  1
  Pt  Pt9  1  0.250000  0.730859  0.613210  1
  Pt  Pt10  1  0.750000  0.768451  0.112939  1
  Pt  Pt11  1  0.750000  0.267077  0.386201  1
