# generated using pymatgen
data_Hf8In4FeCu5Pd2
_symmetry_space_group_name_H-M   'P 1'
_cell_length_a   7.26501978
_cell_length_b   7.29777502
_cell_length_c   6.76041557
_cell_angle_alpha   89.80476708
_cell_angle_beta   89.92628640
_cell_angle_gamma   90.69684156
_symmetry_Int_Tables_number   1
_chemical_formula_structural   Hf8In4FeCu5Pd2
_chemical_formula_sum   'Hf8 In4 Fe1 Cu5 Pd2'
_cell_volume   358.39805106
_cell_formula_units_Z   1
loop_
 _symmetry_equiv_pos_site_id
 _symmetry_equiv_pos_as_xyz
  1  'x, y, z'
loop_
 _atom_site_type_symbol
 _atom_site_label
 _atom_site_symmetry_multiplicity
 _atom_site_fract_x
 _atom_site_fract_y
 _atom_site_fract_z
 _atom_site_occupancy
  Hf  Hf0  1  0.160319  0.166712  0.991082  1
  Hf  Hf1  1  0.850229  0.855285  0.004048  1
  Hf  Hf2  1  0.640383  0.346332  0.511788  1
  Hf  Hf3  1  0.347614  0.637093  0.513002  1
  Hf  Hf4  1  0.676130  0.311487  0.992987  1
  Hf  Hf5  1  0.315050  0.671365  0.992339  1
  Hf  Hf6  1  0.808685  0.809735  0.499464  1
  Hf  Hf7  1  0.196836  0.197009  0.507500  1
  In  In8  1  0.502738  0.997555  0.249035  1
  In  In9  1  0.502798  0.999776  0.752800  1
  In  In10  1  0.994456  0.495565  0.250154  1
  In  In11  1  0.996679  0.496684  0.750609  1
  Fe  Fe12  1  0.379577  0.377908  0.771433  1
  Cu  Cu13  1  0.378706  0.375662  0.207577  1
  Cu  Cu14  1  0.630720  0.628746  0.797507  1
  Cu  Cu15  1  0.624431  0.623126  0.209732  1
  Cu  Cu16  1  0.872065  0.127920  0.705494  1
  Cu  Cu17  1  0.872299  0.130800  0.295023  1
  Pd  Pd18  1  0.126719  0.875489  0.281273  1
  Pd  Pd19  1  0.123566  0.875752  0.717154  1
