# generated using pymatgen
data_LaPrNd10(IrI3)4
_symmetry_space_group_name_H-M   'P 1'
_cell_length_a   10.87589327
_cell_length_b   10.88994179
_cell_length_c   10.90481245
_cell_angle_alpha   109.65676311
_cell_angle_beta   109.60561978
_cell_angle_gamma   109.23166176
_symmetry_Int_Tables_number   1
_chemical_formula_structural   LaPrNd10(IrI3)4
_chemical_formula_sum   'La1 Pr1 Nd10 Ir4 I12'
_cell_volume   993.23013038
_cell_formula_units_Z   1
loop_
 _symmetry_equiv_pos_site_id
 _symmetry_equiv_pos_as_xyz
  1  'x, y, z'
loop_
 _atom_site_type_symbol
 _atom_site_label
 _atom_site_symmetry_multiplicity
 _atom_site_fract_x
 _atom_site_fract_y
 _atom_site_fract_z
 _atom_site_occupancy
  La  La0  1  0.225108  0.273911  0.748873  1
  Pr  Pr1  1  0.272843  0.021180  0.044385  1
  Nd  Nd2  1  0.456526  0.476845  0.229781  1
  Nd  Nd3  1  0.755727  0.229868  0.276285  1
  Nd  Nd4  1  0.744214  0.019435  0.474767  1
  Nd  Nd5  1  0.229566  0.455533  0.475727  1
  Nd  Nd6  1  0.270770  0.745200  0.224199  1
  Nd  Nd7  1  0.043513  0.271843  0.022229  1
  Nd  Nd8  1  0.022946  0.043168  0.270604  1
  Nd  Nd9  1  0.479319  0.752166  0.022880  1
  Nd  Nd10  1  0.479198  0.227700  0.456427  1
  Nd  Nd11  1  0.020087  0.479037  0.749221  1
  Ir  Ir12  1  0.250134  0.249831  0.250398  1
  Ir  Ir13  1  0.500748  0.000021  0.250270  1
  Ir  Ir14  1  0.000789  0.249976  0.501642  1
  Ir  Ir15  1  0.249583  0.498997  0.997754  1
  I  I16  1  0.249634  0.756591  0.741428  1
  I  I17  1  0.518102  0.511912  0.757964  1
  I  I18  1  0.982290  0.740311  0.992862  1
  I  I19  1  0.741334  0.250537  0.758271  1
  I  I20  1  0.987544  0.983619  0.741669  1
  I  I21  1  0.250354  0.991609  0.506111  1
  I  I22  1  0.758706  0.517049  0.509284  1
  I  I23  1  0.511112  0.252618  0.996038  1
  I  I24  1  0.757955  0.742009  0.250133  1
  I  I25  1  0.742079  0.992336  0.984104  1
  I  I26  1  0.992359  0.508698  0.250435  1
  I  I27  1  0.507464  0.757999  0.516258  1
