# generated using pymatgen
data_DyTm7(Si4Tc3)4
_symmetry_space_group_name_H-M   'P 1'
_cell_length_a   6.79927713
_cell_length_b   6.79887508
_cell_length_c   12.74947000
_cell_angle_alpha   90.00299167
_cell_angle_beta   89.98895254
_cell_angle_gamma   90.00828456
_symmetry_Int_Tables_number   1
_chemical_formula_structural   DyTm7(Si4Tc3)4
_chemical_formula_sum   'Dy1 Tm7 Si16 Tc12'
_cell_volume   589.37528823
_cell_formula_units_Z   1
loop_
 _symmetry_equiv_pos_site_id
 _symmetry_equiv_pos_as_xyz
  1  'x, y, z'
loop_
 _atom_site_type_symbol
 _atom_site_label
 _atom_site_symmetry_multiplicity
 _atom_site_fract_x
 _atom_site_fract_y
 _atom_site_fract_z
 _atom_site_occupancy
  Dy  Dy0  1  0.337401  0.995249  0.469443  1
  Tm  Tm1  1  0.005244  0.661484  0.030637  1
  Tm  Tm2  1  0.994366  0.338867  0.530693  1
  Tm  Tm3  1  0.661305  0.005412  0.969249  1
  Tm  Tm4  1  0.161286  0.494641  0.780767  1
  Tm  Tm5  1  0.838556  0.505307  0.280531  1
  Tm  Tm6  1  0.494645  0.161479  0.219121  1
  Tm  Tm7  1  0.505293  0.838379  0.719526  1
  Si  Si8  1  0.020768  0.723173  0.436866  1
  Si  Si9  1  0.978658  0.275955  0.937163  1
  Si  Si10  1  0.724926  0.021436  0.563215  1
  Si  Si11  1  0.223411  0.478410  0.186914  1
  Si  Si12  1  0.775872  0.521290  0.687108  1
  Si  Si13  1  0.478715  0.224130  0.812904  1
  Si  Si14  1  0.522082  0.776129  0.312653  1
  Si  Si15  1  0.275937  0.978579  0.062973  1
  Si  Si16  1  0.806682  0.884565  0.186410  1
  Si  Si17  1  0.306722  0.614156  0.563821  1
  Si  Si18  1  0.693298  0.384636  0.063610  1
  Si  Si19  1  0.615862  0.307316  0.436294  1
  Si  Si20  1  0.384703  0.693181  0.936446  1
  Si  Si21  1  0.115080  0.193951  0.313168  1
  Si  Si22  1  0.193165  0.115434  0.686782  1
  Si  Si23  1  0.884757  0.806665  0.813607  1
  Tc  Tc24  1  0.315890  0.480782  0.378031  1
  Tc  Tc25  1  0.815818  0.020319  0.371632  1
  Tc  Tc26  1  0.979586  0.184764  0.128453  1
  Tc  Tc27  1  0.019822  0.815000  0.628514  1
  Tc  Tc28  1  0.480393  0.315587  0.621906  1
  Tc  Tc29  1  0.184769  0.979785  0.871686  1
  Tc  Tc30  1  0.665537  0.664736  0.500073  1
  Tc  Tc31  1  0.834844  0.165161  0.750034  1
  Tc  Tc32  1  0.164825  0.834693  0.249476  1
  Tc  Tc33  1  0.334759  0.334883  0.000041  1
  Tc  Tc34  1  0.519989  0.684170  0.121737  1
  Tc  Tc35  1  0.685032  0.520295  0.878515  1
