# generated using pymatgen
data_Ce2Fe5C3
_symmetry_space_group_name_H-M   'P 1'
_cell_length_a   8.33553500
_cell_length_b   8.33553500
_cell_length_c   3.80543600
_cell_angle_alpha   90.00000000
_cell_angle_beta   90.00000000
_cell_angle_gamma   90.00000000
_symmetry_Int_Tables_number   1
_chemical_formula_structural   Ce2Fe5C3
_chemical_formula_sum   'Ce4 Fe10 C6'
_cell_volume   264.40604570
_cell_formula_units_Z   2
loop_
 _symmetry_equiv_pos_site_id
 _symmetry_equiv_pos_as_xyz
  1  'x, y, z'
loop_
 _atom_site_type_symbol
 _atom_site_label
 _atom_site_symmetry_multiplicity
 _atom_site_fract_x
 _atom_site_fract_y
 _atom_site_fract_z
 _atom_site_occupancy
  Ce  Ce0  1  0.341066  0.841066  0.000000  1
  Ce  Ce1  1  0.658934  0.158934  0.000000  1
  Ce  Ce2  1  0.158934  0.341066  0.000000  1
  Ce  Ce3  1  0.841066  0.658934  0.000000  1
  Fe  Fe4  1  0.582972  0.712375  0.500000  1
  Fe  Fe5  1  0.417028  0.287625  0.500000  1
  Fe  Fe6  1  0.917028  0.212375  0.500000  1
  Fe  Fe7  1  0.082972  0.787625  0.500000  1
  Fe  Fe8  1  0.712375  0.417028  0.500000  1
  Fe  Fe9  1  0.287625  0.582972  0.500000  1
  Fe  Fe10  1  0.212375  0.082972  0.500000  1
  Fe  Fe11  1  0.787625  0.917028  0.500000  1
  Fe  Fe12  1  0.500000  0.500000  0.000000  1
  Fe  Fe13  1  0.000000  0.000000  0.000000  1
  C  C14  1  0.500000  0.500000  0.500000  1
  C  C15  1  0.000000  0.000000  0.500000  1
  C  C16  1  0.058707  0.558707  0.500000  1
  C  C17  1  0.941293  0.441293  0.500000  1
  C  C18  1  0.441293  0.058707  0.500000  1
  C  C19  1  0.558707  0.941293  0.500000  1
