# generated using pymatgen
data_Tb7Pr6Th3(CdIr)4
_symmetry_space_group_name_H-M   'P 1'
_cell_length_a   9.88181488
_cell_length_b   9.86333247
_cell_length_c   9.86333400
_cell_angle_alpha   60.00000156
_cell_angle_beta   60.06185285
_cell_angle_gamma   60.06185353
_symmetry_Int_Tables_number   1
_chemical_formula_structural   Tb7Pr6Th3(CdIr)4
_chemical_formula_sum   'Tb7 Pr6 Th3 Cd4 Ir4'
_cell_volume   680.41601579
_cell_formula_units_Z   1
loop_
 _symmetry_equiv_pos_site_id
 _symmetry_equiv_pos_as_xyz
  1  'x, y, z'
loop_
 _atom_site_type_symbol
 _atom_site_label
 _atom_site_symmetry_multiplicity
 _atom_site_fract_x
 _atom_site_fract_y
 _atom_site_fract_z
 _atom_site_occupancy
  Tb  Tb0  1  0.954752  0.348415  0.348415  1
  Tb  Tb1  1  0.813412  0.187683  0.187683  1
  Tb  Tb2  1  0.188290  0.813521  0.813521  1
  Tb  Tb3  1  0.188290  0.813521  0.184668  1
  Tb  Tb4  1  0.813412  0.187683  0.811221  1
  Tb  Tb5  1  0.188290  0.184668  0.813521  1
  Tb  Tb6  1  0.813412  0.811221  0.187683  1
  Pr  Pr7  1  0.938592  0.561668  0.561668  1
  Pr  Pr8  1  0.561399  0.938523  0.938523  1
  Pr  Pr9  1  0.561399  0.938523  0.561555  1
  Pr  Pr10  1  0.938592  0.561668  0.938070  1
  Pr  Pr11  1  0.561399  0.561555  0.938523  1
  Pr  Pr12  1  0.938592  0.938070  0.561668  1
  Th  Th13  1  0.345188  0.348032  0.348032  1
  Th  Th14  1  0.345188  0.348032  0.958746  1
  Th  Th15  1  0.345188  0.958746  0.348032  1
  Cd  Cd16  1  0.579939  0.578756  0.578756  1
  Cd  Cd17  1  0.579939  0.578756  0.262549  1
  Cd  Cd18  1  0.579939  0.262549  0.578756  1
  Cd  Cd19  1  0.260547  0.579817  0.579817  1
  Ir  Ir20  1  0.144740  0.141556  0.141556  1
  Ir  Ir21  1  0.144740  0.141556  0.572147  1
  Ir  Ir22  1  0.144740  0.572147  0.141556  1
  Ir  Ir23  1  0.570012  0.143329  0.143329  1
