# generated using pymatgen
data_Nb6V4Ge6C
_symmetry_space_group_name_H-M   'P 1'
_cell_length_a   7.59044100
_cell_length_b   7.59044148
_cell_length_c   5.09249800
_cell_angle_alpha   90.00000000
_cell_angle_beta   90.00000000
_cell_angle_gamma   120.00000226
_symmetry_Int_Tables_number   1
_chemical_formula_structural   Nb6V4Ge6C
_chemical_formula_sum   'Nb6 V4 Ge6 C1'
_cell_volume   254.09465775
_cell_formula_units_Z   1
loop_
 _symmetry_equiv_pos_site_id
 _symmetry_equiv_pos_as_xyz
  1  'x, y, z'
loop_
 _atom_site_type_symbol
 _atom_site_label
 _atom_site_symmetry_multiplicity
 _atom_site_fract_x
 _atom_site_fract_y
 _atom_site_fract_z
 _atom_site_occupancy
  Nb  Nb0  1  0.000000  0.761586  0.250908  1
  Nb  Nb1  1  0.238414  0.238414  0.250908  1
  Nb  Nb2  1  0.761586  0.000000  0.250908  1
  Nb  Nb3  1  0.000000  0.238414  0.749092  1
  Nb  Nb4  1  0.761586  0.761586  0.749092  1
  Nb  Nb5  1  0.238414  0.000000  0.749092  1
  V  V6  1  0.333333  0.666667  0.500000  1
  V  V7  1  0.666667  0.333333  0.500000  1
  V  V8  1  0.666667  0.333333  0.000000  1
  V  V9  1  0.333333  0.666667  0.000000  1
  Ge  Ge10  1  0.000000  0.405056  0.247051  1
  Ge  Ge11  1  0.594944  0.594944  0.247051  1
  Ge  Ge12  1  0.405056  0.000000  0.247051  1
  Ge  Ge13  1  0.000000  0.594944  0.752949  1
  Ge  Ge14  1  0.405056  0.405056  0.752949  1
  Ge  Ge15  1  0.594944  0.000000  0.752949  1
  C  C16  1  0.000000  0.000000  0.500000  1
