# generated using pymatgen
data_Ho3Lu3Al24Os7Pt
_symmetry_space_group_name_H-M   'P 1'
_cell_length_a   8.80685953
_cell_length_b   8.80731414
_cell_length_c   9.52929055
_cell_angle_alpha   90.38610588
_cell_angle_beta   89.98378616
_cell_angle_gamma   119.93282279
_symmetry_Int_Tables_number   1
_chemical_formula_structural   Ho3Lu3Al24Os7Pt
_chemical_formula_sum   'Ho3 Lu3 Al24 Os7 Pt1'
_cell_volume   640.52596501
_cell_formula_units_Z   1
loop_
 _symmetry_equiv_pos_site_id
 _symmetry_equiv_pos_as_xyz
  1  'x, y, z'
loop_
 _atom_site_type_symbol
 _atom_site_label
 _atom_site_symmetry_multiplicity
 _atom_site_fract_x
 _atom_site_fract_y
 _atom_site_fract_z
 _atom_site_occupancy
  Ho  Ho0  1  0.386816  0.195876  0.748795  1
  Ho  Ho1  1  0.190875  0.804475  0.251212  1
  Ho  Ho2  1  0.809180  0.195882  0.748799  1
  Lu  Lu3  1  0.196316  0.392651  0.251891  1
  Lu  Lu4  1  0.803777  0.607163  0.748152  1
  Lu  Lu5  1  0.610806  0.802525  0.251802  1
  Al  Al6  1  0.331848  0.663496  0.022965  1
  Al  Al7  1  0.668773  0.337285  0.977479  1
  Al  Al8  1  0.666657  0.332740  0.519583  1
  Al  Al9  1  0.333818  0.667252  0.480059  1
  Al  Al10  1  0.163634  0.327072  0.575326  1
  Al  Al11  1  0.836386  0.673439  0.424134  1
  Al  Al12  1  0.674320  0.837578  0.576625  1
  Al  Al13  1  0.836693  0.674231  0.075994  1
  Al  Al14  1  0.325936  0.162438  0.422369  1
  Al  Al15  1  0.163254  0.326385  0.924638  1
  Al  Al16  1  0.163644  0.837447  0.577034  1
  Al  Al17  1  0.324796  0.167233  0.078305  1
  Al  Al18  1  0.836147  0.161815  0.422433  1
  Al  Al19  1  0.675444  0.832989  0.922699  1
  Al  Al20  1  0.842216  0.166824  0.078246  1
  Al  Al21  1  0.157630  0.832697  0.922140  1
  Al  Al22  1  0.562301  0.123576  0.251825  1
  Al  Al23  1  0.437972  0.875670  0.747723  1
  Al  Al24  1  0.878313  0.438281  0.249089  1
  Al  Al25  1  0.121670  0.561724  0.750874  1
  Al  Al26  1  0.560163  0.439055  0.249158  1
  Al  Al27  1  0.440251  0.561888  0.751030  1
  Al  Al28  1  0.998884  0.000926  0.250071  1
  Al  Al29  1  0.999092  0.997999  0.749838  1
  Os  Os30  1  0.000333  0.500166  0.000164  1
  Os  Os31  1  0.500280  0.999581  0.499413  1
  Os  Os32  1  0.500264  0.500773  0.000667  1
  Os  Os33  1  0.000336  0.500129  0.499812  1
  Os  Os34  1  0.500318  0.500464  0.499598  1
  Os  Os35  1  0.000263  0.000159  0.999965  1
  Os  Os36  1  0.000276  0.000147  0.499950  1
  Pt  Pt37  1  0.500317  0.999970  0.000140  1
