# generated using pymatgen
data_Y20Ir7Os3Rh2
_symmetry_space_group_name_H-M   'P 1'
_cell_length_a   10.90116327
_cell_length_b   10.90156923
_cell_length_c   6.44320903
_cell_angle_alpha   90.00398797
_cell_angle_beta   90.01095563
_cell_angle_gamma   90.02324111
_symmetry_Int_Tables_number   1
_chemical_formula_structural   Y20Ir7Os3Rh2
_chemical_formula_sum   'Y20 Ir7 Os3 Rh2'
_cell_volume   765.70950465
_cell_formula_units_Z   1
loop_
 _symmetry_equiv_pos_site_id
 _symmetry_equiv_pos_as_xyz
  1  'x, y, z'
loop_
 _atom_site_type_symbol
 _atom_site_label
 _atom_site_symmetry_multiplicity
 _atom_site_fract_x
 _atom_site_fract_y
 _atom_site_fract_z
 _atom_site_occupancy
  Y  Y0  1  0.293916  0.086407  0.378455  1
  Y  Y1  1  0.294196  0.913818  0.878211  1
  Y  Y2  1  0.705172  0.085586  0.877015  1
  Y  Y3  1  0.705331  0.911811  0.378602  1
  Y  Y4  1  0.586048  0.793908  0.878747  1
  Y  Y5  1  0.585108  0.206160  0.378526  1
  Y  Y6  1  0.413183  0.794077  0.378291  1
  Y  Y7  1  0.413762  0.205933  0.878410  1
  Y  Y8  1  0.208577  0.412870  0.624537  1
  Y  Y9  1  0.207611  0.587630  0.117841  1
  Y  Y10  1  0.792130  0.414154  0.117637  1
  Y  Y11  1  0.791530  0.587326  0.624908  1
  Y  Y12  1  0.912722  0.707819  0.117630  1
  Y  Y13  1  0.913290  0.292408  0.626381  1
  Y  Y14  1  0.087254  0.708338  0.625118  1
  Y  Y15  1  0.089149  0.292971  0.117483  1
  Y  Y16  1  0.000278  0.999719  0.499257  1
  Y  Y17  1  0.000314  0.999662  0.999866  1
  Y  Y18  1  0.499970  0.500042  0.999612  1
  Y  Y19  1  0.499963  0.500008  0.499374  1
  Ir  Ir20  1  0.848087  0.847091  0.749561  1
  Ir  Ir21  1  0.151569  0.153146  0.749735  1
  Ir  Ir22  1  0.151657  0.846210  0.250435  1
  Ir  Ir23  1  0.653363  0.347919  0.749635  1
  Ir  Ir24  1  0.653768  0.651502  0.250474  1
  Ir  Ir25  1  0.346324  0.348348  0.250320  1
  Ir  Ir26  1  0.346819  0.651905  0.749670  1
  Os  Os27  1  0.500463  0.000268  0.126073  1
  Os  Os28  1  0.500305  0.000223  0.625357  1
  Os  Os29  1  0.999730  0.499631  0.874565  1
  Rh  Rh30  1  0.848741  0.153814  0.250743  1
  Rh  Rh31  1  0.999670  0.499296  0.377528  1
