# generated using pymatgen
data_Pr2Be4Ir5Pt
_symmetry_space_group_name_H-M   'P 1'
_cell_length_a   6.50717179
_cell_length_b   6.50717164
_cell_length_c   6.49903000
_cell_angle_alpha   129.92670322
_cell_angle_beta   114.63712780
_cell_angle_gamma   86.71215382
_symmetry_Int_Tables_number   1
_chemical_formula_structural   Pr2Be4Ir5Pt
_chemical_formula_sum   'Pr2 Be4 Ir5 Pt1'
_cell_volume   182.89350142
_cell_formula_units_Z   1
loop_
 _symmetry_equiv_pos_site_id
 _symmetry_equiv_pos_as_xyz
  1  'x, y, z'
loop_
 _atom_site_type_symbol
 _atom_site_label
 _atom_site_symmetry_multiplicity
 _atom_site_fract_x
 _atom_site_fract_y
 _atom_site_fract_z
 _atom_site_occupancy
  Pr  Pr0  1  0.248764  0.994406  0.743170  1
  Pr  Pr1  1  0.751236  0.005594  0.256830  1
  Be  Be2  1  0.078892  0.310126  0.234204  1
  Be  Be3  1  0.921108  0.689874  0.765796  1
  Be  Be4  1  0.424077  0.655311  0.234204  1
  Be  Be5  1  0.575923  0.344689  0.765796  1
  Ir  Ir6  1  0.500000  0.500000  0.500000  1
  Ir  Ir7  1  0.263470  0.000143  0.255085  1
  Ir  Ir8  1  0.736530  0.999857  0.744915  1
  Ir  Ir9  1  0.245058  0.508385  0.744915  1
  Ir  Ir10  1  0.754942  0.491615  0.255085  1
  Pt  Pt11  1  0.000000  0.500000  0.000000  1
