# generated using pymatgen
data_Er16MgCo4Ag2Au
_symmetry_space_group_name_H-M   'P 1'
_cell_length_a   9.34612116
_cell_length_b   9.34363917
_cell_length_c   9.35991300
_cell_angle_alpha   59.94236469
_cell_angle_beta   59.95116950
_cell_angle_gamma   59.77703139
_symmetry_Int_Tables_number   1
_chemical_formula_structural   Er16MgCo4Ag2Au
_chemical_formula_sum   'Er16 Mg1 Co4 Ag2 Au1'
_cell_volume   576.52529949
_cell_formula_units_Z   1
loop_
 _symmetry_equiv_pos_site_id
 _symmetry_equiv_pos_as_xyz
  1  'x, y, z'
loop_
 _atom_site_type_symbol
 _atom_site_label
 _atom_site_symmetry_multiplicity
 _atom_site_fract_x
 _atom_site_fract_y
 _atom_site_fract_z
 _atom_site_occupancy
  Er  Er0  1  0.596414  0.594717  0.595142  1
  Er  Er1  1  0.596414  0.594717  0.213727  1
  Er  Er2  1  0.595165  0.215805  0.594515  1
  Er  Er3  1  0.193167  0.600969  0.602933  1
  Er  Er4  1  0.057471  0.440199  0.441212  1
  Er  Er5  1  0.436018  0.064370  0.063701  1
  Er  Er6  1  0.436018  0.064370  0.435913  1
  Er  Er7  1  0.057471  0.440199  0.061117  1
  Er  Er8  1  0.436830  0.436559  0.063306  1
  Er  Er9  1  0.058440  0.062699  0.439430  1
  Er  Er10  1  0.188581  0.811414  0.811351  1
  Er  Er11  1  0.814264  0.189065  0.182920  1
  Er  Er12  1  0.814264  0.189065  0.813752  1
  Er  Er13  1  0.188581  0.811414  0.188653  1
  Er  Er14  1  0.814047  0.813648  0.186153  1
  Er  Er15  1  0.185088  0.190519  0.812196  1
  Mg  Mg16  1  0.551373  0.813616  0.817506  1
  Co  Co17  1  0.383958  0.395549  0.393760  1
  Co  Co18  1  0.383958  0.395549  0.826734  1
  Co  Co19  1  0.383893  0.826751  0.394679  1
  Co  Co20  1  0.825750  0.392411  0.390920  1
  Ag  Ag21  1  0.833461  0.835332  0.834498  1
  Ag  Ag22  1  0.833461  0.835332  0.496709  1
  Au  Au23  1  0.835914  0.485732  0.839177  1
