# generated using pymatgen
data_Sr4CaEr(MoO6)2
_symmetry_space_group_name_H-M   'P 1'
_cell_length_a   5.84441253
_cell_length_b   5.94981816
_cell_length_c   8.21449206
_cell_angle_alpha   90.07457959
_cell_angle_beta   90.20360743
_cell_angle_gamma   89.99214866
_symmetry_Int_Tables_number   1
_chemical_formula_structural   Sr4CaEr(MoO6)2
_chemical_formula_sum   'Sr4 Ca1 Er1 Mo2 O12'
_cell_volume   285.64206020
_cell_formula_units_Z   1
loop_
 _symmetry_equiv_pos_site_id
 _symmetry_equiv_pos_as_xyz
  1  'x, y, z'
loop_
 _atom_site_type_symbol
 _atom_site_label
 _atom_site_symmetry_multiplicity
 _atom_site_fract_x
 _atom_site_fract_y
 _atom_site_fract_z
 _atom_site_occupancy
  Sr  Sr0  1  0.010262  0.038658  0.254552  1
  Sr  Sr1  1  0.488083  0.541598  0.253596  1
  Sr  Sr2  1  0.511917  0.458401  0.746403  1
  Sr  Sr3  1  0.989737  0.961343  0.745448  1
  Ca  Ca4  1  0.500001  0.000000  0.000000  1
  Er  Er5  1  0.000000  0.500000  0.500000  1
  Mo  Mo6  1  0.000000  0.500000  0.000000  1
  Mo  Mo7  1  0.500000  0.000000  0.500000  1
  O  O8  1  0.266094  0.311635  0.041195  1
  O  O9  1  0.184029  0.766453  0.047339  1
  O  O10  1  0.916892  0.475838  0.232327  1
  O  O11  1  0.581674  0.975138  0.272817  1
  O  O12  1  0.297095  0.276312  0.452656  1
  O  O13  1  0.223753  0.794710  0.458023  1
  O  O14  1  0.776248  0.205290  0.541978  1
  O  O15  1  0.702904  0.723688  0.547345  1
  O  O16  1  0.418327  0.024862  0.727182  1
  O  O17  1  0.083107  0.524161  0.767672  1
  O  O18  1  0.815972  0.233546  0.952662  1
  O  O19  1  0.733907  0.688366  0.958805  1
