# generated using pymatgen
data_Pr3YIn2Ir3
_symmetry_space_group_name_H-M   'P 1'
_cell_length_a   7.71597031
_cell_length_b   7.71597010
_cell_length_c   4.23495200
_cell_angle_alpha   90.00000000
_cell_angle_beta   90.00000000
_cell_angle_gamma   120.88637874
_symmetry_Int_Tables_number   1
_chemical_formula_structural   Pr3YIn2Ir3
_chemical_formula_sum   'Pr3 Y1 In2 Ir3'
_cell_volume   216.37719753
_cell_formula_units_Z   1
loop_
 _symmetry_equiv_pos_site_id
 _symmetry_equiv_pos_as_xyz
  1  'x, y, z'
loop_
 _atom_site_type_symbol
 _atom_site_label
 _atom_site_symmetry_multiplicity
 _atom_site_fract_x
 _atom_site_fract_y
 _atom_site_fract_z
 _atom_site_occupancy
  Pr  Pr0  1  0.585125  0.019941  0.000000  1
  Pr  Pr1  1  0.019941  0.585125  0.000000  1
  Pr  Pr2  1  0.388326  0.388326  0.000000  1
  Y  Y3  1  0.757842  0.757842  0.500000  1
  In  In4  1  0.247471  0.994681  0.500000  1
  In  In5  1  0.994681  0.247471  0.500000  1
  Ir  Ir6  1  0.336634  0.666780  0.500000  1
  Ir  Ir7  1  0.666780  0.336634  0.500000  1
  Ir  Ir8  1  0.003200  0.003200  0.000000  1
