# generated using pymatgen
data_Lu(Tc2P)2
_symmetry_space_group_name_H-M   'P 1'
_cell_length_a   7.37876700
_cell_length_b   7.37876700
_cell_length_c   3.93763100
_cell_angle_alpha   90.00000000
_cell_angle_beta   90.00000000
_cell_angle_gamma   90.00000000
_symmetry_Int_Tables_number   1
_chemical_formula_structural   Lu(Tc2P)2
_chemical_formula_sum   'Lu2 Tc8 P4'
_cell_volume   214.38905456
_cell_formula_units_Z   2
loop_
 _symmetry_equiv_pos_site_id
 _symmetry_equiv_pos_as_xyz
  1  'x, y, z'
loop_
 _atom_site_type_symbol
 _atom_site_label
 _atom_site_symmetry_multiplicity
 _atom_site_fract_x
 _atom_site_fract_y
 _atom_site_fract_z
 _atom_site_occupancy
  Lu  Lu0  1  0.500000  0.500000  0.000000  1
  Lu  Lu1  1  0.000000  0.000000  0.500000  1
  Tc  Tc2  1  0.161814  0.582521  0.500000  1
  Tc  Tc3  1  0.838186  0.417479  0.500000  1
  Tc  Tc4  1  0.338186  0.082521  0.000000  1
  Tc  Tc5  1  0.661814  0.917479  0.000000  1
  Tc  Tc6  1  0.582521  0.161814  0.500000  1
  Tc  Tc7  1  0.417479  0.838186  0.500000  1
  Tc  Tc8  1  0.082521  0.338186  0.000000  1
  Tc  Tc9  1  0.917479  0.661814  0.000000  1
  P  P10  1  0.711882  0.711882  0.500000  1
  P  P11  1  0.288118  0.288118  0.500000  1
  P  P12  1  0.788118  0.211882  0.000000  1
  P  P13  1  0.211882  0.788118  0.000000  1
