# generated using pymatgen
data_Pa8Co3Si12Ni
_symmetry_space_group_name_H-M   'P 1'
_cell_length_a   7.98114800
_cell_length_b   7.98114720
_cell_length_c   7.90802600
_cell_angle_alpha   90.00000000
_cell_angle_beta   90.00000000
_cell_angle_gamma   120.00000330
_symmetry_Int_Tables_number   1
_chemical_formula_structural   Pa8Co3Si12Ni
_chemical_formula_sum   'Pa8 Co3 Si12 Ni1'
_cell_volume   436.24392390
_cell_formula_units_Z   1
loop_
 _symmetry_equiv_pos_site_id
 _symmetry_equiv_pos_as_xyz
  1  'x, y, z'
loop_
 _atom_site_type_symbol
 _atom_site_label
 _atom_site_symmetry_multiplicity
 _atom_site_fract_x
 _atom_site_fract_y
 _atom_site_fract_z
 _atom_site_occupancy
  Pa  Pa0  1  0.000000  0.000000  0.251347  1
  Pa  Pa1  1  0.000000  0.000000  0.751439  1
  Pa  Pa2  1  0.501712  0.498288  0.253809  1
  Pa  Pa3  1  0.501712  0.003425  0.253809  1
  Pa  Pa4  1  0.996575  0.498288  0.253809  1
  Pa  Pa5  1  0.502380  0.497620  0.748785  1
  Pa  Pa6  1  0.502380  0.004761  0.748785  1
  Pa  Pa7  1  0.995239  0.497620  0.748785  1
  Co  Co8  1  0.333333  0.666667  0.493864  1
  Co  Co9  1  0.666667  0.333333  0.496295  1
  Co  Co10  1  0.666667  0.333333  0.985248  1
  Si  Si11  1  0.170531  0.829469  0.501485  1
  Si  Si12  1  0.170531  0.341062  0.501485  1
  Si  Si13  1  0.658938  0.829469  0.501485  1
  Si  Si14  1  0.830725  0.169275  0.500786  1
  Si  Si15  1  0.830725  0.661452  0.500786  1
  Si  Si16  1  0.338548  0.169275  0.500786  1
  Si  Si17  1  0.830038  0.169962  0.001993  1
  Si  Si18  1  0.830038  0.660076  0.001993  1
  Si  Si19  1  0.339924  0.169962  0.001993  1
  Si  Si20  1  0.170587  0.829413  0.000473  1
  Si  Si21  1  0.170587  0.341174  0.000473  1
  Si  Si22  1  0.658826  0.829413  0.000473  1
  Ni  Ni23  1  0.333333  0.666667  0.999810  1
