# generated using pymatgen
data_Tb3Yb(AlIr3)2
_symmetry_space_group_name_H-M   'P 1'
_cell_length_a   9.43964780
_cell_length_b   9.43964830
_cell_length_c   9.68223538
_cell_angle_alpha   31.18335660
_cell_angle_beta   31.18335314
_cell_angle_gamma   34.43224636
_symmetry_Int_Tables_number   1
_chemical_formula_structural   Tb3Yb(AlIr3)2
_chemical_formula_sum   'Tb3 Yb1 Al2 Ir6'
_cell_volume   216.97229971
_cell_formula_units_Z   1
loop_
 _symmetry_equiv_pos_site_id
 _symmetry_equiv_pos_as_xyz
  1  'x, y, z'
loop_
 _atom_site_type_symbol
 _atom_site_label
 _atom_site_symmetry_multiplicity
 _atom_site_fract_x
 _atom_site_fract_y
 _atom_site_fract_z
 _atom_site_occupancy
  Tb  Tb0  1  0.191196  0.191196  0.181917  1
  Tb  Tb1  1  0.808184  0.808184  0.816393  1
  Tb  Tb2  1  0.313015  0.313015  0.314770  1
  Yb  Yb3  1  0.689228  0.689228  0.684310  1
  Al  Al4  1  0.251339  0.251339  0.747235  1
  Al  Al5  1  0.749734  0.749734  0.250934  1
  Ir  Ir6  1  0.999191  0.999191  0.002611  1
  Ir  Ir7  1  0.499847  0.499847  0.500302  1
  Ir  Ir8  1  0.753578  0.247998  0.249288  1
  Ir  Ir9  1  0.247788  0.748900  0.751475  1
  Ir  Ir10  1  0.247998  0.753578  0.249288  1
  Ir  Ir11  1  0.748900  0.247788  0.751475  1
