# generated using pymatgen
data_HoMgScB2Rh5
_symmetry_space_group_name_H-M   'P 1'
_cell_length_a   9.55760367
_cell_length_b   9.55760367
_cell_length_c   3.11934900
_cell_angle_alpha   90.00000000
_cell_angle_beta   90.00000000
_cell_angle_gamma   88.80272373
_symmetry_Int_Tables_number   1
_chemical_formula_structural   HoMgScB2Rh5
_chemical_formula_sum   'Ho2 Mg2 Sc2 B4 Rh10'
_cell_volume   284.88342114
_cell_formula_units_Z   2
loop_
 _symmetry_equiv_pos_site_id
 _symmetry_equiv_pos_as_xyz
  1  'x, y, z'
loop_
 _atom_site_type_symbol
 _atom_site_label
 _atom_site_symmetry_multiplicity
 _atom_site_fract_x
 _atom_site_fract_y
 _atom_site_fract_z
 _atom_site_occupancy
  Ho  Ho0  1  0.677057  0.177057  0.000000  1
  Ho  Ho1  1  0.322943  0.822943  0.000000  1
  Mg  Mg2  1  0.000000  0.000000  0.000000  1
  Mg  Mg3  1  0.500000  0.500000  0.000000  1
  Sc  Sc4  1  0.173913  0.326087  0.000000  1
  Sc  Sc5  1  0.826087  0.673913  0.000000  1
  B  B6  1  0.121735  0.621735  0.000000  1
  B  B7  1  0.878265  0.378265  0.000000  1
  B  B8  1  0.626056  0.873944  0.000000  1
  B  B9  1  0.373944  0.126056  0.000000  1
  Rh  Rh10  1  0.500000  0.000000  0.500000  1
  Rh  Rh11  1  0.000000  0.500000  0.500000  1
  Rh  Rh12  1  0.219886  0.077634  0.500000  1
  Rh  Rh13  1  0.780114  0.922366  0.500000  1
  Rh  Rh14  1  0.064381  0.774935  0.500000  1
  Rh  Rh15  1  0.725065  0.435619  0.500000  1
  Rh  Rh16  1  0.935619  0.225065  0.500000  1
  Rh  Rh17  1  0.274935  0.564381  0.500000  1
  Rh  Rh18  1  0.577634  0.719886  0.500000  1
  Rh  Rh19  1  0.422366  0.280114  0.500000  1
