# generated using pymatgen
data_Dy2Er6CrOs3C8
_symmetry_space_group_name_H-M   'P 1'
_cell_length_a   5.06185700
_cell_length_b   6.46169609
_cell_length_c   9.69623219
_cell_angle_alpha   90.13140441
_cell_angle_beta   90.00000000
_cell_angle_gamma   90.00000000
_symmetry_Int_Tables_number   1
_chemical_formula_structural   Dy2Er6CrOs3C8
_chemical_formula_sum   'Dy2 Er6 Cr1 Os3 C8'
_cell_volume   317.14528949
_cell_formula_units_Z   1
loop_
 _symmetry_equiv_pos_site_id
 _symmetry_equiv_pos_as_xyz
  1  'x, y, z'
loop_
 _atom_site_type_symbol
 _atom_site_label
 _atom_site_symmetry_multiplicity
 _atom_site_fract_x
 _atom_site_fract_y
 _atom_site_fract_z
 _atom_site_occupancy
  Dy  Dy0  1  0.250000  0.529171  0.212011  1
  Dy  Dy1  1  0.250000  0.029171  0.287108  1
  Er  Er2  1  0.250000  0.681976  0.557985  1
  Er  Er3  1  0.750000  0.322171  0.446104  1
  Er  Er4  1  0.750000  0.819753  0.052479  1
  Er  Er5  1  0.250000  0.176309  0.944474  1
  Er  Er6  1  0.750000  0.471463  0.782287  1
  Er  Er7  1  0.750000  0.974006  0.716734  1
  Cr  Cr8  1  0.250000  0.726371  0.863204  1
  Os  Os9  1  0.750000  0.276578  0.133833  1
  Os  Os10  1  0.750000  0.777438  0.365698  1
  Os  Os11  1  0.250000  0.226511  0.637429  1
  C  C12  1  0.250000  0.464755  0.765016  1
  C  C13  1  0.750000  0.542036  0.241258  1
  C  C14  1  0.750000  0.041354  0.257849  1
  C  C15  1  0.250000  0.953647  0.743289  1
  C  C16  1  0.250000  0.816914  0.043257  1
  C  C17  1  0.750000  0.172454  0.946479  1
  C  C18  1  0.750000  0.673189  0.553959  1
  C  C19  1  0.250000  0.324734  0.449547  1
