# generated using pymatgen
data_Yb3PrLu4(B6Ru)4
_symmetry_space_group_name_H-M   'P 1'
_cell_length_a   3.63379400
_cell_length_b   9.10279066
_cell_length_c   11.51119783
_cell_angle_alpha   90.04350098
_cell_angle_beta   90.00000000
_cell_angle_gamma   90.00000000
_symmetry_Int_Tables_number   1
_chemical_formula_structural   Yb3PrLu4(B6Ru)4
_chemical_formula_sum   'Yb3 Pr1 Lu4 B24 Ru4'
_cell_volume   380.76344811
_cell_formula_units_Z   1
loop_
 _symmetry_equiv_pos_site_id
 _symmetry_equiv_pos_as_xyz
  1  'x, y, z'
loop_
 _atom_site_type_symbol
 _atom_site_label
 _atom_site_symmetry_multiplicity
 _atom_site_fract_x
 _atom_site_fract_y
 _atom_site_fract_z
 _atom_site_occupancy
  Yb  Yb0  1  0.000000  0.677046  0.586449  1
  Yb  Yb1  1  0.000000  0.824747  0.083780  1
  Yb  Yb2  1  0.000000  0.174743  0.914762  1
  Pr  Pr3  1  0.000000  0.323663  0.415448  1
  Lu  Lu4  1  0.000000  0.941165  0.367251  1
  Lu  Lu5  1  0.000000  0.056102  0.634192  1
  Lu  Lu6  1  0.000000  0.442540  0.130745  1
  Lu  Lu7  1  0.000000  0.559044  0.867292  1
  B  B8  1  0.500000  0.557794  0.432201  1
  B  B9  1  0.500000  0.446761  0.570557  1
  B  B10  1  0.500000  0.053899  0.067012  1
  B  B11  1  0.500000  0.945446  0.932440  1
  B  B12  1  0.500000  0.750760  0.417161  1
  B  B13  1  0.500000  0.249497  0.586344  1
  B  B14  1  0.500000  0.249655  0.081598  1
  B  B15  1  0.500000  0.750257  0.917121  1
  B  B16  1  0.500000  0.791716  0.263521  1
  B  B17  1  0.500000  0.207876  0.737458  1
  B  B18  1  0.500000  0.290605  0.233093  1
  B  B19  1  0.500000  0.708525  0.764611  1
  B  B20  1  0.500000  0.631234  0.183545  1
  B  B21  1  0.500000  0.369825  0.815738  1
  B  B22  1  0.500000  0.128249  0.313146  1
  B  B23  1  0.500000  0.869185  0.685464  1
  B  B24  1  0.500000  0.982550  0.210663  1
  B  B25  1  0.500000  0.016107  0.789234  1
  B  B26  1  0.500000  0.486222  0.286373  1
  B  B27  1  0.500000  0.517313  0.712707  1
  B  B28  1  0.500000  0.596543  0.025597  1
  B  B29  1  0.500000  0.404372  0.973256  1
  B  B30  1  0.500000  0.093654  0.474607  1
  B  B31  1  0.500000  0.902587  0.526756  1
  Ru  Ru32  1  0.000000  0.640572  0.318101  1
  Ru  Ru33  1  0.000000  0.360128  0.682476  1
  Ru  Ru34  1  0.000000  0.139549  0.180080  1
  Ru  Ru35  1  0.000000  0.860069  0.819219  1
