# generated using pymatgen
data_Tb6ReB14Ru
_symmetry_space_group_name_H-M   'P 1'
_cell_length_a   8.11155023
_cell_length_b   8.11155014
_cell_length_c   9.37121300
_cell_angle_alpha   90.00000000
_cell_angle_beta   90.00000000
_cell_angle_gamma   154.75931794
_symmetry_Int_Tables_number   1
_chemical_formula_structural   Tb6ReB14Ru
_chemical_formula_sum   'Tb6 Re1 B14 Ru1'
_cell_volume   262.93159024
_cell_formula_units_Z   1
loop_
 _symmetry_equiv_pos_site_id
 _symmetry_equiv_pos_as_xyz
  1  'x, y, z'
loop_
 _atom_site_type_symbol
 _atom_site_label
 _atom_site_symmetry_multiplicity
 _atom_site_fract_x
 _atom_site_fract_y
 _atom_site_fract_z
 _atom_site_occupancy
  Tb  Tb0  1  0.894750  0.105250  0.060486  1
  Tb  Tb1  1  0.105412  0.894588  0.561139  1
  Tb  Tb2  1  0.105412  0.894588  0.938861  1
  Tb  Tb3  1  0.894750  0.105250  0.439514  1
  Tb  Tb4  1  0.243070  0.756930  0.250000  1
  Tb  Tb5  1  0.756918  0.243082  0.750000  1
  Re  Re6  1  0.946615  0.053385  0.750000  1
  B  B7  1  0.458792  0.541208  0.250000  1
  B  B8  1  0.542139  0.457861  0.750000  1
  B  B9  1  0.726716  0.273284  0.034210  1
  B  B10  1  0.272817  0.727183  0.533148  1
  B  B11  1  0.272817  0.727183  0.966852  1
  B  B12  1  0.726716  0.273284  0.465790  1
  B  B13  1  0.631457  0.368543  0.348204  1
  B  B14  1  0.367782  0.632218  0.848916  1
  B  B15  1  0.367782  0.632218  0.651084  1
  B  B16  1  0.631457  0.368543  0.151796  1
  B  B17  1  0.521235  0.478765  0.403290  1
  B  B18  1  0.478857  0.521143  0.904141  1
  B  B19  1  0.478857  0.521143  0.595859  1
  B  B20  1  0.521235  0.478765  0.096710  1
  Ru  Ru21  1  0.054412  0.945587  0.250000  1
