# generated using pymatgen
data_Ti5Nb7Ga8CuRh3C4
_symmetry_space_group_name_H-M   'P 1'
_cell_length_a   8.23715085
_cell_length_b   8.26161313
_cell_length_c   8.25212800
_cell_angle_alpha   59.94511011
_cell_angle_beta   60.09533574
_cell_angle_gamma   59.92528220
_symmetry_Int_Tables_number   1
_chemical_formula_structural   Ti5Nb7Ga8CuRh3C4
_chemical_formula_sum   'Ti5 Nb7 Ga8 Cu1 Rh3 C4'
_cell_volume   396.98859573
_cell_formula_units_Z   1
loop_
 _symmetry_equiv_pos_site_id
 _symmetry_equiv_pos_as_xyz
  1  'x, y, z'
loop_
 _atom_site_type_symbol
 _atom_site_label
 _atom_site_symmetry_multiplicity
 _atom_site_fract_x
 _atom_site_fract_y
 _atom_site_fract_z
 _atom_site_occupancy
  Ti  Ti0  1  0.565666  0.936618  0.937977  1
  Ti  Ti1  1  0.940459  0.562155  0.559638  1
  Ti  Ti2  1  0.937605  0.566889  0.937427  1
  Ti  Ti3  1  0.311757  0.315066  0.683020  1
  Ti  Ti4  1  0.559835  0.562300  0.940102  1
  Nb  Nb5  1  0.939492  0.937752  0.563307  1
  Nb  Nb6  1  0.686975  0.312679  0.309694  1
  Nb  Nb7  1  0.310116  0.687926  0.689813  1
  Nb  Nb8  1  0.689109  0.687279  0.310697  1
  Nb  Nb9  1  0.689598  0.310782  0.689620  1
  Nb  Nb10  1  0.311347  0.686293  0.310938  1
  Nb  Nb11  1  0.560332  0.939988  0.560529  1
  Ga  Ga12  1  0.914405  0.262320  0.913844  1
  Ga  Ga13  1  0.333510  0.333091  0.992556  1
  Ga  Ga14  1  0.995247  0.333132  0.333738  1
  Ga  Ga15  1  0.334366  0.335174  0.338484  1
  Ga  Ga16  1  0.258786  0.913836  0.917848  1
  Ga  Ga17  1  0.911566  0.911832  0.915979  1
  Ga  Ga18  1  0.917592  0.913572  0.256541  1
  Ga  Ga19  1  0.333797  0.994005  0.333734  1
  Cu  Cu20  1  0.124849  0.125645  0.123390  1
  Rh  Rh21  1  0.126278  0.623263  0.124565  1
  Rh  Rh22  1  0.124349  0.125058  0.627939  1
  Rh  Rh23  1  0.624770  0.126691  0.124118  1
  C  C24  1  0.618547  0.126925  0.630337  1
  C  C25  1  0.628222  0.628229  0.114889  1
  C  C26  1  0.122457  0.618297  0.629795  1
  C  C27  1  0.628970  0.623204  0.629480  1
