# generated using pymatgen
data_CeYRh2Pb
_symmetry_space_group_name_H-M   'P 1'
_cell_length_a   7.78522003
_cell_length_b   7.78522041
_cell_length_c   3.66199700
_cell_angle_alpha   90.00000000
_cell_angle_beta   90.00000000
_cell_angle_gamma   86.41146942
_symmetry_Int_Tables_number   1
_chemical_formula_structural   CeYRh2Pb
_chemical_formula_sum   'Ce2 Y2 Rh4 Pb2'
_cell_volume   221.51718367
_cell_formula_units_Z   2
loop_
 _symmetry_equiv_pos_site_id
 _symmetry_equiv_pos_as_xyz
  1  'x, y, z'
loop_
 _atom_site_type_symbol
 _atom_site_label
 _atom_site_symmetry_multiplicity
 _atom_site_fract_x
 _atom_site_fract_y
 _atom_site_fract_z
 _atom_site_occupancy
  Ce  Ce0  1  0.170684  0.329316  0.500000  1
  Ce  Ce1  1  0.829316  0.670684  0.500000  1
  Y  Y2  1  0.668521  0.168521  0.500000  1
  Y  Y3  1  0.331479  0.831479  0.500000  1
  Rh  Rh4  1  0.125820  0.625820  0.000000  1
  Rh  Rh5  1  0.874180  0.374180  0.000000  1
  Rh  Rh6  1  0.638602  0.861398  0.000000  1
  Rh  Rh7  1  0.361398  0.138602  0.000000  1
  Pb  Pb8  1  0.000000  0.000000  0.000000  1
  Pb  Pb9  1  0.500000  0.500000  0.000000  1
