# generated using pymatgen
data_DyZr3(Si3Ni5)4
_symmetry_space_group_name_H-M   'P 1'
_cell_length_a   3.71917600
_cell_length_b   6.61710604
_cell_length_c   18.36513521
_cell_angle_alpha   90.11342348
_cell_angle_beta   90.00000000
_cell_angle_gamma   90.00000000
_symmetry_Int_Tables_number   1
_chemical_formula_structural   DyZr3(Si3Ni5)4
_chemical_formula_sum   'Dy1 Zr3 Si12 Ni20'
_cell_volume   451.96843418
_cell_formula_units_Z   1
loop_
 _symmetry_equiv_pos_site_id
 _symmetry_equiv_pos_as_xyz
  1  'x, y, z'
loop_
 _atom_site_type_symbol
 _atom_site_label
 _atom_site_symmetry_multiplicity
 _atom_site_fract_x
 _atom_site_fract_y
 _atom_site_fract_z
 _atom_site_occupancy
  Dy  Dy0  1  0.250000  0.877713  0.142704  1
  Zr  Zr1  1  0.250000  0.621262  0.642910  1
  Zr  Zr2  1  0.750000  0.379580  0.358096  1
  Zr  Zr3  1  0.750000  0.119550  0.856013  1
  Si  Si4  1  0.250000  0.852890  0.922795  1
  Si  Si5  1  0.750000  0.157775  0.074749  1
  Si  Si6  1  0.750000  0.351802  0.577368  1
  Si  Si7  1  0.250000  0.647500  0.424596  1
  Si  Si8  1  0.750000  0.622268  0.759882  1
  Si  Si9  1  0.250000  0.377143  0.241224  1
  Si  Si10  1  0.250000  0.406025  0.910901  1
  Si  Si11  1  0.750000  0.582766  0.083942  1
  Si  Si12  1  0.750000  0.906272  0.586200  1
  Si  Si13  1  0.250000  0.094280  0.415787  1
  Si  Si14  1  0.250000  0.121872  0.738963  1
  Si  Si15  1  0.750000  0.877069  0.263562  1
  Ni  Ni16  1  0.250000  0.133805  0.993236  1
  Ni  Ni17  1  0.750000  0.380392  0.982529  1
  Ni  Ni18  1  0.750000  0.120562  0.487816  1
  Ni  Ni19  1  0.250000  0.615681  0.010700  1
  Ni  Ni20  1  0.250000  0.359688  0.116100  1
  Ni  Ni21  1  0.750000  0.645644  0.884294  1
  Ni  Ni22  1  0.750000  0.856558  0.387340  1
  Ni  Ni23  1  0.250000  0.142709  0.614728  1
  Ni  Ni24  1  0.250000  0.071073  0.295615  1
  Ni  Ni25  1  0.750000  0.929275  0.706797  1
  Ni  Ni26  1  0.750000  0.568185  0.207037  1
  Ni  Ni27  1  0.250000  0.430102  0.791112  1
  Ni  Ni28  1  0.750000  0.629529  0.506290  1
  Ni  Ni29  1  0.250000  0.370325  0.495886  1
  Ni  Ni30  1  0.250000  0.817777  0.798710  1
  Ni  Ni31  1  0.750000  0.184822  0.202010  1
  Ni  Ni32  1  0.750000  0.317274  0.700376  1
  Ni  Ni33  1  0.250000  0.681165  0.301445  1
  Ni  Ni34  1  0.250000  0.879940  0.513839  1
  Ni  Ni35  1  0.750000  0.869727  0.004444  1
