# generated using pymatgen
data_Dy3YTi4Cr4O20
_symmetry_space_group_name_H-M   'P 1'
_cell_length_a   5.85421000
_cell_length_b   7.45908704
_cell_length_c   8.60407405
_cell_angle_alpha   89.98741609
_cell_angle_beta   90.00000000
_cell_angle_gamma   90.00000000
_symmetry_Int_Tables_number   1
_chemical_formula_structural   Dy3YTi4Cr4O20
_chemical_formula_sum   'Dy3 Y1 Ti4 Cr4 O20'
_cell_volume   375.71462575
_cell_formula_units_Z   1
loop_
 _symmetry_equiv_pos_site_id
 _symmetry_equiv_pos_as_xyz
  1  'x, y, z'
loop_
 _atom_site_type_symbol
 _atom_site_label
 _atom_site_symmetry_multiplicity
 _atom_site_fract_x
 _atom_site_fract_y
 _atom_site_fract_z
 _atom_site_occupancy
  Dy  Dy0  1  0.500000  0.359079  0.329953  1
  Dy  Dy1  1  0.500000  0.640932  0.670050  1
  Dy  Dy2  1  0.500000  0.141134  0.829807  1
  Y  Y3  1  0.500000  0.859151  0.170043  1
  Ti  Ti4  1  0.000000  0.118110  0.146552  1
  Ti  Ti5  1  0.000000  0.882032  0.853276  1
  Ti  Ti6  1  0.000000  0.382067  0.646587  1
  Ti  Ti7  1  0.000000  0.617854  0.353584  1
  Cr  Cr8  1  0.254305  0.000060  0.500128  1
  Cr  Cr9  1  0.745695  0.000060  0.500128  1
  Cr  Cr10  1  0.745683  0.499856  0.999929  1
  Cr  Cr11  1  0.254317  0.499856  0.999929  1
  O  O12  1  0.253061  0.111248  0.287753  1
  O  O13  1  0.746754  0.889038  0.712365  1
  O  O14  1  0.253246  0.889038  0.712365  1
  O  O15  1  0.746777  0.389043  0.787619  1
  O  O16  1  0.746939  0.111248  0.287753  1
  O  O17  1  0.252831  0.610278  0.212415  1
  O  O18  1  0.747169  0.610278  0.212415  1
  O  O19  1  0.253223  0.389043  0.787619  1
  O  O20  1  0.000000  0.342543  0.077625  1
  O  O21  1  0.000000  0.657512  0.922326  1
  O  O22  1  0.000000  0.157517  0.577702  1
  O  O23  1  0.000000  0.842559  0.422309  1
  O  O24  1  0.500000  0.332458  0.060163  1
  O  O25  1  0.500000  0.667320  0.939524  1
  O  O26  1  0.500000  0.167541  0.560161  1
  O  O27  1  0.500000  0.832415  0.440311  1
  O  O28  1  0.220505  0.000386  0.999729  1
  O  O29  1  0.779495  0.000386  0.999729  1
  O  O30  1  0.779228  0.499980  0.500077  1
  O  O31  1  0.220772  0.499980  0.500077  1
