# generated using pymatgen
data_LaHo(Tm2Rh9)2
_symmetry_space_group_name_H-M   'P 1'
_cell_length_a   5.26385700
_cell_length_b   5.26385635
_cell_length_c   17.54524200
_cell_angle_alpha   90.00000000
_cell_angle_beta   90.00000000
_cell_angle_gamma   119.99998523
_symmetry_Int_Tables_number   1
_chemical_formula_structural   LaHo(Tm2Rh9)2
_chemical_formula_sum   'La1 Ho1 Tm4 Rh18'
_cell_volume   421.01558302
_cell_formula_units_Z   1
loop_
 _symmetry_equiv_pos_site_id
 _symmetry_equiv_pos_as_xyz
  1  'x, y, z'
loop_
 _atom_site_type_symbol
 _atom_site_label
 _atom_site_symmetry_multiplicity
 _atom_site_fract_x
 _atom_site_fract_y
 _atom_site_fract_z
 _atom_site_occupancy
  La  La0  1  0.666667  0.333333  0.250000  1
  Ho  Ho1  1  0.333333  0.666667  0.750000  1
  Tm  Tm2  1  0.333333  0.666667  0.542432  1
  Tm  Tm3  1  0.666667  0.333333  0.040127  1
  Tm  Tm4  1  0.666667  0.333333  0.459873  1
  Tm  Tm5  1  0.333333  0.666667  0.957568  1
  Rh  Rh6  1  0.167463  0.334925  0.123173  1
  Rh  Rh7  1  0.832492  0.664984  0.625471  1
  Rh  Rh8  1  0.665075  0.832537  0.123173  1
  Rh  Rh9  1  0.167463  0.832537  0.123173  1
  Rh  Rh10  1  0.832492  0.167508  0.625471  1
  Rh  Rh11  1  0.335016  0.167508  0.625471  1
  Rh  Rh12  1  0.832492  0.664984  0.874529  1
  Rh  Rh13  1  0.832492  0.167508  0.874529  1
  Rh  Rh14  1  0.335016  0.167508  0.874529  1
  Rh  Rh15  1  0.665075  0.832537  0.376827  1
  Rh  Rh16  1  0.167463  0.832537  0.376827  1
  Rh  Rh17  1  0.167463  0.334925  0.376827  1
  Rh  Rh18  1  0.000000  0.000000  0.250000  1
  Rh  Rh19  1  0.000000  0.000000  0.750000  1
  Rh  Rh20  1  0.333333  0.666667  0.250000  1
  Rh  Rh21  1  0.666667  0.333333  0.750000  1
  Rh  Rh22  1  0.000000  0.000000  0.999080  1
  Rh  Rh23  1  0.000000  0.000000  0.500920  1
