# generated using pymatgen
data_TbDy4Ti3(P3Ir4)4
_symmetry_space_group_name_H-M   'P 1'
_cell_length_a   12.75509400
_cell_length_b   12.75502863
_cell_length_c   3.95431000
_cell_angle_alpha   90.00000000
_cell_angle_beta   90.00000000
_cell_angle_gamma   119.99982318
_symmetry_Int_Tables_number   1
_chemical_formula_structural   TbDy4Ti3(P3Ir4)4
_chemical_formula_sum   'Tb1 Dy4 Ti3 P12 Ir16'
_cell_volume   557.14369457
_cell_formula_units_Z   1
loop_
 _symmetry_equiv_pos_site_id
 _symmetry_equiv_pos_as_xyz
  1  'x, y, z'
loop_
 _atom_site_type_symbol
 _atom_site_label
 _atom_site_symmetry_multiplicity
 _atom_site_fract_x
 _atom_site_fract_y
 _atom_site_fract_z
 _atom_site_occupancy
  Tb  Tb0  1  0.000000  0.812368  0.000000  1
  Dy  Dy1  1  0.333348  0.666677  0.500000  1
  Dy  Dy2  1  0.666652  0.333327  0.500000  1
  Dy  Dy3  1  0.187693  0.187689  0.000000  1
  Dy  Dy4  1  0.812307  0.999995  0.000000  1
  Ti  Ti5  1  0.000000  0.447789  0.500000  1
  Ti  Ti6  1  0.552142  0.552143  0.500000  1
  Ti  Ti7  1  0.447858  0.000000  0.500000  1
  P  P8  1  0.000000  0.640161  0.500000  1
  P  P9  1  0.359651  0.359655  0.500000  1
  P  P10  1  0.640349  0.000004  0.500000  1
  P  P11  1  0.517008  0.684361  0.000000  1
  P  P12  1  0.315610  0.832660  0.000000  1
  P  P13  1  0.167351  0.482962  0.000000  1
  P  P14  1  0.482992  0.167352  0.000000  1
  P  P15  1  0.684390  0.517049  0.000000  1
  P  P16  1  0.832649  0.315610  0.000000  1
  P  P17  1  0.000000  0.176701  0.500000  1
  P  P18  1  0.823251  0.823372  0.500000  1
  P  P19  1  0.176749  0.000121  0.500000  1
  Ir  Ir20  1  0.509029  0.866459  0.000000  1
  Ir  Ir21  1  0.133530  0.642557  0.000000  1
  Ir  Ir22  1  0.357415  0.490953  0.000000  1
  Ir  Ir23  1  0.490971  0.357428  0.000000  1
  Ir  Ir24  1  0.866470  0.509026  0.000000  1
  Ir  Ir25  1  0.642585  0.133538  0.000000  1
  Ir  Ir26  1  0.000000  0.283038  0.000000  1
  Ir  Ir27  1  0.716831  0.716927  0.000000  1
  Ir  Ir28  1  0.283169  0.000096  0.000000  1
  Ir  Ir29  1  0.626716  0.805143  0.500000  1
  Ir  Ir30  1  0.195162  0.821608  0.500000  1
  Ir  Ir31  1  0.178411  0.373275  0.500000  1
  Ir  Ir32  1  0.373284  0.178428  0.500000  1
  Ir  Ir33  1  0.804838  0.626446  0.500000  1
  Ir  Ir34  1  0.821589  0.194863  0.500000  1
  Ir  Ir35  1  0.000000  0.000219  0.500000  1
