# generated using pymatgen
data_CsRbTc4(Mo4Se7)2
_symmetry_space_group_name_H-M   'P 1'
_cell_length_a   9.96406490
_cell_length_b   9.95739044
_cell_length_c   9.96977377
_cell_angle_alpha   60.54978871
_cell_angle_beta   60.52249743
_cell_angle_gamma   60.67466326
_symmetry_Int_Tables_number   1
_chemical_formula_structural   CsRbTc4(Mo4Se7)2
_chemical_formula_sum   'Cs1 Rb1 Tc4 Mo8 Se14'
_cell_volume   708.64021574
_cell_formula_units_Z   1
loop_
 _symmetry_equiv_pos_site_id
 _symmetry_equiv_pos_as_xyz
  1  'x, y, z'
loop_
 _atom_site_type_symbol
 _atom_site_label
 _atom_site_symmetry_multiplicity
 _atom_site_fract_x
 _atom_site_fract_y
 _atom_site_fract_z
 _atom_site_occupancy
  Cs  Cs0  1  0.122659  0.124930  0.126115  1
  Rb  Rb1  1  0.874555  0.876879  0.875103  1
  Tc  Tc2  1  0.612838  0.306640  0.439680  1
  Tc  Tc3  1  0.307454  0.439455  0.611938  1
  Tc  Tc4  1  0.439985  0.611900  0.307790  1
  Tc  Tc5  1  0.387052  0.695229  0.560136  1
  Mo  Mo6  1  0.695470  0.560375  0.387029  1
  Mo  Mo7  1  0.559718  0.386866  0.695242  1
  Mo  Mo8  1  0.377404  0.203392  0.503806  1
  Mo  Mo9  1  0.204524  0.504168  0.376946  1
  Mo  Mo10  1  0.505135  0.376613  0.203801  1
  Mo  Mo11  1  0.623540  0.796365  0.496164  1
  Mo  Mo12  1  0.797182  0.496180  0.622686  1
  Mo  Mo13  1  0.496402  0.622423  0.796561  1
  Se  Se14  1  0.669035  0.315230  0.917079  1
  Se  Se15  1  0.086494  0.329471  0.684638  1
  Se  Se16  1  0.277563  0.278786  0.277403  1
  Se  Se17  1  0.722525  0.723421  0.722519  1
  Se  Se18  1  0.854817  0.256971  0.519369  1
  Se  Se19  1  0.256696  0.524677  0.850368  1
  Se  Se20  1  0.514467  0.854858  0.262678  1
  Se  Se21  1  0.148999  0.733243  0.483561  1
  Se  Se22  1  0.732890  0.482087  0.146341  1
  Se  Se23  1  0.480495  0.146060  0.732617  1
  Se  Se24  1  0.333263  0.684004  0.085447  1
  Se  Se25  1  0.685181  0.084776  0.331082  1
  Se  Se26  1  0.917789  0.670550  0.314987  1
  Se  Se27  1  0.315869  0.914448  0.668915  1
