# generated using pymatgen
data_YHo3Tc2(B8Rh)2
_symmetry_space_group_name_H-M   'P 1'
_cell_length_a   3.57861000
_cell_length_b   5.95940941
_cell_length_c   11.54812480
_cell_angle_alpha   90.24510069
_cell_angle_beta   90.00000000
_cell_angle_gamma   90.00000000
_symmetry_Int_Tables_number   1
_chemical_formula_structural   YHo3Tc2(B8Rh)2
_chemical_formula_sum   'Y1 Ho3 Tc2 B16 Rh2'
_cell_volume   246.27769957
_cell_formula_units_Z   1
loop_
 _symmetry_equiv_pos_site_id
 _symmetry_equiv_pos_as_xyz
  1  'x, y, z'
loop_
 _atom_site_type_symbol
 _atom_site_label
 _atom_site_symmetry_multiplicity
 _atom_site_fract_x
 _atom_site_fract_y
 _atom_site_fract_z
 _atom_site_occupancy
  Y  Y0  1  0.500000  0.371389  0.149171  1
  Ho  Ho1  1  0.500000  0.628528  0.850821  1
  Ho  Ho2  1  0.500000  0.128955  0.648781  1
  Ho  Ho3  1  0.500000  0.871065  0.351298  1
  Tc  Tc4  1  0.500000  0.365541  0.411627  1
  Tc  Tc5  1  0.500000  0.634458  0.589005  1
  B  B6  1  0.000000  0.112042  0.047302  1
  B  B7  1  0.000000  0.886978  0.952086  1
  B  B8  1  0.000000  0.387217  0.546742  1
  B  B9  1  0.000000  0.612925  0.453434  1
  B  B10  1  0.000000  0.135194  0.469403  1
  B  B11  1  0.000000  0.864716  0.530702  1
  B  B12  1  0.000000  0.363926  0.968729  1
  B  B13  1  0.000000  0.636566  0.030397  1
  B  B14  1  0.000000  0.022637  0.193253  1
  B  B15  1  0.000000  0.976558  0.806824  1
  B  B16  1  0.000000  0.476002  0.692380  1
  B  B17  1  0.000000  0.524473  0.308119  1
  B  B18  1  0.000000  0.210852  0.314787  1
  B  B19  1  0.000000  0.788804  0.685692  1
  B  B20  1  0.000000  0.290041  0.813718  1
  B  B21  1  0.000000  0.711049  0.186396  1
  Rh  Rh22  1  0.500000  0.140549  0.905119  1
  Rh  Rh23  1  0.500000  0.859536  0.094212  1
