# generated using pymatgen
data_Hf4Al4CuMo3
_symmetry_space_group_name_H-M   'P 1'
_cell_length_a   5.23713286
_cell_length_b   5.23713238
_cell_length_c   8.67754500
_cell_angle_alpha   90.00000000
_cell_angle_beta   90.00000000
_cell_angle_gamma   119.22997568
_symmetry_Int_Tables_number   1
_chemical_formula_structural   Hf4Al4CuMo3
_chemical_formula_sum   'Hf4 Al4 Cu1 Mo3'
_cell_volume   207.69805643
_cell_formula_units_Z   1
loop_
 _symmetry_equiv_pos_site_id
 _symmetry_equiv_pos_as_xyz
  1  'x, y, z'
loop_
 _atom_site_type_symbol
 _atom_site_label
 _atom_site_symmetry_multiplicity
 _atom_site_fract_x
 _atom_site_fract_y
 _atom_site_fract_z
 _atom_site_occupancy
  Hf  Hf0  1  0.333840  0.666160  0.186162  1
  Hf  Hf1  1  0.665213  0.334787  0.314891  1
  Hf  Hf2  1  0.665213  0.334787  0.685109  1
  Hf  Hf3  1  0.333840  0.666160  0.813838  1
  Al  Al4  1  0.994186  0.005814  0.242526  1
  Al  Al5  1  0.994186  0.005814  0.757474  1
  Al  Al6  1  0.834295  0.647066  0.000000  1
  Al  Al7  1  0.352934  0.165705  0.000000  1
  Cu  Cu8  1  0.833389  0.166611  0.000000  1
  Mo  Mo9  1  0.167411  0.342176  0.500000  1
  Mo  Mo10  1  0.657824  0.832589  0.500000  1
  Mo  Mo11  1  0.167760  0.832240  0.500000  1
