# generated using pymatgen
data_LaSmFe3Re14C3
_symmetry_space_group_name_H-M   'P 1'
_cell_length_a   6.95376670
_cell_length_b   6.95376630
_cell_length_c   6.95376716
_cell_angle_alpha   82.76139745
_cell_angle_beta   82.76138587
_cell_angle_gamma   82.76139342
_symmetry_Int_Tables_number   1
_chemical_formula_structural   LaSmFe3Re14C3
_chemical_formula_sum   'La1 Sm1 Fe3 Re14 C3'
_cell_volume   328.83170886
_cell_formula_units_Z   1
loop_
 _symmetry_equiv_pos_site_id
 _symmetry_equiv_pos_as_xyz
  1  'x, y, z'
loop_
 _atom_site_type_symbol
 _atom_site_label
 _atom_site_symmetry_multiplicity
 _atom_site_fract_x
 _atom_site_fract_y
 _atom_site_fract_z
 _atom_site_occupancy
  La  La0  1  0.647338  0.647338  0.647338  1
  Sm  Sm1  1  0.350905  0.350905  0.350905  1
  Fe  Fe2  1  0.998904  0.998904  0.501720  1
  Fe  Fe3  1  0.501720  0.998904  0.998904  1
  Fe  Fe4  1  0.998904  0.501720  0.998904  1
  Re  Re5  1  0.722142  0.277656  0.000543  1
  Re  Re6  1  0.000543  0.722142  0.277656  1
  Re  Re7  1  0.277656  0.000543  0.722142  1
  Re  Re8  1  0.000543  0.277656  0.722142  1
  Re  Re9  1  0.722142  0.000543  0.277656  1
  Re  Re10  1  0.277656  0.722142  0.000543  1
  Re  Re11  1  0.344393  0.344393  0.865054  1
  Re  Re12  1  0.865054  0.344393  0.344393  1
  Re  Re13  1  0.344393  0.865054  0.344393  1
  Re  Re14  1  0.654502  0.654502  0.137789  1
  Re  Re15  1  0.137789  0.654502  0.654502  1
  Re  Re16  1  0.654502  0.137789  0.654502  1
  Re  Re17  1  0.899101  0.899101  0.899101  1
  Re  Re18  1  0.101307  0.101307  0.101307  1
  C  C19  1  0.497250  0.497250  0.006007  1
  C  C20  1  0.006007  0.497250  0.497250  1
  C  C21  1  0.497250  0.006007  0.497250  1
