# generated using pymatgen
data_Y16In4Pd3Rh
_symmetry_space_group_name_H-M   'P 1'
_cell_length_a   9.75251432
_cell_length_b   9.75252948
_cell_length_c   9.76793505
_cell_angle_alpha   60.05123818
_cell_angle_beta   60.05172621
_cell_angle_gamma   59.99970078
_symmetry_Int_Tables_number   1
_chemical_formula_structural   Y16In4Pd3Rh
_chemical_formula_sum   'Y16 In4 Pd3 Rh1'
_cell_volume   657.44308127
_cell_formula_units_Z   1
loop_
 _symmetry_equiv_pos_site_id
 _symmetry_equiv_pos_as_xyz
  1  'x, y, z'
loop_
 _atom_site_type_symbol
 _atom_site_label
 _atom_site_symmetry_multiplicity
 _atom_site_fract_x
 _atom_site_fract_y
 _atom_site_fract_z
 _atom_site_occupancy
  Y  Y0  1  0.187927  0.187930  0.813267  1
  Y  Y1  1  0.603227  0.603230  0.190323  1
  Y  Y2  1  0.440414  0.060022  0.439547  1
  Y  Y3  1  0.439262  0.439263  0.056549  1
  Y  Y4  1  0.810878  0.187931  0.813264  1
  Y  Y5  1  0.187095  0.811849  0.189207  1
  Y  Y6  1  0.439269  0.064930  0.056542  1
  Y  Y7  1  0.187935  0.810879  0.813258  1
  Y  Y8  1  0.064938  0.439266  0.056532  1
  Y  Y9  1  0.811844  0.811855  0.189209  1
  Y  Y10  1  0.194455  0.599916  0.605712  1
  Y  Y11  1  0.060022  0.440402  0.439552  1
  Y  Y12  1  0.060016  0.060024  0.439545  1
  Y  Y13  1  0.811845  0.187093  0.189212  1
  Y  Y14  1  0.599923  0.194452  0.605700  1
  Y  Y15  1  0.599924  0.599924  0.605695  1
  In  In16  1  0.833479  0.833478  0.833713  1
  In  In17  1  0.833896  0.833894  0.498318  1
  In  In18  1  0.499329  0.833475  0.833718  1
  In  In19  1  0.833476  0.499332  0.833713  1
  Pd  Pd20  1  0.394916  0.817476  0.392691  1
  Pd  Pd21  1  0.394911  0.394919  0.392691  1
  Pd  Pd22  1  0.817481  0.394914  0.392691  1
  Rh  Rh23  1  0.393541  0.393551  0.819350  1
