# generated using pymatgen
data_Tm5RuRh
_symmetry_space_group_name_H-M   'P 1'
_cell_length_a   6.28212494
_cell_length_b   7.21906386
_cell_length_c   8.37409329
_cell_angle_alpha   96.60084552
_cell_angle_beta   112.03005607
_cell_angle_gamma   89.99999936
_symmetry_Int_Tables_number   1
_chemical_formula_structural   Tm5RuRh
_chemical_formula_sum   'Tm10 Ru2 Rh2'
_cell_volume   349.32839090
_cell_formula_units_Z   2
loop_
 _symmetry_equiv_pos_site_id
 _symmetry_equiv_pos_as_xyz
  1  'x, y, z'
loop_
 _atom_site_type_symbol
 _atom_site_label
 _atom_site_symmetry_multiplicity
 _atom_site_fract_x
 _atom_site_fract_y
 _atom_site_fract_z
 _atom_site_occupancy
  Tm  Tm0  1  0.792221  0.082122  0.812325  1
  Tm  Tm1  1  0.979895  0.417878  0.187675  1
  Tm  Tm2  1  0.209521  0.914588  0.185009  1
  Tm  Tm3  1  0.024511  0.585412  0.814991  1
  Tm  Tm4  1  0.206909  0.183522  0.564952  1
  Tm  Tm5  1  0.641957  0.316478  0.435048  1
  Tm  Tm6  1  0.793067  0.813654  0.437251  1
  Tm  Tm7  1  0.355815  0.686346  0.562749  1
  Tm  Tm8  1  0.417927  0.250000  0.000000  1
  Tm  Tm9  1  0.579058  0.750000  0.000000  1
  Ru  Ru10  1  0.396610  0.575411  0.220393  1
  Ru  Ru11  1  0.176218  0.924589  0.779607  1
  Rh  Rh12  1  0.602821  0.423168  0.779353  1
  Rh  Rh13  1  0.823467  0.076832  0.220647  1
