# generated using pymatgen
data_Er3Sc(Ni4P3)2
_symmetry_space_group_name_H-M   'P 1'
_cell_length_a   3.77153400
_cell_length_b   10.68712000
_cell_length_c   12.34831600
_cell_angle_alpha   90.00000000
_cell_angle_beta   90.00000000
_cell_angle_gamma   90.00000000
_symmetry_Int_Tables_number   1
_chemical_formula_structural   Er3Sc(Ni4P3)2
_chemical_formula_sum   'Er6 Sc2 Ni16 P12'
_cell_volume   497.72155335
_cell_formula_units_Z   2
loop_
 _symmetry_equiv_pos_site_id
 _symmetry_equiv_pos_as_xyz
  1  'x, y, z'
loop_
 _atom_site_type_symbol
 _atom_site_label
 _atom_site_symmetry_multiplicity
 _atom_site_fract_x
 _atom_site_fract_y
 _atom_site_fract_z
 _atom_site_occupancy
  Er  Er0  1  0.000000  0.500000  0.528897  1
  Er  Er1  1  0.500000  0.000000  0.471103  1
  Er  Er2  1  0.500000  0.821691  0.204029  1
  Er  Er3  1  0.500000  0.178309  0.204029  1
  Er  Er4  1  0.000000  0.678309  0.795971  1
  Er  Er5  1  0.000000  0.321691  0.795971  1
  Sc  Sc6  1  0.500000  0.500000  0.156777  1
  Sc  Sc7  1  0.000000  0.000000  0.843223  1
  Ni  Ni8  1  0.500000  0.500000  0.703283  1
  Ni  Ni9  1  0.000000  0.000000  0.296717  1
  Ni  Ni10  1  0.000000  0.500000  0.986055  1
  Ni  Ni11  1  0.500000  0.000000  0.013945  1
  Ni  Ni12  1  0.500000  0.332580  0.992500  1
  Ni  Ni13  1  0.500000  0.667420  0.992500  1
  Ni  Ni14  1  0.000000  0.167420  0.007500  1
  Ni  Ni15  1  0.000000  0.832580  0.007500  1
  Ni  Ni16  1  0.500000  0.298418  0.432113  1
  Ni  Ni17  1  0.500000  0.701582  0.432113  1
  Ni  Ni18  1  0.000000  0.201582  0.567887  1
  Ni  Ni19  1  0.000000  0.798418  0.567887  1
  Ni  Ni20  1  0.500000  0.877651  0.703958  1
  Ni  Ni21  1  0.500000  0.122349  0.703958  1
  Ni  Ni22  1  0.000000  0.622349  0.296042  1
  Ni  Ni23  1  0.000000  0.377651  0.296042  1
  P  P24  1  0.500000  0.500000  0.881509  1
  P  P25  1  0.000000  0.000000  0.118491  1
  P  P26  1  0.500000  0.500000  0.362790  1
  P  P27  1  0.000000  0.000000  0.637210  1
  P  P28  1  0.500000  0.314537  0.616438  1
  P  P29  1  0.500000  0.685463  0.616438  1
  P  P30  1  0.000000  0.185463  0.383562  1
  P  P31  1  0.000000  0.814537  0.383562  1
  P  P32  1  0.500000  0.838828  0.891376  1
  P  P33  1  0.500000  0.161172  0.891376  1
  P  P34  1  0.000000  0.661172  0.108624  1
  P  P35  1  0.000000  0.338828  0.108624  1
