# generated using pymatgen
data_Cs2NiPd11O24
_symmetry_space_group_name_H-M   'P 1'
_cell_length_a   8.69954096
_cell_length_b   8.69954128
_cell_length_c   8.70591700
_cell_angle_alpha   107.24308542
_cell_angle_beta   107.09631454
_cell_angle_gamma   114.15220865
_symmetry_Int_Tables_number   1
_chemical_formula_structural   Cs2NiPd11O24
_chemical_formula_sum   'Cs2 Ni1 Pd11 O24'
_cell_volume   504.80072807
_cell_formula_units_Z   1
loop_
 _symmetry_equiv_pos_site_id
 _symmetry_equiv_pos_as_xyz
  1  'x, y, z'
loop_
 _atom_site_type_symbol
 _atom_site_label
 _atom_site_symmetry_multiplicity
 _atom_site_fract_x
 _atom_site_fract_y
 _atom_site_fract_z
 _atom_site_occupancy
  Cs  Cs0  1  0.798317  0.797189  0.999339  1
  Cs  Cs1  1  0.202151  0.201022  0.999339  1
  Ni  Ni2  1  0.166513  0.352403  0.518915  1
  Pd  Pd3  1  0.314489  0.831445  0.815765  1
  Pd  Pd4  1  0.649549  0.164751  0.814299  1
  Pd  Pd5  1  0.984319  0.501275  0.815765  1
  Pd  Pd6  1  0.020466  0.500580  0.185169  1
  Pd  Pd7  1  0.350493  0.833741  0.184236  1
  Pd  Pd8  1  0.684591  0.164704  0.185169  1
  Pd  Pd9  1  0.835105  0.648643  0.483750  1
  Pd  Pd10  1  0.168045  0.984926  0.484316  1
  Pd  Pd11  1  0.499388  0.316270  0.484316  1
  Pd  Pd12  1  0.496041  0.681054  0.513586  1
  Pd  Pd13  1  0.832531  0.017545  0.513586  1
  O  O14  1  0.789799  0.511124  0.631877  1
  O  O15  1  0.120753  0.842078  0.631877  1
  O  O16  1  0.454650  0.178235  0.632885  1
  O  O17  1  0.879570  0.167977  0.378171  1
  O  O18  1  0.210196  0.498601  0.378171  1
  O  O19  1  0.543812  0.826699  0.370511  1
  O  O20  1  0.492059  0.120124  0.279371  1
  O  O21  1  0.827290  0.452863  0.280152  1
  O  O22  1  0.159246  0.787311  0.279371  1
  O  O23  1  0.166717  0.546661  0.713379  1
  O  O24  1  0.507163  0.875749  0.719945  1
  O  O25  1  0.844197  0.212783  0.719945  1
  O  O26  1  0.510230  0.869294  0.049490  1
  O  O27  1  0.846872  0.201999  0.048869  1
  O  O28  1  0.180197  0.539262  0.049490  1
  O  O29  1  0.153325  0.798062  0.951387  1
  O  O30  1  0.490942  0.130369  0.948468  1
  O  O31  1  0.818098  0.457525  0.948468  1
  O  O32  1  0.123648  0.171571  0.636842  1
  O  O33  1  0.465272  0.513194  0.636842  1
  O  O34  1  0.795858  0.845529  0.641388  1
  O  O35  1  0.538880  0.487352  0.358565  1
  O  O36  1  0.871213  0.819684  0.358565  1
  O  O37  1  0.208014  0.150408  0.358422  1
