# generated using pymatgen
data_Tb8Lu11Si16Mo
_symmetry_space_group_name_H-M   'P 1'
_cell_length_a   7.53053733
_cell_length_b   7.53053580
_cell_length_c   13.77890961
_cell_angle_alpha   89.68859862
_cell_angle_beta   90.31140197
_cell_angle_gamma   90.09493775
_symmetry_Int_Tables_number   1
_chemical_formula_structural   Tb8Lu11Si16Mo
_chemical_formula_sum   'Tb8 Lu11 Si16 Mo1'
_cell_volume   781.36380749
_cell_formula_units_Z   1
loop_
 _symmetry_equiv_pos_site_id
 _symmetry_equiv_pos_as_xyz
  1  'x, y, z'
loop_
 _atom_site_type_symbol
 _atom_site_label
 _atom_site_symmetry_multiplicity
 _atom_site_fract_x
 _atom_site_fract_y
 _atom_site_fract_z
 _atom_site_occupancy
  Tb  Tb0  1  0.999953  0.349672  0.206857  1
  Tb  Tb1  1  0.003948  0.646990  0.714032  1
  Tb  Tb2  1  0.145843  0.494458  0.460613  1
  Tb  Tb3  1  0.502930  0.859227  0.037574  1
  Tb  Tb4  1  0.859227  0.502930  0.962426  1
  Tb  Tb5  1  0.494458  0.145843  0.539387  1
  Tb  Tb6  1  0.349672  0.999953  0.793143  1
  Tb  Tb7  1  0.646990  0.003948  0.285968  1
  Lu  Lu8  1  0.820622  0.820622  0.500000  1
  Lu  Lu9  1  0.323099  0.679305  0.246616  1
  Lu  Lu10  1  0.679305  0.323099  0.753384  1
  Lu  Lu11  1  0.141567  0.005557  0.373395  1
  Lu  Lu12  1  0.860719  0.997927  0.880342  1
  Lu  Lu13  1  0.493703  0.644575  0.626570  1
  Lu  Lu14  1  0.351402  0.502695  0.876634  1
  Lu  Lu15  1  0.502695  0.351402  0.123366  1
  Lu  Lu16  1  0.644575  0.493703  0.373430  1
  Lu  Lu17  1  0.005557  0.141567  0.626605  1
  Lu  Lu18  1  0.997927  0.860719  0.119658  1
  Si  Si19  1  0.352377  0.294587  0.313611  1
  Si  Si20  1  0.646925  0.709364  0.816991  1
  Si  Si21  1  0.201714  0.851519  0.565581  1
  Si  Si22  1  0.151086  0.801612  0.936011  1
  Si  Si23  1  0.801612  0.151086  0.063989  1
  Si  Si24  1  0.851519  0.201714  0.434419  1
  Si  Si25  1  0.294587  0.352377  0.686389  1
  Si  Si26  1  0.709364  0.646925  0.183009  1
  Si  Si27  1  0.290081  0.059876  0.178258  1
  Si  Si28  1  0.702778  0.942335  0.690418  1
  Si  Si29  1  0.442987  0.793223  0.435696  1
  Si  Si30  1  0.205826  0.546451  0.061680  1
  Si  Si31  1  0.546451  0.205826  0.938320  1
  Si  Si32  1  0.793223  0.442987  0.564304  1
  Si  Si33  1  0.059876  0.290081  0.821742  1
  Si  Si34  1  0.942335  0.702778  0.309582  1
  Mo  Mo35  1  0.183068  0.183068  0.000000  1
