# generated using pymatgen
data_La2ScSbO7
_symmetry_space_group_name_H-M   'P 1'
_cell_length_a   7.60120485
_cell_length_b   7.60120348
_cell_length_c   7.60120491
_cell_angle_alpha   120.21020423
_cell_angle_beta   119.59539831
_cell_angle_gamma   90.16926314
_symmetry_Int_Tables_number   1
_chemical_formula_structural   La2ScSbO7
_chemical_formula_sum   'La4 Sc2 Sb2 O14'
_cell_volume   310.99411743
_cell_formula_units_Z   2
loop_
 _symmetry_equiv_pos_site_id
 _symmetry_equiv_pos_as_xyz
  1  'x, y, z'
loop_
 _atom_site_type_symbol
 _atom_site_label
 _atom_site_symmetry_multiplicity
 _atom_site_fract_x
 _atom_site_fract_y
 _atom_site_fract_z
 _atom_site_occupancy
  La  La0  1  0.500000  0.500000  0.500000  1
  La  La1  1  0.500000  0.000000  0.000000  1
  La  La2  1  0.500000  0.500000  0.000000  1
  La  La3  1  0.000000  0.500000  0.500000  1
  Sc  Sc4  1  0.000000  0.000000  0.500000  1
  Sc  Sc5  1  0.000000  0.500000  0.000000  1
  Sb  Sb6  1  0.000000  0.000000  0.000000  1
  Sb  Sb7  1  0.500000  0.000000  0.500000  1
  O  O8  1  0.377373  0.627373  0.750000  1
  O  O9  1  0.622627  0.372627  0.250000  1
  O  O10  1  0.319455  0.069455  0.250000  1
  O  O11  1  0.909297  0.659297  0.250000  1
  O  O12  1  0.339606  0.681367  0.269284  1
  O  O13  1  0.912082  0.070322  0.230716  1
  O  O14  1  0.339606  0.070322  0.658239  1
  O  O15  1  0.912082  0.681367  0.841761  1
  O  O16  1  0.680545  0.930545  0.750000  1
  O  O17  1  0.090703  0.340703  0.750000  1
  O  O18  1  0.660394  0.318633  0.730716  1
  O  O19  1  0.087918  0.929678  0.769284  1
  O  O20  1  0.660394  0.929678  0.341761  1
  O  O21  1  0.087918  0.318633  0.158239  1
