# generated using pymatgen
data_Cs4EuCl6
_symmetry_space_group_name_H-M   'P 1'
_cell_length_a   9.62548939
_cell_length_b   9.62604008
_cell_length_c   9.62701187
_cell_angle_alpha   90.79689473
_cell_angle_beta   90.79262987
_cell_angle_gamma   89.20100242
_symmetry_Int_Tables_number   1
_chemical_formula_structural   Cs4EuCl6
_chemical_formula_sum   'Cs8 Eu2 Cl12'
_cell_volume   891.73813409
_cell_formula_units_Z   2
loop_
 _symmetry_equiv_pos_site_id
 _symmetry_equiv_pos_as_xyz
  1  'x, y, z'
loop_
 _atom_site_type_symbol
 _atom_site_label
 _atom_site_symmetry_multiplicity
 _atom_site_fract_x
 _atom_site_fract_y
 _atom_site_fract_z
 _atom_site_occupancy
  Cs  Cs0  1  0.120525  0.250000  0.120605  1
  Cs  Cs1  1  0.620550  0.379452  0.249994  1
  Cs  Cs2  1  0.250073  0.749929  0.250000  1
  Cs  Cs3  1  0.749999  0.879469  0.379396  1
  Cs  Cs4  1  0.250000  0.120530  0.620605  1
  Cs  Cs5  1  0.749927  0.250071  0.750000  1
  Cs  Cs6  1  0.379450  0.620548  0.750006  1
  Cs  Cs7  1  0.879475  0.750000  0.879395  1
  Eu  Eu8  1  0.500000  0.000000  0.000000  1
  Eu  Eu9  1  0.000000  0.500000  0.500001  1
  Cl  Cl10  1  0.785896  0.072936  0.060066  1
  Cl  Cl11  1  0.560181  0.714119  0.072835  1
  Cl  Cl12  1  0.939859  0.572889  0.214175  1
  Cl  Cl13  1  0.427125  0.060150  0.285834  1
  Cl  Cl14  1  0.285882  0.439827  0.427161  1
  Cl  Cl15  1  0.927066  0.214108  0.439925  1
  Cl  Cl16  1  0.072934  0.785892  0.560076  1
  Cl  Cl17  1  0.714118  0.560173  0.572840  1
  Cl  Cl18  1  0.572875  0.939851  0.714165  1
  Cl  Cl19  1  0.060141  0.427111  0.785825  1
  Cl  Cl20  1  0.439819  0.285881  0.927164  1
  Cl  Cl21  1  0.214104  0.927065  0.939933  1
