# generated using pymatgen
data_La5Nd11Cd4(CoPt)2
_symmetry_space_group_name_H-M   'P 1'
_cell_length_a   9.95051814
_cell_length_b   9.99234320
_cell_length_c   9.99804846
_cell_angle_alpha   59.79438432
_cell_angle_beta   60.01995634
_cell_angle_gamma   60.39520152
_symmetry_Int_Tables_number   1
_chemical_formula_structural   La5Nd11Cd4(CoPt)2
_chemical_formula_sum   'La5 Nd11 Cd4 Co2 Pt2'
_cell_volume   704.00513760
_cell_formula_units_Z   1
loop_
 _symmetry_equiv_pos_site_id
 _symmetry_equiv_pos_as_xyz
  1  'x, y, z'
loop_
 _atom_site_type_symbol
 _atom_site_label
 _atom_site_symmetry_multiplicity
 _atom_site_fract_x
 _atom_site_fract_y
 _atom_site_fract_z
 _atom_site_occupancy
  La  La0  1  0.340541  0.341792  0.361997  1
  La  La1  1  0.344311  0.344058  0.953468  1
  La  La2  1  0.339438  0.958450  0.351186  1
  La  La3  1  0.958170  0.340929  0.353342  1
  La  La4  1  0.826275  0.188901  0.184470  1
  Nd  Nd5  1  0.187479  0.821370  0.801767  1
  Nd  Nd6  1  0.192675  0.817642  0.186396  1
  Nd  Nd7  1  0.819862  0.188261  0.800466  1
  Nd  Nd8  1  0.189390  0.187249  0.810645  1
  Nd  Nd9  1  0.808507  0.807597  0.187806  1
  Nd  Nd10  1  0.935859  0.564909  0.566348  1
  Nd  Nd11  1  0.561925  0.935443  0.936930  1
  Nd  Nd12  1  0.563644  0.936542  0.565651  1
  Nd  Nd13  1  0.937359  0.561645  0.937055  1
  Nd  Nd14  1  0.560376  0.561285  0.940430  1
  Nd  Nd15  1  0.934740  0.933254  0.565791  1
  Cd  Cd16  1  0.580228  0.580299  0.579646  1
  Cd  Cd17  1  0.579590  0.582009  0.258788  1
  Cd  Cd18  1  0.581319  0.256325  0.582144  1
  Cd  Cd19  1  0.256477  0.582023  0.580496  1
  Co  Co20  1  0.136588  0.146463  0.141979  1
  Co  Co21  1  0.144242  0.143524  0.571691  1
  Pt  Pt22  1  0.145344  0.574915  0.139883  1
  Pt  Pt23  1  0.575662  0.145120  0.141628  1
