# generated using pymatgen
data_Yb4Al5Os3
_symmetry_space_group_name_H-M   'P 1'
_cell_length_a   5.51985551
_cell_length_b   5.56228998
_cell_length_c   8.61268800
_cell_angle_alpha   90.00000000
_cell_angle_beta   90.00000000
_cell_angle_gamma   120.25462978
_symmetry_Int_Tables_number   1
_chemical_formula_structural   Yb4Al5Os3
_chemical_formula_sum   'Yb4 Al5 Os3'
_cell_volume   228.41816277
_cell_formula_units_Z   1
loop_
 _symmetry_equiv_pos_site_id
 _symmetry_equiv_pos_as_xyz
  1  'x, y, z'
loop_
 _atom_site_type_symbol
 _atom_site_label
 _atom_site_symmetry_multiplicity
 _atom_site_fract_x
 _atom_site_fract_y
 _atom_site_fract_z
 _atom_site_occupancy
  Yb  Yb0  1  0.334800  0.667401  0.443417  1
  Yb  Yb1  1  0.666416  0.333207  0.555727  1
  Yb  Yb2  1  0.666416  0.333207  0.944273  1
  Yb  Yb3  1  0.334800  0.667401  0.056583  1
  Al  Al4  1  0.842158  0.160171  0.250000  1
  Al  Al5  1  0.842158  0.681987  0.250000  1
  Al  Al6  1  0.320584  0.160292  0.250000  1
  Al  Al7  1  0.184651  0.846060  0.750000  1
  Al  Al8  1  0.184651  0.338591  0.750000  1
  Os  Os9  1  0.977498  0.988749  0.510283  1
  Os  Os10  1  0.977498  0.988749  0.989717  1
  Os  Os11  1  0.668370  0.834185  0.750000  1
