# generated using pymatgen
data_Rb3Na2TaP3
_symmetry_space_group_name_H-M   'P 1'
_cell_length_a   10.44126010
_cell_length_b   10.44126131
_cell_length_c   15.73624000
_cell_angle_alpha   90.00000000
_cell_angle_beta   90.00000000
_cell_angle_gamma   141.93911177
_symmetry_Int_Tables_number   1
_chemical_formula_structural   Rb3Na2TaP3
_chemical_formula_sum   'Rb12 Na8 Ta4 P12'
_cell_volume   1057.64253214
_cell_formula_units_Z   4
loop_
 _symmetry_equiv_pos_site_id
 _symmetry_equiv_pos_as_xyz
  1  'x, y, z'
loop_
 _atom_site_type_symbol
 _atom_site_label
 _atom_site_symmetry_multiplicity
 _atom_site_fract_x
 _atom_site_fract_y
 _atom_site_fract_z
 _atom_site_occupancy
  Rb  Rb0  1  0.942051  0.610446  0.826049  1
  Rb  Rb1  1  0.557949  0.889554  0.326049  1
  Rb  Rb2  1  0.389554  0.057949  0.173951  1
  Rb  Rb3  1  0.057949  0.389554  0.173951  1
  Rb  Rb4  1  0.889554  0.557949  0.326049  1
  Rb  Rb5  1  0.442051  0.110446  0.673951  1
  Rb  Rb6  1  0.610446  0.942051  0.826049  1
  Rb  Rb7  1  0.277907  0.277907  0.313416  1
  Rb  Rb8  1  0.777907  0.777907  0.186584  1
  Rb  Rb9  1  0.222093  0.222093  0.813416  1
  Rb  Rb10  1  0.722093  0.722093  0.686584  1
  Rb  Rb11  1  0.110446  0.442051  0.673951  1
  Na  Na12  1  0.921328  0.078672  0.000000  1
  Na  Na13  1  0.578672  0.421328  0.500000  1
  Na  Na14  1  0.078672  0.921328  0.000000  1
  Na  Na15  1  0.421328  0.578672  0.500000  1
  Na  Na16  1  0.755611  0.244389  0.000000  1
  Na  Na17  1  0.744389  0.255611  0.500000  1
  Na  Na18  1  0.244389  0.755611  0.000000  1
  Na  Na19  1  0.255611  0.744389  0.500000  1
  Ta  Ta20  1  0.581439  0.418561  0.000000  1
  Ta  Ta21  1  0.918561  0.081439  0.500000  1
  Ta  Ta22  1  0.418561  0.581439  0.000000  1
  Ta  Ta23  1  0.081439  0.918561  0.500000  1
  P  P24  1  0.856992  0.552255  0.092166  1
  P  P25  1  0.447745  0.143008  0.907834  1
  P  P26  1  0.643008  0.947745  0.592166  1
  P  P27  1  0.947745  0.643008  0.592166  1
  P  P28  1  0.143008  0.447745  0.907834  1
  P  P29  1  0.552255  0.856992  0.092166  1
  P  P30  1  0.356992  0.052255  0.407834  1
  P  P31  1  0.196791  0.196791  0.585627  1
  P  P32  1  0.696791  0.696791  0.914373  1
  P  P33  1  0.303209  0.303209  0.085627  1
  P  P34  1  0.052255  0.356992  0.407834  1
  P  P35  1  0.803209  0.803209  0.414373  1
