# generated using pymatgen
data_BaPrAgS3
_symmetry_space_group_name_H-M   'P 1'
_cell_length_a   10.78923900
_cell_length_b   4.23196600
_cell_length_c   13.91759100
_cell_angle_alpha   90.00000000
_cell_angle_beta   90.00000000
_cell_angle_gamma   90.00000000
_symmetry_Int_Tables_number   1
_chemical_formula_structural   BaPrAgS3
_chemical_formula_sum   'Ba4 Pr4 Ag4 S12'
_cell_volume   635.47292699
_cell_formula_units_Z   4
loop_
 _symmetry_equiv_pos_site_id
 _symmetry_equiv_pos_as_xyz
  1  'x, y, z'
loop_
 _atom_site_type_symbol
 _atom_site_label
 _atom_site_symmetry_multiplicity
 _atom_site_fract_x
 _atom_site_fract_y
 _atom_site_fract_z
 _atom_site_occupancy
  Ba  Ba0  1  0.728101  0.750000  0.000625  1
  Ba  Ba1  1  0.228101  0.750000  0.499375  1
  Ba  Ba2  1  0.771899  0.250001  0.500624  1
  Ba  Ba3  1  0.271899  0.250001  0.999375  1
  Pr  Pr4  1  0.016085  0.250001  0.242635  1
  Pr  Pr5  1  0.516085  0.250001  0.257366  1
  Pr  Pr6  1  0.483915  0.750000  0.742634  1
  Pr  Pr7  1  0.983915  0.750000  0.757366  1
  Ag  Ag8  1  0.266155  0.750000  0.225420  1
  Ag  Ag9  1  0.766155  0.750000  0.274579  1
  Ag  Ag10  1  0.233845  0.250001  0.725420  1
  Ag  Ag11  1  0.733845  0.250001  0.774580  1
  S  S12  1  0.082459  0.750000  0.111494  1
  S  S13  1  0.458137  0.750000  0.119476  1
  S  S14  1  0.762575  0.250001  0.168065  1
  S  S15  1  0.262575  0.250001  0.331935  1
  S  S16  1  0.958137  0.750000  0.380523  1
  S  S17  1  0.582459  0.750000  0.388506  1
  S  S18  1  0.417541  0.250001  0.611494  1
  S  S19  1  0.041863  0.250001  0.619476  1
  S  S20  1  0.737425  0.750000  0.668066  1
  S  S21  1  0.237425  0.750000  0.831934  1
  S  S22  1  0.541863  0.250001  0.880524  1
  S  S23  1  0.917541  0.250001  0.888506  1
