# generated using pymatgen
data_Tm7Lu(ScBi)12
_symmetry_space_group_name_H-M   'P 1'
_cell_length_a   7.88445209
_cell_length_b   9.12355300
_cell_length_c   11.69117414
_cell_angle_alpha   90.00000000
_cell_angle_beta   90.01750217
_cell_angle_gamma   90.00000000
_symmetry_Int_Tables_number   1
_chemical_formula_structural   Tm7Lu(ScBi)12
_chemical_formula_sum   'Tm7 Lu1 Sc12 Bi12'
_cell_volume   840.99541266
_cell_formula_units_Z   1
loop_
 _symmetry_equiv_pos_site_id
 _symmetry_equiv_pos_as_xyz
  1  'x, y, z'
loop_
 _atom_site_type_symbol
 _atom_site_label
 _atom_site_symmetry_multiplicity
 _atom_site_fract_x
 _atom_site_fract_y
 _atom_site_fract_z
 _atom_site_occupancy
  Tm  Tm0  1  0.648447  0.750000  0.718924  1
  Tm  Tm1  1  0.148584  0.750000  0.781158  1
  Tm  Tm2  1  0.851666  0.250000  0.218942  1
  Tm  Tm3  1  0.184392  0.250000  0.780640  1
  Tm  Tm4  1  0.815534  0.750000  0.219406  1
  Tm  Tm5  1  0.315521  0.750000  0.280627  1
  Tm  Tm6  1  0.684359  0.250000  0.719275  1
  Lu  Lu7  1  0.351423  0.250000  0.280610  1
  Sc  Sc8  1  0.019001  0.250000  0.509930  1
  Sc  Sc9  1  0.981024  0.750000  0.490018  1
  Sc  Sc10  1  0.480909  0.750000  0.010044  1
  Sc  Sc11  1  0.518913  0.250000  0.990342  1
  Sc  Sc12  1  0.192404  0.067091  0.058688  1
  Sc  Sc13  1  0.807786  0.933056  0.941697  1
  Sc  Sc14  1  0.307747  0.932976  0.558314  1
  Sc  Sc15  1  0.807786  0.566944  0.941697  1
  Sc  Sc16  1  0.692201  0.067008  0.441578  1
  Sc  Sc17  1  0.192404  0.432909  0.058688  1
  Sc  Sc18  1  0.692201  0.432992  0.441578  1
  Sc  Sc19  1  0.307747  0.567024  0.558314  1
  Bi  Bi20  1  0.402557  0.250000  0.539267  1
  Bi  Bi21  1  0.597232  0.750000  0.459684  1
  Bi  Bi22  1  0.097254  0.750000  0.040312  1
  Bi  Bi23  1  0.902875  0.250000  0.959678  1
  Bi  Bi24  1  0.065626  0.004128  0.331352  1
  Bi  Bi25  1  0.934855  0.996153  0.668582  1
  Bi  Bi26  1  0.434828  0.996195  0.831376  1
  Bi  Bi27  1  0.934855  0.503847  0.668582  1
  Bi  Bi28  1  0.564707  0.004369  0.168985  1
  Bi  Bi29  1  0.065626  0.495872  0.331352  1
  Bi  Bi30  1  0.564707  0.495631  0.168985  1
  Bi  Bi31  1  0.434828  0.503805  0.831376  1
