# generated using pymatgen
data_CrTc2(NiP)3
_symmetry_space_group_name_H-M   'P 1'
_cell_length_a   5.76399100
_cell_length_b   5.79075625
_cell_length_c   3.67943800
_cell_angle_alpha   90.00000000
_cell_angle_beta   90.00000000
_cell_angle_gamma   119.84721503
_symmetry_Int_Tables_number   1
_chemical_formula_structural   CrTc2(NiP)3
_chemical_formula_sum   'Cr1 Tc2 Ni3 P3'
_cell_volume   106.52149835
_cell_formula_units_Z   1
loop_
 _symmetry_equiv_pos_site_id
 _symmetry_equiv_pos_as_xyz
  1  'x, y, z'
loop_
 _atom_site_type_symbol
 _atom_site_label
 _atom_site_symmetry_multiplicity
 _atom_site_fract_x
 _atom_site_fract_y
 _atom_site_fract_z
 _atom_site_occupancy
  Cr  Cr0  1  0.411221  0.000000  0.500000  1
  Tc  Tc1  1  0.001764  0.413256  0.500000  1
  Tc  Tc2  1  0.588508  0.586744  0.500000  1
  Ni  Ni3  1  0.002367  0.751227  0.000000  1
  Ni  Ni4  1  0.251139  0.248773  0.000000  1
  Ni  Ni5  1  0.741624  0.000000  0.000000  1
  P  P6  1  0.332983  0.665616  0.000000  1
  P  P7  1  0.667368  0.334384  0.000000  1
  P  P8  1  0.003026  0.000000  0.500000  1
