# generated using pymatgen
data_Mn3Sb2(BrO)4
_symmetry_space_group_name_H-M   'P 1'
_cell_length_a   6.61343652
_cell_length_b   7.39538315
_cell_length_c   14.98225406
_cell_angle_alpha   90.00934750
_cell_angle_beta   90.01060957
_cell_angle_gamma   63.38999398
_symmetry_Int_Tables_number   1
_chemical_formula_structural   Mn3Sb2(BrO)4
_chemical_formula_sum   'Mn6 Sb4 Br8 O8'
_cell_volume   655.14807180
_cell_formula_units_Z   2
loop_
 _symmetry_equiv_pos_site_id
 _symmetry_equiv_pos_as_xyz
  1  'x, y, z'
loop_
 _atom_site_type_symbol
 _atom_site_label
 _atom_site_symmetry_multiplicity
 _atom_site_fract_x
 _atom_site_fract_y
 _atom_site_fract_z
 _atom_site_occupancy
  Mn  Mn0  1  0.742924  0.014002  0.749859  1
  Mn  Mn1  1  0.756869  0.986331  0.249902  1
  Mn  Mn2  1  0.000391  0.999694  0.000091  1
  Mn  Mn3  1  0.499581  0.000157  0.500104  1
  Mn  Mn4  1  0.257200  0.985626  0.250101  1
  Mn  Mn5  1  0.242963  0.014009  0.750063  1
  Sb  Sb6  1  0.605651  0.789911  0.055599  1
  Sb  Sb7  1  0.394712  0.210137  0.944368  1
  Sb  Sb8  1  0.894410  0.210138  0.555606  1
  Sb  Sb9  1  0.105297  0.789870  0.444377  1
  Br  Br10  1  0.121514  0.757274  0.838487  1
  Br  Br11  1  0.878727  0.242708  0.161496  1
  Br  Br12  1  0.378463  0.242733  0.338504  1
  Br  Br13  1  0.621385  0.757269  0.661476  1
  Br  Br14  1  0.158328  0.682754  0.115768  1
  Br  Br15  1  0.842158  0.317212  0.884262  1
  Br  Br16  1  0.341725  0.317244  0.615780  1
  Br  Br17  1  0.657755  0.682833  0.384207  1
  O  O18  1  0.309470  0.999877  0.000005  1
  O  O19  1  0.809051  0.999896  0.499976  1
  O  O20  1  0.690934  0.000140  0.999980  1
  O  O21  1  0.190525  0.000144  0.500023  1
  O  O22  1  0.542156  0.915840  0.174689  1
  O  O23  1  0.457943  0.084188  0.825283  1
  O  O24  1  0.957845  0.084209  0.674684  1
  O  O25  1  0.042025  0.915805  0.325309  1
