# generated using pymatgen
data_PmPRhF
_symmetry_space_group_name_H-M   'P 1'
_cell_length_a   3.91276000
_cell_length_b   3.91276000
_cell_length_c   8.49289800
_cell_angle_alpha   90.00000000
_cell_angle_beta   90.00000000
_cell_angle_gamma   90.00000000
_symmetry_Int_Tables_number   1
_chemical_formula_structural   PmPRhF
_chemical_formula_sum   'Pm2 P2 Rh2 F2'
_cell_volume   130.02364253
_cell_formula_units_Z   2
loop_
 _symmetry_equiv_pos_site_id
 _symmetry_equiv_pos_as_xyz
  1  'x, y, z'
loop_
 _atom_site_type_symbol
 _atom_site_label
 _atom_site_symmetry_multiplicity
 _atom_site_fract_x
 _atom_site_fract_y
 _atom_site_fract_z
 _atom_site_occupancy
  Pm  Pm0  1  0.000000  0.000000  0.189310  1
  Pm  Pm1  1  0.500000  0.500000  0.810691  1
  P  P2  1  0.500000  0.500000  0.335324  1
  P  P3  1  0.000000  0.000000  0.664675  1
  Rh  Rh4  1  0.500000  0.000000  0.500000  1
  Rh  Rh5  1  0.000000  0.500000  0.500000  1
  F  F6  1  0.500000  0.000000  0.000000  1
  F  F7  1  0.000000  0.500000  0.000000  1
