# generated using pymatgen
data_Tb3Ho13MgIn3Ni4
_symmetry_space_group_name_H-M   'P 1'
_cell_length_a   9.57510542
_cell_length_b   9.56410700
_cell_length_c   9.56410700
_cell_angle_alpha   60.00000344
_cell_angle_beta   60.03799315
_cell_angle_gamma   60.03799299
_symmetry_Int_Tables_number   1
_chemical_formula_structural   Tb3Ho13MgIn3Ni4
_chemical_formula_sum   'Tb3 Ho13 Mg1 In3 Ni4'
_cell_volume   619.67873282
_cell_formula_units_Z   1
loop_
 _symmetry_equiv_pos_site_id
 _symmetry_equiv_pos_as_xyz
  1  'x, y, z'
loop_
 _atom_site_type_symbol
 _atom_site_label
 _atom_site_symmetry_multiplicity
 _atom_site_fract_x
 _atom_site_fract_y
 _atom_site_fract_z
 _atom_site_occupancy
  Tb  Tb0  1  0.347793  0.347236  0.347236  1
  Tb  Tb1  1  0.347793  0.347236  0.957733  1
  Tb  Tb2  1  0.347793  0.957733  0.347236  1
  Ho  Ho3  1  0.953567  0.348811  0.348811  1
  Ho  Ho4  1  0.810795  0.188926  0.188926  1
  Ho  Ho5  1  0.185894  0.813702  0.813702  1
  Ho  Ho6  1  0.185894  0.813702  0.186701  1
  Ho  Ho7  1  0.810795  0.188926  0.811352  1
  Ho  Ho8  1  0.185894  0.186701  0.813702  1
  Ho  Ho9  1  0.810795  0.811352  0.188926  1
  Ho  Ho10  1  0.936333  0.564276  0.564275  1
  Ho  Ho11  1  0.564781  0.935959  0.935958  1
  Ho  Ho12  1  0.564782  0.935959  0.563301  1
  Ho  Ho13  1  0.936333  0.564276  0.935116  1
  Ho  Ho14  1  0.564781  0.563302  0.935958  1
  Ho  Ho15  1  0.936333  0.935117  0.564275  1
  Mg  Mg16  1  0.267366  0.577545  0.577545  1
  In  In17  1  0.583506  0.582452  0.582452  1
  In  In18  1  0.583506  0.582452  0.251591  1
  In  In19  1  0.583506  0.251591  0.582452  1
  Ni  Ni20  1  0.138846  0.143481  0.143481  1
  Ni  Ni21  1  0.138846  0.143481  0.574191  1
  Ni  Ni22  1  0.138846  0.574191  0.143481  1
  Ni  Ni23  1  0.575214  0.141595  0.141595  1
