# generated using pymatgen
data_Tb3Ho(CuP)6
_symmetry_space_group_name_H-M   'P 1'
_cell_length_a   3.86235700
_cell_length_b   10.70566300
_cell_length_c   12.98568500
_cell_angle_alpha   90.00000000
_cell_angle_beta   90.00000000
_cell_angle_gamma   90.00000000
_symmetry_Int_Tables_number   1
_chemical_formula_structural   Tb3Ho(CuP)6
_chemical_formula_sum   'Tb6 Ho2 Cu12 P12'
_cell_volume   536.94628930
_cell_formula_units_Z   2
loop_
 _symmetry_equiv_pos_site_id
 _symmetry_equiv_pos_as_xyz
  1  'x, y, z'
loop_
 _atom_site_type_symbol
 _atom_site_label
 _atom_site_symmetry_multiplicity
 _atom_site_fract_x
 _atom_site_fract_y
 _atom_site_fract_z
 _atom_site_occupancy
  Tb  Tb0  1  0.250000  0.931132  0.793130  1
  Tb  Tb1  1  0.750000  0.431132  0.706870  1
  Tb  Tb2  1  0.250000  0.568812  0.292174  1
  Tb  Tb3  1  0.750000  0.068812  0.207826  1
  Tb  Tb4  1  0.250000  0.841150  0.503058  1
  Tb  Tb5  1  0.750000  0.341150  0.996942  1
  Ho  Ho6  1  0.250000  0.658901  0.002792  1
  Ho  Ho7  1  0.750000  0.158901  0.497208  1
  Cu  Cu8  1  0.250000  0.403903  0.512492  1
  Cu  Cu9  1  0.750000  0.903903  0.987508  1
  Cu  Cu10  1  0.250000  0.095931  0.012605  1
  Cu  Cu11  1  0.750000  0.595931  0.487395  1
  Cu  Cu12  1  0.250000  0.272032  0.332522  1
  Cu  Cu13  1  0.750000  0.772032  0.167478  1
  Cu  Cu14  1  0.250000  0.228205  0.831587  1
  Cu  Cu15  1  0.750000  0.728205  0.668413  1
  Cu  Cu16  1  0.250000  0.859653  0.279923  1
  Cu  Cu17  1  0.750000  0.359653  0.220077  1
  Cu  Cu18  1  0.250000  0.640585  0.780725  1
  Cu  Cu19  1  0.750000  0.140585  0.719275  1
  P  P20  1  0.250000  0.241292  0.642506  1
  P  P21  1  0.750000  0.741292  0.857494  1
  P  P22  1  0.250000  0.258013  0.143810  1
  P  P23  1  0.750000  0.758013  0.356190  1
  P  P24  1  0.250000  0.604278  0.601498  1
  P  P25  1  0.750000  0.104278  0.898502  1
  P  P26  1  0.250000  0.895059  0.101091  1
  P  P27  1  0.750000  0.395059  0.398909  1
  P  P28  1  0.250000  0.057279  0.370054  1
  P  P29  1  0.750000  0.557279  0.129946  1
  P  P30  1  0.250000  0.443776  0.868747  1
  P  P31  1  0.750000  0.943776  0.631253  1
