# generated using pymatgen
data_Cr4Bi4Te(WO8)3
_symmetry_space_group_name_H-M   'P 1'
_cell_length_a   5.24603801
_cell_length_b   9.08733404
_cell_length_c   10.01477001
_cell_angle_alpha   89.99889223
_cell_angle_beta   90.00086496
_cell_angle_gamma   90.00120093
_symmetry_Int_Tables_number   1
_chemical_formula_structural   Cr4Bi4Te(WO8)3
_chemical_formula_sum   'Cr4 Bi4 Te1 W3 O24'
_cell_volume   477.42912067
_cell_formula_units_Z   1
loop_
 _symmetry_equiv_pos_site_id
 _symmetry_equiv_pos_as_xyz
  1  'x, y, z'
loop_
 _atom_site_type_symbol
 _atom_site_label
 _atom_site_symmetry_multiplicity
 _atom_site_fract_x
 _atom_site_fract_y
 _atom_site_fract_z
 _atom_site_occupancy
  Cr  Cr0  1  0.500041  0.833294  0.750001  1
  Cr  Cr1  1  0.499961  0.166843  0.250001  1
  Cr  Cr2  1  0.000044  0.333416  0.749998  1
  Cr  Cr3  1  0.999967  0.666433  0.250014  1
  Bi  Bi4  1  0.998481  0.000142  0.500161  1
  Bi  Bi5  1  0.501564  0.499815  0.500376  1
  Bi  Bi6  1  0.001514  0.000142  0.999838  1
  Bi  Bi7  1  0.498438  0.499816  0.999625  1
  Te  Te8  1  0.499974  0.833570  0.249996  1
  W  W9  1  0.500030  0.166595  0.749999  1
  W  W10  1  0.000031  0.666773  0.750000  1
  W  W11  1  0.999965  0.332988  0.249996  1
  O  O12  1  0.632553  0.004776  0.641869  1
  O  O13  1  0.132347  0.504677  0.641595  1
  O  O14  1  0.676995  0.313923  0.641621  1
  O  O15  1  0.176665  0.813837  0.641796  1
  O  O16  1  0.190956  0.181660  0.641659  1
  O  O17  1  0.690714  0.681254  0.641798  1
  O  O18  1  0.176767  0.186569  0.141474  1
  O  O19  1  0.677630  0.685765  0.141658  1
  O  O20  1  0.131598  0.495324  0.141511  1
  O  O21  1  0.632778  0.995788  0.141575  1
  O  O22  1  0.690639  0.318207  0.141693  1
  O  O23  1  0.190373  0.818351  0.141397  1
  O  O24  1  0.868335  0.495312  0.358491  1
  O  O25  1  0.367151  0.995774  0.358427  1
  O  O26  1  0.823145  0.186559  0.358526  1
  O  O27  1  0.322291  0.685752  0.358349  1
  O  O28  1  0.309280  0.318208  0.358309  1
  O  O29  1  0.809541  0.818353  0.358608  1
  O  O30  1  0.323089  0.313912  0.858374  1
  O  O31  1  0.823426  0.813826  0.858204  1
  O  O32  1  0.367516  0.004766  0.858125  1
  O  O33  1  0.867720  0.504667  0.858397  1
  O  O34  1  0.809120  0.181659  0.858339  1
  O  O35  1  0.309363  0.681253  0.858199  1
