# generated using pymatgen
data_Ho12InNi4Pd
_symmetry_space_group_name_H-M   'P 1'
_cell_length_a   8.30950043
_cell_length_b   8.30957371
_cell_length_c   8.30950005
_cell_angle_alpha   111.75340618
_cell_angle_beta   109.81098427
_cell_angle_gamma   106.88570230
_symmetry_Int_Tables_number   1
_chemical_formula_structural   Ho12InNi4Pd
_chemical_formula_sum   'Ho12 In1 Ni4 Pd1'
_cell_volume   440.87708009
_cell_formula_units_Z   1
loop_
 _symmetry_equiv_pos_site_id
 _symmetry_equiv_pos_as_xyz
  1  'x, y, z'
loop_
 _atom_site_type_symbol
 _atom_site_label
 _atom_site_symmetry_multiplicity
 _atom_site_fract_x
 _atom_site_fract_y
 _atom_site_fract_z
 _atom_site_occupancy
  Ho  Ho0  1  0.410552  0.216204  0.194327  1
  Ho  Ho1  1  0.589448  0.783796  0.805673  1
  Ho  Ho2  1  0.021878  0.216204  0.805653  1
  Ho  Ho3  1  0.978122  0.783796  0.194347  1
  Ho  Ho4  1  0.183293  0.296574  0.479871  1
  Ho  Ho5  1  0.816707  0.703426  0.520129  1
  Ho  Ho6  1  0.183298  0.703426  0.886721  1
  Ho  Ho7  1  0.816702  0.296574  0.113279  1
  Ho  Ho8  1  0.321954  0.627312  0.305357  1
  Ho  Ho9  1  0.678046  0.372688  0.694643  1
  Ho  Ho10  1  0.321916  0.016548  0.694632  1
  Ho  Ho11  1  0.678084  0.983452  0.305368  1
  In  In12  1  0.500000  0.500000  0.000000  1
  Ni  Ni13  1  0.364873  0.000000  0.364873  1
  Ni  Ni14  1  0.635127  0.000000  0.635127  1
  Ni  Ni15  1  0.124679  0.624684  0.500005  1
  Ni  Ni16  1  0.875321  0.375316  0.499995  1
  Pd  Pd17  1  0.000000  0.000000  0.000000  1
