# generated using pymatgen
data_K2(InSb)3
_symmetry_space_group_name_H-M   'P 1'
_cell_length_a   4.68410500
_cell_length_b   7.90292700
_cell_length_c   30.16080100
_cell_angle_alpha   90.00000000
_cell_angle_beta   90.00000000
_cell_angle_gamma   90.00000000
_symmetry_Int_Tables_number   1
_chemical_formula_structural   K2(InSb)3
_chemical_formula_sum   'K8 In12 Sb12'
_cell_volume   1116.49675017
_cell_formula_units_Z   4
loop_
 _symmetry_equiv_pos_site_id
 _symmetry_equiv_pos_as_xyz
  1  'x, y, z'
loop_
 _atom_site_type_symbol
 _atom_site_label
 _atom_site_symmetry_multiplicity
 _atom_site_fract_x
 _atom_site_fract_y
 _atom_site_fract_z
 _atom_site_occupancy
  K  K0  1  0.250000  0.223561  0.496134  1
  K  K1  1  0.750000  0.776439  0.503866  1
  K  K2  1  0.750000  0.723561  0.003866  1
  K  K3  1  0.250000  0.276439  0.996134  1
  K  K4  1  0.250000  0.247056  0.815310  1
  K  K5  1  0.750000  0.752944  0.184690  1
  K  K6  1  0.750000  0.747056  0.684690  1
  K  K7  1  0.250000  0.252944  0.315310  1
  In  In8  1  0.250000  0.551537  0.614711  1
  In  In9  1  0.750000  0.448463  0.385289  1
  In  In10  1  0.750000  0.051537  0.885289  1
  In  In11  1  0.250000  0.948463  0.114711  1
  In  In12  1  0.250000  0.081601  0.206636  1
  In  In13  1  0.750000  0.918399  0.793364  1
  In  In14  1  0.750000  0.581601  0.293364  1
  In  In15  1  0.250000  0.418399  0.706636  1
  In  In16  1  0.750000  0.391563  0.122881  1
  In  In17  1  0.250000  0.608437  0.877119  1
  In  In18  1  0.250000  0.891563  0.377119  1
  In  In19  1  0.750000  0.108437  0.622881  1
  Sb  Sb20  1  0.750000  0.197536  0.719444  1
  Sb  Sb21  1  0.250000  0.802464  0.280556  1
  Sb  Sb22  1  0.250000  0.697536  0.780556  1
  Sb  Sb23  1  0.750000  0.302464  0.219444  1
  Sb  Sb24  1  0.250000  0.915754  0.593869  1
  Sb  Sb25  1  0.750000  0.084246  0.406131  1
  Sb  Sb26  1  0.750000  0.415754  0.906131  1
  Sb  Sb27  1  0.250000  0.584246  0.093869  1
  Sb  Sb28  1  0.750000  0.413484  0.571962  1
  Sb  Sb29  1  0.250000  0.586516  0.428038  1
  Sb  Sb30  1  0.250000  0.913484  0.928038  1
  Sb  Sb31  1  0.750000  0.086516  0.071962  1
