# generated using pymatgen
data_Tb5CdIO12
_symmetry_space_group_name_H-M   'P 1'
_cell_length_a   6.57001845
_cell_length_b   6.46506519
_cell_length_c   6.57613200
_cell_angle_alpha   98.58849380
_cell_angle_beta   99.31392655
_cell_angle_gamma   97.34102020
_symmetry_Int_Tables_number   1
_chemical_formula_structural   Tb5CdIO12
_chemical_formula_sum   'Tb5 Cd1 I1 O12'
_cell_volume   269.22688344
_cell_formula_units_Z   1
loop_
 _symmetry_equiv_pos_site_id
 _symmetry_equiv_pos_as_xyz
  1  'x, y, z'
loop_
 _atom_site_type_symbol
 _atom_site_label
 _atom_site_symmetry_multiplicity
 _atom_site_fract_x
 _atom_site_fract_y
 _atom_site_fract_z
 _atom_site_occupancy
  Tb  Tb0  1  0.390658  0.688128  0.852438  1
  Tb  Tb1  1  0.857008  0.383280  0.677864  1
  Tb  Tb2  1  0.677438  0.849959  0.390135  1
  Tb  Tb3  1  0.607662  0.316568  0.138255  1
  Tb  Tb4  1  0.147541  0.609940  0.322411  1
  Cd  Cd5  1  0.333640  0.156597  0.594611  1
  I  I6  1  0.995207  0.995309  0.002969  1
  O  O7  1  0.181799  0.437026  0.599049  1
  O  O8  1  0.618043  0.179658  0.425513  1
  O  O9  1  0.429803  0.595193  0.176562  1
  O  O10  1  0.825104  0.562630  0.398972  1
  O  O11  1  0.401977  0.828156  0.563873  1
  O  O12  1  0.587113  0.430068  0.829307  1
  O  O13  1  0.911135  0.020971  0.717515  1
  O  O14  1  0.967121  0.289074  0.072480  1
  O  O15  1  0.283735  0.063967  0.989570  1
  O  O16  1  0.052431  0.958126  0.289631  1
  O  O17  1  0.029676  0.703682  0.928914  1
  O  O18  1  0.702912  0.931665  0.029931  1
