# generated using pymatgen
data_Hf8NbPt3O2
_symmetry_space_group_name_H-M   'P 1'
_cell_length_a   8.84441432
_cell_length_b   8.84441471
_cell_length_c   8.73723200
_cell_angle_alpha   60.40007979
_cell_angle_beta   60.40007836
_cell_angle_gamma   60.51157609
_symmetry_Int_Tables_number   1
_chemical_formula_structural   Hf8NbPt3O2
_chemical_formula_sum   'Hf16 Nb2 Pt6 O4'
_cell_volume   488.05436104
_cell_formula_units_Z   2
loop_
 _symmetry_equiv_pos_site_id
 _symmetry_equiv_pos_as_xyz
  1  'x, y, z'
loop_
 _atom_site_type_symbol
 _atom_site_label
 _atom_site_symmetry_multiplicity
 _atom_site_fract_x
 _atom_site_fract_y
 _atom_site_fract_z
 _atom_site_occupancy
  Hf  Hf0  1  0.113885  0.620428  0.632844  1
  Hf  Hf1  1  0.620428  0.113885  0.632844  1
  Hf  Hf2  1  0.634744  0.634744  0.094653  1
  Hf  Hf3  1  0.634744  0.634744  0.635859  1
  Hf  Hf4  1  0.799270  0.799270  0.200730  1
  Hf  Hf5  1  0.184549  0.184549  0.815451  1
  Hf  Hf6  1  0.811675  0.188308  0.806880  1
  Hf  Hf7  1  0.188308  0.811675  0.193137  1
  Hf  Hf8  1  0.188308  0.811675  0.806880  1
  Hf  Hf9  1  0.811675  0.188308  0.193137  1
  Hf  Hf10  1  0.434823  0.434823  0.065177  1
  Hf  Hf11  1  0.066267  0.066267  0.433733  1
  Hf  Hf12  1  0.432727  0.061427  0.431997  1
  Hf  Hf13  1  0.061427  0.432727  0.073850  1
  Hf  Hf14  1  0.061427  0.432727  0.431997  1
  Hf  Hf15  1  0.432727  0.061427  0.073850  1
  Nb  Nb16  1  0.753530  0.417552  0.414459  1
  Nb  Nb17  1  0.417552  0.753530  0.414459  1
  Pt  Pt18  1  0.416555  0.416555  0.764240  1
  Pt  Pt19  1  0.416555  0.416555  0.402650  1
  Pt  Pt20  1  0.448549  0.856840  0.847305  1
  Pt  Pt21  1  0.856840  0.448549  0.847305  1
  Pt  Pt22  1  0.851358  0.851358  0.458316  1
  Pt  Pt23  1  0.851358  0.851358  0.838968  1
  O  O24  1  0.616728  0.138425  0.122424  1
  O  O25  1  0.138425  0.616728  0.122424  1
  O  O26  1  0.127784  0.127784  0.625086  1
  O  O27  1  0.127784  0.127784  0.119346  1
