# generated using pymatgen
data_Rb5(AuO2)2
_symmetry_space_group_name_H-M   'P 1'
_cell_length_a   7.72758067
_cell_length_b   9.38776806
_cell_length_c   9.85513397
_cell_angle_alpha   60.78449660
_cell_angle_beta   86.97918932
_cell_angle_gamma   70.34097747
_symmetry_Int_Tables_number   1
_chemical_formula_structural   Rb5(AuO2)2
_chemical_formula_sum   'Rb10 Au4 O8'
_cell_volume   582.18639086
_cell_formula_units_Z   2
loop_
 _symmetry_equiv_pos_site_id
 _symmetry_equiv_pos_as_xyz
  1  'x, y, z'
loop_
 _atom_site_type_symbol
 _atom_site_label
 _atom_site_symmetry_multiplicity
 _atom_site_fract_x
 _atom_site_fract_y
 _atom_site_fract_z
 _atom_site_occupancy
  Rb  Rb0  1  0.867250  0.862951  0.765615  1
  Rb  Rb1  1  0.132750  0.137049  0.234385  1
  Rb  Rb2  1  0.899347  0.431680  0.779481  1
  Rb  Rb3  1  0.100653  0.568320  0.220519  1
  Rb  Rb4  1  0.697489  0.087582  0.007485  1
  Rb  Rb5  1  0.302511  0.912418  0.992515  1
  Rb  Rb6  1  0.374898  0.358825  0.622442  1
  Rb  Rb7  1  0.625102  0.641175  0.377558  1
  Rb  Rb8  1  0.610221  0.177740  0.362496  1
  Rb  Rb9  1  0.389779  0.822260  0.637504  1
  Au  Au10  1  0.723098  0.541184  0.067772  1
  Au  Au11  1  0.276902  0.458816  0.932228  1
  Au  Au12  1  0.988745  0.780040  0.436171  1
  Au  Au13  1  0.011255  0.219960  0.563829  1
  O  O14  1  0.690091  0.766668  0.055994  1
  O  O15  1  0.309909  0.233332  0.944006  1
  O  O16  1  0.253195  0.199655  0.475022  1
  O  O17  1  0.746805  0.800345  0.524978  1
  O  O18  1  0.230325  0.684876  0.920048  1
  O  O19  1  0.769675  0.315124  0.079952  1
  O  O20  1  0.768163  0.244291  0.650018  1
  O  O21  1  0.231837  0.755709  0.349982  1
