# generated using pymatgen
data_Rb8Na4Tb3HoSb8
_symmetry_space_group_name_H-M   'P 1'
_cell_length_a   11.37044147
_cell_length_b   11.37044127
_cell_length_c   7.50579510
_cell_angle_alpha   90.01387163
_cell_angle_beta   89.98612701
_cell_angle_gamma   98.41624760
_symmetry_Int_Tables_number   1
_chemical_formula_structural   Rb8Na4Tb3HoSb8
_chemical_formula_sum   'Rb8 Na4 Tb3 Ho1 Sb8'
_cell_volume   959.95082923
_cell_formula_units_Z   1
loop_
 _symmetry_equiv_pos_site_id
 _symmetry_equiv_pos_as_xyz
  1  'x, y, z'
loop_
 _atom_site_type_symbol
 _atom_site_label
 _atom_site_symmetry_multiplicity
 _atom_site_fract_x
 _atom_site_fract_y
 _atom_site_fract_z
 _atom_site_occupancy
  Rb  Rb0  1  0.070819  0.429175  0.250026  1
  Rb  Rb1  1  0.429175  0.070819  0.749974  1
  Rb  Rb2  1  0.929127  0.570817  0.749944  1
  Rb  Rb3  1  0.570817  0.929127  0.250056  1
  Rb  Rb4  1  0.676251  0.323800  0.216002  1
  Rb  Rb5  1  0.823754  0.176265  0.715931  1
  Rb  Rb6  1  0.323800  0.676251  0.783998  1
  Rb  Rb7  1  0.176265  0.823754  0.284069  1
  Na  Na8  1  0.382476  0.382476  0.000000  1
  Na  Na9  1  0.117536  0.117536  0.500000  1
  Na  Na10  1  0.617540  0.617540  0.000000  1
  Na  Na11  1  0.882406  0.882406  0.500000  1
  Tb  Tb12  1  0.131037  0.131037  0.000000  1
  Tb  Tb13  1  0.369162  0.369162  0.500000  1
  Tb  Tb14  1  0.868971  0.868971  0.000000  1
  Ho  Ho15  1  0.630812  0.630812  0.500000  1
  Sb  Sb16  1  0.846201  0.653226  0.250663  1
  Sb  Sb17  1  0.653226  0.846201  0.749337  1
  Sb  Sb18  1  0.153273  0.346715  0.750019  1
  Sb  Sb19  1  0.346715  0.153273  0.249981  1
  Sb  Sb20  1  0.899394  0.100580  0.212137  1
  Sb  Sb21  1  0.600709  0.399952  0.711680  1
  Sb  Sb22  1  0.100580  0.899394  0.787863  1
  Sb  Sb23  1  0.399952  0.600709  0.288320  1
