# generated using pymatgen
data_Nb2Au2C
_symmetry_space_group_name_H-M   'P 1'
_cell_length_a   3.17902900
_cell_length_b   3.17902936
_cell_length_c   9.16102900
_cell_angle_alpha   90.00000000
_cell_angle_beta   90.00000000
_cell_angle_gamma   120.00000666
_symmetry_Int_Tables_number   1
_chemical_formula_structural   Nb2Au2C
_chemical_formula_sum   'Nb2 Au2 C1'
_cell_volume   80.17960068
_cell_formula_units_Z   1
loop_
 _symmetry_equiv_pos_site_id
 _symmetry_equiv_pos_as_xyz
  1  'x, y, z'
loop_
 _atom_site_type_symbol
 _atom_site_label
 _atom_site_symmetry_multiplicity
 _atom_site_fract_x
 _atom_site_fract_y
 _atom_site_fract_z
 _atom_site_occupancy
  Nb  Nb0  1  0.333334  0.666668  0.130048  1
  Nb  Nb1  1  0.666665  0.333332  0.869952  1
  Au  Au2  1  0.666665  0.333332  0.373515  1
  Au  Au3  1  0.333334  0.666668  0.626485  1
  C  C4  1  0.000000  0.000000  0.000000  1
