# generated using pymatgen
data_Np4Ga11SiNi
_symmetry_space_group_name_H-M   'P 1'
_cell_length_a   7.41807900
_cell_length_b   7.41606091
_cell_length_c   7.41606070
_cell_angle_alpha   108.13166808
_cell_angle_beta   110.14110364
_cell_angle_gamma   110.14111221
_symmetry_Int_Tables_number   1
_chemical_formula_structural   Np4Ga11SiNi
_chemical_formula_sum   'Np4 Ga11 Si1 Ni1'
_cell_volume   313.96562803
_cell_formula_units_Z   1
loop_
 _symmetry_equiv_pos_site_id
 _symmetry_equiv_pos_as_xyz
  1  'x, y, z'
loop_
 _atom_site_type_symbol
 _atom_site_label
 _atom_site_symmetry_multiplicity
 _atom_site_fract_x
 _atom_site_fract_y
 _atom_site_fract_z
 _atom_site_occupancy
  Np  Np0  1  0.500000  0.505252  0.494748  1
  Np  Np1  1  0.989468  0.994721  0.494719  1
  Np  Np2  1  0.010532  0.505281  0.005279  1
  Np  Np3  1  0.500000  0.994750  0.005250  1
  Ga  Ga4  1  0.500000  0.250007  0.749993  1
  Ga  Ga5  1  0.250409  0.496886  0.747031  1
  Ga  Ga6  1  0.749600  0.496644  0.246494  1
  Ga  Ga7  1  0.749591  0.252969  0.503114  1
  Ga  Ga8  1  0.250400  0.753506  0.503356  1
  Ga  Ga9  1  0.000040  0.284725  0.284746  1
  Ga  Ga10  1  0.999960  0.715254  0.715275  1
  Ga  Ga11  1  0.286846  0.003926  0.290499  1
  Ga  Ga12  1  0.713173  0.003645  0.717048  1
  Ga  Ga13  1  0.286827  0.282952  0.996355  1
  Ga  Ga14  1  0.713154  0.709501  0.996074  1
  Si  Si15  1  0.500000  0.749981  0.250019  1
  Ni  Ni16  1  0.000000  0.000001  0.999999  1
