# generated using pymatgen
data_Ta7Tc3B8Ru3
_symmetry_space_group_name_H-M   'P 1'
_cell_length_a   9.56208700
_cell_length_b   9.56208790
_cell_length_c   3.17192900
_cell_angle_alpha   90.00000000
_cell_angle_beta   90.00000000
_cell_angle_gamma   120.00000036
_symmetry_Int_Tables_number   1
_chemical_formula_structural   Ta7Tc3B8Ru3
_chemical_formula_sum   'Ta7 Tc3 B8 Ru3'
_cell_volume   251.16522544
_cell_formula_units_Z   1
loop_
 _symmetry_equiv_pos_site_id
 _symmetry_equiv_pos_as_xyz
  1  'x, y, z'
loop_
 _atom_site_type_symbol
 _atom_site_label
 _atom_site_symmetry_multiplicity
 _atom_site_fract_x
 _atom_site_fract_y
 _atom_site_fract_z
 _atom_site_occupancy
  Ta  Ta0  1  0.000000  0.000000  0.000000  1
  Ta  Ta1  1  0.722299  0.636429  0.000000  1
  Ta  Ta2  1  0.363571  0.085870  0.000000  1
  Ta  Ta3  1  0.914130  0.277701  0.000000  1
  Ta  Ta4  1  0.279552  0.367986  0.000000  1
  Ta  Ta5  1  0.632014  0.911566  0.000000  1
  Ta  Ta6  1  0.088434  0.720448  0.000000  1
  Tc  Tc7  1  0.355727  0.847756  0.500000  1
  Tc  Tc8  1  0.152244  0.507971  0.500000  1
  Tc  Tc9  1  0.492029  0.644273  0.500000  1
  B  B10  1  0.666667  0.333333  0.000000  1
  B  B11  1  0.333333  0.666667  0.000000  1
  B  B12  1  0.154029  0.934639  0.500000  1
  B  B13  1  0.065361  0.219389  0.500000  1
  B  B14  1  0.780611  0.845971  0.500000  1
  B  B15  1  0.846105  0.064786  0.500000  1
  B  B16  1  0.935214  0.781319  0.500000  1
  B  B17  1  0.218681  0.153895  0.500000  1
  Ru  Ru18  1  0.645585  0.157702  0.500000  1
  Ru  Ru19  1  0.842298  0.487882  0.500000  1
  Ru  Ru20  1  0.512118  0.354415  0.500000  1
