# generated using pymatgen
data_Tb3Y13Cd4Ni3Os
_symmetry_space_group_name_H-M   'P 1'
_cell_length_a   9.61884856
_cell_length_b   9.62641073
_cell_length_c   9.62635807
_cell_angle_alpha   59.55479678
_cell_angle_beta   59.52142081
_cell_angle_gamma   59.51683840
_symmetry_Int_Tables_number   1
_chemical_formula_structural   Tb3Y13Cd4Ni3Os
_chemical_formula_sum   'Tb3 Y13 Cd4 Ni3 Os1'
_cell_volume   623.55998382
_cell_formula_units_Z   1
loop_
 _symmetry_equiv_pos_site_id
 _symmetry_equiv_pos_as_xyz
  1  'x, y, z'
loop_
 _atom_site_type_symbol
 _atom_site_label
 _atom_site_symmetry_multiplicity
 _atom_site_fract_x
 _atom_site_fract_y
 _atom_site_fract_z
 _atom_site_occupancy
  Tb  Tb0  1  0.597834  0.597867  0.597904  1
  Tb  Tb1  1  0.600705  0.600750  0.203482  1
  Tb  Tb2  1  0.600643  0.203561  0.600781  1
  Y  Y3  1  0.202225  0.601158  0.601246  1
  Y  Y4  1  0.060607  0.438422  0.438444  1
  Y  Y5  1  0.436973  0.061005  0.060967  1
  Y  Y6  1  0.438387  0.060402  0.438498  1
  Y  Y7  1  0.060770  0.437156  0.061089  1
  Y  Y8  1  0.438419  0.438479  0.060358  1
  Y  Y9  1  0.060723  0.061094  0.437189  1
  Y  Y10  1  0.186529  0.815262  0.815205  1
  Y  Y11  1  0.807567  0.188764  0.188797  1
  Y  Y12  1  0.815103  0.186507  0.815046  1
  Y  Y13  1  0.188867  0.807486  0.188588  1
  Y  Y14  1  0.815077  0.815074  0.186504  1
  Y  Y15  1  0.188897  0.188592  0.807444  1
  Cd  Cd16  1  0.830488  0.830057  0.830045  1
  Cd  Cd17  1  0.830313  0.830202  0.505952  1
  Cd  Cd18  1  0.830310  0.505963  0.830197  1
  Cd  Cd19  1  0.506116  0.830114  0.830108  1
  Ni  Ni20  1  0.393186  0.392198  0.823830  1
  Ni  Ni21  1  0.393163  0.823820  0.392207  1
  Ni  Ni22  1  0.823257  0.392737  0.392766  1
  Os  Os23  1  0.393840  0.393331  0.393353  1
