# generated using pymatgen
data_CeP2OsPd
_symmetry_space_group_name_H-M   'P 1'
_cell_length_a   4.24392600
_cell_length_b   4.24392600
_cell_length_c   9.50859100
_cell_angle_alpha   90.00000000
_cell_angle_beta   90.00000000
_cell_angle_gamma   90.00000000
_symmetry_Int_Tables_number   1
_chemical_formula_structural   CeP2OsPd
_chemical_formula_sum   'Ce2 P4 Os2 Pd2'
_cell_volume   171.25835670
_cell_formula_units_Z   2
loop_
 _symmetry_equiv_pos_site_id
 _symmetry_equiv_pos_as_xyz
  1  'x, y, z'
loop_
 _atom_site_type_symbol
 _atom_site_label
 _atom_site_symmetry_multiplicity
 _atom_site_fract_x
 _atom_site_fract_y
 _atom_site_fract_z
 _atom_site_occupancy
  Ce  Ce0  1  0.500000  0.000000  0.739788  1
  Ce  Ce1  1  0.000000  0.500000  0.260212  1
  P  P2  1  0.500000  0.500000  0.500000  1
  P  P3  1  0.500000  0.000000  0.144526  1
  P  P4  1  0.000000  0.000000  0.500000  1
  P  P5  1  0.000000  0.500000  0.855474  1
  Os  Os6  1  0.000000  0.500000  0.612358  1
  Os  Os7  1  0.500000  0.000000  0.387642  1
  Pd  Pd8  1  0.000000  0.000000  0.000000  1
  Pd  Pd9  1  0.500000  0.500000  0.000000  1
