# generated using pymatgen
data_Tb5Ho7Co4OsPb
_symmetry_space_group_name_H-M   'P 1'
_cell_length_a   8.28955257
_cell_length_b   8.29362150
_cell_length_c   8.28952123
_cell_angle_alpha   111.40156547
_cell_angle_beta   110.62672984
_cell_angle_gamma   106.40938844
_symmetry_Int_Tables_number   1
_chemical_formula_structural   Tb5Ho7Co4OsPb
_chemical_formula_sum   'Tb5 Ho7 Co4 Os1 Pb1'
_cell_volume   437.87040242
_cell_formula_units_Z   1
loop_
 _symmetry_equiv_pos_site_id
 _symmetry_equiv_pos_as_xyz
  1  'x, y, z'
loop_
 _atom_site_type_symbol
 _atom_site_label
 _atom_site_symmetry_multiplicity
 _atom_site_fract_x
 _atom_site_fract_y
 _atom_site_fract_z
 _atom_site_occupancy
  Tb  Tb0  1  0.817252  0.717579  0.533887  1
  Tb  Tb1  1  0.182397  0.282871  0.465827  1
  Tb  Tb2  1  0.183698  0.717581  0.900339  1
  Tb  Tb3  1  0.817051  0.282881  0.100486  1
  Tb  Tb4  1  0.687276  0.379930  0.692633  1
  Ho  Ho5  1  0.313060  0.621134  0.308052  1
  Ho  Ho6  1  0.686726  0.994435  0.307680  1
  Ho  Ho7  1  0.312684  0.004444  0.691731  1
  Ho  Ho8  1  0.590028  0.784923  0.805712  1
  Ho  Ho9  1  0.409549  0.215255  0.193831  1
  Ho  Ho10  1  0.979311  0.784968  0.194938  1
  Ho  Ho11  1  0.021517  0.215307  0.805758  1
  Co  Co12  1  0.621309  0.998987  0.621265  1
  Co  Co13  1  0.377678  0.998988  0.377635  1
  Co  Co14  1  0.111629  0.611932  0.500305  1
  Co  Co15  1  0.889100  0.388743  0.499648  1
  Os  Os16  1  0.999956  0.000008  0.000067  1
  Pb  Pb17  1  0.499780  0.500033  0.000207  1
