# generated using pymatgen
data_Tb11Dy9Co4SnBi7
_symmetry_space_group_name_H-M   'P 1'
_cell_length_a   8.03585172
_cell_length_b   8.89562318
_cell_length_c   12.41127150
_cell_angle_alpha   90.05904993
_cell_angle_beta   90.06303670
_cell_angle_gamma   90.00063042
_symmetry_Int_Tables_number   1
_chemical_formula_structural   Tb11Dy9Co4SnBi7
_chemical_formula_sum   'Tb11 Dy9 Co4 Sn1 Bi7'
_cell_volume   887.20519166
_cell_formula_units_Z   1
loop_
 _symmetry_equiv_pos_site_id
 _symmetry_equiv_pos_as_xyz
  1  'x, y, z'
loop_
 _atom_site_type_symbol
 _atom_site_label
 _atom_site_symmetry_multiplicity
 _atom_site_fract_x
 _atom_site_fract_y
 _atom_site_fract_z
 _atom_site_occupancy
  Tb  Tb0  1  0.150605  0.250557  0.197164  1
  Tb  Tb1  1  0.351689  0.253413  0.700148  1
  Tb  Tb2  1  0.650348  0.750585  0.301865  1
  Tb  Tb3  1  0.384903  0.746113  0.691119  1
  Tb  Tb4  1  0.619025  0.250240  0.310974  1
  Tb  Tb5  1  0.875857  0.253039  0.811356  1
  Tb  Tb6  1  0.119470  0.749991  0.189623  1
  Tb  Tb7  1  0.954289  0.750638  0.502839  1
  Tb  Tb8  1  0.046849  0.249447  0.497555  1
  Tb  Tb9  1  0.456679  0.254159  0.994602  1
  Tb  Tb10  1  0.547044  0.745922  0.000284  1
  Dy  Dy11  1  0.845693  0.746297  0.801250  1
  Dy  Dy12  1  0.676673  0.033832  0.562848  1
  Dy  Dy13  1  0.323877  0.965759  0.437130  1
  Dy  Dy14  1  0.175317  0.966696  0.936546  1
  Dy  Dy15  1  0.323909  0.533106  0.436433  1
  Dy  Dy16  1  0.823598  0.032363  0.062998  1
  Dy  Dy17  1  0.674571  0.467303  0.567052  1
  Dy  Dy18  1  0.822921  0.466197  0.060452  1
  Dy  Dy19  1  0.179404  0.533451  0.935870  1
  Co  Co20  1  0.559532  0.749762  0.507556  1
  Co  Co21  1  0.439779  0.249873  0.492248  1
  Co  Co22  1  0.058246  0.249516  0.992095  1
  Co  Co23  1  0.940885  0.750225  0.007859  1
  Sn  Sn24  1  0.571037  0.493712  0.827354  1
  Bi  Bi25  1  0.428419  0.507698  0.174748  1
  Bi  Bi26  1  0.071964  0.507705  0.673781  1
  Bi  Bi27  1  0.428239  0.992718  0.172816  1
  Bi  Bi28  1  0.927802  0.492333  0.326328  1
  Bi  Bi29  1  0.571819  0.006797  0.825976  1
  Bi  Bi30  1  0.928669  0.007883  0.325754  1
  Bi  Bi31  1  0.070889  0.992666  0.675380  1
