# generated using pymatgen
data_LaPr3(Tl2Cl5)4
_symmetry_space_group_name_H-M   'P 1'
_cell_length_a   8.26029822
_cell_length_b   8.79204300
_cell_length_c   12.99015300
_cell_angle_alpha   90.00000000
_cell_angle_beta   89.94210976
_cell_angle_gamma   90.00000000
_symmetry_Int_Tables_number   1
_chemical_formula_structural   LaPr3(Tl2Cl5)4
_chemical_formula_sum   'La1 Pr3 Tl8 Cl20'
_cell_volume   943.40804353
_cell_formula_units_Z   1
loop_
 _symmetry_equiv_pos_site_id
 _symmetry_equiv_pos_as_xyz
  1  'x, y, z'
loop_
 _atom_site_type_symbol
 _atom_site_label
 _atom_site_symmetry_multiplicity
 _atom_site_fract_x
 _atom_site_fract_y
 _atom_site_fract_z
 _atom_site_occupancy
  La  La0  1  0.923770  0.750000  0.505562  1
  Pr  Pr1  1  0.076843  0.250000  0.494511  1
  Pr  Pr2  1  0.423238  0.250000  0.994437  1
  Pr  Pr3  1  0.576809  0.750000  0.005634  1
  Tl  Tl4  1  0.951725  0.004951  0.827089  1
  Tl  Tl5  1  0.048193  0.995212  0.172912  1
  Tl  Tl6  1  0.451817  0.995222  0.673030  1
  Tl  Tl7  1  0.048193  0.504788  0.172912  1
  Tl  Tl8  1  0.548094  0.004973  0.326943  1
  Tl  Tl9  1  0.951725  0.495049  0.827089  1
  Tl  Tl10  1  0.548094  0.495027  0.326943  1
  Tl  Tl11  1  0.451817  0.504778  0.673030  1
  Cl  Cl12  1  0.121612  0.750000  0.682258  1
  Cl  Cl13  1  0.879763  0.250000  0.319141  1
  Cl  Cl14  1  0.620222  0.250000  0.819104  1
  Cl  Cl15  1  0.379643  0.750000  0.181011  1
  Cl  Cl16  1  0.835555  0.046483  0.576843  1
  Cl  Cl17  1  0.165049  0.956878  0.423077  1
  Cl  Cl18  1  0.336275  0.955516  0.923924  1
  Cl  Cl19  1  0.165049  0.543122  0.423077  1
  Cl  Cl20  1  0.663785  0.044494  0.076123  1
  Cl  Cl21  1  0.835555  0.453517  0.576843  1
  Cl  Cl22  1  0.663785  0.455506  0.076123  1
  Cl  Cl23  1  0.336275  0.544484  0.923924  1
  Cl  Cl24  1  0.578035  0.750000  0.507107  1
  Cl  Cl25  1  0.419617  0.250000  0.492866  1
  Cl  Cl26  1  0.080648  0.250000  0.992735  1
  Cl  Cl27  1  0.919346  0.750000  0.007151  1
  Cl  Cl28  1  0.662204  0.750000  0.795920  1
  Cl  Cl29  1  0.337945  0.250000  0.203949  1
  Cl  Cl30  1  0.162231  0.250000  0.704022  1
  Cl  Cl31  1  0.837090  0.750000  0.294712  1
