# generated using pymatgen
data_SmErCo6(SiB)2
_symmetry_space_group_name_H-M   'P 1'
_cell_length_a   5.16347400
_cell_length_b   5.16332703
_cell_length_c   6.46553700
_cell_angle_alpha   90.00000000
_cell_angle_beta   90.00000000
_cell_angle_gamma   119.99708990
_symmetry_Int_Tables_number   1
_chemical_formula_structural   SmErCo6(SiB)2
_chemical_formula_sum   'Sm1 Er1 Co6 Si2 B2'
_cell_volume   149.28617647
_cell_formula_units_Z   1
loop_
 _symmetry_equiv_pos_site_id
 _symmetry_equiv_pos_as_xyz
  1  'x, y, z'
loop_
 _atom_site_type_symbol
 _atom_site_label
 _atom_site_symmetry_multiplicity
 _atom_site_fract_x
 _atom_site_fract_y
 _atom_site_fract_z
 _atom_site_occupancy
  Sm  Sm0  1  0.999966  0.999996  0.000000  1
  Er  Er1  1  0.000015  0.000017  0.500000  1
  Co  Co2  1  0.499984  0.999999  0.284729  1
  Co  Co3  1  0.499986  0.500001  0.284699  1
  Co  Co4  1  0.999981  0.499997  0.284696  1
  Co  Co5  1  0.499984  0.999999  0.715271  1
  Co  Co6  1  0.499986  0.500001  0.715300  1
  Co  Co7  1  0.999981  0.499997  0.715303  1
  Si  Si8  1  0.333334  0.666688  0.000000  1
  Si  Si9  1  0.666619  0.333308  0.000000  1
  B  B10  1  0.333301  0.666629  0.500000  1
  B  B11  1  0.666661  0.333369  0.500000  1
