# generated using pymatgen
data_Li4Er3LuSi8
_symmetry_space_group_name_H-M   'P 1'
_cell_length_a   3.76350200
_cell_length_b   7.57792845
_cell_length_c   10.07125300
_cell_angle_alpha   90.06802107
_cell_angle_beta   90.00000000
_cell_angle_gamma   90.00000000
_symmetry_Int_Tables_number   1
_chemical_formula_structural   Li4Er3LuSi8
_chemical_formula_sum   'Li4 Er3 Lu1 Si8'
_cell_volume   287.22738983
_cell_formula_units_Z   1
loop_
 _symmetry_equiv_pos_site_id
 _symmetry_equiv_pos_as_xyz
  1  'x, y, z'
loop_
 _atom_site_type_symbol
 _atom_site_label
 _atom_site_symmetry_multiplicity
 _atom_site_fract_x
 _atom_site_fract_y
 _atom_site_fract_z
 _atom_site_occupancy
  Li  Li0  1  0.250000  0.989138  0.393056  1
  Li  Li1  1  0.250000  0.487985  0.106906  1
  Li  Li2  1  0.750000  0.012232  0.607280  1
  Li  Li3  1  0.750000  0.511564  0.893591  1
  Er  Er4  1  0.250000  0.138843  0.863143  1
  Er  Er5  1  0.250000  0.639139  0.636522  1
  Er  Er6  1  0.750000  0.860377  0.136897  1
  Lu  Lu7  1  0.750000  0.361638  0.362908  1
  Si  Si8  1  0.250000  0.235475  0.565379  1
  Si  Si9  1  0.250000  0.733882  0.933300  1
  Si  Si10  1  0.750000  0.765720  0.432843  1
  Si  Si11  1  0.750000  0.266014  0.067525  1
  Si  Si12  1  0.250000  0.652123  0.319668  1
  Si  Si13  1  0.250000  0.154549  0.181624  1
  Si  Si14  1  0.750000  0.346216  0.680438  1
  Si  Si15  1  0.750000  0.845106  0.818922  1
