# generated using pymatgen
data_Li3YbTh2Ge3
_symmetry_space_group_name_H-M   'P 1'
_cell_length_a   7.24952000
_cell_length_b   7.18301787
_cell_length_c   4.41133900
_cell_angle_alpha   90.00000000
_cell_angle_beta   90.00000000
_cell_angle_gamma   120.30674497
_symmetry_Int_Tables_number   1
_chemical_formula_structural   Li3YbTh2Ge3
_chemical_formula_sum   'Li3 Yb1 Th2 Ge3'
_cell_volume   198.32002085
_cell_formula_units_Z   1
loop_
 _symmetry_equiv_pos_site_id
 _symmetry_equiv_pos_as_xyz
  1  'x, y, z'
loop_
 _atom_site_type_symbol
 _atom_site_label
 _atom_site_symmetry_multiplicity
 _atom_site_fract_x
 _atom_site_fract_y
 _atom_site_fract_z
 _atom_site_occupancy
  Li  Li0  1  0.772119  0.773558  0.500000  1
  Li  Li1  1  0.231631  0.000000  0.500000  1
  Li  Li2  1  0.998561  0.226442  0.500000  1
  Yb  Yb3  1  0.572746  0.000000  0.000000  1
  Th  Th4  1  0.998747  0.571299  0.000000  1
  Th  Th5  1  0.427448  0.428701  0.000000  1
  Ge  Ge6  1  0.330639  0.664739  0.500000  1
  Ge  Ge7  1  0.665901  0.335261  0.500000  1
  Ge  Ge8  1  0.002208  0.000000  0.000000  1
