# generated using pymatgen
data_Lu3Nb3(B2Ru5)2
_symmetry_space_group_name_H-M   'P 1'
_cell_length_a   9.54375674
_cell_length_b   9.54375721
_cell_length_c   3.11242600
_cell_angle_alpha   90.00000000
_cell_angle_beta   90.00000000
_cell_angle_gamma   89.76989836
_symmetry_Int_Tables_number   1
_chemical_formula_structural   Lu3Nb3(B2Ru5)2
_chemical_formula_sum   'Lu3 Nb3 B4 Ru10'
_cell_volume   283.48773636
_cell_formula_units_Z   1
loop_
 _symmetry_equiv_pos_site_id
 _symmetry_equiv_pos_as_xyz
  1  'x, y, z'
loop_
 _atom_site_type_symbol
 _atom_site_label
 _atom_site_symmetry_multiplicity
 _atom_site_fract_x
 _atom_site_fract_y
 _atom_site_fract_z
 _atom_site_occupancy
  Lu  Lu0  1  0.174393  0.825607  0.000000  1
  Lu  Lu1  1  0.325193  0.324596  0.000000  1
  Lu  Lu2  1  0.675404  0.674807  0.000000  1
  Nb  Nb3  1  0.496267  0.997850  0.000000  1
  Nb  Nb4  1  0.002150  0.503733  0.000000  1
  Nb  Nb5  1  0.824619  0.175381  0.000000  1
  B  B6  1  0.623102  0.376898  0.000000  1
  B  B7  1  0.380839  0.619161  0.000000  1
  B  B8  1  0.119943  0.123520  0.000000  1
  B  B9  1  0.876480  0.880057  0.000000  1
  Ru  Ru10  1  0.503770  0.496230  0.500000  1
  Ru  Ru11  1  0.992077  0.007923  0.500000  1
  Ru  Ru12  1  0.582605  0.213698  0.500000  1
  Ru  Ru13  1  0.430227  0.780384  0.500000  1
  Ru  Ru14  1  0.061109  0.280910  0.500000  1
  Ru  Ru15  1  0.928302  0.721488  0.500000  1
  Ru  Ru16  1  0.278512  0.071698  0.500000  1
  Ru  Ru17  1  0.719090  0.938891  0.500000  1
  Ru  Ru18  1  0.219616  0.569773  0.500000  1
  Ru  Ru19  1  0.786302  0.417395  0.500000  1
