# generated using pymatgen
data_Nb7Re(Ni2N)2
_symmetry_space_group_name_H-M   'P 1'
_cell_length_a   8.19972653
_cell_length_b   8.19972592
_cell_length_c   8.25110371
_cell_angle_alpha   59.88621677
_cell_angle_beta   59.88623114
_cell_angle_gamma   59.64667371
_symmetry_Int_Tables_number   1
_chemical_formula_structural   Nb7Re(Ni2N)2
_chemical_formula_sum   'Nb14 Re2 Ni8 N4'
_cell_volume   390.55086668
_cell_formula_units_Z   2
loop_
 _symmetry_equiv_pos_site_id
 _symmetry_equiv_pos_as_xyz
  1  'x, y, z'
loop_
 _atom_site_type_symbol
 _atom_site_label
 _atom_site_symmetry_multiplicity
 _atom_site_fract_x
 _atom_site_fract_y
 _atom_site_fract_z
 _atom_site_occupancy
  Nb  Nb0  1  0.125000  0.625000  0.625000  1
  Nb  Nb1  1  0.625000  0.125000  0.625000  1
  Nb  Nb2  1  0.811048  0.811048  0.188906  1
  Nb  Nb3  1  0.183777  0.183777  0.816235  1
  Nb  Nb4  1  0.813048  0.190554  0.812894  1
  Nb  Nb5  1  0.190484  0.813121  0.183350  1
  Nb  Nb6  1  0.190554  0.813048  0.812894  1
  Nb  Nb7  1  0.813121  0.190484  0.183350  1
  Nb  Nb8  1  0.438952  0.438952  0.061094  1
  Nb  Nb9  1  0.066223  0.066223  0.433765  1
  Nb  Nb10  1  0.436952  0.059446  0.437106  1
  Nb  Nb11  1  0.059516  0.436879  0.066650  1
  Nb  Nb12  1  0.059446  0.436952  0.437106  1
  Nb  Nb13  1  0.436879  0.059516  0.066650  1
  Re  Re14  1  0.625000  0.625000  0.625000  1
  Re  Re15  1  0.625000  0.625000  0.125000  1
  Ni  Ni16  1  0.734669  0.425271  0.419719  1
  Ni  Ni17  1  0.425271  0.734669  0.419719  1
  Ni  Ni18  1  0.420606  0.420606  0.743730  1
  Ni  Ni19  1  0.421240  0.421240  0.414382  1
  Ni  Ni20  1  0.515331  0.824729  0.830281  1
  Ni  Ni21  1  0.824729  0.515331  0.830281  1
  Ni  Ni22  1  0.829394  0.829394  0.506270  1
  Ni  Ni23  1  0.828760  0.828760  0.835618  1
  N  N24  1  0.625000  0.125000  0.125000  1
  N  N25  1  0.125000  0.625000  0.125000  1
  N  N26  1  0.125000  0.125000  0.625000  1
  N  N27  1  0.125000  0.125000  0.125000  1
