# generated using pymatgen
data_PrCo12HgO24
_symmetry_space_group_name_H-M   'P 1'
_cell_length_a   7.80642149
_cell_length_b   7.80642116
_cell_length_c   8.96779100
_cell_angle_alpha   56.32478897
_cell_angle_beta   56.32479054
_cell_angle_gamma   66.46964328
_symmetry_Int_Tables_number   1
_chemical_formula_structural   PrCo12HgO24
_chemical_formula_sum   'Pr1 Co12 Hg1 O24'
_cell_volume   375.13788463
_cell_formula_units_Z   1
loop_
 _symmetry_equiv_pos_site_id
 _symmetry_equiv_pos_as_xyz
  1  'x, y, z'
loop_
 _atom_site_type_symbol
 _atom_site_label
 _atom_site_symmetry_multiplicity
 _atom_site_fract_x
 _atom_site_fract_y
 _atom_site_fract_z
 _atom_site_occupancy
  Pr  Pr0  1  0.825209  0.174791  0.000000  1
  Co  Co1  1  0.974566  0.316270  0.524253  1
  Co  Co2  1  0.837062  0.841300  0.817489  1
  Co  Co3  1  0.158700  0.162938  0.182511  1
  Co  Co4  1  0.490318  0.831528  0.184783  1
  Co  Co5  1  0.017569  0.694646  0.470877  1
  Co  Co6  1  0.355471  0.360602  0.467924  1
  Co  Co7  1  0.305354  0.982431  0.529123  1
  Co  Co8  1  0.639398  0.644529  0.532076  1
  Co  Co9  1  0.499568  0.177277  0.818769  1
  Co  Co10  1  0.168472  0.509682  0.815217  1
  Co  Co11  1  0.822723  0.500432  0.181231  1
  Co  Co12  1  0.683730  0.025434  0.475747  1
  Hg  Hg13  1  0.315725  0.684275  0.000000  1
  O  O14  1  0.154533  0.170644  0.652609  1
  O  O15  1  0.872267  0.540827  0.932125  1
  O  O16  1  0.133672  0.140443  0.402033  1
  O  O17  1  0.859557  0.866328  0.597967  1
  O  O18  1  0.192521  0.533587  0.594325  1
  O  O19  1  0.117923  0.459752  0.067645  1
  O  O20  1  0.459173  0.127733  0.067875  1
  O  O21  1  0.871827  0.212128  0.251431  1
  O  O22  1  0.206489  0.880826  0.256037  1
  O  O23  1  0.540637  0.547820  0.263999  1
  O  O24  1  0.486387  0.828884  0.659265  1
  O  O25  1  0.825690  0.492241  0.657974  1
  O  O26  1  0.829356  0.845467  0.347391  1
  O  O27  1  0.171116  0.513613  0.340735  1
  O  O28  1  0.787872  0.128173  0.748569  1
  O  O29  1  0.119174  0.793511  0.743963  1
  O  O30  1  0.452180  0.459363  0.736001  1
  O  O31  1  0.540248  0.882077  0.932355  1
  O  O32  1  0.199880  0.212459  0.932812  1
  O  O33  1  0.466413  0.807479  0.405675  1
  O  O34  1  0.798199  0.474280  0.404214  1
  O  O35  1  0.525720  0.201801  0.595786  1
  O  O36  1  0.787541  0.800120  0.067188  1
  O  O37  1  0.507759  0.174310  0.342026  1
