# generated using pymatgen
data_TlInBi4(SbO7)2
_symmetry_space_group_name_H-M   'P 1'
_cell_length_a   6.58207782
_cell_length_b   6.60272773
_cell_length_c   7.72950663
_cell_angle_alpha   107.07620294
_cell_angle_beta   89.65608211
_cell_angle_gamma   98.74695713
_symmetry_Int_Tables_number   1
_chemical_formula_structural   TlInBi4(SbO7)2
_chemical_formula_sum   'Tl1 In1 Bi4 Sb2 O14'
_cell_volume   317.11232047
_cell_formula_units_Z   1
loop_
 _symmetry_equiv_pos_site_id
 _symmetry_equiv_pos_as_xyz
  1  'x, y, z'
loop_
 _atom_site_type_symbol
 _atom_site_label
 _atom_site_symmetry_multiplicity
 _atom_site_fract_x
 _atom_site_fract_y
 _atom_site_fract_z
 _atom_site_occupancy
  Tl  Tl0  1  0.535179  0.996554  0.749859  1
  In  In1  1  0.463498  0.003087  0.251078  1
  Bi  Bi2  1  0.251978  0.531620  0.885068  1
  Bi  Bi3  1  0.741885  0.470864  0.116993  1
  Bi  Bi4  1  0.737253  0.460702  0.604942  1
  Bi  Bi5  1  0.262657  0.535321  0.386117  1
  Sb  Sb6  1  0.000252  0.000655  0.499010  1
  Sb  Sb7  1  0.999922  0.000384  0.003086  1
  O  O8  1  0.451618  0.664112  0.179395  1
  O  O9  1  0.551324  0.340490  0.819856  1
  O  O10  1  0.292024  0.944982  0.966045  1
  O  O11  1  0.710817  0.053130  0.052900  1
  O  O12  1  0.286474  0.924904  0.500569  1
  O  O13  1  0.716080  0.076003  0.482148  1
  O  O14  1  0.526014  0.341429  0.345415  1
  O  O15  1  0.466981  0.652746  0.651598  1
  O  O16  1  0.925985  0.679179  0.954303  1
  O  O17  1  0.075280  0.320512  0.047831  1
  O  O18  1  0.090530  0.316971  0.616580  1
  O  O19  1  0.903910  0.684108  0.385026  1
  O  O20  1  0.916772  0.943568  0.736612  1
  O  O21  1  0.093570  0.058680  0.265570  1
