# generated using pymatgen
data_YbEr2Al3NiGe2
_symmetry_space_group_name_H-M   'P 1'
_cell_length_a   6.93449801
_cell_length_b   6.90587574
_cell_length_c   4.17944200
_cell_angle_alpha   90.00000000
_cell_angle_beta   90.00000000
_cell_angle_gamma   120.14332754
_symmetry_Int_Tables_number   1
_chemical_formula_structural   YbEr2Al3NiGe2
_chemical_formula_sum   'Yb1 Er2 Al3 Ni1 Ge2'
_cell_volume   173.08270473
_cell_formula_units_Z   1
loop_
 _symmetry_equiv_pos_site_id
 _symmetry_equiv_pos_as_xyz
  1  'x, y, z'
loop_
 _atom_site_type_symbol
 _atom_site_label
 _atom_site_symmetry_multiplicity
 _atom_site_fract_x
 _atom_site_fract_y
 _atom_site_fract_z
 _atom_site_occupancy
  Yb  Yb0  1  0.408626  0.999986  0.500001  1
  Er  Er1  1  0.000659  0.407300  0.500001  1
  Er  Er2  1  0.593345  0.592672  0.500001  1
  Al  Al3  1  0.773739  0.999984  0.000000  1
  Al  Al4  1  0.227315  0.232705  0.000000  1
  Al  Al5  1  0.994593  0.767266  0.000000  1
  Ni  Ni6  1  0.997067  0.000000  0.500001  1
  Ge  Ge7  1  0.671235  0.337911  0.000000  1
  Ge  Ge8  1  0.333320  0.662073  0.000000  1
