# generated using pymatgen
data_Tb9Y7Cd4(NiIr)2
_symmetry_space_group_name_H-M   'P 1'
_cell_length_a   9.62321779
_cell_length_b   9.62321909
_cell_length_c   9.67039600
_cell_angle_alpha   59.83769683
_cell_angle_beta   59.83769234
_cell_angle_gamma   59.67059875
_symmetry_Int_Tables_number   1
_chemical_formula_structural   Tb9Y7Cd4(NiIr)2
_chemical_formula_sum   'Tb9 Y7 Cd4 Ni2 Ir2'
_cell_volume   630.10456413
_cell_formula_units_Z   1
loop_
 _symmetry_equiv_pos_site_id
 _symmetry_equiv_pos_as_xyz
  1  'x, y, z'
loop_
 _atom_site_type_symbol
 _atom_site_label
 _atom_site_symmetry_multiplicity
 _atom_site_fract_x
 _atom_site_fract_y
 _atom_site_fract_z
 _atom_site_occupancy
  Tb  Tb0  1  0.600390  0.600390  0.594843  1
  Tb  Tb1  1  0.600390  0.600390  0.204377  1
  Tb  Tb2  1  0.603111  0.202155  0.597367  1
  Tb  Tb3  1  0.202155  0.603111  0.597367  1
  Tb  Tb4  1  0.058947  0.437771  0.440869  1
  Tb  Tb5  1  0.437771  0.058947  0.062413  1
  Tb  Tb6  1  0.437771  0.058947  0.440869  1
  Tb  Tb7  1  0.058947  0.437771  0.062413  1
  Tb  Tb8  1  0.439502  0.439502  0.060498  1
  Y  Y9  1  0.060690  0.060690  0.439310  1
  Y  Y10  1  0.187387  0.810978  0.815890  1
  Y  Y11  1  0.810978  0.187387  0.185745  1
  Y  Y12  1  0.810978  0.187387  0.815890  1
  Y  Y13  1  0.187387  0.810978  0.185745  1
  Y  Y14  1  0.815541  0.815541  0.184459  1
  Y  Y15  1  0.188909  0.188909  0.811091  1
  Cd  Cd16  1  0.829977  0.829977  0.832535  1
  Cd  Cd17  1  0.829977  0.829977  0.507508  1
  Cd  Cd18  1  0.830116  0.506106  0.831889  1
  Cd  Cd19  1  0.506106  0.830116  0.831889  1
  Ni  Ni20  1  0.392401  0.824626  0.391486  1
  Ni  Ni21  1  0.824626  0.392401  0.391486  1
  Ir  Ir22  1  0.392970  0.392970  0.391215  1
  Ir  Ir23  1  0.392970  0.392970  0.822845  1
