# generated using pymatgen
data_Cs3CuO2
_symmetry_space_group_name_H-M   'P 1'
_cell_length_a   6.51926500
_cell_length_b   8.30809600
_cell_length_c   13.04798500
_cell_angle_alpha   90.00000000
_cell_angle_beta   90.00000000
_cell_angle_gamma   90.00000000
_symmetry_Int_Tables_number   1
_chemical_formula_structural   Cs3CuO2
_chemical_formula_sum   'Cs12 Cu4 O8'
_cell_volume   706.71382928
_cell_formula_units_Z   4
loop_
 _symmetry_equiv_pos_site_id
 _symmetry_equiv_pos_as_xyz
  1  'x, y, z'
loop_
 _atom_site_type_symbol
 _atom_site_label
 _atom_site_symmetry_multiplicity
 _atom_site_fract_x
 _atom_site_fract_y
 _atom_site_fract_z
 _atom_site_occupancy
  Cs  Cs0  1  0.754651  0.750000  0.894502  1
  Cs  Cs1  1  0.254651  0.250000  0.605498  1
  Cs  Cs2  1  0.245349  0.250000  0.105498  1
  Cs  Cs3  1  0.745349  0.750000  0.394502  1
  Cs  Cs4  1  0.297071  0.499377  0.863563  1
  Cs  Cs5  1  0.797071  0.500623  0.636437  1
  Cs  Cs6  1  0.702929  0.999377  0.136437  1
  Cs  Cs7  1  0.202929  0.000623  0.363563  1
  Cs  Cs8  1  0.702929  0.500623  0.136437  1
  Cs  Cs9  1  0.202929  0.499377  0.363563  1
  Cs  Cs10  1  0.297071  0.000623  0.863563  1
  Cs  Cs11  1  0.797071  0.999377  0.636437  1
  Cu  Cu12  1  0.293197  0.750000  0.622000  1
  Cu  Cu13  1  0.206803  0.750000  0.122000  1
  Cu  Cu14  1  0.793197  0.250000  0.878000  1
  Cu  Cu15  1  0.706803  0.250000  0.378000  1
  O  O16  1  0.585165  0.250000  0.970546  1
  O  O17  1  0.085165  0.750000  0.529454  1
  O  O18  1  0.414835  0.750000  0.029454  1
  O  O19  1  0.914835  0.250000  0.470546  1
  O  O20  1  0.992932  0.250000  0.780212  1
  O  O21  1  0.507068  0.250000  0.280212  1
  O  O22  1  0.492932  0.750000  0.719788  1
  O  O23  1  0.007068  0.750000  0.219788  1
