# generated using pymatgen
data_YTm5(AlC3)2
_symmetry_space_group_name_H-M   'P 1'
_cell_length_a   3.51803000
_cell_length_b   6.95065200
_cell_length_c   9.90305000
_cell_angle_alpha   90.00000000
_cell_angle_beta   90.00000000
_cell_angle_gamma   90.00000000
_symmetry_Int_Tables_number   1
_chemical_formula_structural   YTm5(AlC3)2
_chemical_formula_sum   'Y1 Tm5 Al2 C6'
_cell_volume   242.15534277
_cell_formula_units_Z   1
loop_
 _symmetry_equiv_pos_site_id
 _symmetry_equiv_pos_as_xyz
  1  'x, y, z'
loop_
 _atom_site_type_symbol
 _atom_site_label
 _atom_site_symmetry_multiplicity
 _atom_site_fract_x
 _atom_site_fract_y
 _atom_site_fract_z
 _atom_site_occupancy
  Y  Y0  1  0.000000  0.250000  0.539108  1
  Tm  Tm1  1  0.500000  0.511543  0.201025  1
  Tm  Tm2  1  0.500000  0.488538  0.799373  1
  Tm  Tm3  1  0.500000  0.988457  0.201025  1
  Tm  Tm4  1  0.500000  0.011462  0.799373  1
  Tm  Tm5  1  0.000000  0.750000  0.456425  1
  Al  Al6  1  0.000000  0.750000  0.004291  1
  Al  Al7  1  0.000000  0.250000  0.996977  1
  C  C8  1  0.500000  0.514007  0.567085  1
  C  C9  1  0.500000  0.495173  0.433527  1
  C  C10  1  0.500000  0.985993  0.567085  1
  C  C11  1  0.500000  0.004827  0.433527  1
  C  C12  1  0.000000  0.750000  0.208392  1
  C  C13  1  0.000000  0.250000  0.792787  1
