# generated using pymatgen
data_ZnSn14Ir3O14
_symmetry_space_group_name_H-M   'P 1'
_cell_length_a   7.20346925
_cell_length_b   7.25664789
_cell_length_c   13.08881660
_cell_angle_alpha   73.91821813
_cell_angle_beta   74.02747081
_cell_angle_gamma   60.24212942
_symmetry_Int_Tables_number   1
_chemical_formula_structural   ZnSn14Ir3O14
_chemical_formula_sum   'Zn1 Sn14 Ir3 O14'
_cell_volume   562.89623895
_cell_formula_units_Z   1
loop_
 _symmetry_equiv_pos_site_id
 _symmetry_equiv_pos_as_xyz
  1  'x, y, z'
loop_
 _atom_site_type_symbol
 _atom_site_label
 _atom_site_symmetry_multiplicity
 _atom_site_fract_x
 _atom_site_fract_y
 _atom_site_fract_z
 _atom_site_occupancy
  Zn  Zn0  1  0.902118  0.018650  0.177113  1
  Sn  Sn1  1  0.487402  0.606627  0.418570  1
  Sn  Sn2  1  0.493478  0.080310  0.423647  1
  Sn  Sn3  1  0.002567  0.080310  0.423647  1
  Sn  Sn4  1  0.097231  0.149976  0.655562  1
  Sn  Sn5  1  0.436630  0.981912  0.144828  1
  Sn  Sn6  1  0.147947  0.783404  0.920700  1
  Sn  Sn7  1  0.433241  0.502437  0.160131  1
  Sn  Sn8  1  0.904192  0.502437  0.160131  1
  Sn  Sn9  1  0.677697  0.756015  0.888591  1
  Sn  Sn10  1  0.678373  0.262905  0.916471  1
  Sn  Sn11  1  0.142250  0.262905  0.916471  1
  Sn  Sn12  1  0.575291  0.676547  0.651010  1
  Sn  Sn13  1  0.097152  0.676547  0.651010  1
  Sn  Sn14  1  0.016073  0.590795  0.377059  1
  Ir  Ir15  1  0.696677  0.301123  0.305523  1
  Ir  Ir16  1  0.884524  0.463262  0.767691  1
  Ir  Ir17  1  0.290542  0.384282  0.034633  1
  O  O18  1  0.120428  0.717986  0.467133  1
  O  O19  1  0.694452  0.717986  0.467133  1
  O  O20  1  0.949120  0.095800  0.005962  1
  O  O21  1  0.122094  0.278604  0.477207  1
  O  O22  1  0.634125  0.676306  0.055443  1
  O  O23  1  0.427371  0.556621  0.588637  1
  O  O24  1  0.343183  0.948735  0.364900  1
  O  O25  1  0.429509  0.008195  0.594010  1
  O  O26  1  0.968284  0.008195  0.594010  1
  O  O27  1  0.356325  0.948574  0.880254  1
  O  O28  1  0.814846  0.948574  0.880254  1
  O  O29  1  0.751808  0.827188  0.184467  1
  O  O30  1  0.236536  0.827188  0.184467  1
  O  O31  1  0.228902  0.798091  0.744103  1
