# generated using pymatgen
data_Ba2YbReN4
_symmetry_space_group_name_H-M   'P 1'
_cell_length_a   10.85010329
_cell_length_b   10.47267734
_cell_length_c   8.06494758
_cell_angle_alpha   70.28111078
_cell_angle_beta   65.31447685
_cell_angle_gamma   44.40440735
_symmetry_Int_Tables_number   1
_chemical_formula_structural   Ba2YbReN4
_chemical_formula_sum   'Ba8 Yb4 Re4 N16'
_cell_volume   581.53444734
_cell_formula_units_Z   4
loop_
 _symmetry_equiv_pos_site_id
 _symmetry_equiv_pos_as_xyz
  1  'x, y, z'
loop_
 _atom_site_type_symbol
 _atom_site_label
 _atom_site_symmetry_multiplicity
 _atom_site_fract_x
 _atom_site_fract_y
 _atom_site_fract_z
 _atom_site_occupancy
  Ba  Ba0  1  0.572761  0.927239  0.927239  1
  Ba  Ba1  1  0.927239  0.572761  0.572761  1
  Ba  Ba2  1  0.322761  0.677239  0.677239  1
  Ba  Ba3  1  0.111558  0.111558  0.888442  1
  Ba  Ba4  1  0.138442  0.138442  0.361558  1
  Ba  Ba5  1  0.361558  0.361558  0.138442  1
  Ba  Ba6  1  0.677239  0.322761  0.322761  1
  Ba  Ba7  1  0.888442  0.888442  0.111558  1
  Yb  Yb8  1  0.338639  0.338639  0.661361  1
  Yb  Yb9  1  0.911361  0.911361  0.588639  1
  Yb  Yb10  1  0.661361  0.661361  0.338639  1
  Yb  Yb11  1  0.588639  0.588639  0.911361  1
  Re  Re12  1  0.494066  0.005934  0.494066  1
  Re  Re13  1  0.005934  0.494066  0.005934  1
  Re  Re14  1  0.755934  0.244066  0.755934  1
  Re  Re15  1  0.244066  0.755934  0.244066  1
  N  N16  1  0.008992  0.657436  0.823316  1
  N  N17  1  0.703861  0.282469  0.995196  1
  N  N18  1  0.657436  0.008992  0.510257  1
  N  N19  1  0.510257  0.823316  0.657436  1
  N  N20  1  0.241008  0.592564  0.426684  1
  N  N21  1  0.739743  0.426684  0.592564  1
  N  N22  1  0.995196  0.018475  0.703861  1
  N  N23  1  0.546139  0.967531  0.254804  1
  N  N24  1  0.426684  0.739743  0.241008  1
  N  N25  1  0.967531  0.546139  0.231525  1
  N  N26  1  0.282469  0.703861  0.018475  1
  N  N27  1  0.823316  0.510257  0.008992  1
  N  N28  1  0.231525  0.254804  0.967531  1
  N  N29  1  0.592564  0.241008  0.739743  1
  N  N30  1  0.254804  0.231525  0.546139  1
  N  N31  1  0.018475  0.995196  0.282469  1
