# generated using pymatgen
data_Ho7LuSc12(SiGe)8
_symmetry_space_group_name_H-M   'P 1'
_cell_length_a   7.14908260
_cell_length_b   7.38197187
_cell_length_c   14.02184255
_cell_angle_alpha   89.99465002
_cell_angle_beta   90.13330709
_cell_angle_gamma   89.91878176
_symmetry_Int_Tables_number   1
_chemical_formula_structural   Ho7LuSc12(SiGe)8
_chemical_formula_sum   'Ho7 Lu1 Sc12 Si8 Ge8'
_cell_volume   739.99054943
_cell_formula_units_Z   1
loop_
 _symmetry_equiv_pos_site_id
 _symmetry_equiv_pos_as_xyz
  1  'x, y, z'
loop_
 _atom_site_type_symbol
 _atom_site_label
 _atom_site_symmetry_multiplicity
 _atom_site_fract_x
 _atom_site_fract_y
 _atom_site_fract_z
 _atom_site_occupancy
  Ho  Ho0  1  0.999111  0.822875  0.901998  1
  Ho  Ho1  1  0.498085  0.677605  0.902083  1
  Ho  Ho2  1  0.997741  0.822862  0.598455  1
  Ho  Ho3  1  0.501511  0.321493  0.098338  1
  Ho  Ho4  1  0.002357  0.177347  0.401819  1
  Ho  Ho5  1  0.502154  0.322678  0.400897  1
  Ho  Ho6  1  0.498149  0.677192  0.598447  1
  Lu  Lu7  1  0.000544  0.177827  0.099085  1
  Sc  Sc8  1  0.174634  0.500277  0.750573  1
  Sc  Sc9  1  0.825392  0.499576  0.249393  1
  Sc  Sc10  1  0.325058  0.000684  0.249022  1
  Sc  Sc11  1  0.674608  0.999609  0.750427  1
  Sc  Sc12  1  0.343904  0.172409  0.625878  1
  Sc  Sc13  1  0.656478  0.827802  0.373438  1
  Sc  Sc14  1  0.156478  0.672209  0.373188  1
  Sc  Sc15  1  0.655365  0.828810  0.125801  1
  Sc  Sc16  1  0.843493  0.327339  0.626167  1
  Sc  Sc17  1  0.344860  0.171989  0.874430  1
  Sc  Sc18  1  0.845133  0.327302  0.874335  1
  Sc  Sc19  1  0.155249  0.672354  0.126143  1
  Si  Si20  1  0.046789  0.116792  0.750019  1
  Si  Si21  1  0.953727  0.884116  0.249846  1
  Si  Si22  1  0.453984  0.617036  0.249647  1
  Si  Si23  1  0.546374  0.382773  0.750215  1
  Si  Si24  1  0.297268  0.871519  0.750043  1
  Si  Si25  1  0.703996  0.128915  0.249438  1
  Si  Si26  1  0.202131  0.370227  0.249392  1
  Si  Si27  1  0.796922  0.628446  0.750130  1
  Ge  Ge28  1  0.176562  0.460897  0.540611  1
  Ge  Ge29  1  0.823140  0.539815  0.459193  1
  Ge  Ge30  1  0.323510  0.959927  0.459063  1
  Ge  Ge31  1  0.822570  0.538665  0.041136  1
  Ge  Ge32  1  0.676817  0.039635  0.540364  1
  Ge  Ge33  1  0.177263  0.459507  0.960064  1
  Ge  Ge34  1  0.680549  0.040304  0.959831  1
  Ge  Ge35  1  0.318092  0.961186  0.041091  1
