# generated using pymatgen
data_Er4IrPd3O14
_symmetry_space_group_name_H-M   'P 1'
_cell_length_a   7.20424179
_cell_length_b   7.20424311
_cell_length_c   7.22766713
_cell_angle_alpha   60.10716280
_cell_angle_beta   60.10715207
_cell_angle_gamma   60.00000644
_symmetry_Int_Tables_number   1
_chemical_formula_structural   Er4IrPd3O14
_chemical_formula_sum   'Er4 Ir1 Pd3 O14'
_cell_volume   265.68150979
_cell_formula_units_Z   1
loop_
 _symmetry_equiv_pos_site_id
 _symmetry_equiv_pos_as_xyz
  1  'x, y, z'
loop_
 _atom_site_type_symbol
 _atom_site_label
 _atom_site_symmetry_multiplicity
 _atom_site_fract_x
 _atom_site_fract_y
 _atom_site_fract_z
 _atom_site_occupancy
  Er  Er0  1  0.625000  0.125000  0.125000  1
  Er  Er1  1  0.125000  0.625000  0.125000  1
  Er  Er2  1  0.125000  0.125000  0.625000  1
  Er  Er3  1  0.125000  0.125000  0.125000  1
  Ir  Ir4  1  0.625000  0.625000  0.125000  1
  Pd  Pd5  1  0.125000  0.625000  0.625000  1
  Pd  Pd6  1  0.625000  0.125000  0.625000  1
  Pd  Pd7  1  0.625000  0.625000  0.625000  1
  O  O8  1  0.714427  0.714427  0.282552  1
  O  O9  1  0.282198  0.282198  0.719627  1
  O  O10  1  0.715976  0.282198  0.719627  1
  O  O11  1  0.288594  0.714427  0.282552  1
  O  O12  1  0.282198  0.715976  0.719627  1
  O  O13  1  0.714427  0.288594  0.282552  1
  O  O14  1  0.535573  0.535573  0.967448  1
  O  O15  1  0.967802  0.967802  0.530373  1
  O  O16  1  0.534024  0.967802  0.530373  1
  O  O17  1  0.961406  0.535573  0.967448  1
  O  O18  1  0.967802  0.534024  0.530373  1
  O  O19  1  0.535573  0.961406  0.967448  1
  O  O20  1  0.250336  0.250336  0.248992  1
  O  O21  1  0.999664  0.999664  0.001008  1
