# generated using pymatgen
data_LaPrCrGeO8
_symmetry_space_group_name_H-M   'P 1'
_cell_length_a   6.21596750
_cell_length_b   6.21596797
_cell_length_c   6.21596716
_cell_angle_alpha   106.02922613
_cell_angle_beta   106.02922568
_cell_angle_gamma   116.59908009
_symmetry_Int_Tables_number   1
_chemical_formula_structural   LaPrCrGeO8
_chemical_formula_sum   'La1 Pr1 Cr1 Ge1 O8'
_cell_volume   182.71455109
_cell_formula_units_Z   1
loop_
 _symmetry_equiv_pos_site_id
 _symmetry_equiv_pos_as_xyz
  1  'x, y, z'
loop_
 _atom_site_type_symbol
 _atom_site_label
 _atom_site_symmetry_multiplicity
 _atom_site_fract_x
 _atom_site_fract_y
 _atom_site_fract_z
 _atom_site_occupancy
  La  La0  1  0.000000  0.000000  0.000000  1
  Pr  Pr1  1  0.250000  0.750000  0.500000  1
  Cr  Cr2  1  0.500000  0.500000  0.000000  1
  Ge  Ge3  1  0.750000  0.250000  0.500000  1
  O  O4  1  0.343784  0.518975  0.175191  1
  O  O5  1  0.389078  0.070229  0.318849  1
  O  O6  1  0.751380  0.070229  0.681151  1
  O  O7  1  0.343784  0.168592  0.824809  1
  O  O8  1  0.831408  0.656216  0.175191  1
  O  O9  1  0.929771  0.248620  0.318849  1
  O  O10  1  0.929771  0.610922  0.681151  1
  O  O11  1  0.481025  0.656216  0.824809  1
