# generated using pymatgen
data_La5Au6
_symmetry_space_group_name_H-M   'P 1'
_cell_length_a   16.84680166
_cell_length_b   16.84680243
_cell_length_c   4.11259900
_cell_angle_alpha   90.00000000
_cell_angle_beta   90.00000000
_cell_angle_gamma   164.94618436
_symmetry_Int_Tables_number   1
_chemical_formula_structural   La5Au6
_chemical_formula_sum   'La5 Au6'
_cell_volume   303.15661561
_cell_formula_units_Z   1
loop_
 _symmetry_equiv_pos_site_id
 _symmetry_equiv_pos_as_xyz
  1  'x, y, z'
loop_
 _atom_site_type_symbol
 _atom_site_label
 _atom_site_symmetry_multiplicity
 _atom_site_fract_x
 _atom_site_fract_y
 _atom_site_fract_z
 _atom_site_occupancy
  La  La0  1  0.000000  0.000000  0.000000  1
  La  La1  1  0.614648  0.385352  0.000000  1
  La  La2  1  0.385352  0.614648  0.000000  1
  La  La3  1  0.801426  0.198573  0.500000  1
  La  La4  1  0.198573  0.801426  0.500000  1
  Au  Au5  1  0.718965  0.281035  0.000000  1
  Au  Au6  1  0.281035  0.718965  0.000000  1
  Au  Au7  1  0.901119  0.098881  0.500000  1
  Au  Au8  1  0.541642  0.458357  0.500000  1
  Au  Au9  1  0.458357  0.541642  0.500000  1
  Au  Au10  1  0.098881  0.901119  0.500000  1
