# generated using pymatgen
data_Dy2FeAuO7
_symmetry_space_group_name_H-M   'P 1'
_cell_length_a   7.28947612
_cell_length_b   7.33701363
_cell_length_c   7.28949660
_cell_angle_alpha   59.78388672
_cell_angle_beta   59.50914437
_cell_angle_gamma   59.78402405
_symmetry_Int_Tables_number   1
_chemical_formula_structural   Dy2FeAuO7
_chemical_formula_sum   'Dy4 Fe2 Au2 O14'
_cell_volume   273.74471201
_cell_formula_units_Z   2
loop_
 _symmetry_equiv_pos_site_id
 _symmetry_equiv_pos_as_xyz
  1  'x, y, z'
loop_
 _atom_site_type_symbol
 _atom_site_label
 _atom_site_symmetry_multiplicity
 _atom_site_fract_x
 _atom_site_fract_y
 _atom_site_fract_z
 _atom_site_occupancy
  Dy  Dy0  1  0.500001  0.000000  0.499999  1
  Dy  Dy1  1  0.000000  0.500000  0.500001  1
  Dy  Dy2  1  0.499999  0.500000  0.000000  1
  Dy  Dy3  1  0.499998  0.500001  0.500001  1
  Fe  Fe4  1  0.999997  0.499999  0.000004  1
  Fe  Fe5  1  0.000004  0.000000  0.999999  1
  Au  Au6  1  0.500001  0.000002  0.999999  1
  Au  Au7  1  0.000000  0.999999  0.500000  1
  O  O8  1  0.622370  0.627630  0.622370  1
  O  O9  1  0.377630  0.372370  0.377630  1
  O  O10  1  0.341272  0.911751  0.907399  1
  O  O11  1  0.092603  0.660419  0.658732  1
  O  O12  1  0.914771  0.335233  0.914765  1
  O  O13  1  0.907399  0.911755  0.341268  1
  O  O14  1  0.341270  0.339580  0.907393  1
  O  O15  1  0.340623  0.909382  0.340625  1
  O  O16  1  0.907396  0.339579  0.341271  1
  O  O17  1  0.658728  0.660423  0.092606  1
  O  O18  1  0.092601  0.088246  0.658731  1
  O  O19  1  0.658731  0.088250  0.092600  1
  O  O20  1  0.659377  0.090619  0.659374  1
  O  O21  1  0.085230  0.664768  0.085236  1
