# generated using pymatgen
data_Ca2Pr17ErGa12
_symmetry_space_group_name_H-M   'P 1'
_cell_length_a   7.92645900
_cell_length_b   7.92645900
_cell_length_c   14.69331800
_cell_angle_alpha   90.00000000
_cell_angle_beta   90.00000000
_cell_angle_gamma   90.00000000
_symmetry_Int_Tables_number   1
_chemical_formula_structural   Ca2Pr17ErGa12
_chemical_formula_sum   'Ca2 Pr17 Er1 Ga12'
_cell_volume   923.16283677
_cell_formula_units_Z   1
loop_
 _symmetry_equiv_pos_site_id
 _symmetry_equiv_pos_as_xyz
  1  'x, y, z'
loop_
 _atom_site_type_symbol
 _atom_site_label
 _atom_site_symmetry_multiplicity
 _atom_site_fract_x
 _atom_site_fract_y
 _atom_site_fract_z
 _atom_site_occupancy
  Ca  Ca0  1  0.000000  0.500000  0.242716  1
  Ca  Ca1  1  0.500000  0.000000  0.254755  1
  Pr  Pr2  1  0.816848  0.837157  0.604242  1
  Pr  Pr3  1  0.176403  0.832266  0.101275  1
  Pr  Pr4  1  0.167807  0.822937  0.397675  1
  Pr  Pr5  1  0.832193  0.177063  0.397675  1
  Pr  Pr6  1  0.677063  0.667807  0.397675  1
  Pr  Pr7  1  0.662843  0.316848  0.604242  1
  Pr  Pr8  1  0.337157  0.683152  0.604242  1
  Pr  Pr9  1  0.667734  0.676403  0.101275  1
  Pr  Pr10  1  0.682828  0.340630  0.895898  1
  Pr  Pr11  1  0.840630  0.817172  0.895898  1
  Pr  Pr12  1  0.322937  0.332193  0.397675  1
  Pr  Pr13  1  0.183152  0.162843  0.604242  1
  Pr  Pr14  1  0.823597  0.167734  0.101275  1
  Pr  Pr15  1  0.317172  0.659370  0.895898  1
  Pr  Pr16  1  0.332266  0.323597  0.101275  1
  Pr  Pr17  1  0.159370  0.182828  0.895898  1
  Pr  Pr18  1  0.500000  0.000000  0.787414  1
  Er  Er19  1  0.000000  0.500000  0.721792  1
  Ga  Ga20  1  0.617841  0.382737  0.249544  1
  Ga  Ga21  1  0.117643  0.877304  0.749032  1
  Ga  Ga22  1  0.377304  0.382357  0.749032  1
  Ga  Ga23  1  0.382159  0.617263  0.249544  1
  Ga  Ga24  1  0.882737  0.882159  0.249544  1
  Ga  Ga25  1  0.622696  0.617643  0.749032  1
  Ga  Ga26  1  0.000000  0.500000  0.506763  1
  Ga  Ga27  1  0.882357  0.122696  0.749032  1
  Ga  Ga28  1  0.500000  0.000000  0.490389  1
  Ga  Ga29  1  0.500000  0.000000  0.999912  1
  Ga  Ga30  1  0.117263  0.117841  0.249544  1
  Ga  Ga31  1  0.000000  0.500000  0.005610  1
