# generated using pymatgen
data_La5HoZn4Pd12Rh
_symmetry_space_group_name_H-M   'P 1'
_cell_length_a   8.40820125
_cell_length_b   8.40820196
_cell_length_c   8.40820263
_cell_angle_alpha   109.65181740
_cell_angle_beta   109.65182519
_cell_angle_gamma   109.11062505
_symmetry_Int_Tables_number   1
_chemical_formula_structural   La5HoZn4Pd12Rh
_chemical_formula_sum   'La5 Ho1 Zn4 Pd12 Rh1'
_cell_volume   457.58796327
_cell_formula_units_Z   1
loop_
 _symmetry_equiv_pos_site_id
 _symmetry_equiv_pos_as_xyz
  1  'x, y, z'
loop_
 _atom_site_type_symbol
 _atom_site_label
 _atom_site_symmetry_multiplicity
 _atom_site_fract_x
 _atom_site_fract_y
 _atom_site_fract_z
 _atom_site_occupancy
  La  La0  1  0.295699  0.998596  0.297103  1
  La  La1  1  0.998596  0.295699  0.297103  1
  La  La2  1  0.301026  0.301026  0.000000  1
  La  La3  1  0.701492  0.998596  0.702897  1
  La  La4  1  0.998596  0.701492  0.702897  1
  Ho  Ho5  1  0.696574  0.696574  0.000000  1
  Zn  Zn6  1  0.999170  0.999170  0.496677  1
  Zn  Zn7  1  0.999170  0.502493  0.000000  1
  Zn  Zn8  1  0.502493  0.999170  0.000000  1
  Zn  Zn9  1  0.502493  0.502493  0.503323  1
  Pd  Pd10  1  0.337353  0.337353  0.671259  1
  Pd  Pd11  1  0.668871  0.997836  0.328966  1
  Pd  Pd12  1  0.997836  0.668871  0.328966  1
  Pd  Pd13  1  0.666095  0.337353  0.000000  1
  Pd  Pd14  1  0.332190  0.664770  0.332579  1
  Pd  Pd15  1  0.999611  0.332190  0.667421  1
  Pd  Pd16  1  0.337353  0.666095  0.000000  1
  Pd  Pd17  1  0.332190  0.999611  0.667421  1
  Pd  Pd18  1  0.664770  0.332190  0.332579  1
  Pd  Pd19  1  0.666095  0.666095  0.328741  1
  Pd  Pd20  1  0.668871  0.339904  0.671034  1
  Pd  Pd21  1  0.339904  0.668871  0.671034  1
  Rh  Rh22  1  0.993553  0.993553  0.000000  1
