# generated using pymatgen
data_Y8Sb(Pd5Pt)4
_symmetry_space_group_name_H-M   'P 1'
_cell_length_a   8.41851802
_cell_length_b   8.41851802
_cell_length_c   8.42813700
_cell_angle_alpha   90.00000000
_cell_angle_beta   90.00000000
_cell_angle_gamma   89.99230931
_symmetry_Int_Tables_number   1
_chemical_formula_structural   Y8Sb(Pd5Pt)4
_chemical_formula_sum   'Y8 Sb1 Pd20 Pt4'
_cell_volume   597.31424782
_cell_formula_units_Z   1
loop_
 _symmetry_equiv_pos_site_id
 _symmetry_equiv_pos_as_xyz
  1  'x, y, z'
loop_
 _atom_site_type_symbol
 _atom_site_label
 _atom_site_symmetry_multiplicity
 _atom_site_fract_x
 _atom_site_fract_y
 _atom_site_fract_z
 _atom_site_occupancy
  Y  Y0  1  0.746248  0.746248  0.253449  1
  Y  Y1  1  0.746001  0.253736  0.746239  1
  Y  Y2  1  0.253736  0.746001  0.746239  1
  Y  Y3  1  0.746248  0.746248  0.746551  1
  Y  Y4  1  0.746001  0.253736  0.253761  1
  Y  Y5  1  0.253949  0.253949  0.746034  1
  Y  Y6  1  0.253736  0.746001  0.253761  1
  Y  Y7  1  0.253949  0.253949  0.253966  1
  Sb  Sb8  1  0.000113  0.000113  0.000000  1
  Pd  Pd9  1  0.999930  0.999930  0.306593  1
  Pd  Pd10  1  0.735144  0.000086  0.500000  1
  Pd  Pd11  1  0.735086  0.500063  0.000000  1
  Pd  Pd12  1  0.500058  0.000086  0.735021  1
  Pd  Pd13  1  0.000086  0.735144  0.500000  1
  Pd  Pd14  1  0.500058  0.000086  0.264979  1
  Pd  Pd15  1  0.000048  0.264807  0.500000  1
  Pd  Pd16  1  0.500063  0.735086  0.000000  1
  Pd  Pd17  1  0.500058  0.745474  0.500000  1
  Pd  Pd18  1  0.745474  0.500058  0.500000  1
  Pd  Pd19  1  0.306582  0.999941  0.000000  1
  Pd  Pd20  1  0.999930  0.999930  0.693407  1
  Pd  Pd21  1  0.000086  0.500058  0.264979  1
  Pd  Pd22  1  0.999941  0.306582  0.000000  1
  Pd  Pd23  1  0.999926  0.693525  0.000000  1
  Pd  Pd24  1  0.693525  0.999926  0.000000  1
  Pd  Pd25  1  0.264825  0.500070  0.000000  1
  Pd  Pd26  1  0.264807  0.000048  0.500000  1
  Pd  Pd27  1  0.000086  0.500058  0.735021  1
  Pd  Pd28  1  0.500070  0.264825  0.000000  1
  Pt  Pt29  1  0.254138  0.500069  0.500000  1
  Pt  Pt30  1  0.500015  0.500015  0.745617  1
  Pt  Pt31  1  0.500015  0.500015  0.254383  1
  Pt  Pt32  1  0.500069  0.254138  0.500000  1
