# generated using pymatgen
data_Nd16Er4Si15Tc
_symmetry_space_group_name_H-M   'P 1'
_cell_length_a   7.89183579
_cell_length_b   7.84859171
_cell_length_c   15.09804200
_cell_angle_alpha   90.17814548
_cell_angle_beta   89.93688765
_cell_angle_gamma   90.02562259
_symmetry_Int_Tables_number   1
_chemical_formula_structural   Nd16Er4Si15Tc
_chemical_formula_sum   'Nd16 Er4 Si15 Tc1'
_cell_volume   935.16447599
_cell_formula_units_Z   1
loop_
 _symmetry_equiv_pos_site_id
 _symmetry_equiv_pos_as_xyz
  1  'x, y, z'
loop_
 _atom_site_type_symbol
 _atom_site_label
 _atom_site_symmetry_multiplicity
 _atom_site_fract_x
 _atom_site_fract_y
 _atom_site_fract_z
 _atom_site_occupancy
  Nd  Nd0  1  0.370907  0.012476  0.451983  1
  Nd  Nd1  1  0.485189  0.880378  0.697683  1
  Nd  Nd2  1  0.511413  0.124303  0.199299  1
  Nd  Nd3  1  0.875814  0.487977  0.301316  1
  Nd  Nd4  1  0.128186  0.500809  0.797107  1
  Nd  Nd5  1  0.626016  0.987944  0.948756  1
  Nd  Nd6  1  0.007855  0.377245  0.551615  1
  Nd  Nd7  1  0.988691  0.625696  0.050966  1
  Nd  Nd8  1  0.132108  0.983613  0.871268  1
  Nd  Nd9  1  0.519061  0.629927  0.127052  1
  Nd  Nd10  1  0.470965  0.360722  0.630176  1
  Nd  Nd11  1  0.628722  0.517653  0.873968  1
  Nd  Nd12  1  0.374457  0.481359  0.373324  1
  Nd  Nd13  1  0.873534  0.021984  0.377413  1
  Nd  Nd14  1  0.980549  0.127725  0.123477  1
  Nd  Nd15  1  0.026717  0.881606  0.626859  1
  Er  Er16  1  0.309672  0.308174  0.998383  1
  Er  Er17  1  0.188786  0.810130  0.250936  1
  Er  Er18  1  0.822245  0.190142  0.747812  1
  Er  Er19  1  0.692344  0.689910  0.502497  1
  Si  Si20  1  0.330452  0.689657  0.953111  1
  Si  Si21  1  0.666156  0.306368  0.453957  1
  Si  Si22  1  0.692755  0.331254  0.048104  1
  Si  Si23  1  0.308113  0.669673  0.545421  1
  Si  Si24  1  0.810641  0.829918  0.205247  1
  Si  Si25  1  0.170522  0.191783  0.295864  1
  Si  Si26  1  0.828883  0.806884  0.797374  1
  Si  Si27  1  0.287577  0.923303  0.061873  1
  Si  Si28  1  0.578278  0.786289  0.313980  1
  Si  Si29  1  0.424019  0.211527  0.815542  1
  Si  Si30  1  0.776833  0.582489  0.687406  1
  Si  Si31  1  0.212319  0.424642  0.186668  1
  Si  Si32  1  0.707269  0.072201  0.561410  1
  Si  Si33  1  0.922810  0.286177  0.937920  1
  Si  Si34  1  0.078250  0.716532  0.437242  1
  Tc  Tc35  1  0.191887  0.171525  0.696990  1
