# generated using pymatgen
data_CrOsRu6
_symmetry_space_group_name_H-M   'P 1'
_cell_length_a   5.43989900
_cell_length_b   5.43989849
_cell_length_c   4.29878700
_cell_angle_alpha   90.00000000
_cell_angle_beta   90.00000000
_cell_angle_gamma   119.99998489
_symmetry_Int_Tables_number   1
_chemical_formula_structural   CrOsRu6
_chemical_formula_sum   'Cr1 Os1 Ru6'
_cell_volume   110.16870805
_cell_formula_units_Z   1
loop_
 _symmetry_equiv_pos_site_id
 _symmetry_equiv_pos_as_xyz
  1  'x, y, z'
loop_
 _atom_site_type_symbol
 _atom_site_label
 _atom_site_symmetry_multiplicity
 _atom_site_fract_x
 _atom_site_fract_y
 _atom_site_fract_z
 _atom_site_occupancy
  Cr  Cr0  1  0.666667  0.333332  0.250000  1
  Os  Os1  1  0.333333  0.666667  0.750000  1
  Ru  Ru2  1  0.168301  0.336602  0.250000  1
  Ru  Ru3  1  0.663398  0.831701  0.250000  1
  Ru  Ru4  1  0.168302  0.831701  0.250000  1
  Ru  Ru5  1  0.831188  0.662374  0.750000  1
  Ru  Ru6  1  0.337626  0.168812  0.750000  1
  Ru  Ru7  1  0.831188  0.168812  0.750000  1
