# generated using pymatgen
data_YbIr3RhPb3O14
_symmetry_space_group_name_H-M   'P 1'
_cell_length_a   7.31689937
_cell_length_b   7.29111009
_cell_length_c   7.29111100
_cell_angle_alpha   60.00000042
_cell_angle_beta   60.11652551
_cell_angle_gamma   60.11652137
_symmetry_Int_Tables_number   1
_chemical_formula_structural   YbIr3RhPb3O14
_chemical_formula_sum   'Yb1 Ir3 Rh1 Pb3 O14'
_cell_volume   275.52569849
_cell_formula_units_Z   1
loop_
 _symmetry_equiv_pos_site_id
 _symmetry_equiv_pos_as_xyz
  1  'x, y, z'
loop_
 _atom_site_type_symbol
 _atom_site_label
 _atom_site_symmetry_multiplicity
 _atom_site_fract_x
 _atom_site_fract_y
 _atom_site_fract_z
 _atom_site_occupancy
  Yb  Yb0  1  0.625000  0.125000  0.125000  1
  Ir  Ir1  1  0.625000  0.125000  0.625000  1
  Ir  Ir2  1  0.625000  0.625000  0.125000  1
  Ir  Ir3  1  0.625000  0.625000  0.625000  1
  Rh  Rh4  1  0.125000  0.625000  0.625000  1
  Pb  Pb5  1  0.125000  0.625000  0.125000  1
  Pb  Pb6  1  0.125000  0.125000  0.625000  1
  Pb  Pb7  1  0.125000  0.125000  0.125000  1
  O  O8  1  0.707643  0.698403  0.296977  1
  O  O9  1  0.295940  0.292427  0.705817  1
  O  O10  1  0.707643  0.296977  0.698403  1
  O  O11  1  0.295940  0.705817  0.292427  1
  O  O12  1  0.295940  0.705817  0.705817  1
  O  O13  1  0.707643  0.296977  0.296977  1
  O  O14  1  0.542357  0.551597  0.953023  1
  O  O15  1  0.954060  0.957573  0.544183  1
  O  O16  1  0.542357  0.953023  0.551597  1
  O  O17  1  0.954060  0.544183  0.957573  1
  O  O18  1  0.954060  0.544183  0.544183  1
  O  O19  1  0.542357  0.953023  0.953023  1
  O  O20  1  0.255677  0.248107  0.248107  1
  O  O21  1  0.994323  0.001893  0.001893  1
