# generated using pymatgen
data_Y2Co3Ni(PRu)6
_symmetry_space_group_name_H-M   'P 1'
_cell_length_a   3.79593700
_cell_length_b   10.65670239
_cell_length_c   12.11288118
_cell_angle_alpha   90.22415967
_cell_angle_beta   90.00000000
_cell_angle_gamma   90.00000000
_symmetry_Int_Tables_number   1
_chemical_formula_structural   Y2Co3Ni(PRu)6
_chemical_formula_sum   'Y4 Co6 Ni2 P12 Ru12'
_cell_volume   489.98858939
_cell_formula_units_Z   2
loop_
 _symmetry_equiv_pos_site_id
 _symmetry_equiv_pos_as_xyz
  1  'x, y, z'
loop_
 _atom_site_type_symbol
 _atom_site_label
 _atom_site_symmetry_multiplicity
 _atom_site_fract_x
 _atom_site_fract_y
 _atom_site_fract_z
 _atom_site_occupancy
  Y  Y0  1  0.250000  0.916361  0.206870  1
  Y  Y1  1  0.750000  0.083639  0.793130  1
  Y  Y2  1  0.750000  0.413478  0.293132  1
  Y  Y3  1  0.250000  0.586522  0.706868  1
  Co  Co4  1  0.750000  0.112224  0.304254  1
  Co  Co5  1  0.250000  0.887776  0.695746  1
  Co  Co6  1  0.250000  0.036891  0.434729  1
  Co  Co7  1  0.750000  0.963109  0.565271  1
  Co  Co8  1  0.750000  0.538279  0.068131  1
  Co  Co9  1  0.250000  0.461721  0.931869  1
  Ni  Ni10  1  0.250000  0.612143  0.197717  1
  Ni  Ni11  1  0.750000  0.387857  0.802283  1
  P  P12  1  0.250000  0.073931  0.612570  1
  P  P13  1  0.750000  0.926069  0.387430  1
  P  P14  1  0.750000  0.576968  0.890638  1
  P  P15  1  0.250000  0.423032  0.109362  1
  P  P16  1  0.250000  0.226959  0.371920  1
  P  P17  1  0.750000  0.773041  0.628080  1
  P  P18  1  0.750000  0.731605  0.126124  1
  P  P19  1  0.250000  0.268395  0.873876  1
  P  P20  1  0.250000  0.898420  0.886482  1
  P  P21  1  0.750000  0.101580  0.113518  1
  P  P22  1  0.750000  0.398229  0.609717  1
  P  P23  1  0.250000  0.601771  0.390283  1
  Ru  Ru24  1  0.250000  0.793209  0.487032  1
  Ru  Ru25  1  0.750000  0.206791  0.512968  1
  Ru  Ru26  1  0.750000  0.292983  0.013724  1
  Ru  Ru27  1  0.250000  0.707017  0.986276  1
  Ru  Ru28  1  0.250000  0.093639  0.986635  1
  Ru  Ru29  1  0.750000  0.906361  0.013365  1
  Ru  Ru30  1  0.750000  0.594951  0.514048  1
  Ru  Ru31  1  0.250000  0.405049  0.485952  1
  Ru  Ru32  1  0.250000  0.276548  0.681296  1
  Ru  Ru33  1  0.750000  0.723452  0.318704  1
  Ru  Ru34  1  0.750000  0.776282  0.818993  1
  Ru  Ru35  1  0.250000  0.223718  0.181007  1
