# generated using pymatgen
data_BaNaPd4
_symmetry_space_group_name_H-M   'P 1'
_cell_length_a   5.60059118
_cell_length_b   5.60059163
_cell_length_c   5.60059200
_cell_angle_alpha   59.99999784
_cell_angle_beta   59.99999515
_cell_angle_gamma   60.00000286
_symmetry_Int_Tables_number   1
_chemical_formula_structural   BaNaPd4
_chemical_formula_sum   'Ba1 Na1 Pd4'
_cell_volume   124.21862098
_cell_formula_units_Z   1
loop_
 _symmetry_equiv_pos_site_id
 _symmetry_equiv_pos_as_xyz
  1  'x, y, z'
loop_
 _atom_site_type_symbol
 _atom_site_label
 _atom_site_symmetry_multiplicity
 _atom_site_fract_x
 _atom_site_fract_y
 _atom_site_fract_z
 _atom_site_occupancy
  Ba  Ba0  1  0.750000  0.750000  0.750000  1
  Na  Na1  1  0.500000  0.500000  0.500000  1
  Pd  Pd2  1  0.125358  0.125358  0.125358  1
  Pd  Pd3  1  0.623925  0.125358  0.125358  1
  Pd  Pd4  1  0.125358  0.623925  0.125358  1
  Pd  Pd5  1  0.125358  0.125358  0.623925  1
