# generated using pymatgen
data_Be11Si(NiRh)6
_symmetry_space_group_name_H-M   'P 1'
_cell_length_a   3.85207701
_cell_length_b   5.43853901
_cell_length_c   11.54713401
_cell_angle_alpha   89.99510243
_cell_angle_beta   90.00000976
_cell_angle_gamma   89.99321888
_symmetry_Int_Tables_number   1
_chemical_formula_structural   Be11Si(NiRh)6
_chemical_formula_sum   'Be11 Si1 Ni6 Rh6'
_cell_volume   241.90865696
_cell_formula_units_Z   1
loop_
 _symmetry_equiv_pos_site_id
 _symmetry_equiv_pos_as_xyz
  1  'x, y, z'
loop_
 _atom_site_type_symbol
 _atom_site_label
 _atom_site_symmetry_multiplicity
 _atom_site_fract_x
 _atom_site_fract_y
 _atom_site_fract_z
 _atom_site_occupancy
  Be  Be0  1  0.500480  0.745117  0.999827  1
  Be  Be1  1  0.000244  0.250662  0.172570  1
  Be  Be2  1  0.000247  0.751505  0.170535  1
  Be  Be3  1  0.500110  0.249336  0.335295  1
  Be  Be4  1  0.500121  0.753391  0.337651  1
  Be  Be5  1  0.998922  0.250717  0.500002  1
  Be  Be6  1  0.998872  0.748287  0.500023  1
  Be  Be7  1  0.499158  0.248178  0.664720  1
  Be  Be8  1  0.499220  0.752171  0.662314  1
  Be  Be9  1  0.000735  0.248961  0.827414  1
  Be  Be10  1  0.000744  0.749823  0.829616  1
  Si  Si11  1  0.500445  0.251208  0.000038  1
  Ni  Ni12  1  0.000747  0.502584  0.000008  1
  Ni  Ni13  1  0.500453  0.999596  0.168071  1
  Ni  Ni14  1  0.999933  0.501375  0.334093  1
  Ni  Ni15  1  0.499611  0.000708  0.500033  1
  Ni  Ni16  1  0.999691  0.499645  0.665979  1
  Ni  Ni17  1  0.500526  0.997676  0.831925  1
  Rh  Rh18  1  0.000447  0.993903  0.999997  1
  Rh  Rh19  1  0.500331  0.504297  0.168891  1
  Rh  Rh20  1  0.999898  0.000388  0.334449  1
  Rh  Rh21  1  0.499221  0.499178  0.499978  1
  Rh  Rh22  1  0.999486  0.999093  0.665559  1
  Rh  Rh23  1  0.500362  0.502204  0.831015  1
