# generated using pymatgen
data_GdEr2WO7
_symmetry_space_group_name_H-M   'P 1'
_cell_length_a   6.39663260
_cell_length_b   6.47222173
_cell_length_c   7.57366057
_cell_angle_alpha   106.76049448
_cell_angle_beta   89.54469566
_cell_angle_gamma   98.16117951
_symmetry_Int_Tables_number   1
_chemical_formula_structural   GdEr2WO7
_chemical_formula_sum   'Gd2 Er4 W2 O14'
_cell_volume   297.01194919
_cell_formula_units_Z   2
loop_
 _symmetry_equiv_pos_site_id
 _symmetry_equiv_pos_as_xyz
  1  'x, y, z'
loop_
 _atom_site_type_symbol
 _atom_site_label
 _atom_site_symmetry_multiplicity
 _atom_site_fract_x
 _atom_site_fract_y
 _atom_site_fract_z
 _atom_site_occupancy
  Gd  Gd0  1  0.258758  0.528160  0.387618  1
  Gd  Gd1  1  0.267053  0.536244  0.881592  1
  Er  Er2  1  0.734067  0.461809  0.116388  1
  Er  Er3  1  0.733763  0.459138  0.603440  1
  Er  Er4  1  0.544357  0.993388  0.751421  1
  Er  Er5  1  0.458323  0.004778  0.247104  1
  W  W6  1  0.998808  0.000447  0.001320  1
  W  W7  1  0.998610  0.998978  0.499840  1
  O  O8  1  0.710695  0.066432  0.481508  1
  O  O9  1  0.922785  0.686351  0.963727  1
  O  O10  1  0.703237  0.075703  0.048319  1
  O  O11  1  0.921832  0.664190  0.391855  1
  O  O12  1  0.895904  0.938303  0.735456  1
  O  O13  1  0.565229  0.348832  0.831854  1
  O  O14  1  0.546130  0.356991  0.340893  1
  O  O15  1  0.463547  0.639716  0.655358  1
  O  O16  1  0.450388  0.651209  0.166125  1
  O  O17  1  0.107008  0.064101  0.266945  1
  O  O18  1  0.065575  0.338538  0.607460  1
  O  O19  1  0.295359  0.929030  0.950524  1
  O  O20  1  0.072274  0.320924  0.050721  1
  O  O21  1  0.286299  0.936735  0.520531  1
