# generated using pymatgen
data_TbY14Th(CdPt)4
_symmetry_space_group_name_H-M   'P 1'
_cell_length_a   9.74844283
_cell_length_b   9.74844343
_cell_length_c   9.75451106
_cell_angle_alpha   60.07829457
_cell_angle_beta   60.07829676
_cell_angle_gamma   60.06997852
_symmetry_Int_Tables_number   1
_chemical_formula_structural   TbY14Th(CdPt)4
_chemical_formula_sum   'Tb1 Y14 Th1 Cd4 Pt4'
_cell_volume   656.60423558
_cell_formula_units_Z   1
loop_
 _symmetry_equiv_pos_site_id
 _symmetry_equiv_pos_as_xyz
  1  'x, y, z'
loop_
 _atom_site_type_symbol
 _atom_site_label
 _atom_site_symmetry_multiplicity
 _atom_site_fract_x
 _atom_site_fract_y
 _atom_site_fract_z
 _atom_site_occupancy
  Tb  Tb0  1  0.353773  0.353773  0.939116  1
  Y  Y1  1  0.354387  0.938145  0.354271  1
  Y  Y2  1  0.938145  0.354387  0.354271  1
  Y  Y3  1  0.812305  0.189523  0.189373  1
  Y  Y4  1  0.190534  0.810811  0.810798  1
  Y  Y5  1  0.189523  0.812305  0.189373  1
  Y  Y6  1  0.810811  0.190534  0.810798  1
  Y  Y7  1  0.189457  0.189457  0.812530  1
  Y  Y8  1  0.810837  0.810837  0.190300  1
  Y  Y9  1  0.936958  0.565640  0.566126  1
  Y  Y10  1  0.563318  0.937156  0.936798  1
  Y  Y11  1  0.565640  0.936958  0.566126  1
  Y  Y12  1  0.937156  0.563318  0.936798  1
  Y  Y13  1  0.565326  0.565326  0.936937  1
  Y  Y14  1  0.936709  0.936709  0.563753  1
  Th  Th15  1  0.348660  0.348660  0.348828  1
  Cd  Cd16  1  0.582008  0.582008  0.581239  1
  Cd  Cd17  1  0.582609  0.582609  0.252342  1
  Cd  Cd18  1  0.582620  0.252452  0.582247  1
  Cd  Cd19  1  0.252452  0.582620  0.582247  1
  Pt  Pt20  1  0.144223  0.144223  0.143972  1
  Pt  Pt21  1  0.141176  0.141176  0.569855  1
  Pt  Pt22  1  0.141650  0.569722  0.140951  1
  Pt  Pt23  1  0.569722  0.141650  0.140951  1
