# generated using pymatgen
data_ErHf3(Ta3Ge4)2
_symmetry_space_group_name_H-M   'P 1'
_cell_length_a   6.86716100
_cell_length_b   6.98816336
_cell_length_c   13.31845785
_cell_angle_alpha   90.18760151
_cell_angle_beta   90.00000000
_cell_angle_gamma   90.00000000
_symmetry_Int_Tables_number   1
_chemical_formula_structural   ErHf3(Ta3Ge4)2
_chemical_formula_sum   'Er2 Hf6 Ta12 Ge16'
_cell_volume   639.13395559
_cell_formula_units_Z   2
loop_
 _symmetry_equiv_pos_site_id
 _symmetry_equiv_pos_as_xyz
  1  'x, y, z'
loop_
 _atom_site_type_symbol
 _atom_site_label
 _atom_site_symmetry_multiplicity
 _atom_site_fract_x
 _atom_site_fract_y
 _atom_site_fract_z
 _atom_site_occupancy
  Er  Er0  1  0.491372  0.674474  0.589699  1
  Er  Er1  1  0.991372  0.825526  0.910301  1
  Hf  Hf2  1  0.513579  0.323960  0.090647  1
  Hf  Hf3  1  0.013579  0.176040  0.409353  1
  Hf  Hf4  1  0.514675  0.322034  0.408877  1
  Hf  Hf5  1  0.014675  0.177966  0.091123  1
  Hf  Hf6  1  0.487479  0.674459  0.909132  1
  Hf  Hf7  1  0.987479  0.825541  0.590868  1
  Ta  Ta8  1  0.658622  0.165880  0.624400  1
  Ta  Ta9  1  0.158622  0.334120  0.875600  1
  Ta  Ta10  1  0.338941  0.837094  0.124603  1
  Ta  Ta11  1  0.838941  0.662906  0.375397  1
  Ta  Ta12  1  0.337158  0.838840  0.373805  1
  Ta  Ta13  1  0.837158  0.661160  0.126195  1
  Ta  Ta14  1  0.657135  0.167147  0.875837  1
  Ta  Ta15  1  0.157135  0.332853  0.624163  1
  Ta  Ta16  1  0.836146  0.489262  0.749488  1
  Ta  Ta17  1  0.336146  0.010738  0.750512  1
  Ta  Ta18  1  0.162983  0.508529  0.249884  1
  Ta  Ta19  1  0.662983  0.991471  0.250116  1
  Ge  Ge20  1  0.686136  0.963400  0.457821  1
  Ge  Ge21  1  0.186136  0.536600  0.042179  1
  Ge  Ge22  1  0.321545  0.042225  0.960688  1
  Ge  Ge23  1  0.821545  0.457775  0.539312  1
  Ge  Ge24  1  0.313841  0.040301  0.539567  1
  Ge  Ge25  1  0.813841  0.459699  0.960433  1
  Ge  Ge26  1  0.682085  0.961632  0.042499  1
  Ge  Ge27  1  0.182085  0.538368  0.457501  1
  Ge  Ge28  1  0.460664  0.387166  0.750341  1
  Ge  Ge29  1  0.960664  0.112834  0.749659  1
  Ge  Ge30  1  0.536357  0.611313  0.250573  1
  Ge  Ge31  1  0.036357  0.888687  0.249427  1
  Ge  Ge32  1  0.692872  0.849062  0.751305  1
  Ge  Ge33  1  0.192872  0.650938  0.748695  1
  Ge  Ge34  1  0.308409  0.154083  0.249555  1
  Ge  Ge35  1  0.808409  0.345917  0.250445  1
