# generated using pymatgen
data_TcIr3Ru3W
_symmetry_space_group_name_H-M   'P 1'
_cell_length_a   5.51765711
_cell_length_b   5.50803623
_cell_length_c   4.38898700
_cell_angle_alpha   90.00000000
_cell_angle_beta   90.00000000
_cell_angle_gamma   120.19772673
_symmetry_Int_Tables_number   1
_chemical_formula_structural   TcIr3Ru3W
_chemical_formula_sum   'Tc1 Ir3 Ru3 W1'
_cell_volume   115.28629180
_cell_formula_units_Z   1
loop_
 _symmetry_equiv_pos_site_id
 _symmetry_equiv_pos_as_xyz
  1  'x, y, z'
loop_
 _atom_site_type_symbol
 _atom_site_label
 _atom_site_symmetry_multiplicity
 _atom_site_fract_x
 _atom_site_fract_y
 _atom_site_fract_z
 _atom_site_occupancy
  Tc  Tc0  1  0.665678  0.331310  0.250000  1
  Ir  Ir1  1  0.164917  0.330490  0.250000  1
  Ir  Ir2  1  0.670115  0.835974  0.250000  1
  Ir  Ir3  1  0.832648  0.663302  0.750000  1
  Ru  Ru4  1  0.166690  0.836136  0.250000  1
  Ru  Ru5  1  0.337295  0.166490  0.750000  1
  Ru  Ru6  1  0.830628  0.167763  0.750000  1
  W  W7  1  0.332031  0.668533  0.750000  1
