# generated using pymatgen
data_TbY(Ga3Ir)3
_symmetry_space_group_name_H-M   'P 1'
_cell_length_a   7.60139436
_cell_length_b   7.60153366
_cell_length_c   9.53131700
_cell_angle_alpha   90.00000000
_cell_angle_beta   90.00000000
_cell_angle_gamma   119.90031774
_symmetry_Int_Tables_number   1
_chemical_formula_structural   TbY(Ga3Ir)3
_chemical_formula_sum   'Tb2 Y2 Ga18 Ir6'
_cell_volume   477.43405157
_cell_formula_units_Z   2
loop_
 _symmetry_equiv_pos_site_id
 _symmetry_equiv_pos_as_xyz
  1  'x, y, z'
loop_
 _atom_site_type_symbol
 _atom_site_label
 _atom_site_symmetry_multiplicity
 _atom_site_fract_x
 _atom_site_fract_y
 _atom_site_fract_z
 _atom_site_occupancy
  Tb  Tb0  1  0.996966  0.667815  0.250000  1
  Tb  Tb1  1  0.003034  0.332185  0.750000  1
  Y  Y2  1  0.667821  0.996973  0.250000  1
  Y  Y3  1  0.332179  0.003027  0.750000  1
  Ga  Ga4  1  0.127147  0.127122  0.250000  1
  Ga  Ga5  1  0.872853  0.872878  0.750000  1
  Ga  Ga6  1  0.999473  0.333914  0.079773  1
  Ga  Ga7  1  0.000527  0.666086  0.920227  1
  Ga  Ga8  1  0.000527  0.666086  0.579773  1
  Ga  Ga9  1  0.333957  0.999483  0.420235  1
  Ga  Ga10  1  0.999473  0.333914  0.420227  1
  Ga  Ga11  1  0.666043  0.000517  0.579765  1
  Ga  Ga12  1  0.666043  0.000517  0.920235  1
  Ga  Ga13  1  0.333957  0.999483  0.079765  1
  Ga  Ga14  1  0.332825  0.332815  0.563333  1
  Ga  Ga15  1  0.667175  0.667185  0.436667  1
  Ga  Ga16  1  0.667175  0.667185  0.063333  1
  Ga  Ga17  1  0.332825  0.332815  0.936667  1
  Ga  Ga18  1  0.338628  0.545707  0.250000  1
  Ga  Ga19  1  0.661372  0.454293  0.750000  1
  Ga  Ga20  1  0.545723  0.338674  0.250000  1
  Ga  Ga21  1  0.454277  0.661326  0.750000  1
  Ir  Ir22  1  0.671498  0.328518  0.999997  1
  Ir  Ir23  1  0.328502  0.671482  0.000003  1
  Ir  Ir24  1  0.328502  0.671482  0.499997  1
  Ir  Ir25  1  0.671498  0.328518  0.500003  1
  Ir  Ir26  1  0.000000  0.000000  0.000000  1
  Ir  Ir27  1  0.000000  0.000000  0.500000  1
