# generated using pymatgen
data_Pr12Ga3SBr12
_symmetry_space_group_name_H-M   'P 1'
_cell_length_a   10.61615194
_cell_length_b   10.48322605
_cell_length_c   10.48322663
_cell_angle_alpha   109.21294010
_cell_angle_beta   109.72827384
_cell_angle_gamma   109.72828333
_symmetry_Int_Tables_number   1
_chemical_formula_structural   Pr12Ga3SBr12
_chemical_formula_sum   'Pr12 Ga3 S1 Br12'
_cell_volume   895.25666457
_cell_formula_units_Z   1
loop_
 _symmetry_equiv_pos_site_id
 _symmetry_equiv_pos_as_xyz
  1  'x, y, z'
loop_
 _atom_site_type_symbol
 _atom_site_label
 _atom_site_symmetry_multiplicity
 _atom_site_fract_x
 _atom_site_fract_y
 _atom_site_fract_z
 _atom_site_occupancy
  Pr  Pr0  1  0.473543  0.493242  0.231730  1
  Pr  Pr1  1  0.750000  0.241404  0.258596  1
  Pr  Pr2  1  0.750000  0.007340  0.492660  1
  Pr  Pr3  1  0.242660  0.485320  0.492660  1
  Pr  Pr4  1  0.258187  0.738487  0.231730  1
  Pr  Pr5  1  0.026457  0.268270  0.006758  1
  Pr  Pr6  1  0.008596  0.017192  0.258596  1
  Pr  Pr7  1  0.480300  0.738487  0.006758  1
  Pr  Pr8  1  0.491404  0.241404  0.482808  1
  Pr  Pr9  1  0.019700  0.493242  0.761513  1
  Pr  Pr10  1  0.257340  0.007340  0.014680  1
  Pr  Pr11  1  0.241813  0.268270  0.761513  1
  Ga  Ga12  1  0.250000  0.249963  0.250037  1
  Ga  Ga13  1  0.500037  0.000074  0.250037  1
  Ga  Ga14  1  0.999963  0.249963  0.499926  1
  S  S15  1  0.250000  0.500000  0.000000  1
  Br  Br16  1  0.250000  0.753908  0.746092  1
  Br  Br17  1  0.509450  0.505059  0.756090  1
  Br  Br18  1  0.990550  0.743910  0.994941  1
  Br  Br19  1  0.746640  0.251031  0.756090  1
  Br  Br20  1  0.996092  0.992184  0.746092  1
  Br  Br21  1  0.250000  0.995745  0.504255  1
  Br  Br22  1  0.754255  0.508511  0.504255  1
  Br  Br23  1  0.504391  0.251031  0.994941  1
  Br  Br24  1  0.753360  0.743910  0.248969  1
  Br  Br25  1  0.745745  0.995745  0.991489  1
  Br  Br26  1  0.995609  0.505059  0.248969  1
  Br  Br27  1  0.503908  0.753908  0.507816  1
