# generated using pymatgen
data_Pr2MnSi2RuC
_symmetry_space_group_name_H-M   'P 1'
_cell_length_a   5.94631759
_cell_length_b   5.94631733
_cell_length_c   7.14454258
_cell_angle_alpha   126.65183571
_cell_angle_beta   126.65182117
_cell_angle_gamma   40.43741000
_symmetry_Int_Tables_number   1
_chemical_formula_structural   Pr2MnSi2RuC
_chemical_formula_sum   'Pr2 Mn1 Si2 Ru1 C1'
_cell_volume   126.42459149
_cell_formula_units_Z   1
loop_
 _symmetry_equiv_pos_site_id
 _symmetry_equiv_pos_as_xyz
  1  'x, y, z'
loop_
 _atom_site_type_symbol
 _atom_site_label
 _atom_site_symmetry_multiplicity
 _atom_site_fract_x
 _atom_site_fract_y
 _atom_site_fract_z
 _atom_site_occupancy
  Pr  Pr0  1  0.560872  0.560872  0.298721  1
  Pr  Pr1  1  0.438326  0.438326  0.701804  1
  Mn  Mn2  1  0.198367  0.198367  0.091278  1
  Si  Si3  1  0.825092  0.825092  0.265693  1
  Si  Si4  1  0.167491  0.167491  0.731551  1
  Ru  Ru5  1  0.801036  0.801036  0.907706  1
  C  C6  1  0.008817  0.008817  0.003244  1
