# generated using pymatgen
data_Dy3Ho(UFe3)2
_symmetry_space_group_name_H-M   'P 1'
_cell_length_a   5.65991000
_cell_length_b   5.66617872
_cell_length_c   7.56928401
_cell_angle_alpha   89.99852924
_cell_angle_beta   90.00000000
_cell_angle_gamma   119.96340933
_symmetry_Int_Tables_number   1
_chemical_formula_structural   Dy3Ho(UFe3)2
_chemical_formula_sum   'Dy3 Ho1 U2 Fe6'
_cell_volume   210.30288841
_cell_formula_units_Z   1
loop_
 _symmetry_equiv_pos_site_id
 _symmetry_equiv_pos_as_xyz
  1  'x, y, z'
loop_
 _atom_site_type_symbol
 _atom_site_label
 _atom_site_symmetry_multiplicity
 _atom_site_fract_x
 _atom_site_fract_y
 _atom_site_fract_z
 _atom_site_occupancy
  Dy  Dy0  1  0.333379  0.666758  0.449397  1
  Dy  Dy1  1  0.666582  0.333163  0.550697  1
  Dy  Dy2  1  0.666583  0.333166  0.949763  1
  Ho  Ho3  1  0.333382  0.666763  0.049861  1
  U  U4  1  0.000016  0.000031  0.499871  1
  U  U5  1  0.000022  0.000042  0.000015  1
  Fe  Fe6  1  0.845105  0.155049  0.250045  1
  Fe  Fe7  1  0.844996  0.689993  0.250114  1
  Fe  Fe8  1  0.309943  0.155049  0.250045  1
  Fe  Fe9  1  0.155058  0.844894  0.750087  1
  Fe  Fe10  1  0.155099  0.310197  0.750016  1
  Fe  Fe11  1  0.689836  0.844894  0.750087  1
