# generated using pymatgen
data_Tb(NbSe2)5
_symmetry_space_group_name_H-M   'P 1'
_cell_length_a   6.09898094
_cell_length_b   8.17647461
_cell_length_c   8.95588798
_cell_angle_alpha   114.43005363
_cell_angle_beta   96.81615019
_cell_angle_gamma   104.07296558
_symmetry_Int_Tables_number   1
_chemical_formula_structural   Tb(NbSe2)5
_chemical_formula_sum   'Tb1 Nb5 Se10'
_cell_volume   382.07467869
_cell_formula_units_Z   1
loop_
 _symmetry_equiv_pos_site_id
 _symmetry_equiv_pos_as_xyz
  1  'x, y, z'
loop_
 _atom_site_type_symbol
 _atom_site_label
 _atom_site_symmetry_multiplicity
 _atom_site_fract_x
 _atom_site_fract_y
 _atom_site_fract_z
 _atom_site_occupancy
  Tb  Tb0  1  0.667738  0.509385  0.995230  1
  Nb  Nb1  1  0.002123  0.996262  0.000589  1
  Nb  Nb2  1  0.600170  0.206525  0.200678  1
  Nb  Nb3  1  0.197707  0.400092  0.398727  1
  Nb  Nb4  1  0.797743  0.598650  0.603448  1
  Nb  Nb5  1  0.401542  0.794560  0.798646  1
  Se  Se6  1  0.238835  0.061727  0.292852  1
  Se  Se7  1  0.048858  0.654876  0.895066  1
  Se  Se8  1  0.834206  0.258532  0.489998  1
  Se  Se9  1  0.636055  0.870389  0.103906  1
  Se  Se10  1  0.424075  0.443819  0.683398  1
  Se  Se11  1  0.901450  0.551166  0.313944  1
  Se  Se12  1  0.698381  0.134782  0.902195  1
  Se  Se13  1  0.497408  0.739492  0.509149  1
  Se  Se14  1  0.288249  0.341121  0.104173  1
  Se  Se15  1  0.098262  0.936221  0.709604  1
