# generated using pymatgen
data_Tb2Ti3Ge3P4Rh9
_symmetry_space_group_name_H-M   'P 1'
_cell_length_a   3.85483300
_cell_length_b   9.85928016
_cell_length_c   9.85906454
_cell_angle_alpha   119.97389516
_cell_angle_beta   90.00021217
_cell_angle_gamma   89.99754735
_symmetry_Int_Tables_number   1
_chemical_formula_structural   Tb2Ti3Ge3P4Rh9
_chemical_formula_sum   'Tb2 Ti3 Ge3 P4 Rh9'
_cell_volume   324.58713139
_cell_formula_units_Z   1
loop_
 _symmetry_equiv_pos_site_id
 _symmetry_equiv_pos_as_xyz
  1  'x, y, z'
loop_
 _atom_site_type_symbol
 _atom_site_label
 _atom_site_symmetry_multiplicity
 _atom_site_fract_x
 _atom_site_fract_y
 _atom_site_fract_z
 _atom_site_occupancy
  Tb  Tb0  1  0.261813  0.666632  0.333299  1
  Tb  Tb1  1  0.761790  0.333338  0.666628  1
  Ti  Ti2  1  0.762018  0.104529  0.888760  1
  Ti  Ti3  1  0.762003  0.111278  0.215961  1
  Ti  Ti4  1  0.762018  0.784024  0.895421  1
  Ge  Ge5  1  0.761862  0.877540  0.586816  1
  Ge  Ge6  1  0.761883  0.413024  0.290707  1
  Ge  Ge7  1  0.761857  0.709210  0.122250  1
  P  P8  1  0.262124  0.999934  0.999956  1
  P  P9  1  0.261834  0.117051  0.418543  1
  P  P10  1  0.261864  0.581567  0.698462  1
  P  P11  1  0.261844  0.301723  0.883152  1
  Rh  Rh12  1  0.261889  0.889181  0.157540  1
  Rh  Rh13  1  0.261932  0.842487  0.731570  1
  Rh  Rh14  1  0.261918  0.268330  0.110767  1
  Rh  Rh15  1  0.761913  0.608754  0.573621  1
  Rh  Rh16  1  0.761896  0.426359  0.035095  1
  Rh  Rh17  1  0.761869  0.964690  0.391214  1
  Rh  Rh18  1  0.261925  0.362200  0.435456  1
  Rh  Rh19  1  0.261897  0.564749  0.926797  1
  Rh  Rh20  1  0.261853  0.073395  0.637985  1
