# generated using pymatgen
data_Sm3U(TcB4)4
_symmetry_space_group_name_H-M   'P 1'
_cell_length_a   3.64017700
_cell_length_b   5.99833946
_cell_length_c   11.60632888
_cell_angle_alpha   90.10432378
_cell_angle_beta   90.00000000
_cell_angle_gamma   90.00000000
_symmetry_Int_Tables_number   1
_chemical_formula_structural   Sm3U(TcB4)4
_chemical_formula_sum   'Sm3 U1 Tc4 B16'
_cell_volume   253.42397208
_cell_formula_units_Z   1
loop_
 _symmetry_equiv_pos_site_id
 _symmetry_equiv_pos_as_xyz
  1  'x, y, z'
loop_
 _atom_site_type_symbol
 _atom_site_label
 _atom_site_symmetry_multiplicity
 _atom_site_fract_x
 _atom_site_fract_y
 _atom_site_fract_z
 _atom_site_occupancy
  Sm  Sm0  1  0.000000  0.371747  0.650059  1
  Sm  Sm1  1  0.000000  0.126258  0.149814  1
  Sm  Sm2  1  0.000000  0.874269  0.849308  1
  U  U3  1  0.000000  0.627814  0.350840  1
  Tc  Tc4  1  0.000000  0.631019  0.092263  1
  Tc  Tc5  1  0.000000  0.367302  0.913624  1
  Tc  Tc6  1  0.000000  0.138465  0.406718  1
  Tc  Tc7  1  0.000000  0.860742  0.584892  1
  B  B8  1  0.500000  0.783796  0.187869  1
  B  B9  1  0.500000  0.214654  0.815977  1
  B  B10  1  0.500000  0.292734  0.315840  1
  B  B11  1  0.500000  0.715928  0.684291  1
  B  B12  1  0.500000  0.860926  0.032981  1
  B  B13  1  0.500000  0.137424  0.969159  1
  B  B14  1  0.500000  0.365787  0.466318  1
  B  B15  1  0.500000  0.636703  0.528663  1
  B  B16  1  0.500000  0.885754  0.452164  1
  B  B17  1  0.500000  0.111344  0.545168  1
  B  B18  1  0.500000  0.387956  0.046958  1
  B  B19  1  0.500000  0.611765  0.954626  1
  B  B20  1  0.500000  0.970017  0.309396  1
  B  B21  1  0.500000  0.023670  0.689557  1
  B  B22  1  0.500000  0.480554  0.194166  1
  B  B23  1  0.500000  0.523374  0.809350  1
