# generated using pymatgen
data_LaNd(Hg2Pd)2
_symmetry_space_group_name_H-M   'P 1'
_cell_length_a   5.58984973
_cell_length_b   5.58984926
_cell_length_c   8.39419100
_cell_angle_alpha   90.00000000
_cell_angle_beta   90.00000000
_cell_angle_gamma   134.10139420
_symmetry_Int_Tables_number   1
_chemical_formula_structural   LaNd(Hg2Pd)2
_chemical_formula_sum   'La1 Nd1 Hg4 Pd2'
_cell_volume   188.35175265
_cell_formula_units_Z   1
loop_
 _symmetry_equiv_pos_site_id
 _symmetry_equiv_pos_as_xyz
  1  'x, y, z'
loop_
 _atom_site_type_symbol
 _atom_site_label
 _atom_site_symmetry_multiplicity
 _atom_site_fract_x
 _atom_site_fract_y
 _atom_site_fract_z
 _atom_site_occupancy
  La  La0  1  0.931572  0.068428  0.750000  1
  Nd  Nd1  1  0.069317  0.930683  0.250000  1
  Hg  Hg2  1  0.640084  0.359916  0.548251  1
  Hg  Hg3  1  0.360000  0.640000  0.447474  1
  Hg  Hg4  1  0.640084  0.359916  0.951749  1
  Hg  Hg5  1  0.360000  0.640000  0.052526  1
  Pd  Pd6  1  0.221793  0.778207  0.750000  1
  Pd  Pd7  1  0.777151  0.222849  0.250000  1
