# generated using pymatgen
data_YbErB6Ir
_symmetry_space_group_name_H-M   'P 1'
_cell_length_a   3.63103800
_cell_length_b   9.14261100
_cell_length_c   11.51027900
_cell_angle_alpha   90.00000000
_cell_angle_beta   90.00000000
_cell_angle_gamma   90.00000000
_symmetry_Int_Tables_number   1
_chemical_formula_structural   YbErB6Ir
_chemical_formula_sum   'Yb4 Er4 B24 Ir4'
_cell_volume   382.10866523
_cell_formula_units_Z   4
loop_
 _symmetry_equiv_pos_site_id
 _symmetry_equiv_pos_as_xyz
  1  'x, y, z'
loop_
 _atom_site_type_symbol
 _atom_site_label
 _atom_site_symmetry_multiplicity
 _atom_site_fract_x
 _atom_site_fract_y
 _atom_site_fract_z
 _atom_site_occupancy
  Yb  Yb0  1  0.000000  0.322724  0.413974  1
  Yb  Yb1  1  0.000000  0.677276  0.586026  1
  Yb  Yb2  1  0.000000  0.822724  0.086026  1
  Yb  Yb3  1  0.000000  0.177276  0.913974  1
  Er  Er4  1  0.000000  0.943793  0.373407  1
  Er  Er5  1  0.000000  0.056207  0.626593  1
  Er  Er6  1  0.000000  0.443793  0.126593  1
  Er  Er7  1  0.000000  0.556207  0.873407  1
  B  B8  1  0.500000  0.553902  0.432863  1
  B  B9  1  0.500000  0.446098  0.567137  1
  B  B10  1  0.500000  0.053902  0.067137  1
  B  B11  1  0.500000  0.946098  0.932863  1
  B  B12  1  0.500000  0.748750  0.419822  1
  B  B13  1  0.500000  0.251250  0.580178  1
  B  B14  1  0.500000  0.248750  0.080178  1
  B  B15  1  0.500000  0.751250  0.919822  1
  B  B16  1  0.500000  0.790361  0.265783  1
  B  B17  1  0.500000  0.209639  0.734217  1
  B  B18  1  0.500000  0.290361  0.234217  1
  B  B19  1  0.500000  0.709639  0.765783  1
  B  B20  1  0.500000  0.631697  0.183839  1
  B  B21  1  0.500000  0.368303  0.816161  1
  B  B22  1  0.500000  0.131697  0.316161  1
  B  B23  1  0.500000  0.868303  0.683839  1
  B  B24  1  0.500000  0.983739  0.212499  1
  B  B25  1  0.500000  0.016261  0.787501  1
  B  B26  1  0.500000  0.483739  0.287501  1
  B  B27  1  0.500000  0.516261  0.712499  1
  B  B28  1  0.500000  0.606025  0.029053  1
  B  B29  1  0.500000  0.393975  0.970947  1
  B  B30  1  0.500000  0.106025  0.470947  1
  B  B31  1  0.500000  0.893975  0.529053  1
  Ir  Ir32  1  0.000000  0.637887  0.320863  1
  Ir  Ir33  1  0.000000  0.362113  0.679137  1
  Ir  Ir34  1  0.000000  0.137887  0.179137  1
  Ir  Ir35  1  0.000000  0.862113  0.820863  1
