# generated using pymatgen
data_Er8Sc12Si15S
_symmetry_space_group_name_H-M   'P 1'
_cell_length_a   7.33176990
_cell_length_b   7.31022923
_cell_length_c   13.44819400
_cell_angle_alpha   89.87735473
_cell_angle_beta   89.58222881
_cell_angle_gamma   89.93569215
_symmetry_Int_Tables_number   1
_chemical_formula_structural   Er8Sc12Si15S
_chemical_formula_sum   'Er8 Sc12 Si15 S1'
_cell_volume   720.76050585
_cell_formula_units_Z   1
loop_
 _symmetry_equiv_pos_site_id
 _symmetry_equiv_pos_as_xyz
  1  'x, y, z'
loop_
 _atom_site_type_symbol
 _atom_site_label
 _atom_site_symmetry_multiplicity
 _atom_site_fract_x
 _atom_site_fract_y
 _atom_site_fract_z
 _atom_site_occupancy
  Er  Er0  1  0.347598  0.997632  0.461652  1
  Er  Er1  1  0.501338  0.850219  0.714835  1
  Er  Er2  1  0.500231  0.152684  0.213308  1
  Er  Er3  1  0.846018  0.497876  0.286078  1
  Er  Er4  1  0.154262  0.498885  0.786193  1
  Er  Er5  1  0.659093  0.995595  0.966646  1
  Er  Er6  1  0.995181  0.348685  0.534340  1
  Er  Er7  1  0.000866  0.652761  0.036596  1
  Sc  Sc8  1  0.326114  0.325671  0.000177  1
  Sc  Sc9  1  0.174993  0.824291  0.249550  1
  Sc  Sc10  1  0.821633  0.176082  0.750350  1
  Sc  Sc11  1  0.673449  0.673255  0.500191  1
  Sc  Sc12  1  0.155877  0.006434  0.870437  1
  Sc  Sc13  1  0.501211  0.647076  0.123930  1
  Sc  Sc14  1  0.491459  0.344944  0.628733  1
  Sc  Sc15  1  0.654254  0.505805  0.877999  1
  Sc  Sc16  1  0.350263  0.499017  0.376586  1
  Sc  Sc17  1  0.850210  0.001776  0.373252  1
  Sc  Sc18  1  0.999219  0.147950  0.126351  1
  Sc  Sc19  1  0.996946  0.851301  0.623791  1
  Si  Si20  1  0.359234  0.708898  0.930449  1
  Si  Si21  1  0.637862  0.293489  0.432650  1
  Si  Si22  1  0.708714  0.360135  0.070645  1
  Si  Si23  1  0.292241  0.639405  0.571518  1
  Si  Si24  1  0.792466  0.858817  0.181793  1
  Si  Si25  1  0.139963  0.207159  0.319600  1
  Si  Si26  1  0.865002  0.797267  0.817424  1
  Si  Si27  1  0.294124  0.948759  0.062402  1
  Si  Si28  1  0.550101  0.793246  0.313198  1
  Si  Si29  1  0.470619  0.208516  0.824392  1
  Si  Si30  1  0.793954  0.548223  0.686070  1
  Si  Si31  1  0.205698  0.449082  0.186951  1
  Si  Si32  1  0.702362  0.049575  0.563337  1
  Si  Si33  1  0.953910  0.294204  0.935698  1
  Si  Si34  1  0.048457  0.705863  0.435670  1
  S  S35  1  0.185079  0.139427  0.667209  1
