# generated using pymatgen
data_Nd2V3Co9P7
_symmetry_space_group_name_H-M   'P 1'
_cell_length_a   9.12646100
_cell_length_b   9.12646119
_cell_length_c   3.68290900
_cell_angle_alpha   90.00000000
_cell_angle_beta   90.00000000
_cell_angle_gamma   120.00000295
_symmetry_Int_Tables_number   1
_chemical_formula_structural   Nd2V3Co9P7
_chemical_formula_sum   'Nd2 V3 Co9 P7'
_cell_volume   265.66015419
_cell_formula_units_Z   1
loop_
 _symmetry_equiv_pos_site_id
 _symmetry_equiv_pos_as_xyz
  1  'x, y, z'
loop_
 _atom_site_type_symbol
 _atom_site_label
 _atom_site_symmetry_multiplicity
 _atom_site_fract_x
 _atom_site_fract_y
 _atom_site_fract_z
 _atom_site_occupancy
  Nd  Nd0  1  0.666667  0.333333  0.000000  1
  Nd  Nd1  1  0.333333  0.666667  0.500000  1
  V  V2  1  0.216586  0.099922  0.000000  1
  V  V3  1  0.900078  0.116666  0.000000  1
  V  V4  1  0.883334  0.783414  0.000000  1
  Co  Co5  1  0.429249  0.058964  0.500000  1
  Co  Co6  1  0.941036  0.370286  0.500000  1
  Co  Co7  1  0.629714  0.570751  0.500000  1
  Co  Co8  1  0.155347  0.275323  0.500000  1
  Co  Co9  1  0.724677  0.880023  0.500000  1
  Co  Co10  1  0.119977  0.844653  0.500000  1
  Co  Co11  1  0.384365  0.432931  0.000000  1
  Co  Co12  1  0.567069  0.951434  0.000000  1
  Co  Co13  1  0.048566  0.615635  0.000000  1
  P  P14  1  0.110748  0.401556  0.000000  1
  P  P15  1  0.598444  0.709191  0.000000  1
  P  P16  1  0.290809  0.889252  0.000000  1
  P  P17  1  0.000000  0.000000  0.500000  1
  P  P18  1  0.407451  0.300256  0.500000  1
  P  P19  1  0.699744  0.107194  0.500000  1
  P  P20  1  0.892806  0.592549  0.500000  1
