# generated using pymatgen
data_Dy5Ho7Tc4
_symmetry_space_group_name_H-M   'P 1'
_cell_length_a   6.24494699
_cell_length_b   7.39280834
_cell_length_c   9.14454846
_cell_angle_alpha   89.98050919
_cell_angle_beta   89.95647234
_cell_angle_gamma   89.98097645
_symmetry_Int_Tables_number   1
_chemical_formula_structural   Dy5Ho7Tc4
_chemical_formula_sum   'Dy5 Ho7 Tc4'
_cell_volume   422.18256523
_cell_formula_units_Z   1
loop_
 _symmetry_equiv_pos_site_id
 _symmetry_equiv_pos_as_xyz
  1  'x, y, z'
loop_
 _atom_site_type_symbol
 _atom_site_label
 _atom_site_symmetry_multiplicity
 _atom_site_fract_x
 _atom_site_fract_y
 _atom_site_fract_z
 _atom_site_occupancy
  Dy  Dy0  1  0.161398  0.175722  0.062613  1
  Dy  Dy1  1  0.872292  0.541029  0.250154  1
  Dy  Dy2  1  0.627332  0.040504  0.250312  1
  Dy  Dy3  1  0.126984  0.459467  0.749782  1
  Dy  Dy4  1  0.373001  0.959235  0.749810  1
  Ho  Ho5  1  0.339246  0.675235  0.062645  1
  Ho  Ho6  1  0.160887  0.175413  0.437681  1
  Ho  Ho7  1  0.660482  0.324360  0.562319  1
  Ho  Ho8  1  0.839184  0.824559  0.937465  1
  Ho  Ho9  1  0.661186  0.324479  0.937568  1
  Ho  Ho10  1  0.839252  0.824567  0.562293  1
  Ho  Ho11  1  0.339041  0.675436  0.437370  1
  Tc  Tc12  1  0.042099  0.885153  0.250132  1
  Tc  Tc13  1  0.458151  0.385515  0.250390  1
  Tc  Tc14  1  0.957084  0.114672  0.749380  1
  Tc  Tc15  1  0.542381  0.614657  0.750087  1
