# generated using pymatgen
data_Ce3Co3Sb4
_symmetry_space_group_name_H-M   'P 1'
_cell_length_a   8.23040149
_cell_length_b   8.23040148
_cell_length_c   8.23040200
_cell_angle_alpha   109.47121946
_cell_angle_beta   109.47121942
_cell_angle_gamma   109.47121840
_symmetry_Int_Tables_number   1
_chemical_formula_structural   Ce3Co3Sb4
_chemical_formula_sum   'Ce6 Co6 Sb8'
_cell_volume   429.18172797
_cell_formula_units_Z   2
loop_
 _symmetry_equiv_pos_site_id
 _symmetry_equiv_pos_as_xyz
  1  'x, y, z'
loop_
 _atom_site_type_symbol
 _atom_site_label
 _atom_site_symmetry_multiplicity
 _atom_site_fract_x
 _atom_site_fract_y
 _atom_site_fract_z
 _atom_site_occupancy
  Ce  Ce0  1  0.875000  0.250000  0.125000  1
  Ce  Ce1  1  0.625000  0.750000  0.375000  1
  Ce  Ce2  1  0.250000  0.125000  0.875000  1
  Ce  Ce3  1  0.750000  0.375000  0.625000  1
  Ce  Ce4  1  0.125000  0.875000  0.250000  1
  Ce  Ce5  1  0.375000  0.625000  0.750000  1
  Co  Co6  1  0.375000  0.250000  0.625000  1
  Co  Co7  1  0.125000  0.750000  0.875000  1
  Co  Co8  1  0.250000  0.625000  0.375000  1
  Co  Co9  1  0.750000  0.875000  0.125000  1
  Co  Co10  1  0.625000  0.375000  0.250000  1
  Co  Co11  1  0.875000  0.125000  0.750000  1
  Sb  Sb12  1  0.655716  0.500000  0.000000  1
  Sb  Sb13  1  0.500000  0.000000  0.655716  1
  Sb  Sb14  1  0.000000  0.655716  0.500000  1
  Sb  Sb15  1  0.844284  0.844284  0.844284  1
  Sb  Sb16  1  0.500000  0.000000  0.155716  1
  Sb  Sb17  1  0.155716  0.500000  0.000000  1
  Sb  Sb18  1  0.000000  0.155716  0.500000  1
  Sb  Sb19  1  0.344284  0.344284  0.344284  1
