# generated using pymatgen
data_La16Cd4NiPdRu2
_symmetry_space_group_name_H-M   'P 1'
_cell_length_a   10.11231544
_cell_length_b   10.08081318
_cell_length_c   10.19445200
_cell_angle_alpha   59.62639342
_cell_angle_beta   59.73094653
_cell_angle_gamma   59.75308788
_symmetry_Int_Tables_number   1
_chemical_formula_structural   La16Cd4NiPdRu2
_chemical_formula_sum   'La16 Cd4 Ni1 Pd1 Ru2'
_cell_volume   729.89235005
_cell_formula_units_Z   1
loop_
 _symmetry_equiv_pos_site_id
 _symmetry_equiv_pos_as_xyz
  1  'x, y, z'
loop_
 _atom_site_type_symbol
 _atom_site_label
 _atom_site_symmetry_multiplicity
 _atom_site_fract_x
 _atom_site_fract_y
 _atom_site_fract_z
 _atom_site_occupancy
  La  La0  1  0.340014  0.352833  0.351756  1
  La  La1  1  0.340014  0.352833  0.955396  1
  La  La2  1  0.342094  0.959340  0.349283  1
  La  La3  1  0.962223  0.347523  0.345126  1
  La  La4  1  0.819036  0.187757  0.191955  1
  La  La5  1  0.189244  0.810577  0.809772  1
  La  La6  1  0.189244  0.810577  0.190407  1
  La  La7  1  0.819036  0.187757  0.801253  1
  La  La8  1  0.190294  0.187108  0.811299  1
  La  La9  1  0.812543  0.795542  0.195957  1
  La  La10  1  0.937122  0.557998  0.566572  1
  La  La11  1  0.557730  0.939741  0.939226  1
  La  La12  1  0.557730  0.939741  0.563303  1
  La  La13  1  0.937122  0.557998  0.938308  1
  La  La14  1  0.564313  0.562330  0.936679  1
  La  La15  1  0.939765  0.939904  0.560166  1
  Cd  Cd16  1  0.578602  0.578679  0.579576  1
  Cd  Cd17  1  0.578602  0.578679  0.263143  1
  Cd  Cd18  1  0.579554  0.261995  0.579226  1
  Cd  Cd19  1  0.260301  0.580412  0.579644  1
  Ni  Ni20  1  0.147581  0.577455  0.137482  1
  Pd  Pd21  1  0.577442  0.145697  0.138431  1
  Ru  Ru22  1  0.140196  0.143764  0.135948  1
  Ru  Ru23  1  0.140196  0.143764  0.580093  1
