# generated using pymatgen
data_Lu7ScHg4
_symmetry_space_group_name_H-M   'P 1'
_cell_length_a   4.97425900
_cell_length_b   6.87245342
_cell_length_c   8.99139993
_cell_angle_alpha   89.76995264
_cell_angle_beta   90.00000000
_cell_angle_gamma   90.00000000
_symmetry_Int_Tables_number   1
_chemical_formula_structural   Lu7ScHg4
_chemical_formula_sum   'Lu7 Sc1 Hg4'
_cell_volume   307.37179544
_cell_formula_units_Z   1
loop_
 _symmetry_equiv_pos_site_id
 _symmetry_equiv_pos_as_xyz
  1  'x, y, z'
loop_
 _atom_site_type_symbol
 _atom_site_label
 _atom_site_symmetry_multiplicity
 _atom_site_fract_x
 _atom_site_fract_y
 _atom_site_fract_z
 _atom_site_occupancy
  Lu  Lu0  1  0.250000  0.481030  0.188100  1
  Lu  Lu1  1  0.750000  0.524142  0.808291  1
  Lu  Lu2  1  0.250000  0.979293  0.304601  1
  Lu  Lu3  1  0.750000  0.019413  0.698752  1
  Lu  Lu4  1  0.750000  0.669146  0.428022  1
  Lu  Lu5  1  0.250000  0.334907  0.569961  1
  Lu  Lu6  1  0.750000  0.163717  0.070678  1
  Sc  Sc7  1  0.250000  0.834651  0.931425  1
  Hg  Hg8  1  0.250000  0.256393  0.892311  1
  Hg  Hg9  1  0.750000  0.735185  0.100958  1
  Hg  Hg10  1  0.250000  0.767921  0.613171  1
  Hg  Hg11  1  0.750000  0.234203  0.393729  1
