# generated using pymatgen
data_Dy4MgPt11
_symmetry_space_group_name_H-M   'P 1'
_cell_length_a   4.20416300
_cell_length_b   5.80919371
_cell_length_c   11.62539891
_cell_angle_alpha   87.78104586
_cell_angle_beta   90.00000000
_cell_angle_gamma   90.00000000
_symmetry_Int_Tables_number   1
_chemical_formula_structural   Dy4MgPt11
_chemical_formula_sum   'Dy4 Mg1 Pt11'
_cell_volume   283.71186335
_cell_formula_units_Z   1
loop_
 _symmetry_equiv_pos_site_id
 _symmetry_equiv_pos_as_xyz
  1  'x, y, z'
loop_
 _atom_site_type_symbol
 _atom_site_label
 _atom_site_symmetry_multiplicity
 _atom_site_fract_x
 _atom_site_fract_y
 _atom_site_fract_z
 _atom_site_occupancy
  Dy  Dy0  1  0.500000  0.756038  0.373810  1
  Dy  Dy1  1  0.500000  0.720095  0.865053  1
  Dy  Dy2  1  0.500000  0.279905  0.134947  1
  Dy  Dy3  1  0.500000  0.243962  0.626190  1
  Mg  Mg4  1  0.000000  0.000000  0.000000  1
  Pt  Pt5  1  0.000000  0.014123  0.246641  1
  Pt  Pt6  1  0.000000  0.985877  0.753359  1
  Pt  Pt7  1  0.000000  0.500000  0.000000  1
  Pt  Pt8  1  0.000000  0.500000  0.500000  1
  Pt  Pt9  1  0.000000  0.516477  0.249073  1
  Pt  Pt10  1  0.000000  0.483523  0.750927  1
  Pt  Pt11  1  0.500000  0.253324  0.377561  1
  Pt  Pt12  1  0.500000  0.224673  0.882956  1
  Pt  Pt13  1  0.500000  0.775327  0.117044  1
  Pt  Pt14  1  0.500000  0.746676  0.622439  1
  Pt  Pt15  1  0.000000  0.000000  0.500000  1
