# generated using pymatgen
data_ZrScAlFe3
_symmetry_space_group_name_H-M   'P 1'
_cell_length_a   5.04696518
_cell_length_b   5.04703442
_cell_length_c   8.09927000
_cell_angle_alpha   89.99854570
_cell_angle_beta   89.99785764
_cell_angle_gamma   60.00169398
_symmetry_Int_Tables_number   1
_chemical_formula_structural   ZrScAlFe3
_chemical_formula_sum   'Zr2 Sc2 Al2 Fe6'
_cell_volume   178.66953065
_cell_formula_units_Z   2
loop_
 _symmetry_equiv_pos_site_id
 _symmetry_equiv_pos_as_xyz
  1  'x, y, z'
loop_
 _atom_site_type_symbol
 _atom_site_label
 _atom_site_symmetry_multiplicity
 _atom_site_fract_x
 _atom_site_fract_y
 _atom_site_fract_z
 _atom_site_occupancy
  Zr  Zr0  1  0.666659  0.666667  0.069028  1
  Zr  Zr1  1  0.333341  0.333333  0.930972  1
  Sc  Sc2  1  0.333320  0.333347  0.561843  1
  Sc  Sc3  1  0.666680  0.666653  0.438157  1
  Al  Al4  1  0.000000  0.000000  0.500000  1
  Al  Al5  1  0.000000  0.000000  0.000000  1
  Fe  Fe6  1  0.826592  0.346834  0.751410  1
  Fe  Fe7  1  0.346868  0.826554  0.751406  1
  Fe  Fe8  1  0.826590  0.826548  0.751413  1
  Fe  Fe9  1  0.173408  0.653166  0.248590  1
  Fe  Fe10  1  0.653132  0.173446  0.248594  1
  Fe  Fe11  1  0.173410  0.173452  0.248587  1
