# generated using pymatgen
data_Tm8Hf5Sc7Ga16
_symmetry_space_group_name_H-M   'P 1'
_cell_length_a   7.13126506
_cell_length_b   7.51218905
_cell_length_c   14.30129916
_cell_angle_alpha   89.98861281
_cell_angle_beta   89.98713780
_cell_angle_gamma   89.99256859
_symmetry_Int_Tables_number   1
_chemical_formula_structural   Tm8Hf5Sc7Ga16
_chemical_formula_sum   'Tm8 Hf5 Sc7 Ga16'
_cell_volume   766.14073882
_cell_formula_units_Z   1
loop_
 _symmetry_equiv_pos_site_id
 _symmetry_equiv_pos_as_xyz
  1  'x, y, z'
loop_
 _atom_site_type_symbol
 _atom_site_label
 _atom_site_symmetry_multiplicity
 _atom_site_fract_x
 _atom_site_fract_y
 _atom_site_fract_z
 _atom_site_occupancy
  Tm  Tm0  1  0.009081  0.178579  0.092362  1
  Tm  Tm1  1  0.990597  0.820308  0.907783  1
  Tm  Tm2  1  0.490574  0.679179  0.907529  1
  Tm  Tm3  1  0.991078  0.823828  0.591514  1
  Tm  Tm4  1  0.508163  0.321689  0.093001  1
  Tm  Tm5  1  0.008990  0.175839  0.408636  1
  Tm  Tm6  1  0.508763  0.324350  0.408244  1
  Tm  Tm7  1  0.491383  0.676380  0.591835  1
  Hf  Hf8  1  0.328564  0.175155  0.623116  1
  Hf  Hf9  1  0.671423  0.824843  0.376926  1
  Hf  Hf10  1  0.171819  0.674862  0.377444  1
  Hf  Hf11  1  0.671747  0.828771  0.124065  1
  Hf  Hf12  1  0.828712  0.324532  0.623338  1
  Sc  Sc13  1  0.162562  0.506780  0.750805  1
  Sc  Sc14  1  0.837755  0.493383  0.249492  1
  Sc  Sc15  1  0.336983  0.006090  0.249637  1
  Sc  Sc16  1  0.662850  0.993838  0.750982  1
  Sc  Sc17  1  0.327408  0.170861  0.876218  1
  Sc  Sc18  1  0.827360  0.329547  0.876129  1
  Sc  Sc19  1  0.173143  0.671836  0.122588  1
  Ga  Ga20  1  0.029959  0.117581  0.747311  1
  Ga  Ga21  1  0.969139  0.880161  0.251145  1
  Ga  Ga22  1  0.469815  0.620045  0.251736  1
  Ga  Ga23  1  0.529947  0.382447  0.747329  1
  Ga  Ga24  1  0.284532  0.872793  0.746944  1
  Ga  Ga25  1  0.715317  0.126073  0.251552  1
  Ga  Ga26  1  0.216035  0.372340  0.252773  1
  Ga  Ga27  1  0.784483  0.627927  0.747180  1
  Ga  Ga28  1  0.163067  0.462947  0.540150  1
  Ga  Ga29  1  0.836743  0.537546  0.459978  1
  Ga  Ga30  1  0.337388  0.962722  0.459944  1
  Ga  Ga31  1  0.834979  0.537081  0.041862  1
  Ga  Ga32  1  0.663195  0.037502  0.539817  1
  Ga  Ga33  1  0.162744  0.464069  0.958638  1
  Ga  Ga34  1  0.664404  0.034572  0.959927  1
  Ga  Ga35  1  0.339298  0.963543  0.042070  1
