# generated using pymatgen
data_HoEr3Pt11Au
_symmetry_space_group_name_H-M   'P 1'
_cell_length_a   4.17406500
_cell_length_b   5.82838478
_cell_length_c   11.63839600
_cell_angle_alpha   87.86424804
_cell_angle_beta   90.00000000
_cell_angle_gamma   90.00000000
_symmetry_Int_Tables_number   1
_chemical_formula_structural   HoEr3Pt11Au
_chemical_formula_sum   'Ho1 Er3 Pt11 Au1'
_cell_volume   282.94287292
_cell_formula_units_Z   1
loop_
 _symmetry_equiv_pos_site_id
 _symmetry_equiv_pos_as_xyz
  1  'x, y, z'
loop_
 _atom_site_type_symbol
 _atom_site_label
 _atom_site_symmetry_multiplicity
 _atom_site_fract_x
 _atom_site_fract_y
 _atom_site_fract_z
 _atom_site_occupancy
  Ho  Ho0  1  0.500000  0.753327  0.374934  1
  Er  Er1  1  0.500000  0.737702  0.870940  1
  Er  Er2  1  0.500000  0.262295  0.128887  1
  Er  Er3  1  0.500000  0.246595  0.625274  1
  Pt  Pt4  1  0.000000  0.007822  0.251172  1
  Pt  Pt5  1  0.000000  0.992672  0.748564  1
  Pt  Pt6  1  0.000000  0.499946  0.999879  1
  Pt  Pt7  1  0.000000  0.499449  0.500376  1
  Pt  Pt8  1  0.000000  0.507879  0.249977  1
  Pt  Pt9  1  0.000000  0.491551  0.749715  1
  Pt  Pt10  1  0.500000  0.253341  0.376227  1
  Pt  Pt11  1  0.500000  0.243385  0.874729  1
  Pt  Pt12  1  0.500000  0.756628  0.124819  1
  Pt  Pt13  1  0.500000  0.746735  0.624237  1
  Pt  Pt14  1  0.000000  0.000525  0.500384  1
  Au  Au15  1  0.000000  0.000149  0.999885  1
