# generated using pymatgen
data_Nd4DyY3(B6Os)4
_symmetry_space_group_name_H-M   'P 1'
_cell_length_a   3.70538500
_cell_length_b   9.24950600
_cell_length_c   11.66910700
_cell_angle_alpha   90.00065728
_cell_angle_beta   90.00000000
_cell_angle_gamma   90.00000000
_symmetry_Int_Tables_number   1
_chemical_formula_structural   Nd4DyY3(B6Os)4
_chemical_formula_sum   'Nd4 Dy1 Y3 B24 Os4'
_cell_volume   399.93508003
_cell_formula_units_Z   1
loop_
 _symmetry_equiv_pos_site_id
 _symmetry_equiv_pos_as_xyz
  1  'x, y, z'
loop_
 _atom_site_type_symbol
 _atom_site_label
 _atom_site_symmetry_multiplicity
 _atom_site_fract_x
 _atom_site_fract_y
 _atom_site_fract_z
 _atom_site_occupancy
  Nd  Nd0  1  0.000000  0.322856  0.414015  1
  Nd  Nd1  1  0.000000  0.677134  0.585978  1
  Nd  Nd2  1  0.000000  0.822808  0.085959  1
  Nd  Nd3  1  0.000000  0.177184  0.914039  1
  Dy  Dy4  1  0.000000  0.555766  0.872255  1
  Y  Y5  1  0.000000  0.944339  0.372489  1
  Y  Y6  1  0.000000  0.055649  0.627521  1
  Y  Y7  1  0.000000  0.444377  0.127463  1
  B  B8  1  0.500000  0.556098  0.430502  1
  B  B9  1  0.500000  0.443888  0.569529  1
  B  B10  1  0.500000  0.056100  0.069502  1
  B  B11  1  0.500000  0.943899  0.930480  1
  B  B12  1  0.500000  0.748838  0.417652  1
  B  B13  1  0.500000  0.251180  0.582371  1
  B  B14  1  0.500000  0.248852  0.082334  1
  B  B15  1  0.500000  0.751049  0.917595  1
  B  B16  1  0.500000  0.790238  0.267124  1
  B  B17  1  0.500000  0.209780  0.732860  1
  B  B18  1  0.500000  0.290245  0.232863  1
  B  B19  1  0.500000  0.709719  0.767226  1
  B  B20  1  0.500000  0.631284  0.185720  1
  B  B21  1  0.500000  0.368829  0.814269  1
  B  B22  1  0.500000  0.131287  0.314249  1
  B  B23  1  0.500000  0.868689  0.685777  1
  B  B24  1  0.500000  0.985980  0.213855  1
  B  B25  1  0.500000  0.013978  0.786165  1
  B  B26  1  0.500000  0.485988  0.286140  1
  B  B27  1  0.500000  0.513993  0.713955  1
  B  B28  1  0.500000  0.604305  0.028595  1
  B  B29  1  0.500000  0.395734  0.971320  1
  B  B30  1  0.500000  0.104390  0.471347  1
  B  B31  1  0.500000  0.895613  0.528666  1
  Os  Os32  1  0.000000  0.638995  0.319986  1
  Os  Os33  1  0.000000  0.361096  0.680160  1
  Os  Os34  1  0.000000  0.138984  0.180049  1
  Os  Os35  1  0.000000  0.860859  0.819989  1
