# generated using pymatgen
data_Tb11YTh4(MgIr)4
_symmetry_space_group_name_H-M   'P 1'
_cell_length_a   9.83341502
_cell_length_b   9.83341477
_cell_length_c   9.84565900
_cell_angle_alpha   59.95880508
_cell_angle_beta   59.95880591
_cell_angle_gamma   59.96370233
_symmetry_Int_Tables_number   1
_chemical_formula_structural   Tb11YTh4(MgIr)4
_chemical_formula_sum   'Tb11 Y1 Th4 Mg4 Ir4'
_cell_volume   672.58734963
_cell_formula_units_Z   1
loop_
 _symmetry_equiv_pos_site_id
 _symmetry_equiv_pos_as_xyz
  1  'x, y, z'
loop_
 _atom_site_type_symbol
 _atom_site_label
 _atom_site_symmetry_multiplicity
 _atom_site_fract_x
 _atom_site_fract_y
 _atom_site_fract_z
 _atom_site_occupancy
  Tb  Tb0  1  0.062757  0.437033  0.437569  1
  Tb  Tb1  1  0.437033  0.062757  0.062641  1
  Tb  Tb2  1  0.437033  0.062757  0.437569  1
  Tb  Tb3  1  0.062757  0.437033  0.062641  1
  Tb  Tb4  1  0.437808  0.437808  0.062192  1
  Tb  Tb5  1  0.063480  0.063480  0.436520  1
  Tb  Tb6  1  0.186558  0.814533  0.814840  1
  Tb  Tb7  1  0.814533  0.186558  0.184069  1
  Tb  Tb8  1  0.814533  0.186558  0.814840  1
  Tb  Tb9  1  0.186558  0.814533  0.184069  1
  Tb  Tb10  1  0.815444  0.815444  0.184556  1
  Y  Y11  1  0.185960  0.185960  0.814040  1
  Th  Th12  1  0.597571  0.597571  0.597395  1
  Th  Th13  1  0.597571  0.597571  0.207463  1
  Th  Th14  1  0.598805  0.204936  0.598129  1
  Th  Th15  1  0.204936  0.598805  0.598129  1
  Mg  Mg16  1  0.829682  0.829682  0.830821  1
  Mg  Mg17  1  0.829682  0.829682  0.509815  1
  Mg  Mg18  1  0.829427  0.509470  0.830552  1
  Mg  Mg19  1  0.509470  0.829427  0.830552  1
  Ir  Ir20  1  0.393225  0.393225  0.394646  1
  Ir  Ir21  1  0.393225  0.393225  0.818903  1
  Ir  Ir22  1  0.393058  0.818895  0.394023  1
  Ir  Ir23  1  0.818895  0.393058  0.394023  1
