# generated using pymatgen
data_Zr4Sb4PdRu2Pt
_symmetry_space_group_name_H-M   'P 1'
_cell_length_a   7.79708083
_cell_length_b   7.79708137
_cell_length_c   6.38468700
_cell_angle_alpha   114.16890423
_cell_angle_beta   114.16890602
_cell_angle_gamma   48.33780894
_symmetry_Int_Tables_number   1
_chemical_formula_structural   Zr4Sb4PdRu2Pt
_chemical_formula_sum   'Zr4 Sb4 Pd1 Ru2 Pt1'
_cell_volume   259.14109276
_cell_formula_units_Z   1
loop_
 _symmetry_equiv_pos_site_id
 _symmetry_equiv_pos_as_xyz
  1  'x, y, z'
loop_
 _atom_site_type_symbol
 _atom_site_label
 _atom_site_symmetry_multiplicity
 _atom_site_fract_x
 _atom_site_fract_y
 _atom_site_fract_z
 _atom_site_occupancy
  Zr  Zr0  1  0.629316  0.369983  0.000117  1
  Zr  Zr1  1  0.374883  0.125817  0.255015  1
  Zr  Zr2  1  0.119983  0.879315  0.499181  1
  Zr  Zr3  1  0.875818  0.624883  0.745684  1
  Sb  Sb4  1  0.117703  0.884194  0.999375  1
  Sb  Sb5  1  0.872478  0.625625  0.257297  1
  Sb  Sb6  1  0.634194  0.367703  0.502521  1
  Sb  Sb7  1  0.375625  0.122478  0.740807  1
  Pd  Pd8  1  0.500001  0.750001  0.875001  1
  Ru  Ru9  1  0.000000  0.250000  0.375000  1
  Ru  Ru10  1  0.750000  0.000000  0.624999  1
  Pt  Pt11  1  0.250000  0.500000  0.125000  1
