# generated using pymatgen
data_Cs17Er5O16
_symmetry_space_group_name_H-M   'P 1'
_cell_length_a   21.05268786
_cell_length_b   21.05268825
_cell_length_c   7.67612931
_cell_angle_alpha   84.89029978
_cell_angle_beta   84.89030249
_cell_angle_gamma   159.18020535
_symmetry_Int_Tables_number   1
_chemical_formula_structural   Cs17Er5O16
_chemical_formula_sum   'Cs17 Er5 O16'
_cell_volume   1052.13516003
_cell_formula_units_Z   1
loop_
 _symmetry_equiv_pos_site_id
 _symmetry_equiv_pos_as_xyz
  1  'x, y, z'
loop_
 _atom_site_type_symbol
 _atom_site_label
 _atom_site_symmetry_multiplicity
 _atom_site_fract_x
 _atom_site_fract_y
 _atom_site_fract_z
 _atom_site_occupancy
  Cs  Cs0  1  0.383462  0.660320  0.062008  1
  Cs  Cs1  1  0.473548  0.565121  0.083493  1
  Cs  Cs2  1  0.318657  0.779244  0.066039  1
  Cs  Cs3  1  0.088545  0.915981  0.192357  1
  Cs  Cs4  1  0.168758  0.823718  0.475224  1
  Cs  Cs5  1  0.338689  0.610746  0.582262  1
  Cs  Cs6  1  0.222810  0.676327  0.611325  1
  Cs  Cs7  1  0.429439  0.520759  0.604165  1
  Cs  Cs8  1  0.660320  0.383462  0.062008  1
  Cs  Cs9  1  0.565121  0.473548  0.083493  1
  Cs  Cs10  1  0.779244  0.318657  0.066039  1
  Cs  Cs11  1  0.915981  0.088545  0.192357  1
  Cs  Cs12  1  0.823718  0.168758  0.475224  1
  Cs  Cs13  1  0.610746  0.338689  0.582262  1
  Cs  Cs14  1  0.676327  0.222810  0.611325  1
  Cs  Cs15  1  0.520759  0.429439  0.604165  1
  Cs  Cs16  1  0.992392  0.992392  0.487967  1
  Er  Er17  1  0.997708  0.997708  0.989544  1
  Er  Er18  1  0.085187  0.906915  0.689503  1
  Er  Er19  1  0.177937  0.822401  0.985925  1
  Er  Er20  1  0.906915  0.085187  0.689503  1
  Er  Er21  1  0.822401  0.177937  0.985925  1
  O  O22  1  0.083191  0.455332  0.002466  1
  O  O23  1  0.162885  0.347660  0.404029  1
  O  O24  1  0.455332  0.083191  0.002466  1
  O  O25  1  0.257023  0.257023  0.023558  1
  O  O26  1  0.550302  0.919425  0.267092  1
  O  O27  1  0.206596  0.781672  0.784991  1
  O  O28  1  0.040238  0.953926  0.828609  1
  O  O29  1  0.129008  0.870815  0.869531  1
  O  O30  1  0.347660  0.162885  0.404029  1
  O  O31  1  0.645086  0.828734  0.656032  1
  O  O32  1  0.919425  0.550302  0.267092  1
  O  O33  1  0.737444  0.737444  0.275331  1
  O  O34  1  0.781672  0.206596  0.784991  1
  O  O35  1  0.953926  0.040238  0.828609  1
  O  O36  1  0.870815  0.129008  0.869531  1
  O  O37  1  0.828734  0.645086  0.656032  1
