# generated using pymatgen
data_CaAg5SbO6
_symmetry_space_group_name_H-M   'P 1'
_cell_length_a   6.00382100
_cell_length_b   6.00382118
_cell_length_c   12.46696000
_cell_angle_alpha   90.00000000
_cell_angle_beta   90.00000000
_cell_angle_gamma   119.99999351
_symmetry_Int_Tables_number   1
_chemical_formula_structural   CaAg5SbO6
_chemical_formula_sum   'Ca2 Ag10 Sb2 O12'
_cell_volume   389.17659155
_cell_formula_units_Z   2
loop_
 _symmetry_equiv_pos_site_id
 _symmetry_equiv_pos_as_xyz
  1  'x, y, z'
loop_
 _atom_site_type_symbol
 _atom_site_label
 _atom_site_symmetry_multiplicity
 _atom_site_fract_x
 _atom_site_fract_y
 _atom_site_fract_z
 _atom_site_occupancy
  Ca  Ca0  1  0.666667  0.333333  0.750000  1
  Ca  Ca1  1  0.333333  0.666667  0.250000  1
  Ag  Ag2  1  0.000000  0.000000  0.879402  1
  Ag  Ag3  1  0.000000  0.000000  0.379402  1
  Ag  Ag4  1  0.000000  0.000000  0.120598  1
  Ag  Ag5  1  0.000000  0.000000  0.620598  1
  Ag  Ag6  1  0.500000  0.500000  0.000000  1
  Ag  Ag7  1  0.000000  0.500000  0.000000  1
  Ag  Ag8  1  0.500000  0.000000  0.000000  1
  Ag  Ag9  1  0.000000  0.500000  0.500000  1
  Ag  Ag10  1  0.500000  0.000000  0.500000  1
  Ag  Ag11  1  0.500000  0.500000  0.500000  1
  Sb  Sb12  1  0.333333  0.666667  0.750000  1
  Sb  Sb13  1  0.666667  0.333333  0.250000  1
  O  O14  1  0.603026  0.644008  0.840704  1
  O  O15  1  0.040982  0.396974  0.840704  1
  O  O16  1  0.355992  0.959018  0.840704  1
  O  O17  1  0.959018  0.355992  0.340704  1
  O  O18  1  0.396974  0.040982  0.340704  1
  O  O19  1  0.644008  0.603026  0.340704  1
  O  O20  1  0.396974  0.355992  0.159296  1
  O  O21  1  0.959018  0.603026  0.159296  1
  O  O22  1  0.644008  0.040982  0.159296  1
  O  O23  1  0.040982  0.644008  0.659296  1
  O  O24  1  0.603026  0.959018  0.659296  1
  O  O25  1  0.355992  0.396974  0.659296  1
