# generated using pymatgen
data_Tb2MnCo16
_symmetry_space_group_name_H-M   'P 1'
_cell_length_a   6.29303852
_cell_length_b   6.29303737
_cell_length_c   6.29303784
_cell_angle_alpha   83.10082279
_cell_angle_beta   83.10082897
_cell_angle_gamma   83.10081773
_symmetry_Int_Tables_number   1
_chemical_formula_structural   Tb2MnCo16
_chemical_formula_sum   'Tb2 Mn1 Co16'
_cell_volume   244.20636979
_cell_formula_units_Z   1
loop_
 _symmetry_equiv_pos_site_id
 _symmetry_equiv_pos_as_xyz
  1  'x, y, z'
loop_
 _atom_site_type_symbol
 _atom_site_label
 _atom_site_symmetry_multiplicity
 _atom_site_fract_x
 _atom_site_fract_y
 _atom_site_fract_z
 _atom_site_occupancy
  Tb  Tb0  1  0.655781  0.655781  0.655781  1
  Tb  Tb1  1  0.346661  0.346661  0.346661  1
  Mn  Mn2  1  0.097410  0.097410  0.097410  1
  Co  Co3  1  0.711219  0.288609  0.998836  1
  Co  Co4  1  0.998836  0.711219  0.288609  1
  Co  Co5  1  0.288609  0.998836  0.711219  1
  Co  Co6  1  0.998836  0.288609  0.711219  1
  Co  Co7  1  0.711219  0.998836  0.288609  1
  Co  Co8  1  0.288609  0.711219  0.998836  1
  Co  Co9  1  0.348029  0.348029  0.848712  1
  Co  Co10  1  0.848712  0.348029  0.348029  1
  Co  Co11  1  0.348029  0.848712  0.348029  1
  Co  Co12  1  0.654425  0.654425  0.151277  1
  Co  Co13  1  0.151277  0.654425  0.654425  1
  Co  Co14  1  0.654425  0.151277  0.654425  1
  Co  Co15  1  0.997409  0.997409  0.504560  1
  Co  Co16  1  0.504560  0.997409  0.997409  1
  Co  Co17  1  0.997409  0.504560  0.997409  1
  Co  Co18  1  0.898546  0.898546  0.898546  1
