# generated using pymatgen
data_Dy6Y2Tc3B24Ru
_symmetry_space_group_name_H-M   'P 1'
_cell_length_a   3.68682000
_cell_length_b   9.16487782
_cell_length_c   11.55222300
_cell_angle_alpha   89.91346676
_cell_angle_beta   90.00000000
_cell_angle_gamma   90.00000000
_symmetry_Int_Tables_number   1
_chemical_formula_structural   Dy6Y2Tc3B24Ru
_chemical_formula_sum   'Dy6 Y2 Tc3 B24 Ru1'
_cell_volume   390.34056186
_cell_formula_units_Z   1
loop_
 _symmetry_equiv_pos_site_id
 _symmetry_equiv_pos_as_xyz
  1  'x, y, z'
loop_
 _atom_site_type_symbol
 _atom_site_label
 _atom_site_symmetry_multiplicity
 _atom_site_fract_x
 _atom_site_fract_y
 _atom_site_fract_z
 _atom_site_occupancy
  Dy  Dy0  1  0.000000  0.823310  0.087257  1
  Dy  Dy1  1  0.000000  0.177718  0.914625  1
  Dy  Dy2  1  0.000000  0.942549  0.370113  1
  Dy  Dy3  1  0.000000  0.057782  0.630823  1
  Dy  Dy4  1  0.000000  0.442877  0.130155  1
  Dy  Dy5  1  0.000000  0.558021  0.869061  1
  Y  Y6  1  0.000000  0.323699  0.414003  1
  Y  Y7  1  0.000000  0.675101  0.583966  1
  Tc  Tc8  1  0.000000  0.638392  0.320446  1
  Tc  Tc9  1  0.000000  0.361698  0.680009  1
  Tc  Tc10  1  0.000000  0.137817  0.178199  1
  B  B11  1  0.500000  0.553039  0.432694  1
  B  B12  1  0.500000  0.446642  0.566859  1
  B  B13  1  0.500000  0.053096  0.066952  1
  B  B14  1  0.500000  0.946096  0.932738  1
  B  B15  1  0.500000  0.748216  0.418482  1
  B  B16  1  0.500000  0.251064  0.581612  1
  B  B17  1  0.500000  0.248765  0.081348  1
  B  B18  1  0.500000  0.751873  0.918327  1
  B  B19  1  0.500000  0.791489  0.265531  1
  B  B20  1  0.500000  0.208737  0.735179  1
  B  B21  1  0.500000  0.291356  0.234449  1
  B  B22  1  0.500000  0.709601  0.765422  1
  B  B23  1  0.500000  0.631259  0.185636  1
  B  B24  1  0.500000  0.368911  0.814831  1
  B  B25  1  0.500000  0.130523  0.313878  1
  B  B26  1  0.500000  0.868821  0.686001  1
  B  B27  1  0.500000  0.982077  0.211711  1
  B  B28  1  0.500000  0.016460  0.788529  1
  B  B29  1  0.500000  0.482526  0.287923  1
  B  B30  1  0.500000  0.517345  0.711581  1
  B  B31  1  0.500000  0.602547  0.028209  1
  B  B32  1  0.500000  0.399097  0.971458  1
  B  B33  1  0.500000  0.101812  0.471971  1
  B  B34  1  0.500000  0.897833  0.528871  1
  Ru  Ru35  1  0.000000  0.861851  0.821151  1
