# generated using pymatgen
data_YTh3MgCdNi4
_symmetry_space_group_name_H-M   'P 1'
_cell_length_a   7.62507645
_cell_length_b   7.60753558
_cell_length_c   3.66641400
_cell_angle_alpha   90.00000000
_cell_angle_beta   90.00000000
_cell_angle_gamma   88.67406761
_symmetry_Int_Tables_number   1
_chemical_formula_structural   YTh3MgCdNi4
_chemical_formula_sum   'Y1 Th3 Mg1 Cd1 Ni4'
_cell_volume   212.62454351
_cell_formula_units_Z   1
loop_
 _symmetry_equiv_pos_site_id
 _symmetry_equiv_pos_as_xyz
  1  'x, y, z'
loop_
 _atom_site_type_symbol
 _atom_site_label
 _atom_site_symmetry_multiplicity
 _atom_site_fract_x
 _atom_site_fract_y
 _atom_site_fract_z
 _atom_site_occupancy
  Y  Y0  1  0.827477  0.328710  0.500000  1
  Th  Th1  1  0.167009  0.668910  0.500000  1
  Th  Th2  1  0.674605  0.830416  0.500000  1
  Th  Th3  1  0.329034  0.170783  0.500000  1
  Mg  Mg4  1  0.997355  0.007454  0.000000  1
  Cd  Cd5  1  0.508044  0.496268  0.000000  1
  Ni  Ni6  1  0.879030  0.631222  0.000000  1
  Ni  Ni7  1  0.370988  0.872465  0.000000  1
  Ni  Ni8  1  0.618970  0.116564  0.000000  1
  Ni  Ni9  1  0.127489  0.377208  0.000000  1
