# generated using pymatgen
data_HfNb11Al8(PtC)4
_symmetry_space_group_name_H-M   'P 1'
_cell_length_a   8.39429902
_cell_length_b   8.39429925
_cell_length_c   8.42632000
_cell_angle_alpha   59.87373419
_cell_angle_beta   59.87373329
_cell_angle_gamma   59.98626775
_symmetry_Int_Tables_number   1
_chemical_formula_structural   HfNb11Al8(PtC)4
_chemical_formula_sum   'Hf1 Nb11 Al8 Pt4 C4'
_cell_volume   419.00134325
_cell_formula_units_Z   1
loop_
 _symmetry_equiv_pos_site_id
 _symmetry_equiv_pos_as_xyz
  1  'x, y, z'
loop_
 _atom_site_type_symbol
 _atom_site_label
 _atom_site_symmetry_multiplicity
 _atom_site_fract_x
 _atom_site_fract_y
 _atom_site_fract_z
 _atom_site_occupancy
  Hf  Hf0  1  0.562202  0.562202  0.937798  1
  Nb  Nb1  1  0.931506  0.931506  0.568494  1
  Nb  Nb2  1  0.682938  0.317739  0.318331  1
  Nb  Nb3  1  0.317739  0.682938  0.680992  1
  Nb  Nb4  1  0.683423  0.683423  0.316577  1
  Nb  Nb5  1  0.682938  0.317739  0.680992  1
  Nb  Nb6  1  0.317739  0.682938  0.318331  1
  Nb  Nb7  1  0.567913  0.933151  0.564209  1
  Nb  Nb8  1  0.567913  0.933151  0.934726  1
  Nb  Nb9  1  0.933151  0.567913  0.564209  1
  Nb  Nb10  1  0.933151  0.567913  0.934726  1
  Nb  Nb11  1  0.317657  0.317657  0.682343  1
  Al  Al12  1  0.919559  0.251891  0.914275  1
  Al  Al13  1  0.333287  0.333287  0.996896  1
  Al  Al14  1  0.997363  0.334318  0.334158  1
  Al  Al15  1  0.333287  0.333287  0.336527  1
  Al  Al16  1  0.251891  0.919559  0.914275  1
  Al  Al17  1  0.916039  0.916039  0.915873  1
  Al  Al18  1  0.916039  0.916039  0.252050  1
  Al  Al19  1  0.334318  0.997363  0.334158  1
  Pt  Pt20  1  0.126966  0.625096  0.123969  1
  Pt  Pt21  1  0.124838  0.124838  0.624512  1
  Pt  Pt22  1  0.625096  0.126966  0.123969  1
  Pt  Pt23  1  0.124838  0.124838  0.125814  1
  C  C24  1  0.623785  0.123924  0.626145  1
  C  C25  1  0.625250  0.625250  0.125857  1
  C  C26  1  0.123924  0.623785  0.626145  1
  C  C27  1  0.625250  0.625250  0.623644  1
