# generated using pymatgen
data_Zr13Al9(CoRh3)2
_symmetry_space_group_name_H-M   'P 1'
_cell_length_a   9.14149480
_cell_length_b   9.14149381
_cell_length_c   9.14149427
_cell_angle_alpha   59.87230930
_cell_angle_beta   59.87231441
_cell_angle_gamma   59.87231626
_symmetry_Int_Tables_number   1
_chemical_formula_structural   Zr13Al9(CoRh3)2
_chemical_formula_sum   'Zr13 Al9 Co2 Rh6'
_cell_volume   538.61255815
_cell_formula_units_Z   1
loop_
 _symmetry_equiv_pos_site_id
 _symmetry_equiv_pos_as_xyz
  1  'x, y, z'
loop_
 _atom_site_type_symbol
 _atom_site_label
 _atom_site_symmetry_multiplicity
 _atom_site_fract_x
 _atom_site_fract_y
 _atom_site_fract_z
 _atom_site_occupancy
  Zr  Zr0  1  0.200278  0.200278  0.798216  1
  Zr  Zr1  1  0.798216  0.200278  0.200278  1
  Zr  Zr2  1  0.200278  0.798216  0.200278  1
  Zr  Zr3  1  0.806974  0.806974  0.174661  1
  Zr  Zr4  1  0.174661  0.806974  0.806974  1
  Zr  Zr5  1  0.806974  0.174661  0.806974  1
  Zr  Zr6  1  0.381489  0.381489  0.381489  1
  Zr  Zr7  1  0.382527  0.856489  0.382527  1
  Zr  Zr8  1  0.856489  0.382527  0.382527  1
  Zr  Zr9  1  0.382527  0.382527  0.856489  1
  Zr  Zr10  1  0.837889  0.491246  0.837889  1
  Zr  Zr11  1  0.491246  0.837889  0.837889  1
  Zr  Zr12  1  0.837889  0.837889  0.491246  1
  Al  Al13  1  0.160441  0.160441  0.160441  1
  Al  Al14  1  0.164138  0.509998  0.164138  1
  Al  Al15  1  0.509998  0.164138  0.164138  1
  Al  Al16  1  0.164138  0.164138  0.509998  1
  Al  Al17  1  0.616023  0.616023  0.616023  1
  Al  Al18  1  0.617634  0.152735  0.617634  1
  Al  Al19  1  0.152735  0.617634  0.617634  1
  Al  Al20  1  0.617634  0.617634  0.152735  1
  Al  Al21  1  0.828522  0.828522  0.828522  1
  Co  Co22  1  0.501270  0.501270  0.501270  1
  Co  Co23  1  0.003249  0.003249  0.003249  1
  Rh  Rh24  1  0.005381  0.005381  0.500045  1
  Rh  Rh25  1  0.500045  0.005381  0.005381  1
  Rh  Rh26  1  0.005381  0.500045  0.005381  1
  Rh  Rh27  1  0.493957  0.493957  0.008058  1
  Rh  Rh28  1  0.008058  0.493957  0.493957  1
  Rh  Rh29  1  0.493957  0.008058  0.493957  1
