# generated using pymatgen
data_TaCo21SiB6
_symmetry_space_group_name_H-M   'P 1'
_cell_length_a   7.40034992
_cell_length_b   7.40035042
_cell_length_c   7.40035000
_cell_angle_alpha   60.00000188
_cell_angle_beta   59.99999962
_cell_angle_gamma   60.00000201
_symmetry_Int_Tables_number   1
_chemical_formula_structural   TaCo21SiB6
_chemical_formula_sum   'Ta1 Co21 Si1 B6'
_cell_volume   286.57731813
_cell_formula_units_Z   1
loop_
 _symmetry_equiv_pos_site_id
 _symmetry_equiv_pos_as_xyz
  1  'x, y, z'
loop_
 _atom_site_type_symbol
 _atom_site_label
 _atom_site_symmetry_multiplicity
 _atom_site_fract_x
 _atom_site_fract_y
 _atom_site_fract_z
 _atom_site_occupancy
  Ta  Ta0  1  0.250000  0.250000  0.250000  1
  Co  Co1  1  0.000000  0.000000  0.000000  1
  Co  Co2  1  0.623550  0.623550  0.129350  1
  Co  Co3  1  0.623550  0.129350  0.623550  1
  Co  Co4  1  0.129350  0.623550  0.623550  1
  Co  Co5  1  0.623550  0.623550  0.623550  1
  Co  Co6  1  0.386186  0.386186  0.841442  1
  Co  Co7  1  0.386186  0.841442  0.386186  1
  Co  Co8  1  0.841442  0.386186  0.386186  1
  Co  Co9  1  0.386186  0.386186  0.386186  1
  Co  Co10  1  0.000747  0.000747  0.336583  1
  Co  Co11  1  0.661923  0.000747  0.336583  1
  Co  Co12  1  0.000747  0.661923  0.336583  1
  Co  Co13  1  0.661923  0.336583  0.000747  1
  Co  Co14  1  0.000747  0.336583  0.000747  1
  Co  Co15  1  0.000747  0.336583  0.661923  1
  Co  Co16  1  0.336583  0.661923  0.000747  1
  Co  Co17  1  0.336583  0.000747  0.661923  1
  Co  Co18  1  0.336583  0.000747  0.000747  1
  Co  Co19  1  0.000747  0.000747  0.661923  1
  Co  Co20  1  0.000747  0.661923  0.000747  1
  Co  Co21  1  0.661923  0.000747  0.000747  1
  Si  Si22  1  0.750000  0.750000  0.750000  1
  B  B23  1  0.724853  0.724853  0.275147  1
  B  B24  1  0.275147  0.724853  0.275147  1
  B  B25  1  0.724853  0.275147  0.275147  1
  B  B26  1  0.275147  0.275147  0.724853  1
  B  B27  1  0.724853  0.275147  0.724853  1
  B  B28  1  0.275147  0.724853  0.724853  1
