# generated using pymatgen
data_HoErGa3Ru
_symmetry_space_group_name_H-M   'P 1'
_cell_length_a   5.44073800
_cell_length_b   5.44073822
_cell_length_c   8.70624000
_cell_angle_alpha   90.00000000
_cell_angle_beta   90.00000000
_cell_angle_gamma   120.00001082
_symmetry_Int_Tables_number   1
_chemical_formula_structural   HoErGa3Ru
_chemical_formula_sum   'Ho2 Er2 Ga6 Ru2'
_cell_volume   223.19109482
_cell_formula_units_Z   2
loop_
 _symmetry_equiv_pos_site_id
 _symmetry_equiv_pos_as_xyz
  1  'x, y, z'
loop_
 _atom_site_type_symbol
 _atom_site_label
 _atom_site_symmetry_multiplicity
 _atom_site_fract_x
 _atom_site_fract_y
 _atom_site_fract_z
 _atom_site_occupancy
  Ho  Ho0  1  0.666666  0.333333  0.052747  1
  Ho  Ho1  1  0.666666  0.333333  0.447254  1
  Er  Er2  1  0.333333  0.666667  0.552641  1
  Er  Er3  1  0.333333  0.666667  0.947360  1
  Ga  Ga4  1  0.165312  0.330625  0.249999  1
  Ga  Ga5  1  0.165313  0.834687  0.249999  1
  Ga  Ga6  1  0.669375  0.834687  0.249999  1
  Ga  Ga7  1  0.330465  0.165232  0.750000  1
  Ga  Ga8  1  0.834768  0.165232  0.750000  1
  Ga  Ga9  1  0.834767  0.669535  0.750000  1
  Ru  Ru10  1  0.000000  0.000000  0.999855  1
  Ru  Ru11  1  0.000000  0.000000  0.500145  1
