# generated using pymatgen
data_ErTm2Mg3Ge2Au
_symmetry_space_group_name_H-M   'P 1'
_cell_length_a   7.19752900
_cell_length_b   7.19864562
_cell_length_c   4.31433400
_cell_angle_alpha   90.00000000
_cell_angle_beta   90.00000000
_cell_angle_gamma   119.99487355
_symmetry_Int_Tables_number   1
_chemical_formula_structural   ErTm2Mg3Ge2Au
_chemical_formula_sum   'Er1 Tm2 Mg3 Ge2 Au1'
_cell_volume   193.59807975
_cell_formula_units_Z   1
loop_
 _symmetry_equiv_pos_site_id
 _symmetry_equiv_pos_as_xyz
  1  'x, y, z'
loop_
 _atom_site_type_symbol
 _atom_site_label
 _atom_site_symmetry_multiplicity
 _atom_site_fract_x
 _atom_site_fract_y
 _atom_site_fract_z
 _atom_site_occupancy
  Er  Er0  1  0.583625  0.000000  0.000000  1
  Tm  Tm1  1  0.999921  0.583718  0.000000  1
  Tm  Tm2  1  0.416203  0.416282  0.000000  1
  Mg  Mg3  1  0.244983  0.000000  0.500000  1
  Mg  Mg4  1  0.000075  0.245161  0.500000  1
  Mg  Mg5  1  0.754913  0.754839  0.500000  1
  Ge  Ge6  1  0.333131  0.666338  0.500000  1
  Ge  Ge7  1  0.666794  0.333662  0.500000  1
  Au  Au8  1  0.000356  0.000000  0.000000  1
