# generated using pymatgen
data_Dy2MnSi2RuC
_symmetry_space_group_name_H-M   'P 1'
_cell_length_a   5.78613052
_cell_length_b   5.78613096
_cell_length_c   6.85577249
_cell_angle_alpha   126.71411164
_cell_angle_beta   126.71411533
_cell_angle_gamma   40.40204996
_symmetry_Int_Tables_number   1
_chemical_formula_structural   Dy2MnSi2RuC
_chemical_formula_sum   'Dy2 Mn1 Si2 Ru1 C1'
_cell_volume   114.67821398
_cell_formula_units_Z   1
loop_
 _symmetry_equiv_pos_site_id
 _symmetry_equiv_pos_as_xyz
  1  'x, y, z'
loop_
 _atom_site_type_symbol
 _atom_site_label
 _atom_site_symmetry_multiplicity
 _atom_site_fract_x
 _atom_site_fract_y
 _atom_site_fract_z
 _atom_site_occupancy
  Dy  Dy0  1  0.562926  0.562926  0.294327  1
  Dy  Dy1  1  0.437388  0.437388  0.704935  1
  Mn  Mn2  1  0.796110  0.796110  0.901611  1
  Si  Si3  1  0.849498  0.849498  0.294577  1
  Si  Si4  1  0.159560  0.159560  0.709187  1
  Ru  Ru5  1  0.204182  0.204182  0.100520  1
  C  C6  1  0.990336  0.990336  0.994843  1
