# generated using pymatgen
data_HoThFe2I
_symmetry_space_group_name_H-M   'P 1'
_cell_length_a   3.97554100
_cell_length_b   3.97554032
_cell_length_c   17.48539300
_cell_angle_alpha   90.00000000
_cell_angle_beta   90.00000000
_cell_angle_gamma   119.99999736
_symmetry_Int_Tables_number   1
_chemical_formula_structural   HoThFe2I
_chemical_formula_sum   'Ho2 Th2 Fe4 I2'
_cell_volume   239.33071596
_cell_formula_units_Z   2
loop_
 _symmetry_equiv_pos_site_id
 _symmetry_equiv_pos_as_xyz
  1  'x, y, z'
loop_
 _atom_site_type_symbol
 _atom_site_label
 _atom_site_symmetry_multiplicity
 _atom_site_fract_x
 _atom_site_fract_y
 _atom_site_fract_z
 _atom_site_occupancy
  Ho  Ho0  1  0.000000  0.000000  0.607913  1
  Ho  Ho1  1  0.000000  0.000000  0.892087  1
  Th  Th2  1  0.000000  0.000000  0.099223  1
  Th  Th3  1  0.000000  0.000000  0.400777  1
  Fe  Fe4  1  0.333333  0.666666  0.995531  1
  Fe  Fe5  1  0.333333  0.666666  0.504468  1
  Fe  Fe6  1  0.666666  0.333333  0.504110  1
  Fe  Fe7  1  0.666666  0.333333  0.995890  1
  I  I8  1  0.666666  0.333333  0.250000  1
  I  I9  1  0.333333  0.666666  0.750000  1
