# generated using pymatgen
data_KMn3Tl2F12
_symmetry_space_group_name_H-M   'P 1'
_cell_length_a   7.67428119
_cell_length_b   7.67428139
_cell_length_c   12.65178700
_cell_angle_alpha   73.67496919
_cell_angle_beta   73.67496876
_cell_angle_gamma   59.69681014
_symmetry_Int_Tables_number   1
_chemical_formula_structural   KMn3Tl2F12
_chemical_formula_sum   'K2 Mn6 Tl4 F24'
_cell_volume   608.59492826
_cell_formula_units_Z   2
loop_
 _symmetry_equiv_pos_site_id
 _symmetry_equiv_pos_as_xyz
  1  'x, y, z'
loop_
 _atom_site_type_symbol
 _atom_site_label
 _atom_site_symmetry_multiplicity
 _atom_site_fract_x
 _atom_site_fract_y
 _atom_site_fract_z
 _atom_site_occupancy
  K  K0  1  0.224083  0.775917  0.750000  1
  K  K1  1  0.775917  0.224083  0.250000  1
  Mn  Mn2  1  0.500000  0.000000  0.500000  1
  Mn  Mn3  1  0.000000  0.500000  0.000000  1
  Mn  Mn4  1  0.000000  0.000000  0.500000  1
  Mn  Mn5  1  0.000000  0.000000  0.000000  1
  Mn  Mn6  1  0.500000  0.500000  0.500000  1
  Mn  Mn7  1  0.500000  0.500000  0.000000  1
  Tl  Tl8  1  0.884341  0.480358  0.692612  1
  Tl  Tl9  1  0.115659  0.519642  0.307388  1
  Tl  Tl10  1  0.519642  0.115659  0.807388  1
  Tl  Tl11  1  0.480358  0.884341  0.192612  1
  F  F12  1  0.879775  0.971504  0.650169  1
  F  F13  1  0.523835  0.885986  0.650684  1
  F  F14  1  0.261323  0.412474  0.032851  1
  F  F15  1  0.680230  0.214874  0.037803  1
  F  F16  1  0.885986  0.523835  0.150684  1
  F  F17  1  0.114014  0.476165  0.849316  1
  F  F18  1  0.476165  0.114014  0.349316  1
  F  F19  1  0.785126  0.319770  0.462197  1
  F  F20  1  0.120225  0.028496  0.349831  1
  F  F21  1  0.587526  0.738677  0.467149  1
  F  F22  1  0.443713  0.526776  0.149114  1
  F  F23  1  0.412474  0.261323  0.532851  1
  F  F24  1  0.526776  0.443713  0.649114  1
  F  F25  1  0.821954  0.933580  0.457782  1
  F  F26  1  0.178046  0.066420  0.542218  1
  F  F27  1  0.556287  0.473224  0.850886  1
  F  F28  1  0.933580  0.821954  0.957782  1
  F  F29  1  0.473224  0.556287  0.350886  1
  F  F30  1  0.738677  0.587526  0.967149  1
  F  F31  1  0.971504  0.879775  0.150169  1
  F  F32  1  0.066420  0.178046  0.042218  1
  F  F33  1  0.319770  0.785126  0.962197  1
  F  F34  1  0.028496  0.120225  0.849831  1
  F  F35  1  0.214874  0.680230  0.537803  1
