# generated using pymatgen
data_Tb16Cd2Ni3Hg2Ir
_symmetry_space_group_name_H-M   'P 1'
_cell_length_a   9.62186552
_cell_length_b   9.62186654
_cell_length_c   9.62915311
_cell_angle_alpha   59.90263203
_cell_angle_beta   59.90263492
_cell_angle_gamma   59.83214872
_symmetry_Int_Tables_number   1
_chemical_formula_structural   Tb16Cd2Ni3Hg2Ir
_chemical_formula_sum   'Tb16 Cd2 Ni3 Hg2 Ir1'
_cell_volume   628.63515052
_cell_formula_units_Z   1
loop_
 _symmetry_equiv_pos_site_id
 _symmetry_equiv_pos_as_xyz
  1  'x, y, z'
loop_
 _atom_site_type_symbol
 _atom_site_label
 _atom_site_symmetry_multiplicity
 _atom_site_fract_x
 _atom_site_fract_y
 _atom_site_fract_z
 _atom_site_occupancy
  Tb  Tb0  1  0.346654  0.346654  0.346769  1
  Tb  Tb1  1  0.352713  0.352713  0.950089  1
  Tb  Tb2  1  0.353289  0.948503  0.352883  1
  Tb  Tb3  1  0.948503  0.353289  0.352883  1
  Tb  Tb4  1  0.809289  0.188863  0.189846  1
  Tb  Tb5  1  0.186982  0.810856  0.811273  1
  Tb  Tb6  1  0.188863  0.809289  0.189846  1
  Tb  Tb7  1  0.810856  0.186982  0.811273  1
  Tb  Tb8  1  0.188726  0.188726  0.810112  1
  Tb  Tb9  1  0.809842  0.809842  0.188826  1
  Tb  Tb10  1  0.935980  0.564816  0.565936  1
  Tb  Tb11  1  0.558702  0.937692  0.938887  1
  Tb  Tb12  1  0.564816  0.935980  0.565936  1
  Tb  Tb13  1  0.937692  0.558702  0.938887  1
  Tb  Tb14  1  0.564539  0.564539  0.937816  1
  Tb  Tb15  1  0.937606  0.937606  0.559786  1
  Cd  Cd16  1  0.579345  0.257897  0.579002  1
  Cd  Cd17  1  0.257897  0.579345  0.579002  1
  Ni  Ni18  1  0.141314  0.141314  0.574570  1
  Ni  Ni19  1  0.141051  0.574062  0.141632  1
  Ni  Ni20  1  0.574062  0.141051  0.141632  1
  Hg  Hg21  1  0.584106  0.584106  0.585568  1
  Hg  Hg22  1  0.583601  0.583601  0.243796  1
  Ir  Ir23  1  0.143571  0.143571  0.143749  1
