# generated using pymatgen
data_Dy2YCdSi2Ag3
_symmetry_space_group_name_H-M   'P 1'
_cell_length_a   7.24166802
_cell_length_b   7.24166797
_cell_length_c   4.22500700
_cell_angle_alpha   90.00000000
_cell_angle_beta   90.00000000
_cell_angle_gamma   119.99064666
_symmetry_Int_Tables_number   1
_chemical_formula_structural   Dy2YCdSi2Ag3
_chemical_formula_sum   'Dy2 Y1 Cd1 Si2 Ag3'
_cell_volume   191.90054579
_cell_formula_units_Z   1
loop_
 _symmetry_equiv_pos_site_id
 _symmetry_equiv_pos_as_xyz
  1  'x, y, z'
loop_
 _atom_site_type_symbol
 _atom_site_label
 _atom_site_symmetry_multiplicity
 _atom_site_fract_x
 _atom_site_fract_y
 _atom_site_fract_z
 _atom_site_occupancy
  Dy  Dy0  1  0.573719  0.000051  0.500000  1
  Dy  Dy1  1  0.000051  0.573719  0.500000  1
  Y  Y2  1  0.426301  0.426301  0.500000  1
  Cd  Cd3  1  0.999751  0.999751  0.500000  1
  Si  Si4  1  0.666786  0.333304  0.000000  1
  Si  Si5  1  0.333304  0.666786  0.000000  1
  Ag  Ag6  1  0.736301  0.736301  0.000000  1
  Ag  Ag7  1  0.263890  0.999897  0.000000  1
  Ag  Ag8  1  0.999897  0.263890  0.000000  1
