# generated using pymatgen
data_TbTh3Ga20Pd11
_symmetry_space_group_name_H-M   'P 1'
_cell_length_a   4.36662310
_cell_length_b   10.99063066
_cell_length_c   13.57463796
_cell_angle_alpha   80.57695652
_cell_angle_beta   80.74448648
_cell_angle_gamma   78.54185370
_symmetry_Int_Tables_number   1
_chemical_formula_structural   TbTh3Ga20Pd11
_chemical_formula_sum   'Tb1 Th3 Ga20 Pd11'
_cell_volume   624.30229112
_cell_formula_units_Z   1
loop_
 _symmetry_equiv_pos_site_id
 _symmetry_equiv_pos_as_xyz
  1  'x, y, z'
loop_
 _atom_site_type_symbol
 _atom_site_label
 _atom_site_symmetry_multiplicity
 _atom_site_fract_x
 _atom_site_fract_y
 _atom_site_fract_z
 _atom_site_occupancy
  Tb  Tb0  1  0.773684  0.631904  0.820730  1
  Th  Th1  1  0.878026  0.909323  0.334623  1
  Th  Th2  1  0.121845  0.090444  0.665868  1
  Th  Th3  1  0.226690  0.369696  0.176923  1
  Ga  Ga4  1  0.996659  0.921607  0.085075  1
  Ga  Ga5  1  0.004104  0.077500  0.914293  1
  Ga  Ga6  1  0.932099  0.327550  0.808253  1
  Ga  Ga7  1  0.066602  0.675379  0.191418  1
  Ga  Ga8  1  0.896250  0.661584  0.545916  1
  Ga  Ga9  1  0.103334  0.338387  0.454947  1
  Ga  Ga10  1  0.801351  0.394598  0.002700  1
  Ga  Ga11  1  0.200146  0.607941  0.991767  1
  Ga  Ga12  1  0.741964  0.213876  0.302197  1
  Ga  Ga13  1  0.257753  0.783836  0.700657  1
  Ga  Ga14  1  0.696516  0.105443  0.501523  1
  Ga  Ga15  1  0.303245  0.893445  0.500066  1
  Ga  Ga16  1  0.610551  0.472255  0.306645  1
  Ga  Ga17  1  0.385930  0.529846  0.698292  1
  Ga  Ga18  1  0.603685  0.797062  0.995566  1
  Ga  Ga19  1  0.398478  0.200984  0.002062  1
  Ga  Ga20  1  0.459167  0.708325  0.373340  1
  Ga  Ga21  1  0.539961  0.293248  0.626831  1
  Ga  Ga22  1  0.367851  0.064127  0.200171  1
  Ga  Ga23  1  0.634256  0.932760  0.798728  1
  Pd  Pd24  1  0.498436  0.501674  0.501455  1
  Pd  Pd25  1  0.972084  0.428971  0.626860  1
  Pd  Pd26  1  0.027358  0.571542  0.373742  1
  Pd  Pd27  1  0.862605  0.160950  0.113840  1
  Pd  Pd28  1  0.137673  0.838135  0.886519  1
  Pd  Pd29  1  0.759232  0.873625  0.607914  1
  Pd  Pd30  1  0.240851  0.125689  0.392607  1
  Pd  Pd31  1  0.655392  0.578952  0.110264  1
  Pd  Pd32  1  0.344892  0.420451  0.889765  1
  Pd  Pd33  1  0.495509  0.826101  0.182881  1
  Pd  Pd34  1  0.505823  0.172789  0.815565  1
