# generated using pymatgen
data_Hf6Zn4Au2CN
_symmetry_space_group_name_H-M   'P 1'
_cell_length_a   8.60798463
_cell_length_b   8.63510172
_cell_length_c   8.60798588
_cell_angle_alpha   59.89573181
_cell_angle_beta   59.80691156
_cell_angle_gamma   59.89573267
_symmetry_Int_Tables_number   1
_chemical_formula_structural   Hf6Zn4Au2CN
_chemical_formula_sum   'Hf12 Zn8 Au4 C2 N2'
_cell_volume   451.05912682
_cell_formula_units_Z   2
loop_
 _symmetry_equiv_pos_site_id
 _symmetry_equiv_pos_as_xyz
  1  'x, y, z'
loop_
 _atom_site_type_symbol
 _atom_site_label
 _atom_site_symmetry_multiplicity
 _atom_site_fract_x
 _atom_site_fract_y
 _atom_site_fract_z
 _atom_site_occupancy
  Hf  Hf0  1  0.436128  0.435343  0.064395  1
  Hf  Hf1  1  0.063441  0.436559  0.063441  1
  Hf  Hf2  1  0.436128  0.064134  0.064395  1
  Hf  Hf3  1  0.064395  0.064134  0.436128  1
  Hf  Hf4  1  0.434957  0.065043  0.434957  1
  Hf  Hf5  1  0.064395  0.435343  0.436128  1
  Hf  Hf6  1  0.813872  0.814657  0.185605  1
  Hf  Hf7  1  0.186559  0.813441  0.186559  1
  Hf  Hf8  1  0.813872  0.185866  0.185605  1
  Hf  Hf9  1  0.185605  0.185866  0.813872  1
  Hf  Hf10  1  0.815043  0.184957  0.815043  1
  Hf  Hf11  1  0.185605  0.814657  0.813872  1
  Zn  Zn12  1  0.834379  0.835160  0.495300  1
  Zn  Zn13  1  0.834674  0.495285  0.834674  1
  Zn  Zn14  1  0.495300  0.835160  0.834379  1
  Zn  Zn15  1  0.834674  0.835366  0.834674  1
  Zn  Zn16  1  0.415621  0.414840  0.754700  1
  Zn  Zn17  1  0.415326  0.754715  0.415326  1
  Zn  Zn18  1  0.754700  0.414840  0.415621  1
  Zn  Zn19  1  0.415326  0.414634  0.415326  1
  Au  Au20  1  0.625000  0.625000  0.125000  1
  Au  Au21  1  0.625000  0.125000  0.625000  1
  Au  Au22  1  0.125000  0.625000  0.625000  1
  Au  Au23  1  0.625000  0.625000  0.625000  1
  C  C24  1  0.125000  0.625000  0.125000  1
  C  C25  1  0.125000  0.125000  0.125000  1
  N  N26  1  0.125000  0.125000  0.625000  1
  N  N27  1  0.625000  0.125000  0.125000  1
