# generated using pymatgen
data_Ba4ZnIr3Br2
_symmetry_space_group_name_H-M   'P 1'
_cell_length_a   4.36307800
_cell_length_b   4.36307717
_cell_length_c   18.84930500
_cell_angle_alpha   90.00000000
_cell_angle_beta   90.00000000
_cell_angle_gamma   119.99999117
_symmetry_Int_Tables_number   1
_chemical_formula_structural   Ba4ZnIr3Br2
_chemical_formula_sum   'Ba4 Zn1 Ir3 Br2'
_cell_volume   310.75053369
_cell_formula_units_Z   1
loop_
 _symmetry_equiv_pos_site_id
 _symmetry_equiv_pos_as_xyz
  1  'x, y, z'
loop_
 _atom_site_type_symbol
 _atom_site_label
 _atom_site_symmetry_multiplicity
 _atom_site_fract_x
 _atom_site_fract_y
 _atom_site_fract_z
 _atom_site_occupancy
  Ba  Ba0  1  0.000000  0.000000  0.115587  1
  Ba  Ba1  1  0.000000  0.000000  0.884145  1
  Ba  Ba2  1  0.000000  0.000000  0.617137  1
  Ba  Ba3  1  0.000000  0.000000  0.382675  1
  Zn  Zn4  1  0.333333  0.666667  0.500543  1
  Ir  Ir5  1  0.666667  0.333333  0.499240  1
  Ir  Ir6  1  0.666667  0.333333  0.000175  1
  Ir  Ir7  1  0.333333  0.666667  0.999851  1
  Br  Br8  1  0.333333  0.666667  0.252472  1
  Br  Br9  1  0.666667  0.333333  0.748175  1
