# generated using pymatgen
data_Hf2Zr18Si15Au
_symmetry_space_group_name_H-M   'P 1'
_cell_length_a   7.19487383
_cell_length_b   7.17817289
_cell_length_c   13.10550772
_cell_angle_alpha   90.13241354
_cell_angle_beta   89.94368679
_cell_angle_gamma   89.90986599
_symmetry_Int_Tables_number   1
_chemical_formula_structural   Hf2Zr18Si15Au
_chemical_formula_sum   'Hf2 Zr18 Si15 Au1'
_cell_volume   676.84470955
_cell_formula_units_Z   1
loop_
 _symmetry_equiv_pos_site_id
 _symmetry_equiv_pos_as_xyz
  1  'x, y, z'
loop_
 _atom_site_type_symbol
 _atom_site_label
 _atom_site_symmetry_multiplicity
 _atom_site_fract_x
 _atom_site_fract_y
 _atom_site_fract_z
 _atom_site_occupancy
  Hf  Hf0  1  0.007359  0.850462  0.126797  1
  Hf  Hf1  1  0.998514  0.146831  0.623595  1
  Zr  Zr2  1  0.675576  0.325942  0.749040  1
  Zr  Zr3  1  0.324513  0.674546  0.250462  1
  Zr  Zr4  1  0.824114  0.824808  0.500464  1
  Zr  Zr5  1  0.180283  0.175974  0.998555  1
  Zr  Zr6  1  0.498450  0.150907  0.534928  1
  Zr  Zr7  1  0.493810  0.840901  0.033382  1
  Zr  Zr8  1  0.647482  0.997292  0.289915  1
  Zr  Zr9  1  0.347441  0.997535  0.783501  1
  Zr  Zr10  1  0.854365  0.511932  0.961087  1
  Zr  Zr11  1  0.149478  0.497679  0.465536  1
  Zr  Zr12  1  0.002371  0.652099  0.714824  1
  Zr  Zr13  1  0.005094  0.351417  0.219585  1
  Zr  Zr14  1  0.496057  0.355961  0.127797  1
  Zr  Zr15  1  0.500442  0.646932  0.626773  1
  Zr  Zr16  1  0.855819  0.001667  0.871650  1
  Zr  Zr17  1  0.145341  0.998481  0.377117  1
  Zr  Zr18  1  0.646697  0.501258  0.373974  1
  Zr  Zr19  1  0.353611  0.498519  0.871763  1
  Si  Si20  1  0.205309  0.855824  0.572790  1
  Si  Si21  1  0.643007  0.708635  0.821997  1
  Si  Si22  1  0.356866  0.292536  0.324379  1
  Si  Si23  1  0.854644  0.205648  0.429145  1
  Si  Si24  1  0.144249  0.795316  0.927429  1
  Si  Si25  1  0.706851  0.646806  0.177992  1
  Si  Si26  1  0.293625  0.353962  0.676339  1
  Si  Si27  1  0.547812  0.196178  0.934043  1
  Si  Si28  1  0.447983  0.799226  0.438447  1
  Si  Si29  1  0.698696  0.952111  0.685283  1
  Si  Si30  1  0.301774  0.049987  0.187197  1
  Si  Si31  1  0.801425  0.449379  0.563009  1
  Si  Si32  1  0.197767  0.549675  0.062061  1
  Si  Si33  1  0.948725  0.701342  0.313639  1
  Si  Si34  1  0.049943  0.301007  0.811826  1
  Au  Au35  1  0.794507  0.141226  0.073680  1
