# generated using pymatgen
data_Tl5Re3AgH27
_symmetry_space_group_name_H-M   'P 1'
_cell_length_a   9.44037800
_cell_length_b   9.37191816
_cell_length_c   5.78976500
_cell_angle_alpha   90.00000000
_cell_angle_beta   90.00000000
_cell_angle_gamma   119.76041191
_symmetry_Int_Tables_number   1
_chemical_formula_structural   Tl5Re3AgH27
_chemical_formula_sum   'Tl5 Re3 Ag1 H27'
_cell_volume   444.68540935
_cell_formula_units_Z   1
loop_
 _symmetry_equiv_pos_site_id
 _symmetry_equiv_pos_as_xyz
  1  'x, y, z'
loop_
 _atom_site_type_symbol
 _atom_site_label
 _atom_site_symmetry_multiplicity
 _atom_site_fract_x
 _atom_site_fract_y
 _atom_site_fract_z
 _atom_site_occupancy
  Tl  Tl0  1  0.752436  0.749714  0.500000  1
  Tl  Tl1  1  0.247564  0.997278  0.500000  1
  Tl  Tl2  1  0.000000  0.604151  0.000000  1
  Tl  Tl3  1  0.377018  0.398552  0.000000  1
  Tl  Tl4  1  0.622982  0.021534  0.000000  1
  Re  Re5  1  0.669932  0.320014  0.500000  1
  Re  Re6  1  0.330068  0.650082  0.500000  1
  Re  Re7  1  0.000000  0.009483  0.000000  1
  Ag  Ag8  1  0.000000  0.401148  0.500000  1
  H  H9  1  0.797276  0.292876  0.695896  1
  H  H10  1  0.684217  0.421580  0.747407  1
  H  H11  1  0.517248  0.206665  0.689012  1
  H  H12  1  0.202724  0.495601  0.304104  1
  H  H13  1  0.517248  0.206665  0.310988  1
  H  H14  1  0.797276  0.292876  0.304104  1
  H  H15  1  0.684217  0.421580  0.252593  1
  H  H16  1  0.315783  0.737364  0.747407  1
  H  H17  1  0.482752  0.689418  0.689012  1
  H  H18  1  0.184327  0.020807  0.000000  1
  H  H19  1  0.815673  0.836480  0.000000  1
  H  H20  1  0.000000  0.189208  0.000000  1
  H  H21  1  0.882320  0.019473  0.215631  1
  H  H22  1  0.117680  0.137153  0.784369  1
  H  H23  1  0.000000  0.873432  0.799772  1
  H  H24  1  0.000000  0.873432  0.200228  1
  H  H25  1  0.117680  0.137153  0.215631  1
  H  H26  1  0.882320  0.019473  0.784369  1
  H  H27  1  0.160856  0.674197  0.500000  1
  H  H28  1  0.461694  0.854693  0.500000  1
  H  H29  1  0.371127  0.495160  0.500000  1
  H  H30  1  0.538306  0.392999  0.500000  1
  H  H31  1  0.839144  0.513341  0.500000  1
  H  H32  1  0.628873  0.124033  0.500000  1
  H  H33  1  0.202724  0.495601  0.695896  1
  H  H34  1  0.315783  0.737364  0.252593  1
  H  H35  1  0.482752  0.689418  0.310988  1
