# generated using pymatgen
data_Nb12Al8VCo3C4
_symmetry_space_group_name_H-M   'P 1'
_cell_length_a   8.28679482
_cell_length_b   8.28679566
_cell_length_c   8.28679468
_cell_angle_alpha   59.81687698
_cell_angle_beta   59.81688650
_cell_angle_gamma   59.81688165
_symmetry_Int_Tables_number   1
_chemical_formula_structural   Nb12Al8VCo3C4
_chemical_formula_sum   'Nb12 Al8 V1 Co3 C4'
_cell_volume   400.71526528
_cell_formula_units_Z   1
loop_
 _symmetry_equiv_pos_site_id
 _symmetry_equiv_pos_as_xyz
  1  'x, y, z'
loop_
 _atom_site_type_symbol
 _atom_site_label
 _atom_site_symmetry_multiplicity
 _atom_site_fract_x
 _atom_site_fract_y
 _atom_site_fract_z
 _atom_site_occupancy
  Nb  Nb0  1  0.690780  0.308965  0.690780  1
  Nb  Nb1  1  0.941035  0.559220  0.559220  1
  Nb  Nb2  1  0.547869  0.945644  0.945644  1
  Nb  Nb3  1  0.945644  0.547869  0.945644  1
  Nb  Nb4  1  0.559220  0.559220  0.941035  1
  Nb  Nb5  1  0.945644  0.945644  0.547869  1
  Nb  Nb6  1  0.690780  0.690780  0.308965  1
  Nb  Nb7  1  0.308965  0.690780  0.690780  1
  Nb  Nb8  1  0.702131  0.304356  0.304356  1
  Nb  Nb9  1  0.304356  0.304356  0.702131  1
  Nb  Nb10  1  0.559220  0.941035  0.559220  1
  Nb  Nb11  1  0.304356  0.702131  0.304356  1
  Al  Al12  1  0.334218  0.334218  0.334218  1
  Al  Al13  1  0.245697  0.913563  0.913563  1
  Al  Al14  1  0.913563  0.245697  0.913563  1
  Al  Al15  1  0.913563  0.913563  0.245697  1
  Al  Al16  1  0.336437  0.004303  0.336437  1
  Al  Al17  1  0.336437  0.336437  0.004303  1
  Al  Al18  1  0.004303  0.336437  0.336437  1
  Al  Al19  1  0.915782  0.915782  0.915782  1
  V  V20  1  0.125000  0.125000  0.125000  1
  Co  Co21  1  0.625000  0.125000  0.125000  1
  Co  Co22  1  0.125000  0.625000  0.125000  1
  Co  Co23  1  0.125000  0.125000  0.625000  1
  C  C24  1  0.625000  0.625000  0.625000  1
  C  C25  1  0.125000  0.625000  0.625000  1
  C  C26  1  0.625000  0.125000  0.625000  1
  C  C27  1  0.625000  0.625000  0.125000  1
