# generated using pymatgen
data_Nd3Ho5Pu4O24
_symmetry_space_group_name_H-M   'P 1'
_cell_length_a   5.61591300
_cell_length_b   7.91062951
_cell_length_c   11.85670800
_cell_angle_alpha   74.55667814
_cell_angle_beta   90.00000000
_cell_angle_gamma   90.00000000
_symmetry_Int_Tables_number   1
_chemical_formula_structural   Nd3Ho5Pu4O24
_chemical_formula_sum   'Nd3 Ho5 Pu4 O24'
_cell_volume   507.72081698
_cell_formula_units_Z   1
loop_
 _symmetry_equiv_pos_site_id
 _symmetry_equiv_pos_as_xyz
  1  'x, y, z'
loop_
 _atom_site_type_symbol
 _atom_site_label
 _atom_site_symmetry_multiplicity
 _atom_site_fract_x
 _atom_site_fract_y
 _atom_site_fract_z
 _atom_site_occupancy
  Nd  Nd0  1  0.745548  0.000000  0.750000  1
  Nd  Nd1  1  0.252999  0.000000  0.250000  1
  Nd  Nd2  1  0.691681  0.500000  0.750000  1
  Ho  Ho3  1  0.183074  0.792908  0.579740  1
  Ho  Ho4  1  0.818123  0.790310  0.081755  1
  Ho  Ho5  1  0.302096  0.500000  0.250000  1
  Ho  Ho6  1  0.183074  0.207092  0.920260  1
  Ho  Ho7  1  0.818123  0.209690  0.418245  1
  Pu  Pu8  1  0.254997  0.721549  0.889053  1
  Pu  Pu9  1  0.743230  0.719692  0.386165  1
  Pu  Pu10  1  0.254997  0.278451  0.610947  1
  Pu  Pu11  1  0.743230  0.280308  0.113835  1
  O  O12  1  0.054442  0.941171  0.902513  1
  O  O13  1  0.555259  0.841360  0.936896  1
  O  O14  1  0.946304  0.942732  0.400128  1
  O  O15  1  0.444501  0.794671  0.726965  1
  O  O16  1  0.447263  0.841763  0.436714  1
  O  O17  1  0.972381  0.716909  0.765246  1
  O  O18  1  0.558279  0.796286  0.227658  1
  O  O19  1  0.873019  0.628424  0.551001  1
  O  O20  1  0.372147  0.483207  0.886479  1
  O  O21  1  0.035527  0.708680  0.266531  1
  O  O22  1  0.372147  0.516793  0.613521  1
  O  O23  1  0.873019  0.371576  0.948999  1
  O  O24  1  0.130755  0.629014  0.057081  1
  O  O25  1  0.614536  0.482534  0.381126  1
  O  O26  1  0.972381  0.283091  0.734754  1
  O  O27  1  0.614536  0.517466  0.118874  1
  O  O28  1  0.130755  0.370986  0.442919  1
  O  O29  1  0.444501  0.205329  0.773035  1
  O  O30  1  0.035527  0.291320  0.233469  1
  O  O31  1  0.555259  0.158640  0.563104  1
  O  O32  1  0.558279  0.203714  0.272342  1
  O  O33  1  0.054442  0.058829  0.597487  1
  O  O34  1  0.447263  0.158237  0.063286  1
  O  O35  1  0.946304  0.057268  0.099872  1
