# generated using pymatgen
data_DyTh(AlRh)2
_symmetry_space_group_name_H-M   'P 1'
_cell_length_a   4.29986500
_cell_length_b   6.92742000
_cell_length_c   8.05699600
_cell_angle_alpha   90.00000000
_cell_angle_beta   90.00000000
_cell_angle_gamma   90.00000000
_symmetry_Int_Tables_number   1
_chemical_formula_structural   DyTh(AlRh)2
_chemical_formula_sum   'Dy2 Th2 Al4 Rh4'
_cell_volume   239.99350457
_cell_formula_units_Z   2
loop_
 _symmetry_equiv_pos_site_id
 _symmetry_equiv_pos_as_xyz
  1  'x, y, z'
loop_
 _atom_site_type_symbol
 _atom_site_label
 _atom_site_symmetry_multiplicity
 _atom_site_fract_x
 _atom_site_fract_y
 _atom_site_fract_z
 _atom_site_occupancy
  Dy  Dy0  1  0.250000  0.457615  0.182627  1
  Dy  Dy1  1  0.750000  0.042385  0.682627  1
  Th  Th2  1  0.250000  0.962267  0.324343  1
  Th  Th3  1  0.750000  0.537733  0.824343  1
  Al  Al4  1  0.750000  0.625824  0.438580  1
  Al  Al5  1  0.750000  0.133656  0.058051  1
  Al  Al6  1  0.250000  0.366344  0.558051  1
  Al  Al7  1  0.250000  0.874176  0.938580  1
  Rh  Rh8  1  0.750000  0.758190  0.120964  1
  Rh  Rh9  1  0.750000  0.257105  0.375434  1
  Rh  Rh10  1  0.250000  0.242895  0.875434  1
  Rh  Rh11  1  0.250000  0.741810  0.620964  1
