# generated using pymatgen
data_CePr5IrBr10
_symmetry_space_group_name_H-M   'P 1'
_cell_length_a   7.75258179
_cell_length_b   9.56066940
_cell_length_c   9.75900600
_cell_angle_alpha   108.38943353
_cell_angle_beta   97.15838914
_cell_angle_gamma   105.66525665
_symmetry_Int_Tables_number   1
_chemical_formula_structural   CePr5IrBr10
_chemical_formula_sum   'Ce1 Pr5 Ir1 Br10'
_cell_volume   643.24444621
_cell_formula_units_Z   1
loop_
 _symmetry_equiv_pos_site_id
 _symmetry_equiv_pos_as_xyz
  1  'x, y, z'
loop_
 _atom_site_type_symbol
 _atom_site_label
 _atom_site_symmetry_multiplicity
 _atom_site_fract_x
 _atom_site_fract_y
 _atom_site_fract_z
 _atom_site_occupancy
  Ce  Ce0  1  0.536018  0.204698  0.410012  1
  Pr  Pr1  1  0.463680  0.790327  0.589051  1
  Pr  Pr2  1  0.133892  0.357443  0.312695  1
  Pr  Pr3  1  0.867072  0.641784  0.686850  1
  Pr  Pr4  1  0.632024  0.550783  0.252668  1
  Pr  Pr5  1  0.368859  0.446244  0.747213  1
  Ir  Ir6  1  0.500948  0.494605  0.498803  1
  Br  Br7  1  0.154924  0.044105  0.228710  1
  Br  Br8  1  0.844135  0.955357  0.768858  1
  Br  Br9  1  0.253566  0.424837  0.050759  1
  Br  Br10  1  0.744478  0.588358  0.953745  1
  Br  Br11  1  0.708979  0.246666  0.155657  1
  Br  Br12  1  0.291816  0.753321  0.843839  1
  Br  Br13  1  0.047023  0.675882  0.420118  1
  Br  Br14  1  0.954881  0.327102  0.580268  1
  Br  Br15  1  0.412390  0.128745  0.669449  1
  Br  Br16  1  0.585315  0.869741  0.331303  1
