# generated using pymatgen
data_LuHfCrB6
_symmetry_space_group_name_H-M   'P 1'
_cell_length_a   3.43765600
_cell_length_b   8.97239000
_cell_length_c   11.33383200
_cell_angle_alpha   90.00000000
_cell_angle_beta   90.00000000
_cell_angle_gamma   90.00000000
_symmetry_Int_Tables_number   1
_chemical_formula_structural   LuHfCrB6
_chemical_formula_sum   'Lu4 Hf4 Cr4 B24'
_cell_volume   349.58060447
_cell_formula_units_Z   4
loop_
 _symmetry_equiv_pos_site_id
 _symmetry_equiv_pos_as_xyz
  1  'x, y, z'
loop_
 _atom_site_type_symbol
 _atom_site_label
 _atom_site_symmetry_multiplicity
 _atom_site_fract_x
 _atom_site_fract_y
 _atom_site_fract_z
 _atom_site_occupancy
  Lu  Lu0  1  0.000000  0.822598  0.085407  1
  Lu  Lu1  1  0.000000  0.177402  0.914593  1
  Lu  Lu2  1  0.000000  0.322598  0.414593  1
  Lu  Lu3  1  0.000000  0.677402  0.585407  1
  Hf  Hf4  1  0.000000  0.443978  0.129101  1
  Hf  Hf5  1  0.000000  0.556022  0.870899  1
  Hf  Hf6  1  0.000000  0.943978  0.370899  1
  Hf  Hf7  1  0.000000  0.056022  0.629101  1
  Cr  Cr8  1  0.000000  0.142002  0.182691  1
  Cr  Cr9  1  0.000000  0.857998  0.817309  1
  Cr  Cr10  1  0.000000  0.642002  0.317309  1
  Cr  Cr11  1  0.000000  0.357998  0.682691  1
  B  B12  1  0.500000  0.053797  0.066806  1
  B  B13  1  0.500000  0.946203  0.933194  1
  B  B14  1  0.500000  0.553797  0.433194  1
  B  B15  1  0.500000  0.446203  0.566806  1
  B  B16  1  0.500000  0.251390  0.081635  1
  B  B17  1  0.500000  0.748610  0.918365  1
  B  B18  1  0.500000  0.751390  0.418365  1
  B  B19  1  0.500000  0.248610  0.581635  1
  B  B20  1  0.500000  0.294964  0.236163  1
  B  B21  1  0.500000  0.705036  0.763837  1
  B  B22  1  0.500000  0.794964  0.263837  1
  B  B23  1  0.500000  0.205036  0.736163  1
  B  B24  1  0.500000  0.130786  0.316663  1
  B  B25  1  0.500000  0.869214  0.683337  1
  B  B26  1  0.500000  0.630786  0.183337  1
  B  B27  1  0.500000  0.369214  0.816663  1
  B  B28  1  0.500000  0.481886  0.287670  1
  B  B29  1  0.500000  0.518114  0.712330  1
  B  B30  1  0.500000  0.981886  0.212330  1
  B  B31  1  0.500000  0.018114  0.787670  1
  B  B32  1  0.500000  0.100215  0.473093  1
  B  B33  1  0.500000  0.899785  0.526907  1
  B  B34  1  0.500000  0.600215  0.026907  1
  B  B35  1  0.500000  0.399785  0.973093  1
