# generated using pymatgen
data_Nb9Re8Os
_symmetry_space_group_name_H-M   'P 1'
_cell_length_a   7.84222707
_cell_length_b   7.84070250
_cell_length_c   5.59259201
_cell_angle_alpha   89.99761526
_cell_angle_beta   90.00118597
_cell_angle_gamma   119.99356426
_symmetry_Int_Tables_number   1
_chemical_formula_structural   Nb9Re8Os
_chemical_formula_sum   'Nb9 Re8 Os1'
_cell_volume   297.82854425
_cell_formula_units_Z   1
loop_
 _symmetry_equiv_pos_site_id
 _symmetry_equiv_pos_as_xyz
  1  'x, y, z'
loop_
 _atom_site_type_symbol
 _atom_site_label
 _atom_site_symmetry_multiplicity
 _atom_site_fract_x
 _atom_site_fract_y
 _atom_site_fract_z
 _atom_site_occupancy
  Nb  Nb0  1  0.666793  0.000057  0.225450  1
  Nb  Nb1  1  0.333207  0.333264  0.225450  1
  Nb  Nb2  1  0.000000  0.666662  0.225486  1
  Nb  Nb3  1  0.665589  0.332211  0.558228  1
  Nb  Nb4  1  0.334411  0.666622  0.558228  1
  Nb  Nb5  1  0.000000  0.001175  0.558359  1
  Nb  Nb6  1  0.334373  0.001141  0.892586  1
  Nb  Nb7  1  0.000000  0.332096  0.892589  1
  Nb  Nb8  1  0.665628  0.666769  0.892586  1
  Re  Re9  1  0.667492  0.334084  0.058600  1
  Re  Re10  1  0.332508  0.666592  0.058600  1
  Re  Re11  1  0.000000  0.999359  0.058481  1
  Re  Re12  1  0.332477  0.999233  0.392363  1
  Re  Re13  1  0.000000  0.333978  0.392344  1
  Re  Re14  1  0.667524  0.666757  0.392363  1
  Re  Re15  1  0.666949  0.000097  0.725411  1
  Re  Re16  1  0.333051  0.333147  0.725411  1
  Os  Os17  1  0.000000  0.666755  0.725306  1
