# generated using pymatgen
data_La6Pr4Tl5InBr2
_symmetry_space_group_name_H-M   'P 1'
_cell_length_a   9.79127443
_cell_length_b   9.79127428
_cell_length_c   6.88335700
_cell_angle_alpha   90.00000000
_cell_angle_beta   90.00000000
_cell_angle_gamma   119.96607634
_symmetry_Int_Tables_number   1
_chemical_formula_structural   La6Pr4Tl5InBr2
_chemical_formula_sum   'La6 Pr4 Tl5 In1 Br2'
_cell_volume   571.68621799
_cell_formula_units_Z   1
loop_
 _symmetry_equiv_pos_site_id
 _symmetry_equiv_pos_as_xyz
  1  'x, y, z'
loop_
 _atom_site_type_symbol
 _atom_site_label
 _atom_site_symmetry_multiplicity
 _atom_site_fract_x
 _atom_site_fract_y
 _atom_site_fract_z
 _atom_site_occupancy
  La  La0  1  0.733634  0.733634  0.250000  1
  La  La1  1  0.999851  0.733699  0.750000  1
  La  La2  1  0.733699  0.999851  0.750000  1
  La  La3  1  0.266292  0.266292  0.750000  1
  La  La4  1  0.999979  0.266255  0.250000  1
  La  La5  1  0.266255  0.999979  0.250000  1
  Pr  Pr6  1  0.333525  0.666619  0.500200  1
  Pr  Pr7  1  0.666619  0.333525  0.500200  1
  Pr  Pr8  1  0.333525  0.666619  0.999800  1
  Pr  Pr9  1  0.666619  0.333525  0.999800  1
  Tl  Tl10  1  0.391291  0.000030  0.750000  1
  Tl  Tl11  1  0.999943  0.608635  0.250000  1
  Tl  Tl12  1  0.608635  0.999943  0.250000  1
  Tl  Tl13  1  0.000030  0.391291  0.750000  1
  Tl  Tl14  1  0.391387  0.391387  0.250000  1
  In  In15  1  0.608712  0.608712  0.750000  1
  Br  Br16  1  0.000003  0.000003  0.499982  1
  Br  Br17  1  0.000003  0.000003  0.000018  1
