# generated using pymatgen
data_PrYErGa8Ag3
_symmetry_space_group_name_H-M   'P 1'
_cell_length_a   4.36468191
_cell_length_b   8.42802126
_cell_length_c   8.42802046
_cell_angle_alpha   69.08191761
_cell_angle_beta   74.99288770
_cell_angle_gamma   74.99288895
_symmetry_Int_Tables_number   1
_chemical_formula_structural   PrYErGa8Ag3
_chemical_formula_sum   'Pr1 Y1 Er1 Ga8 Ag3'
_cell_volume   274.91581796
_cell_formula_units_Z   1
loop_
 _symmetry_equiv_pos_site_id
 _symmetry_equiv_pos_as_xyz
  1  'x, y, z'
loop_
 _atom_site_type_symbol
 _atom_site_label
 _atom_site_symmetry_multiplicity
 _atom_site_fract_x
 _atom_site_fract_y
 _atom_site_fract_z
 _atom_site_occupancy
  Pr  Pr0  1  0.500119  0.499881  0.499881  1
  Y  Y1  1  0.199827  0.800173  0.800173  1
  Er  Er2  1  0.800557  0.199443  0.199443  1
  Ga  Ga3  1  0.355241  0.360617  0.928899  1
  Ga  Ga4  1  0.644556  0.638403  0.072486  1
  Ga  Ga5  1  0.355241  0.928899  0.360617  1
  Ga  Ga6  1  0.644556  0.072486  0.638403  1
  Ga  Ga7  1  0.161064  0.471451  0.206421  1
  Ga  Ga8  1  0.839564  0.527590  0.793281  1
  Ga  Ga9  1  0.161064  0.206421  0.471451  1
  Ga  Ga10  1  0.839564  0.793281  0.527590  1
  Ag  Ag11  1  0.499554  0.000446  0.000446  1
  Ag  Ag12  1  0.999545  0.806232  0.194679  1
  Ag  Ag13  1  0.999545  0.194679  0.806232  1
