# generated using pymatgen
data_Ba6Y3Er(WO9)2
_symmetry_space_group_name_H-M   'P 1'
_cell_length_a   6.10107705
_cell_length_b   8.64676179
_cell_length_c   10.57111064
_cell_angle_alpha   65.85917562
_cell_angle_beta   73.22744340
_cell_angle_gamma   90.00000059
_symmetry_Int_Tables_number   1
_chemical_formula_structural   Ba6Y3Er(WO9)2
_chemical_formula_sum   'Ba6 Y3 Er1 W2 O18'
_cell_volume   482.78627562
_cell_formula_units_Z   1
loop_
 _symmetry_equiv_pos_site_id
 _symmetry_equiv_pos_as_xyz
  1  'x, y, z'
loop_
 _atom_site_type_symbol
 _atom_site_label
 _atom_site_symmetry_multiplicity
 _atom_site_fract_x
 _atom_site_fract_y
 _atom_site_fract_z
 _atom_site_occupancy
  Ba  Ba0  1  0.500000  0.266178  0.000000  1
  Ba  Ba1  1  0.839704  0.579618  0.320591  1
  Ba  Ba2  1  0.160296  0.900210  0.679409  1
  Ba  Ba3  1  0.500000  0.733822  0.000000  1
  Ba  Ba4  1  0.839704  0.099790  0.320591  1
  Ba  Ba5  1  0.160296  0.420382  0.679409  1
  Y  Y6  1  0.000000  0.000000  0.000000  1
  Y  Y7  1  0.329075  0.329075  0.341850  1
  Y  Y8  1  0.670925  0.670925  0.658150  1
  Er  Er9  1  0.000000  0.500000  0.000000  1
  W  W10  1  0.334258  0.834258  0.331484  1
  W  W11  1  0.665742  0.165742  0.668515  1
  O  O12  1  0.000000  0.247824  0.000000  1
  O  O13  1  0.330837  0.602360  0.338325  1
  O  O14  1  0.669163  0.940687  0.661675  1
  O  O15  1  0.161466  0.411766  0.176468  1
  O  O16  1  0.489526  0.759504  0.480990  1
  O  O17  1  0.817206  0.089668  0.820662  1
  O  O18  1  0.337933  0.588234  0.823532  1
  O  O19  1  0.637870  0.910332  0.179338  1
  O  O20  1  0.970518  0.240496  0.519010  1
  O  O21  1  0.000000  0.752176  0.000000  1
  O  O22  1  0.330837  0.059313  0.338325  1
  O  O23  1  0.669163  0.397640  0.661675  1
  O  O24  1  0.838534  0.588234  0.823532  1
  O  O25  1  0.182794  0.910332  0.179338  1
  O  O26  1  0.510474  0.240496  0.519010  1
  O  O27  1  0.662067  0.411766  0.176468  1
  O  O28  1  0.029482  0.759504  0.480990  1
  O  O29  1  0.362130  0.089668  0.820662  1
