# generated using pymatgen
data_Tb7Ce2Er(SiB4)4
_symmetry_space_group_name_H-M   'P 1'
_cell_length_a   7.26396839
_cell_length_b   7.26467764
_cell_length_c   8.19031815
_cell_angle_alpha   89.98760177
_cell_angle_beta   89.97369382
_cell_angle_gamma   90.08299833
_symmetry_Int_Tables_number   1
_chemical_formula_structural   Tb7Ce2Er(SiB4)4
_chemical_formula_sum   'Tb7 Ce2 Er1 Si4 B16'
_cell_volume   432.20576338
_cell_formula_units_Z   1
loop_
 _symmetry_equiv_pos_site_id
 _symmetry_equiv_pos_as_xyz
  1  'x, y, z'
loop_
 _atom_site_type_symbol
 _atom_site_label
 _atom_site_symmetry_multiplicity
 _atom_site_fract_x
 _atom_site_fract_y
 _atom_site_fract_z
 _atom_site_occupancy
  Tb  Tb0  1  0.318883  0.819156  0.222344  1
  Tb  Tb1  1  0.819539  0.680274  0.221856  1
  Tb  Tb2  1  0.819875  0.680709  0.778153  1
  Tb  Tb3  1  0.681117  0.180844  0.777656  1
  Tb  Tb4  1  0.180461  0.319726  0.778144  1
  Tb  Tb5  1  0.180125  0.319291  0.221847  1
  Tb  Tb6  1  0.500000  0.500000  0.500000  1
  Ce  Ce7  1  0.682481  0.182285  0.228507  1
  Ce  Ce8  1  0.317519  0.817715  0.771493  1
  Er  Er9  1  0.000000  0.000000  0.500000  1
  Si  Si10  1  0.113571  0.615755  0.500568  1
  Si  Si11  1  0.886429  0.384245  0.499432  1
  Si  Si12  1  0.384275  0.113463  0.499937  1
  Si  Si13  1  0.615725  0.886537  0.500063  1
  B  B14  1  0.172415  0.039042  0.999478  1
  B  B15  1  0.827585  0.960958  0.000522  1
  B  B16  1  0.960277  0.171912  0.000099  1
  B  B17  1  0.328095  0.539793  0.999910  1
  B  B18  1  0.039723  0.828088  0.999901  1
  B  B19  1  0.671905  0.460207  0.000090  1
  B  B20  1  0.539102  0.672397  0.999483  1
  B  B21  1  0.460898  0.327603  0.000517  1
  B  B22  1  0.091188  0.591156  0.998488  1
  B  B23  1  0.908812  0.408844  0.001512  1
  B  B24  1  0.409497  0.090567  0.000033  1
  B  B25  1  0.590503  0.909433  0.999967  1
  B  B26  1  0.999007  0.000068  0.160618  1
  B  B27  1  0.000993  0.999932  0.839382  1
  B  B28  1  0.499953  0.500912  0.839861  1
  B  B29  1  0.500047  0.499088  0.160139  1
