# generated using pymatgen
data_Y8Hf12Si15As
_symmetry_space_group_name_H-M   'P 1'
_cell_length_a   7.28003146
_cell_length_b   7.29382101
_cell_length_c   13.39587404
_cell_angle_alpha   89.71783150
_cell_angle_beta   89.96267782
_cell_angle_gamma   89.92382986
_symmetry_Int_Tables_number   1
_chemical_formula_structural   Y8Hf12Si15As
_chemical_formula_sum   'Y8 Hf12 Si15 As1'
_cell_volume   711.30141531
_cell_formula_units_Z   1
loop_
 _symmetry_equiv_pos_site_id
 _symmetry_equiv_pos_as_xyz
  1  'x, y, z'
loop_
 _atom_site_type_symbol
 _atom_site_label
 _atom_site_symmetry_multiplicity
 _atom_site_fract_x
 _atom_site_fract_y
 _atom_site_fract_z
 _atom_site_occupancy
  Y  Y0  1  0.995696  0.345132  0.215146  1
  Y  Y1  1  0.004881  0.656033  0.715325  1
  Y  Y2  1  0.153051  0.498967  0.466670  1
  Y  Y3  1  0.506861  0.842611  0.033835  1
  Y  Y4  1  0.844156  0.503664  0.964834  1
  Y  Y5  1  0.495925  0.154787  0.535580  1
  Y  Y6  1  0.344786  0.995899  0.785168  1
  Y  Y7  1  0.654765  0.004258  0.284219  1
  Hf  Hf8  1  0.174421  0.175175  0.000175  1
  Hf  Hf9  1  0.826275  0.826296  0.500069  1
  Hf  Hf10  1  0.325153  0.677640  0.249777  1
  Hf  Hf11  1  0.674401  0.325440  0.750006  1
  Hf  Hf12  1  0.149599  0.995492  0.372985  1
  Hf  Hf13  1  0.850766  0.003982  0.874717  1
  Hf  Hf14  1  0.503364  0.650078  0.624785  1
  Hf  Hf15  1  0.350932  0.496293  0.875396  1
  Hf  Hf16  1  0.494827  0.348125  0.125073  1
  Hf  Hf17  1  0.653258  0.506573  0.376742  1
  Hf  Hf18  1  0.996569  0.149990  0.625575  1
  Hf  Hf19  1  0.001214  0.848172  0.124404  1
  Si  Si20  1  0.637193  0.705161  0.816579  1
  Si  Si21  1  0.203961  0.863552  0.566310  1
  Si  Si22  1  0.137147  0.794858  0.932545  1
  Si  Si23  1  0.795017  0.138230  0.067185  1
  Si  Si24  1  0.862933  0.204269  0.432739  1
  Si  Si25  1  0.295750  0.362265  0.682950  1
  Si  Si26  1  0.703046  0.635836  0.183744  1
  Si  Si27  1  0.293319  0.039143  0.179933  1
  Si  Si28  1  0.705683  0.951089  0.685700  1
  Si  Si29  1  0.451562  0.795424  0.435910  1
  Si  Si30  1  0.205025  0.548022  0.064474  1
  Si  Si31  1  0.549120  0.205102  0.935794  1
  Si  Si32  1  0.794285  0.451241  0.565124  1
  Si  Si33  1  0.049194  0.294832  0.814099  1
  Si  Si34  1  0.951906  0.705399  0.314602  1
  As  As35  1  0.363958  0.300970  0.321830  1
