# generated using pymatgen
data_Lu2ZrPtF14
_symmetry_space_group_name_H-M   'P 1'
_cell_length_a   5.58764838
_cell_length_b   8.86057463
_cell_length_c   11.89749770
_cell_angle_alpha   62.57422709
_cell_angle_beta   90.14498462
_cell_angle_gamma   89.98560059
_symmetry_Int_Tables_number   1
_chemical_formula_structural   Lu2ZrPtF14
_chemical_formula_sum   'Lu4 Zr2 Pt2 F28'
_cell_volume   522.83661051
_cell_formula_units_Z   2
loop_
 _symmetry_equiv_pos_site_id
 _symmetry_equiv_pos_as_xyz
  1  'x, y, z'
loop_
 _atom_site_type_symbol
 _atom_site_label
 _atom_site_symmetry_multiplicity
 _atom_site_fract_x
 _atom_site_fract_y
 _atom_site_fract_z
 _atom_site_occupancy
  Lu  Lu0  1  0.257213  0.814512  0.271829  1
  Lu  Lu1  1  0.742787  0.185488  0.728171  1
  Lu  Lu2  1  0.759364  0.179774  0.241294  1
  Lu  Lu3  1  0.240636  0.820226  0.758706  1
  Zr  Zr4  1  0.755651  0.725265  0.045505  1
  Zr  Zr5  1  0.244349  0.274735  0.954495  1
  Pt  Pt6  1  0.260072  0.273036  0.455351  1
  Pt  Pt7  1  0.739928  0.726964  0.544649  1
  F  F8  1  0.939401  0.702813  0.418055  1
  F  F9  1  0.060599  0.297187  0.581945  1
  F  F10  1  0.471760  0.290861  0.081801  1
  F  F11  1  0.528240  0.709139  0.918199  1
  F  F12  1  0.483872  0.732262  0.156569  1
  F  F13  1  0.516128  0.267738  0.843431  1
  F  F14  1  0.969598  0.268884  0.362789  1
  F  F15  1  0.030402  0.731116  0.637211  1
  F  F16  1  0.971697  0.752620  0.174704  1
  F  F17  1  0.028303  0.247380  0.825296  1
  F  F18  1  0.455126  0.258178  0.322167  1
  F  F19  1  0.544874  0.741822  0.677833  1
  F  F20  1  0.782025  0.468300  0.145174  1
  F  F21  1  0.217975  0.531700  0.854826  1
  F  F22  1  0.262943  0.522811  0.358194  1
  F  F23  1  0.737057  0.477189  0.641806  1
  F  F24  1  0.945010  0.269511  0.055942  1
  F  F25  1  0.054990  0.730489  0.944058  1
  F  F26  1  0.442134  0.713775  0.459820  1
  F  F27  1  0.557866  0.286225  0.540180  1
  F  F28  1  0.737689  0.977229  0.452597  1
  F  F29  1  0.262311  0.022771  0.547403  1
  F  F30  1  0.247647  0.018417  0.063668  1
  F  F31  1  0.752353  0.981583  0.936332  1
  F  F32  1  0.569041  0.972388  0.242771  1
  F  F33  1  0.430959  0.027612  0.757229  1
  F  F34  1  0.071371  0.022691  0.273498  1
  F  F35  1  0.928629  0.977309  0.726502  1
