# generated using pymatgen
data_Nd4Al24Pd8Au
_symmetry_space_group_name_H-M   'P 1'
_cell_length_a   7.58930107
_cell_length_b   7.60267976
_cell_length_c   13.37388516
_cell_angle_alpha   84.78074233
_cell_angle_beta   100.68761292
_cell_angle_gamma   119.67958515
_symmetry_Int_Tables_number   1
_chemical_formula_structural   Nd4Al24Pd8Au
_chemical_formula_sum   'Nd4 Al24 Pd8 Au1'
_cell_volume   658.79425475
_cell_formula_units_Z   1
loop_
 _symmetry_equiv_pos_site_id
 _symmetry_equiv_pos_as_xyz
  1  'x, y, z'
loop_
 _atom_site_type_symbol
 _atom_site_label
 _atom_site_symmetry_multiplicity
 _atom_site_fract_x
 _atom_site_fract_y
 _atom_site_fract_z
 _atom_site_occupancy
  Nd  Nd0  1  0.437916  0.829862  0.809422  1
  Nd  Nd1  1  0.562259  0.168828  0.190991  1
  Nd  Nd2  1  0.767639  0.502454  0.809350  1
  Nd  Nd3  1  0.231093  0.497638  0.190545  1
  Al  Al4  1  0.479964  0.165655  0.947256  1
  Al  Al5  1  0.521023  0.833764  0.053819  1
  Al  Al6  1  0.015571  0.160430  0.558405  1
  Al  Al7  1  0.978515  0.834125  0.438430  1
  Al  Al8  1  0.353419  0.839563  0.557075  1
  Al  Al9  1  0.645406  0.166531  0.440640  1
  Al  Al10  1  0.618895  0.834870  0.331448  1
  Al  Al11  1  0.381396  0.160028  0.670402  1
  Al  Al12  1  0.052401  0.491738  0.670093  1
  Al  Al13  1  0.943139  0.508137  0.331494  1
  Al  Al14  1  0.739920  0.848168  0.668992  1
  Al  Al15  1  0.267317  0.158671  0.332745  1
  Al  Al16  1  0.147348  0.497514  0.947443  1
  Al  Al17  1  0.852251  0.503201  0.053439  1
  Al  Al18  1  0.820099  0.835097  0.957382  1
  Al  Al19  1  0.180342  0.164857  0.043805  1
  Al  Al20  1  0.310330  0.499617  0.436243  1
  Al  Al21  1  0.694375  0.500996  0.557511  1
  Al  Al22  1  0.101428  0.836344  0.184189  1
  Al  Al23  1  0.897822  0.163926  0.816284  1
  Al  Al24  1  0.303173  0.363801  0.818158  1
  Al  Al25  1  0.695284  0.633138  0.185821  1
  Al  Al26  1  0.102796  0.960147  0.815719  1
  Al  Al27  1  0.897462  0.038868  0.184625  1
  Pd  Pd28  1  0.614891  0.494739  0.364012  1
  Pd  Pd29  1  0.171496  0.829369  0.999103  1
  Pd  Pd30  1  0.828414  0.170805  0.000221  1
  Pd  Pd31  1  0.293043  0.833615  0.363588  1
  Pd  Pd32  1  0.707166  0.166908  0.636018  1
  Pd  Pd33  1  0.047379  0.827220  0.635503  1
  Pd  Pd34  1  0.952300  0.172660  0.363963  1
  Pd  Pd35  1  0.500082  0.500074  0.000127  1
  Au  Au36  1  0.386647  0.506645  0.635739  1
