# generated using pymatgen
data_Eu4P4Pt3Rh
_symmetry_space_group_name_H-M   'P 1'
_cell_length_a   6.30308324
_cell_length_b   6.30473245
_cell_length_c   6.30451816
_cell_angle_alpha   89.97977364
_cell_angle_beta   90.02167635
_cell_angle_gamma   90.02793566
_symmetry_Int_Tables_number   1
_chemical_formula_structural   Eu4P4Pt3Rh
_chemical_formula_sum   'Eu4 P4 Pt3 Rh1'
_cell_volume   250.53678191
_cell_formula_units_Z   1
loop_
 _symmetry_equiv_pos_site_id
 _symmetry_equiv_pos_as_xyz
  1  'x, y, z'
loop_
 _atom_site_type_symbol
 _atom_site_label
 _atom_site_symmetry_multiplicity
 _atom_site_fract_x
 _atom_site_fract_y
 _atom_site_fract_z
 _atom_site_occupancy
  Eu  Eu0  1  0.156911  0.155115  0.156868  1
  Eu  Eu1  1  0.844938  0.656813  0.342966  1
  Eu  Eu2  1  0.343305  0.843113  0.654783  1
  Eu  Eu3  1  0.656777  0.343251  0.843246  1
  P  P4  1  0.563463  0.927743  0.068580  1
  P  P5  1  0.431467  0.436523  0.427760  1
  P  P6  1  0.933265  0.066682  0.566682  1
  P  P7  1  0.072181  0.568496  0.936610  1
  Pt  Pt8  1  0.662912  0.164144  0.335109  1
  Pt  Pt9  1  0.164901  0.337119  0.664148  1
  Pt  Pt10  1  0.835862  0.835050  0.837161  1
  Rh  Rh11  1  0.334018  0.665955  0.166090  1
