# generated using pymatgen
data_Tb2Co3P6Ir6Ru
_symmetry_space_group_name_H-M   'P 1'
_cell_length_a   3.89571900
_cell_length_b   10.67403400
_cell_length_c   12.28823600
_cell_angle_alpha   90.00000000
_cell_angle_beta   90.00000000
_cell_angle_gamma   90.00000000
_symmetry_Int_Tables_number   1
_chemical_formula_structural   Tb2Co3P6Ir6Ru
_chemical_formula_sum   'Tb4 Co6 P12 Ir12 Ru2'
_cell_volume   510.98217300
_cell_formula_units_Z   2
loop_
 _symmetry_equiv_pos_site_id
 _symmetry_equiv_pos_as_xyz
  1  'x, y, z'
loop_
 _atom_site_type_symbol
 _atom_site_label
 _atom_site_symmetry_multiplicity
 _atom_site_fract_x
 _atom_site_fract_y
 _atom_site_fract_z
 _atom_site_occupancy
  Tb  Tb0  1  0.250000  0.583662  0.710716  1
  Tb  Tb1  1  0.250000  0.916338  0.210716  1
  Tb  Tb2  1  0.750000  0.412971  0.290858  1
  Tb  Tb3  1  0.750000  0.087029  0.790858  1
  Co  Co4  1  0.750000  0.116672  0.303296  1
  Co  Co5  1  0.750000  0.383328  0.803296  1
  Co  Co6  1  0.250000  0.462704  0.931570  1
  Co  Co7  1  0.250000  0.037296  0.431570  1
  Co  Co8  1  0.750000  0.538139  0.064572  1
  Co  Co9  1  0.750000  0.961861  0.564572  1
  P  P10  1  0.250000  0.424064  0.104564  1
  P  P11  1  0.250000  0.075936  0.604564  1
  P  P12  1  0.750000  0.567165  0.889446  1
  P  P13  1  0.750000  0.932835  0.389446  1
  P  P14  1  0.250000  0.274718  0.870245  1
  P  P15  1  0.250000  0.225282  0.370245  1
  P  P16  1  0.750000  0.729232  0.126300  1
  P  P17  1  0.750000  0.770768  0.626300  1
  P  P18  1  0.250000  0.597737  0.387737  1
  P  P19  1  0.250000  0.902263  0.887737  1
  P  P20  1  0.750000  0.402366  0.622838  1
  P  P21  1  0.750000  0.097634  0.122838  1
  Ir  Ir22  1  0.750000  0.277222  0.012075  1
  Ir  Ir23  1  0.750000  0.222778  0.512075  1
  Ir  Ir24  1  0.250000  0.406743  0.478710  1
  Ir  Ir25  1  0.250000  0.093257  0.978710  1
  Ir  Ir26  1  0.750000  0.589494  0.519302  1
  Ir  Ir27  1  0.750000  0.910506  0.019302  1
  Ir  Ir28  1  0.250000  0.225975  0.179477  1
  Ir  Ir29  1  0.250000  0.274025  0.679477  1
  Ir  Ir30  1  0.750000  0.767356  0.821120  1
  Ir  Ir31  1  0.750000  0.732644  0.321120  1
  Ir  Ir32  1  0.250000  0.888154  0.699652  1
  Ir  Ir33  1  0.250000  0.611846  0.199652  1
  Ru  Ru34  1  0.250000  0.720041  0.987518  1
  Ru  Ru35  1  0.250000  0.779959  0.487518  1
