# generated using pymatgen
data_Ce5B4Rh15
_symmetry_space_group_name_H-M   'P 1'
_cell_length_a   4.22942000
_cell_length_b   4.22942000
_cell_length_c   20.81891900
_cell_angle_alpha   90.00000000
_cell_angle_beta   90.00000000
_cell_angle_gamma   90.00000000
_symmetry_Int_Tables_number   1
_chemical_formula_structural   Ce5B4Rh15
_chemical_formula_sum   'Ce5 B4 Rh15'
_cell_volume   372.40868851
_cell_formula_units_Z   1
loop_
 _symmetry_equiv_pos_site_id
 _symmetry_equiv_pos_as_xyz
  1  'x, y, z'
loop_
 _atom_site_type_symbol
 _atom_site_label
 _atom_site_symmetry_multiplicity
 _atom_site_fract_x
 _atom_site_fract_y
 _atom_site_fract_z
 _atom_site_occupancy
  Ce  Ce0  1  0.000000  0.000000  0.906649  1
  Ce  Ce1  1  0.000000  0.000000  0.093351  1
  Ce  Ce2  1  0.000000  0.000000  0.297249  1
  Ce  Ce3  1  0.000000  0.000000  0.500000  1
  Ce  Ce4  1  0.000000  0.000000  0.702751  1
  B  B5  1  0.500000  0.500000  0.188599  1
  B  B6  1  0.500000  0.500000  0.397085  1
  B  B7  1  0.500000  0.500000  0.602915  1
  B  B8  1  0.500000  0.500000  0.811401  1
  Rh  Rh9  1  0.500000  0.500000  0.908867  1
  Rh  Rh10  1  0.500000  0.500000  0.091133  1
  Rh  Rh11  1  0.500000  0.500000  0.296025  1
  Rh  Rh12  1  0.500000  0.500000  0.500000  1
  Rh  Rh13  1  0.500000  0.500000  0.703975  1
  Rh  Rh14  1  0.500000  0.000000  0.000000  1
  Rh  Rh15  1  0.500000  0.000000  0.198642  1
  Rh  Rh16  1  0.500000  0.000000  0.399455  1
  Rh  Rh17  1  0.500000  0.000000  0.600545  1
  Rh  Rh18  1  0.500000  0.000000  0.801358  1
  Rh  Rh19  1  0.000000  0.500000  0.000000  1
  Rh  Rh20  1  0.000000  0.500000  0.198642  1
  Rh  Rh21  1  0.000000  0.500000  0.399455  1
  Rh  Rh22  1  0.000000  0.500000  0.600545  1
  Rh  Rh23  1  0.000000  0.500000  0.801358  1
