# generated using pymatgen
data_Sr6Cr(RuO6)2
_symmetry_space_group_name_H-M   'P 1'
_cell_length_a   8.72858540
_cell_length_b   8.72858484
_cell_length_c   6.98138899
_cell_angle_alpha   67.99731179
_cell_angle_beta   67.99731232
_cell_angle_gamma   36.86670504
_symmetry_Int_Tables_number   1
_chemical_formula_structural   Sr6Cr(RuO6)2
_chemical_formula_sum   'Sr6 Cr1 Ru2 O12'
_cell_volume   293.17785055
_cell_formula_units_Z   1
loop_
 _symmetry_equiv_pos_site_id
 _symmetry_equiv_pos_as_xyz
  1  'x, y, z'
loop_
 _atom_site_type_symbol
 _atom_site_label
 _atom_site_symmetry_multiplicity
 _atom_site_fract_x
 _atom_site_fract_y
 _atom_site_fract_z
 _atom_site_occupancy
  Sr  Sr0  1  0.210733  0.210733  0.704091  1
  Sr  Sr1  1  0.887018  0.887018  0.704187  1
  Sr  Sr2  1  0.548245  0.548245  0.711691  1
  Sr  Sr3  1  0.789267  0.789267  0.295909  1
  Sr  Sr4  1  0.451755  0.451755  0.288309  1
  Sr  Sr5  1  0.112982  0.112982  0.295813  1
  Cr  Cr6  1  0.000000  0.000000  0.000000  1
  Ru  Ru7  1  0.669376  0.669376  0.001057  1
  Ru  Ru8  1  0.330624  0.330624  0.998943  1
  O  O9  1  0.279515  0.279515  0.323222  1
  O  O10  1  0.946730  0.946730  0.321097  1
  O  O11  1  0.612346  0.612346  0.323400  1
  O  O12  1  0.720485  0.720485  0.676778  1
  O  O13  1  0.387654  0.387654  0.676600  1
  O  O14  1  0.053270  0.053270  0.678903  1
  O  O15  1  0.000000  0.500000  0.000000  1
  O  O16  1  0.662117  0.168295  0.000330  1
  O  O17  1  0.337883  0.831705  0.999670  1
  O  O18  1  0.500000  0.000000  0.000000  1
  O  O19  1  0.168295  0.662117  0.000330  1
  O  O20  1  0.831705  0.337883  0.999670  1
