# generated using pymatgen
data_Pr3Er8In9Pd4
_symmetry_space_group_name_H-M   'P 1'
_cell_length_a   13.18438600
_cell_length_b   13.18465029
_cell_length_c   3.70470000
_cell_angle_alpha   90.00000000
_cell_angle_beta   90.00000000
_cell_angle_gamma   111.33477405
_symmetry_Int_Tables_number   1
_chemical_formula_structural   Pr3Er8In9Pd4
_chemical_formula_sum   'Pr3 Er8 In9 Pd4'
_cell_volume   599.86112475
_cell_formula_units_Z   1
loop_
 _symmetry_equiv_pos_site_id
 _symmetry_equiv_pos_as_xyz
  1  'x, y, z'
loop_
 _atom_site_type_symbol
 _atom_site_label
 _atom_site_symmetry_multiplicity
 _atom_site_fract_x
 _atom_site_fract_y
 _atom_site_fract_z
 _atom_site_occupancy
  Pr  Pr0  1  0.500000  0.500000  0.500000  1
  Pr  Pr1  1  0.343732  0.656206  0.500000  1
  Pr  Pr2  1  0.656268  0.343794  0.500000  1
  Er  Er3  1  0.811859  0.811868  0.500000  1
  Er  Er4  1  0.188141  0.188132  0.500000  1
  Er  Er5  1  0.572246  0.919306  0.500000  1
  Er  Er6  1  0.427754  0.080694  0.500000  1
  Er  Er7  1  0.919315  0.572268  0.500000  1
  Er  Er8  1  0.080685  0.427732  0.500000  1
  Er  Er9  1  0.130911  0.869053  0.500000  1
  Er  Er10  1  0.869089  0.130947  0.500000  1
  In  In11  1  0.343123  0.869488  0.000000  1
  In  In12  1  0.656877  0.130512  0.000000  1
  In  In13  1  0.869496  0.343130  0.000000  1
  In  In14  1  0.130504  0.656870  0.000000  1
  In  In15  1  0.582626  0.725880  0.000000  1
  In  In16  1  0.417374  0.274120  0.000000  1
  In  In17  1  0.725843  0.582615  0.000000  1
  In  In18  1  0.274157  0.417385  0.000000  1
  In  In19  1  0.000000  0.000000  0.000000  1
  Pd  Pd20  1  0.749649  0.952788  0.000000  1
  Pd  Pd21  1  0.250351  0.047212  0.000000  1
  Pd  Pd22  1  0.952774  0.749640  0.000000  1
  Pd  Pd23  1  0.047226  0.250360  0.000000  1
