# generated using pymatgen
data_Ac3Sn3IrRuAu
_symmetry_space_group_name_H-M   'P 1'
_cell_length_a   7.82653900
_cell_length_b   7.82653946
_cell_length_c   4.39273100
_cell_angle_alpha   90.00000000
_cell_angle_beta   90.00000000
_cell_angle_gamma   120.00000000
_symmetry_Int_Tables_number   1
_chemical_formula_structural   Ac3Sn3IrRuAu
_chemical_formula_sum   'Ac3 Sn3 Ir1 Ru1 Au1'
_cell_volume   233.02621111
_cell_formula_units_Z   1
loop_
 _symmetry_equiv_pos_site_id
 _symmetry_equiv_pos_as_xyz
  1  'x, y, z'
loop_
 _atom_site_type_symbol
 _atom_site_label
 _atom_site_symmetry_multiplicity
 _atom_site_fract_x
 _atom_site_fract_y
 _atom_site_fract_z
 _atom_site_occupancy
  Ac  Ac0  1  0.406724  0.419477  0.500000  1
  Ac  Ac1  1  0.580523  0.987247  0.500000  1
  Ac  Ac2  1  0.012753  0.593276  0.500000  1
  Sn  Sn3  1  0.760486  0.766878  0.000000  1
  Sn  Sn4  1  0.233122  0.993608  0.000000  1
  Sn  Sn5  1  0.006392  0.239514  0.000000  1
  Ir  Ir6  1  0.333333  0.666667  0.000000  1
  Ru  Ru7  1  0.000000  0.000000  0.500000  1
  Au  Au8  1  0.666667  0.333333  0.000000  1
