# generated using pymatgen
data_Nb12Ga9Fe3C4
_symmetry_space_group_name_H-M   'P 1'
_cell_length_a   8.26229197
_cell_length_b   8.28251585
_cell_length_c   8.28251600
_cell_angle_alpha   59.99999941
_cell_angle_beta   59.91899598
_cell_angle_gamma   59.91899689
_symmetry_Int_Tables_number   1
_chemical_formula_structural   Nb12Ga9Fe3C4
_chemical_formula_sum   'Nb12 Ga9 Fe3 C4'
_cell_volume   400.29233546
_cell_formula_units_Z   1
loop_
 _symmetry_equiv_pos_site_id
 _symmetry_equiv_pos_as_xyz
  1  'x, y, z'
loop_
 _atom_site_type_symbol
 _atom_site_label
 _atom_site_symmetry_multiplicity
 _atom_site_fract_x
 _atom_site_fract_y
 _atom_site_fract_z
 _atom_site_occupancy
  Nb  Nb0  1  0.810850  0.808545  0.190303  1
  Nb  Nb1  1  0.192529  0.196251  0.805610  1
  Nb  Nb2  1  0.810850  0.190303  0.808545  1
  Nb  Nb3  1  0.192529  0.805610  0.196251  1
  Nb  Nb4  1  0.192529  0.805610  0.805610  1
  Nb  Nb5  1  0.810850  0.190303  0.190303  1
  Nb  Nb6  1  0.439150  0.441455  0.059697  1
  Nb  Nb7  1  0.057471  0.053749  0.444390  1
  Nb  Nb8  1  0.439150  0.059697  0.441455  1
  Nb  Nb9  1  0.057471  0.444390  0.053749  1
  Nb  Nb10  1  0.057471  0.444390  0.444390  1
  Nb  Nb11  1  0.439150  0.059697  0.059697  1
  Ga  Ga12  1  0.125000  0.625000  0.625000  1
  Ga  Ga13  1  0.757158  0.414281  0.414281  1
  Ga  Ga14  1  0.429802  0.754978  0.407611  1
  Ga  Ga15  1  0.429802  0.407611  0.754978  1
  Ga  Ga16  1  0.429802  0.407611  0.407611  1
  Ga  Ga17  1  0.492842  0.835719  0.835719  1
  Ga  Ga18  1  0.820198  0.495022  0.842389  1
  Ga  Ga19  1  0.820198  0.842389  0.495022  1
  Ga  Ga20  1  0.820198  0.842389  0.842389  1
  Fe  Fe21  1  0.625000  0.125000  0.625000  1
  Fe  Fe22  1  0.625000  0.625000  0.125000  1
  Fe  Fe23  1  0.625000  0.625000  0.625000  1
  C  C24  1  0.625000  0.125000  0.125000  1
  C  C25  1  0.125000  0.625000  0.125000  1
  C  C26  1  0.125000  0.125000  0.625000  1
  C  C27  1  0.125000  0.125000  0.125000  1
