# generated using pymatgen
data_HoTh7(Nb3Si4)4
_symmetry_space_group_name_H-M   'P 1'
_cell_length_a   7.02183802
_cell_length_b   7.23650533
_cell_length_c   13.57868147
_cell_angle_alpha   90.09132846
_cell_angle_beta   89.89093088
_cell_angle_gamma   90.05429135
_symmetry_Int_Tables_number   1
_chemical_formula_structural   HoTh7(Nb3Si4)4
_chemical_formula_sum   'Ho1 Th7 Nb12 Si16'
_cell_volume   689.97882294
_cell_formula_units_Z   1
loop_
 _symmetry_equiv_pos_site_id
 _symmetry_equiv_pos_as_xyz
  1  'x, y, z'
loop_
 _atom_site_type_symbol
 _atom_site_label
 _atom_site_symmetry_multiplicity
 _atom_site_fract_x
 _atom_site_fract_y
 _atom_site_fract_z
 _atom_site_occupancy
  Ho  Ho0  1  0.000341  0.828857  0.596983  1
  Th  Th1  1  0.502543  0.669195  0.595361  1
  Th  Th2  1  0.001668  0.830344  0.903754  1
  Th  Th3  1  0.499642  0.330426  0.095819  1
  Th  Th4  1  0.998124  0.170061  0.405442  1
  Th  Th5  1  0.497996  0.330616  0.405998  1
  Th  Th6  1  0.999750  0.169554  0.095846  1
  Th  Th7  1  0.501611  0.670156  0.902652  1
  Nb  Nb8  1  0.662785  0.173016  0.624094  1
  Nb  Nb9  1  0.163306  0.327219  0.874145  1
  Nb  Nb10  1  0.336858  0.827757  0.125075  1
  Nb  Nb11  1  0.834939  0.673143  0.375740  1
  Nb  Nb12  1  0.335657  0.827785  0.375512  1
  Nb  Nb13  1  0.836061  0.672169  0.125091  1
  Nb  Nb14  1  0.666183  0.170871  0.874359  1
  Nb  Nb15  1  0.164667  0.327407  0.624471  1
  Nb  Nb16  1  0.836485  0.490745  0.750395  1
  Nb  Nb17  1  0.337304  0.005897  0.748720  1
  Nb  Nb18  1  0.162562  0.507953  0.250479  1
  Nb  Nb19  1  0.662654  0.993309  0.250841  1
  Si  Si20  1  0.660185  0.957337  0.457695  1
  Si  Si21  1  0.159935  0.543174  0.043430  1
  Si  Si22  1  0.341334  0.043653  0.955544  1
  Si  Si23  1  0.844327  0.462642  0.545144  1
  Si  Si24  1  0.334048  0.038360  0.544858  1
  Si  Si25  1  0.840155  0.456444  0.956129  1
  Si  Si26  1  0.659796  0.956632  0.043614  1
  Si  Si27  1  0.156963  0.546425  0.458405  1
  Si  Si28  1  0.459490  0.367330  0.749602  1
  Si  Si29  1  0.961150  0.128500  0.747420  1
  Si  Si30  1  0.540065  0.631631  0.250681  1
  Si  Si31  1  0.040061  0.868843  0.250590  1
  Si  Si32  1  0.704441  0.884744  0.746967  1
  Si  Si33  1  0.197117  0.617283  0.747407  1
  Si  Si34  1  0.299783  0.114659  0.250725  1
  Si  Si35  1  0.800016  0.385859  0.251012  1
