# generated using pymatgen
data_Hf18TaRe6Rh2W
_symmetry_space_group_name_H-M   'P 1'
_cell_length_a   8.71803700
_cell_length_b   8.71803631
_cell_length_c   8.50063100
_cell_angle_alpha   90.00000000
_cell_angle_beta   90.00000000
_cell_angle_gamma   119.99999884
_symmetry_Int_Tables_number   1
_chemical_formula_structural   Hf18TaRe6Rh2W
_chemical_formula_sum   'Hf18 Ta1 Re6 Rh2 W1'
_cell_volume   559.52459610
_cell_formula_units_Z   1
loop_
 _symmetry_equiv_pos_site_id
 _symmetry_equiv_pos_as_xyz
  1  'x, y, z'
loop_
 _atom_site_type_symbol
 _atom_site_label
 _atom_site_symmetry_multiplicity
 _atom_site_fract_x
 _atom_site_fract_y
 _atom_site_fract_z
 _atom_site_occupancy
  Hf  Hf0  1  0.198054  0.801946  0.445823  1
  Hf  Hf1  1  0.198054  0.396106  0.445823  1
  Hf  Hf2  1  0.603894  0.801946  0.445823  1
  Hf  Hf3  1  0.801946  0.198054  0.554177  1
  Hf  Hf4  1  0.801946  0.603894  0.554177  1
  Hf  Hf5  1  0.396106  0.198054  0.554177  1
  Hf  Hf6  1  0.803471  0.196529  0.944392  1
  Hf  Hf7  1  0.803471  0.606944  0.944392  1
  Hf  Hf8  1  0.393056  0.196529  0.944392  1
  Hf  Hf9  1  0.196529  0.803471  0.055608  1
  Hf  Hf10  1  0.196529  0.393056  0.055608  1
  Hf  Hf11  1  0.606944  0.803471  0.055608  1
  Hf  Hf12  1  0.542542  0.457458  0.248461  1
  Hf  Hf13  1  0.542542  0.085083  0.248461  1
  Hf  Hf14  1  0.914917  0.457458  0.248461  1
  Hf  Hf15  1  0.457458  0.542542  0.751539  1
  Hf  Hf16  1  0.457458  0.914917  0.751539  1
  Hf  Hf17  1  0.085083  0.542542  0.751539  1
  Ta  Ta18  1  0.000000  0.000000  0.500000  1
  Re  Re19  1  0.887344  0.112656  0.249119  1
  Re  Re20  1  0.887344  0.774686  0.249119  1
  Re  Re21  1  0.225314  0.112656  0.249119  1
  Re  Re22  1  0.112656  0.887344  0.750881  1
  Re  Re23  1  0.112656  0.225314  0.750881  1
  Re  Re24  1  0.774686  0.887344  0.750881  1
  Rh  Rh25  1  0.333333  0.666667  0.249094  1
  Rh  Rh26  1  0.666667  0.333333  0.750906  1
  W  W27  1  0.000000  0.000000  0.000000  1
