# generated using pymatgen
data_Dy3HoEr4(OsC2)4
_symmetry_space_group_name_H-M   'P 1'
_cell_length_a   5.10530000
_cell_length_b   6.43503934
_cell_length_c   9.72783452
_cell_angle_alpha   90.03749817
_cell_angle_beta   90.00000000
_cell_angle_gamma   90.00000000
_symmetry_Int_Tables_number   1
_chemical_formula_structural   Dy3HoEr4(OsC2)4
_chemical_formula_sum   'Dy3 Ho1 Er4 Os4 C8'
_cell_volume   319.58659543
_cell_formula_units_Z   1
loop_
 _symmetry_equiv_pos_site_id
 _symmetry_equiv_pos_as_xyz
  1  'x, y, z'
loop_
 _atom_site_type_symbol
 _atom_site_label
 _atom_site_symmetry_multiplicity
 _atom_site_fract_x
 _atom_site_fract_y
 _atom_site_fract_z
 _atom_site_occupancy
  Dy  Dy0  1  0.250000  0.527255  0.217444  1
  Dy  Dy1  1  0.750000  0.473057  0.782548  1
  Dy  Dy2  1  0.750000  0.973037  0.717583  1
  Ho  Ho3  1  0.250000  0.027060  0.282043  1
  Er  Er4  1  0.250000  0.680508  0.552915  1
  Er  Er5  1  0.750000  0.319083  0.446808  1
  Er  Er6  1  0.750000  0.819485  0.053163  1
  Er  Er7  1  0.250000  0.180717  0.947069  1
  Os  Os8  1  0.250000  0.724129  0.866299  1
  Os  Os9  1  0.750000  0.275904  0.133872  1
  Os  Os10  1  0.750000  0.776103  0.366179  1
  Os  Os11  1  0.250000  0.224013  0.633796  1
  C  C12  1  0.250000  0.459203  0.758378  1
  C  C13  1  0.750000  0.540952  0.241560  1
  C  C14  1  0.750000  0.040948  0.258598  1
  C  C15  1  0.250000  0.959131  0.741654  1
  C  C16  1  0.250000  0.828920  0.054341  1
  C  C17  1  0.750000  0.171729  0.946011  1
  C  C18  1  0.750000  0.671751  0.553992  1
  C  C19  1  0.250000  0.327015  0.445748  1
