# generated using pymatgen
data_HoLu7(Ga3Pt)4
_symmetry_space_group_name_H-M   'P 1'
_cell_length_a   8.80107202
_cell_length_b   8.80107262
_cell_length_c   6.91307000
_cell_angle_alpha   90.00000000
_cell_angle_beta   90.00000000
_cell_angle_gamma   120.00766176
_symmetry_Int_Tables_number   1
_chemical_formula_structural   HoLu7(Ga3Pt)4
_chemical_formula_sum   'Ho1 Lu7 Ga12 Pt4'
_cell_volume   463.70227932
_cell_formula_units_Z   1
loop_
 _symmetry_equiv_pos_site_id
 _symmetry_equiv_pos_as_xyz
  1  'x, y, z'
loop_
 _atom_site_type_symbol
 _atom_site_label
 _atom_site_symmetry_multiplicity
 _atom_site_fract_x
 _atom_site_fract_y
 _atom_site_fract_z
 _atom_site_occupancy
  Ho  Ho0  1  0.000138  0.999862  0.250000  1
  Lu  Lu1  1  0.999841  0.000159  0.750000  1
  Lu  Lu2  1  0.520612  0.041284  0.250000  1
  Lu  Lu3  1  0.520444  0.479556  0.250000  1
  Lu  Lu4  1  0.958716  0.479388  0.250000  1
  Lu  Lu5  1  0.479380  0.958679  0.750000  1
  Lu  Lu6  1  0.479538  0.520462  0.750000  1
  Lu  Lu7  1  0.041321  0.520620  0.750000  1
  Ga  Ga8  1  0.166738  0.333632  0.047073  1
  Ga  Ga9  1  0.166979  0.833021  0.452926  1
  Ga  Ga10  1  0.666368  0.833262  0.452927  1
  Ga  Ga11  1  0.666368  0.833262  0.047073  1
  Ga  Ga12  1  0.166979  0.833021  0.047074  1
  Ga  Ga13  1  0.833613  0.667070  0.952250  1
  Ga  Ga14  1  0.833372  0.166628  0.952259  1
  Ga  Ga15  1  0.332930  0.166387  0.952250  1
  Ga  Ga16  1  0.166738  0.333632  0.452927  1
  Ga  Ga17  1  0.332930  0.166387  0.547750  1
  Ga  Ga18  1  0.833613  0.667070  0.547750  1
  Ga  Ga19  1  0.833372  0.166628  0.547741  1
  Pt  Pt20  1  0.333401  0.666599  0.027914  1
  Pt  Pt21  1  0.333401  0.666599  0.472086  1
  Pt  Pt22  1  0.666602  0.333398  0.971978  1
  Pt  Pt23  1  0.666602  0.333398  0.528022  1
