# generated using pymatgen
data_Re2TcP4
_symmetry_space_group_name_H-M   'P 1'
_cell_length_a   6.31695037
_cell_length_b   6.31694905
_cell_length_c   6.07168529
_cell_angle_alpha   66.83197720
_cell_angle_beta   66.83198089
_cell_angle_gamma   27.76887339
_symmetry_Int_Tables_number   1
_chemical_formula_structural   Re2TcP4
_chemical_formula_sum   'Re2 Tc1 P4'
_cell_volume   103.19583910
_cell_formula_units_Z   1
loop_
 _symmetry_equiv_pos_site_id
 _symmetry_equiv_pos_as_xyz
  1  'x, y, z'
loop_
 _atom_site_type_symbol
 _atom_site_label
 _atom_site_symmetry_multiplicity
 _atom_site_fract_x
 _atom_site_fract_y
 _atom_site_fract_z
 _atom_site_occupancy
  Re  Re0  1  0.736604  0.736604  0.318743  1
  Re  Re1  1  0.263396  0.263396  0.681257  1
  Tc  Tc2  1  0.000000  0.000000  0.000000  1
  P  P3  1  0.914226  0.914226  0.436053  1
  P  P4  1  0.085774  0.085774  0.563947  1
  P  P5  1  0.648515  0.648515  0.024220  1
  P  P6  1  0.351485  0.351485  0.975780  1
