# generated using pymatgen
data_DyHo11Co4SnRu
_symmetry_space_group_name_H-M   'P 1'
_cell_length_a   8.26961272
_cell_length_b   8.26961175
_cell_length_c   8.26952864
_cell_angle_alpha   106.59508861
_cell_angle_beta   110.58512977
_cell_angle_gamma   111.27235171
_symmetry_Int_Tables_number   1
_chemical_formula_structural   DyHo11Co4SnRu
_chemical_formula_sum   'Dy1 Ho11 Co4 Sn1 Ru1'
_cell_volume   434.50437778
_cell_formula_units_Z   1
loop_
 _symmetry_equiv_pos_site_id
 _symmetry_equiv_pos_as_xyz
  1  'x, y, z'
loop_
 _atom_site_type_symbol
 _atom_site_label
 _atom_site_symmetry_multiplicity
 _atom_site_fract_x
 _atom_site_fract_y
 _atom_site_fract_z
 _atom_site_occupancy
  Dy  Dy0  1  0.806004  0.213317  0.019322  1
  Ho  Ho1  1  0.472729  0.288285  0.184538  1
  Ho  Ho2  1  0.103833  0.288309  0.815446  1
  Ho  Ho3  1  0.896254  0.711809  0.184538  1
  Ho  Ho4  1  0.527137  0.711613  0.815446  1
  Ho  Ho5  1  0.306119  0.619050  0.313031  1
  Ho  Ho6  1  0.305859  0.992972  0.686943  1
  Ho  Ho7  1  0.693972  0.381084  0.686943  1
  Ho  Ho8  1  0.693981  0.006911  0.313031  1
  Ho  Ho9  1  0.194090  0.213234  0.407323  1
  Ho  Ho10  1  0.805992  0.786724  0.592717  1
  Ho  Ho11  1  0.193992  0.786782  0.980773  1
  Co  Co12  1  0.500001  0.611498  0.111499  1
  Co  Co13  1  0.499926  0.388547  0.888473  1
  Co  Co14  1  0.378822  0.000024  0.378846  1
  Co  Co15  1  0.621102  0.999920  0.621022  1
  Sn  Sn16  1  0.000042  0.500056  0.500097  1
  Ru  Ru17  1  0.000145  0.999866  0.000010  1
