# generated using pymatgen
data_Dy2Ho2LuIr2
_symmetry_space_group_name_H-M   'P 1'
_cell_length_a   6.30744655
_cell_length_b   7.23969576
_cell_length_c   8.42542100
_cell_angle_alpha   96.76846537
_cell_angle_beta   111.98169934
_cell_angle_gamma   89.99999850
_symmetry_Int_Tables_number   1
_chemical_formula_structural   Dy2Ho2LuIr2
_chemical_formula_sum   'Dy4 Ho4 Lu2 Ir4'
_cell_volume   353.87593381
_cell_formula_units_Z   2
loop_
 _symmetry_equiv_pos_site_id
 _symmetry_equiv_pos_as_xyz
  1  'x, y, z'
loop_
 _atom_site_type_symbol
 _atom_site_label
 _atom_site_symmetry_multiplicity
 _atom_site_fract_x
 _atom_site_fract_y
 _atom_site_fract_z
 _atom_site_occupancy
  Dy  Dy0  1  0.525394  0.081168  0.814251  1
  Dy  Dy1  1  0.474606  0.918832  0.185749  1
  Dy  Dy2  1  0.711143  0.418832  0.185749  1
  Dy  Dy3  1  0.288857  0.581168  0.814251  1
  Ho  Ho4  1  0.295227  0.312763  0.437027  1
  Ho  Ho5  1  0.704773  0.687237  0.562973  1
  Ho  Ho6  1  0.858203  0.187237  0.562973  1
  Ho  Ho7  1  0.141797  0.812763  0.437027  1
  Lu  Lu8  1  0.075371  0.250000  0.000000  1
  Lu  Lu9  1  0.924629  0.750000  0.000000  1
  Ir  Ir10  1  0.315605  0.575102  0.217345  1
  Ir  Ir11  1  0.684395  0.424898  0.782655  1
  Ir  Ir12  1  0.098261  0.924898  0.782655  1
  Ir  Ir13  1  0.901739  0.075102  0.217345  1
