# generated using pymatgen
data_Ac2Co3Ge5
_symmetry_space_group_name_H-M   'P 1'
_cell_length_a   8.51134002
_cell_length_b   8.51133959
_cell_length_c   8.51134075
_cell_angle_alpha   138.26629274
_cell_angle_beta   107.62941163
_cell_angle_gamma   87.18531245
_symmetry_Int_Tables_number   1
_chemical_formula_structural   Ac2Co3Ge5
_chemical_formula_sum   'Ac4 Co6 Ge10'
_cell_volume   375.65104228
_cell_formula_units_Z   2
loop_
 _symmetry_equiv_pos_site_id
 _symmetry_equiv_pos_as_xyz
  1  'x, y, z'
loop_
 _atom_site_type_symbol
 _atom_site_label
 _atom_site_symmetry_multiplicity
 _atom_site_fract_x
 _atom_site_fract_y
 _atom_site_fract_z
 _atom_site_occupancy
  Ac  Ac0  1  0.626599  0.869510  0.757089  1
  Ac  Ac1  1  0.373401  0.130490  0.242911  1
  Ac  Ac2  1  0.112423  0.369510  0.742911  1
  Ac  Ac3  1  0.887577  0.630490  0.257089  1
  Co  Co4  1  0.245499  0.632799  0.612700  1
  Co  Co5  1  0.754501  0.367201  0.387300  1
  Co  Co6  1  0.020098  0.132799  0.887300  1
  Co  Co7  1  0.979902  0.867201  0.112700  1
  Co  Co8  1  0.500000  0.750000  0.250000  1
  Co  Co9  1  0.500000  0.250000  0.750000  1
  Ge  Ge10  1  0.254162  0.004162  0.750000  1
  Ge  Ge11  1  0.745838  0.995838  0.250000  1
  Ge  Ge12  1  0.745838  0.495838  0.750000  1
  Ge  Ge13  1  0.254162  0.504162  0.250000  1
  Ge  Ge14  1  0.458000  0.603615  0.854384  1
  Ge  Ge15  1  0.542000  0.396385  0.145616  1
  Ge  Ge16  1  0.749231  0.103615  0.645616  1
  Ge  Ge17  1  0.250769  0.896385  0.354384  1
  Ge  Ge18  1  0.000000  0.750000  0.750000  1
  Ge  Ge19  1  0.000000  0.250000  0.250000  1
