# generated using pymatgen
data_HoU3(NbN2)4
_symmetry_space_group_name_H-M   'P 1'
_cell_length_a   3.26472400
_cell_length_b   5.68852222
_cell_length_c   10.95036335
_cell_angle_alpha   90.10163903
_cell_angle_beta   90.00000000
_cell_angle_gamma   90.00000000
_symmetry_Int_Tables_number   1
_chemical_formula_structural   HoU3(NbN2)4
_chemical_formula_sum   'Ho1 U3 Nb4 N8'
_cell_volume   203.36386023
_cell_formula_units_Z   1
loop_
 _symmetry_equiv_pos_site_id
 _symmetry_equiv_pos_as_xyz
  1  'x, y, z'
loop_
 _atom_site_type_symbol
 _atom_site_label
 _atom_site_symmetry_multiplicity
 _atom_site_fract_x
 _atom_site_fract_y
 _atom_site_fract_z
 _atom_site_occupancy
  Ho  Ho0  1  0.250000  0.578274  0.854886  1
  U  U1  1  0.750000  0.425323  0.140049  1
  U  U2  1  0.750000  0.923455  0.356231  1
  U  U3  1  0.250000  0.079305  0.645493  1
  Nb  Nb4  1  0.250000  0.922614  0.099661  1
  Nb  Nb5  1  0.750000  0.073510  0.903433  1
  Nb  Nb6  1  0.750000  0.577170  0.600508  1
  Nb  Nb7  1  0.250000  0.424143  0.400267  1
  N  N8  1  0.250000  0.659139  0.244710  1
  N  N9  1  0.750000  0.333156  0.752192  1
  N  N10  1  0.750000  0.844700  0.743175  1
  N  N11  1  0.250000  0.159579  0.255967  1
  N  N12  1  0.250000  0.766993  0.504314  1
  N  N13  1  0.750000  0.232901  0.496367  1
  N  N14  1  0.750000  0.732313  0.004022  1
  N  N15  1  0.250000  0.267425  0.998725  1
