# generated using pymatgen
data_TbYb(Pr4Ir3)2
_symmetry_space_group_name_H-M   'P 1'
_cell_length_a   11.29516800
_cell_length_b   11.29516800
_cell_length_c   6.53608700
_cell_angle_alpha   90.00000000
_cell_angle_beta   90.00000000
_cell_angle_gamma   90.00000000
_symmetry_Int_Tables_number   1
_chemical_formula_structural   TbYb(Pr4Ir3)2
_chemical_formula_sum   'Tb2 Yb2 Pr16 Ir12'
_cell_volume   833.87934002
_cell_formula_units_Z   2
loop_
 _symmetry_equiv_pos_site_id
 _symmetry_equiv_pos_as_xyz
  1  'x, y, z'
loop_
 _atom_site_type_symbol
 _atom_site_label
 _atom_site_symmetry_multiplicity
 _atom_site_fract_x
 _atom_site_fract_y
 _atom_site_fract_z
 _atom_site_occupancy
  Tb  Tb0  1  0.500000  0.500000  0.000000  1
  Tb  Tb1  1  0.500000  0.500000  0.500000  1
  Yb  Yb2  1  0.000000  0.000000  0.500000  1
  Yb  Yb3  1  0.000000  0.000000  0.000000  1
  Pr  Pr4  1  0.287905  0.087304  0.384602  1
  Pr  Pr5  1  0.287905  0.912696  0.884602  1
  Pr  Pr6  1  0.712095  0.087304  0.884602  1
  Pr  Pr7  1  0.712095  0.912696  0.384602  1
  Pr  Pr8  1  0.588489  0.789434  0.883414  1
  Pr  Pr9  1  0.588489  0.210566  0.383414  1
  Pr  Pr10  1  0.411511  0.789434  0.383414  1
  Pr  Pr11  1  0.411511  0.210566  0.883414  1
  Pr  Pr12  1  0.210566  0.411511  0.616586  1
  Pr  Pr13  1  0.210566  0.588489  0.116586  1
  Pr  Pr14  1  0.789434  0.411511  0.116586  1
  Pr  Pr15  1  0.789434  0.588489  0.616586  1
  Pr  Pr16  1  0.912696  0.712095  0.115398  1
  Pr  Pr17  1  0.912696  0.287905  0.615398  1
  Pr  Pr18  1  0.087304  0.712095  0.615398  1
  Pr  Pr19  1  0.087304  0.287905  0.115398  1
  Ir  Ir20  1  0.845047  0.154953  0.250000  1
  Ir  Ir21  1  0.845047  0.845047  0.750000  1
  Ir  Ir22  1  0.154953  0.154953  0.750000  1
  Ir  Ir23  1  0.154953  0.845047  0.250000  1
  Ir  Ir24  1  0.648724  0.351276  0.750000  1
  Ir  Ir25  1  0.648724  0.648724  0.250000  1
  Ir  Ir26  1  0.351276  0.351276  0.250000  1
  Ir  Ir27  1  0.351276  0.648724  0.750000  1
  Ir  Ir28  1  0.500000  0.000000  0.117636  1
  Ir  Ir29  1  0.500000  0.000000  0.617636  1
  Ir  Ir30  1  0.000000  0.500000  0.882364  1
  Ir  Ir31  1  0.000000  0.500000  0.382364  1
