# generated using pymatgen
data_Tm2Mn4P7Ir3Rh5
_symmetry_space_group_name_H-M   'P 1'
_cell_length_a   9.44090122
_cell_length_b   9.44023112
_cell_length_c   3.81865000
_cell_angle_alpha   90.00000000
_cell_angle_beta   90.00000000
_cell_angle_gamma   120.15780293
_symmetry_Int_Tables_number   1
_chemical_formula_structural   Tm2Mn4P7Ir3Rh5
_chemical_formula_sum   'Tm2 Mn4 P7 Ir3 Rh5'
_cell_volume   294.26850638
_cell_formula_units_Z   1
loop_
 _symmetry_equiv_pos_site_id
 _symmetry_equiv_pos_as_xyz
  1  'x, y, z'
loop_
 _atom_site_type_symbol
 _atom_site_label
 _atom_site_symmetry_multiplicity
 _atom_site_fract_x
 _atom_site_fract_y
 _atom_site_fract_z
 _atom_site_occupancy
  Tm  Tm0  1  0.999139  0.999413  0.000000  1
  Tm  Tm1  1  0.666202  0.333171  0.500000  1
  Mn  Mn2  1  0.221152  0.396424  0.000000  1
  Mn  Mn3  1  0.602886  0.822429  0.000000  1
  Mn  Mn4  1  0.176523  0.778067  0.000000  1
  Mn  Mn5  1  0.106660  0.543541  0.500000  1
  P  P6  1  0.443172  0.369951  0.000000  1
  P  P7  1  0.630694  0.072695  0.000000  1
  P  P8  1  0.927473  0.556246  0.000000  1
  P  P9  1  0.055578  0.270245  0.500000  1
  P  P10  1  0.731113  0.787955  0.500000  1
  P  P11  1  0.210565  0.942983  0.500000  1
  P  P12  1  0.333191  0.666508  0.000000  1
  Ir  Ir13  1  0.272638  0.218186  0.500000  1
  Ir  Ir14  1  0.779074  0.054332  0.500000  1
  Ir  Ir15  1  0.944741  0.722638  0.500000  1
  Rh  Rh16  1  0.700520  0.600115  0.000000  1
  Rh  Rh17  1  0.400544  0.100845  0.000000  1
  Rh  Rh18  1  0.901696  0.302508  0.000000  1
  Rh  Rh19  1  0.464337  0.562653  0.500000  1
  Rh  Rh20  1  0.432098  0.899097  0.500000  1
