# generated using pymatgen
data_Pr8Hg2RuPt
_symmetry_space_group_name_H-M   'P 1'
_cell_length_a   10.02937114
_cell_length_b   10.02937173
_cell_length_c   10.08470200
_cell_angle_alpha   59.81732993
_cell_angle_beta   59.81732797
_cell_angle_gamma   59.88746934
_symmetry_Int_Tables_number   1
_chemical_formula_structural   Pr8Hg2RuPt
_chemical_formula_sum   'Pr16 Hg4 Ru2 Pt2'
_cell_volume   714.69738428
_cell_formula_units_Z   2
loop_
 _symmetry_equiv_pos_site_id
 _symmetry_equiv_pos_as_xyz
  1  'x, y, z'
loop_
 _atom_site_type_symbol
 _atom_site_label
 _atom_site_symmetry_multiplicity
 _atom_site_fract_x
 _atom_site_fract_y
 _atom_site_fract_z
 _atom_site_occupancy
  Pr  Pr0  1  0.348686  0.348686  0.355863  1
  Pr  Pr1  1  0.348686  0.348686  0.946766  1
  Pr  Pr2  1  0.344732  0.953083  0.351093  1
  Pr  Pr3  1  0.953083  0.344732  0.351093  1
  Pr  Pr4  1  0.814720  0.189576  0.191819  1
  Pr  Pr5  1  0.189576  0.814720  0.803883  1
  Pr  Pr6  1  0.189576  0.814720  0.191819  1
  Pr  Pr7  1  0.814720  0.189576  0.803883  1
  Pr  Pr8  1  0.189873  0.189873  0.810127  1
  Pr  Pr9  1  0.806447  0.806447  0.193553  1
  Pr  Pr10  1  0.938083  0.558654  0.563977  1
  Pr  Pr11  1  0.558654  0.938083  0.939286  1
  Pr  Pr12  1  0.558654  0.938083  0.563977  1
  Pr  Pr13  1  0.938083  0.558654  0.939286  1
  Pr  Pr14  1  0.561358  0.561358  0.938642  1
  Pr  Pr15  1  0.938059  0.938059  0.561941  1
  Hg  Hg16  1  0.583923  0.583923  0.583028  1
  Hg  Hg17  1  0.583923  0.583923  0.249124  1
  Hg  Hg18  1  0.585112  0.247130  0.583878  1
  Hg  Hg19  1  0.247130  0.585112  0.583878  1
  Ru  Ru20  1  0.143613  0.143613  0.136336  1
  Ru  Ru21  1  0.143613  0.143613  0.576438  1
  Pt  Pt22  1  0.146673  0.573022  0.140152  1
  Pt  Pt23  1  0.573022  0.146673  0.140152  1
