# generated using pymatgen
data_Cs4Ga2S5
_symmetry_space_group_name_H-M   'P 1'
_cell_length_a   7.95424540
_cell_length_b   9.11349917
_cell_length_c   11.02356714
_cell_angle_alpha   77.05120236
_cell_angle_beta   84.80180829
_cell_angle_gamma   80.59923543
_symmetry_Int_Tables_number   1
_chemical_formula_structural   Cs4Ga2S5
_chemical_formula_sum   'Cs8 Ga4 S10'
_cell_volume   767.11682653
_cell_formula_units_Z   2
loop_
 _symmetry_equiv_pos_site_id
 _symmetry_equiv_pos_as_xyz
  1  'x, y, z'
loop_
 _atom_site_type_symbol
 _atom_site_label
 _atom_site_symmetry_multiplicity
 _atom_site_fract_x
 _atom_site_fract_y
 _atom_site_fract_z
 _atom_site_occupancy
  Cs  Cs0  1  0.421447  0.322828  0.089590  1
  Cs  Cs1  1  0.578553  0.677172  0.910410  1
  Cs  Cs2  1  0.197192  0.078078  0.868670  1
  Cs  Cs3  1  0.064327  0.601841  0.751638  1
  Cs  Cs4  1  0.802808  0.921922  0.131330  1
  Cs  Cs5  1  0.935673  0.398159  0.248362  1
  Cs  Cs6  1  0.580571  0.711618  0.500024  1
  Cs  Cs7  1  0.419429  0.288382  0.499976  1
  Ga  Ga8  1  0.905351  0.086871  0.598617  1
  Ga  Ga9  1  0.094649  0.913129  0.401383  1
  Ga  Ga10  1  0.276435  0.720661  0.211245  1
  Ga  Ga11  1  0.723565  0.279339  0.788755  1
  S  S12  1  0.899712  0.336709  0.603081  1
  S  S13  1  0.184995  0.958912  0.582974  1
  S  S14  1  0.455469  0.407520  0.766168  1
  S  S15  1  0.158949  0.691223  0.040853  1
  S  S16  1  0.841051  0.308777  0.959147  1
  S  S17  1  0.544531  0.592480  0.233832  1
  S  S18  1  0.100288  0.663291  0.396919  1
  S  S19  1  0.259761  0.984278  0.222545  1
  S  S20  1  0.740239  0.015722  0.777455  1
  S  S21  1  0.815005  0.041088  0.417026  1
