# generated using pymatgen
data_Dy5Th3(ZnRh)8
_symmetry_space_group_name_H-M   'P 1'
_cell_length_a   3.89715900
_cell_length_b   7.37379284
_cell_length_c   16.37864829
_cell_angle_alpha   90.24096730
_cell_angle_beta   90.00000000
_cell_angle_gamma   90.00000000
_symmetry_Int_Tables_number   1
_chemical_formula_structural   Dy5Th3(ZnRh)8
_chemical_formula_sum   'Dy5 Th3 Zn8 Rh8'
_cell_volume   470.66648427
_cell_formula_units_Z   1
loop_
 _symmetry_equiv_pos_site_id
 _symmetry_equiv_pos_as_xyz
  1  'x, y, z'
loop_
 _atom_site_type_symbol
 _atom_site_label
 _atom_site_symmetry_multiplicity
 _atom_site_fract_x
 _atom_site_fract_y
 _atom_site_fract_z
 _atom_site_occupancy
  Dy  Dy0  1  0.750000  0.942144  0.284095  1
  Dy  Dy1  1  0.750000  0.830257  0.062481  1
  Dy  Dy2  1  0.750000  0.450667  0.211661  1
  Dy  Dy3  1  0.250000  0.054967  0.714121  1
  Dy  Dy4  1  0.250000  0.553207  0.788505  1
  Th  Th5  1  0.250000  0.170343  0.939755  1
  Th  Th6  1  0.250000  0.673793  0.563339  1
  Th  Th7  1  0.750000  0.324934  0.436149  1
  Zn  Zn8  1  0.750000  0.009226  0.563217  1
  Zn  Zn9  1  0.250000  0.619922  0.342136  1
  Zn  Zn10  1  0.750000  0.380248  0.658668  1
  Zn  Zn11  1  0.250000  0.505744  0.061056  1
  Zn  Zn12  1  0.750000  0.512790  0.939601  1
  Zn  Zn13  1  0.250000  0.989877  0.435953  1
  Zn  Zn14  1  0.250000  0.113586  0.154634  1
  Zn  Zn15  1  0.750000  0.878709  0.843233  1
  Rh  Rh16  1  0.750000  0.739707  0.439820  1
  Rh  Rh17  1  0.250000  0.245217  0.315316  1
  Rh  Rh18  1  0.750000  0.250787  0.818142  1
  Rh  Rh19  1  0.750000  0.752035  0.683441  1
  Rh  Rh20  1  0.250000  0.258648  0.560674  1
  Rh  Rh21  1  0.250000  0.743648  0.186781  1
  Rh  Rh22  1  0.750000  0.243644  0.061296  1
  Rh  Rh23  1  0.250000  0.755898  0.935924  1
