# generated using pymatgen
data_Dy6P5Cl
_symmetry_space_group_name_H-M   'P 1'
_cell_length_a   6.86399947
_cell_length_b   6.86187972
_cell_length_c   6.84436100
_cell_angle_alpha   80.37385754
_cell_angle_beta   80.36860372
_cell_angle_gamma   119.86031879
_symmetry_Int_Tables_number   1
_chemical_formula_structural   Dy6P5Cl
_chemical_formula_sum   'Dy6 P5 Cl1'
_cell_volume   263.53441950
_cell_formula_units_Z   1
loop_
 _symmetry_equiv_pos_site_id
 _symmetry_equiv_pos_as_xyz
  1  'x, y, z'
loop_
 _atom_site_type_symbol
 _atom_site_label
 _atom_site_symmetry_multiplicity
 _atom_site_fract_x
 _atom_site_fract_y
 _atom_site_fract_z
 _atom_site_occupancy
  Dy  Dy0  1  0.169595  0.883293  0.473066  1
  Dy  Dy1  1  0.867520  0.232828  0.471556  1
  Dy  Dy2  1  0.345503  0.710301  0.988146  1
  Dy  Dy3  1  0.696015  0.409365  0.988161  1
  Dy  Dy4  1  0.996066  0.058642  0.988041  1
  Dy  Dy5  1  0.519204  0.580811  0.471149  1
  P  P6  1  0.100014  0.478356  0.729810  1
  P  P7  1  0.933584  0.646856  0.230040  1
  P  P8  1  0.270098  0.306951  0.229596  1
  P  P9  1  0.593375  0.983842  0.230237  1
  P  P10  1  0.764252  0.812980  0.729745  1
  Cl  Cl11  1  0.433103  0.148046  0.730000  1
