# generated using pymatgen
data_Zr6Ti4Al12Tc(Pt2Rh)2
_symmetry_space_group_name_H-M   'P 1'
_cell_length_a   8.81626921
_cell_length_b   8.81626826
_cell_length_c   8.82311700
_cell_angle_alpha   59.97429560
_cell_angle_beta   59.97429915
_cell_angle_gamma   60.05141177
_symmetry_Int_Tables_number   1
_chemical_formula_structural   Zr6Ti4Al12Tc(Pt2Rh)2
_chemical_formula_sum   'Zr6 Ti4 Al12 Tc1 Pt4 Rh2'
_cell_volume   484.92678880
_cell_formula_units_Z   1
loop_
 _symmetry_equiv_pos_site_id
 _symmetry_equiv_pos_as_xyz
  1  'x, y, z'
loop_
 _atom_site_type_symbol
 _atom_site_label
 _atom_site_symmetry_multiplicity
 _atom_site_fract_x
 _atom_site_fract_y
 _atom_site_fract_z
 _atom_site_occupancy
  Zr  Zr0  1  0.695261  0.695261  0.304739  1
  Zr  Zr1  1  0.309804  0.690196  0.309804  1
  Zr  Zr2  1  0.690196  0.309804  0.309804  1
  Zr  Zr3  1  0.304739  0.304739  0.695261  1
  Zr  Zr4  1  0.690196  0.309804  0.690196  1
  Zr  Zr5  1  0.309804  0.690196  0.690196  1
  Ti  Ti6  1  0.882893  0.882893  0.356485  1
  Ti  Ti7  1  0.877728  0.356485  0.882893  1
  Ti  Ti8  1  0.356485  0.877728  0.882893  1
  Ti  Ti9  1  0.882893  0.882893  0.877728  1
  Al  Al10  1  0.117507  0.117507  0.643949  1
  Al  Al11  1  0.121038  0.643949  0.117507  1
  Al  Al12  1  0.643949  0.121038  0.117507  1
  Al  Al13  1  0.117507  0.117507  0.121038  1
  Al  Al14  1  0.663179  0.663179  0.007474  1
  Al  Al15  1  0.666167  0.007474  0.663179  1
  Al  Al16  1  0.007474  0.666167  0.663179  1
  Al  Al17  1  0.663179  0.663179  0.666167  1
  Al  Al18  1  0.337108  0.337108  0.992860  1
  Al  Al19  1  0.332923  0.992860  0.337108  1
  Al  Al20  1  0.992860  0.332923  0.337108  1
  Al  Al21  1  0.337108  0.337108  0.332923  1
  Tc  Tc22  1  0.000000  0.000000  0.000000  1
  Pt  Pt23  1  0.500863  0.999137  0.500863  1
  Pt  Pt24  1  0.999137  0.500863  0.500863  1
  Pt  Pt25  1  0.999137  0.500863  0.999137  1
  Pt  Pt26  1  0.500863  0.999137  0.999137  1
  Rh  Rh27  1  0.998969  0.998969  0.501031  1
  Rh  Rh28  1  0.501031  0.501031  0.998969  1
