# generated using pymatgen
data_Tb4Er8Co5Sn
_symmetry_space_group_name_H-M   'P 1'
_cell_length_a   8.25859782
_cell_length_b   8.25859707
_cell_length_c   8.25859735
_cell_angle_alpha   107.09586283
_cell_angle_beta   110.75285481
_cell_angle_gamma   110.59078578
_symmetry_Int_Tables_number   1
_chemical_formula_structural   Tb4Er8Co5Sn
_chemical_formula_sum   'Tb4 Er8 Co5 Sn1'
_cell_volume   433.05074185
_cell_formula_units_Z   1
loop_
 _symmetry_equiv_pos_site_id
 _symmetry_equiv_pos_as_xyz
  1  'x, y, z'
loop_
 _atom_site_type_symbol
 _atom_site_label
 _atom_site_symmetry_multiplicity
 _atom_site_fract_x
 _atom_site_fract_y
 _atom_site_fract_z
 _atom_site_occupancy
  Tb  Tb0  1  0.478558  0.291792  0.186766  1
  Tb  Tb1  1  0.105025  0.291792  0.813234  1
  Tb  Tb2  1  0.894975  0.708208  0.186766  1
  Tb  Tb3  1  0.521442  0.708208  0.813234  1
  Er  Er4  1  0.306999  0.621137  0.314138  1
  Er  Er5  1  0.306999  0.992862  0.685862  1
  Er  Er6  1  0.693001  0.378863  0.685862  1
  Er  Er7  1  0.693001  0.007138  0.314138  1
  Er  Er8  1  0.192007  0.207970  0.399977  1
  Er  Er9  1  0.807993  0.792030  0.600023  1
  Er  Er10  1  0.192007  0.792030  0.984036  1
  Er  Er11  1  0.807993  0.207970  0.015964  1
  Co  Co12  1  0.500000  0.612823  0.112823  1
  Co  Co13  1  0.500000  0.387177  0.887177  1
  Co  Co14  1  0.377224  0.000000  0.377224  1
  Co  Co15  1  0.622776  0.000000  0.622776  1
  Co  Co16  1  0.000000  0.000000  0.000000  1
  Sn  Sn17  1  0.000000  0.500000  0.500000  1
