# generated using pymatgen
data_La2(SbPd3)3
_symmetry_space_group_name_H-M   'P 1'
_cell_length_a   8.09309633
_cell_length_b   8.09309567
_cell_length_c   9.47368800
_cell_angle_alpha   90.00000000
_cell_angle_beta   90.00000000
_cell_angle_gamma   119.23273275
_symmetry_Int_Tables_number   1
_chemical_formula_structural   La2(SbPd3)3
_chemical_formula_sum   'La4 Sb6 Pd18'
_cell_volume   541.48344332
_cell_formula_units_Z   2
loop_
 _symmetry_equiv_pos_site_id
 _symmetry_equiv_pos_as_xyz
  1  'x, y, z'
loop_
 _atom_site_type_symbol
 _atom_site_label
 _atom_site_symmetry_multiplicity
 _atom_site_fract_x
 _atom_site_fract_y
 _atom_site_fract_z
 _atom_site_occupancy
  La  La0  1  0.326496  0.017927  0.750000  1
  La  La1  1  0.673504  0.982073  0.250000  1
  La  La2  1  0.017927  0.326496  0.750000  1
  La  La3  1  0.982073  0.673504  0.250000  1
  Sb  Sb4  1  0.000000  0.000000  0.500000  1
  Sb  Sb5  1  0.677324  0.322676  0.000000  1
  Sb  Sb6  1  0.322676  0.677324  0.500000  1
  Sb  Sb7  1  0.322676  0.677324  0.000000  1
  Sb  Sb8  1  0.000000  0.000000  0.000000  1
  Sb  Sb9  1  0.677324  0.322676  0.500000  1
  Pd  Pd10  1  0.332007  0.332007  0.966242  1
  Pd  Pd11  1  0.441814  0.637689  0.750000  1
  Pd  Pd12  1  0.558186  0.362311  0.250000  1
  Pd  Pd13  1  0.637689  0.441814  0.750000  1
  Pd  Pd14  1  0.002044  0.344601  0.088289  1
  Pd  Pd15  1  0.997956  0.655399  0.588289  1
  Pd  Pd16  1  0.344601  0.002044  0.411711  1
  Pd  Pd17  1  0.655399  0.997956  0.911711  1
  Pd  Pd18  1  0.997956  0.655399  0.911711  1
  Pd  Pd19  1  0.002044  0.344601  0.411711  1
  Pd  Pd20  1  0.655399  0.997956  0.588289  1
  Pd  Pd21  1  0.852341  0.852341  0.750000  1
  Pd  Pd22  1  0.332007  0.332007  0.533758  1
  Pd  Pd23  1  0.667993  0.667993  0.033758  1
  Pd  Pd24  1  0.344601  0.002044  0.088289  1
  Pd  Pd25  1  0.667993  0.667993  0.466242  1
  Pd  Pd26  1  0.147659  0.147659  0.250000  1
  Pd  Pd27  1  0.362311  0.558186  0.250000  1
