# generated using pymatgen
data_LiBe12Ni5Rh6
_symmetry_space_group_name_H-M   'P 1'
_cell_length_a   3.82024203
_cell_length_b   5.40425000
_cell_length_c   11.44903310
_cell_angle_alpha   90.00000000
_cell_angle_beta   89.98482440
_cell_angle_gamma   90.00000000
_symmetry_Int_Tables_number   1
_chemical_formula_structural   LiBe12Ni5Rh6
_chemical_formula_sum   'Li1 Be12 Ni5 Rh6'
_cell_volume   236.37149700
_cell_formula_units_Z   1
loop_
 _symmetry_equiv_pos_site_id
 _symmetry_equiv_pos_as_xyz
  1  'x, y, z'
loop_
 _atom_site_type_symbol
 _atom_site_label
 _atom_site_symmetry_multiplicity
 _atom_site_fract_x
 _atom_site_fract_y
 _atom_site_fract_z
 _atom_site_occupancy
  Li  Li0  1  0.000000  0.000000  0.000000  1
  Be  Be1  1  0.500000  0.267780  0.000000  1
  Be  Be2  1  0.500000  0.732219  0.000000  1
  Be  Be3  1  0.000112  0.259095  0.172772  1
  Be  Be4  1  0.000112  0.740904  0.172772  1
  Be  Be5  1  0.499263  0.248120  0.331857  1
  Be  Be6  1  0.499263  0.751879  0.331857  1
  Be  Be7  1  0.000000  0.246015  0.500000  1
  Be  Be8  1  0.000000  0.753986  0.500000  1
  Be  Be9  1  0.500738  0.248120  0.668143  1
  Be  Be10  1  0.500738  0.751879  0.668143  1
  Be  Be11  1  0.999889  0.259095  0.827228  1
  Be  Be12  1  0.999889  0.740904  0.827228  1
  Ni  Ni13  1  0.500019  0.500000  0.166396  1
  Ni  Ni14  1  0.000895  0.000000  0.332067  1
  Ni  Ni15  1  0.500000  0.500000  0.500000  1
  Ni  Ni16  1  0.999106  0.000000  0.667933  1
  Ni  Ni17  1  0.499979  0.500000  0.833604  1
  Rh  Rh18  1  0.000000  0.500000  0.000000  1
  Rh  Rh19  1  0.500039  0.000000  0.160395  1
  Rh  Rh20  1  0.999346  0.500000  0.336120  1
  Rh  Rh21  1  0.500000  0.000000  0.500000  1
  Rh  Rh22  1  0.000654  0.500000  0.663880  1
  Rh  Rh23  1  0.499962  0.000000  0.839605  1
