# generated using pymatgen
data_Tb10Tl7InPt3Rh
_symmetry_space_group_name_H-M   'P 1'
_cell_length_a   3.65248700
_cell_length_b   8.24015308
_cell_length_c   18.49052835
_cell_angle_alpha   89.98598685
_cell_angle_beta   90.00000000
_cell_angle_gamma   90.00000000
_symmetry_Int_Tables_number   1
_chemical_formula_structural   Tb10Tl7InPt3Rh
_chemical_formula_sum   'Tb10 Tl7 In1 Pt3 Rh1'
_cell_volume   556.51037640
_cell_formula_units_Z   1
loop_
 _symmetry_equiv_pos_site_id
 _symmetry_equiv_pos_as_xyz
  1  'x, y, z'
loop_
 _atom_site_type_symbol
 _atom_site_label
 _atom_site_symmetry_multiplicity
 _atom_site_fract_x
 _atom_site_fract_y
 _atom_site_fract_z
 _atom_site_occupancy
  Tb  Tb0  1  0.000000  0.112795  0.410986  1
  Tb  Tb1  1  0.000000  0.883933  0.585652  1
  Tb  Tb2  1  0.000000  0.384814  0.913206  1
  Tb  Tb3  1  0.000000  0.615561  0.087947  1
  Tb  Tb4  1  0.000000  0.240356  0.221594  1
  Tb  Tb5  1  0.000000  0.757210  0.779765  1
  Tb  Tb6  1  0.000000  0.256481  0.720268  1
  Tb  Tb7  1  0.000000  0.749904  0.279772  1
  Tb  Tb8  1  0.000000  0.999670  0.000234  1
  Tb  Tb9  1  0.000000  0.502331  0.499358  1
  Tl  Tl10  1  0.500000  0.422337  0.352933  1
  Tl  Tl11  1  0.500000  0.578306  0.647167  1
  Tl  Tl12  1  0.500000  0.078142  0.852883  1
  Tl  Tl13  1  0.500000  0.925879  0.149167  1
  Tl  Tl14  1  0.500000  0.292038  0.065350  1
  Tl  Tl15  1  0.500000  0.707612  0.935073  1
  Tl  Tl16  1  0.500000  0.207202  0.564682  1
  In  In17  1  0.500000  0.794358  0.431465  1
  Pt  Pt18  1  0.500000  0.973632  0.696489  1
  Pt  Pt19  1  0.500000  0.473665  0.803098  1
  Pt  Pt20  1  0.500000  0.523936  0.197297  1
  Rh  Rh21  1  0.500000  0.019840  0.305619  1
