# generated using pymatgen
data_K3Rb(HfI6)2
_symmetry_space_group_name_H-M   'P 1'
_cell_length_a   8.45517498
_cell_length_b   7.92261551
_cell_length_c   13.70452100
_cell_angle_alpha   54.89697268
_cell_angle_beta   90.19896951
_cell_angle_gamma   89.94381674
_symmetry_Int_Tables_number   1
_chemical_formula_structural   K3Rb(HfI6)2
_chemical_formula_sum   'K3 Rb1 Hf2 I12'
_cell_volume   751.04541944
_cell_formula_units_Z   1
loop_
 _symmetry_equiv_pos_site_id
 _symmetry_equiv_pos_as_xyz
  1  'x, y, z'
loop_
 _atom_site_type_symbol
 _atom_site_label
 _atom_site_symmetry_multiplicity
 _atom_site_fract_x
 _atom_site_fract_y
 _atom_site_fract_z
 _atom_site_occupancy
  K  K0  1  0.085055  0.279476  0.250906  1
  K  K1  1  0.412124  0.277473  0.750027  1
  K  K2  1  0.914216  0.722977  0.749265  1
  Rb  Rb3  1  0.583099  0.722784  0.250423  1
  Hf  Hf4  1  0.001143  0.001581  0.998012  1
  Hf  Hf5  1  0.498924  0.998516  0.501948  1
  I  I6  1  0.997212  0.846669  0.244117  1
  I  I7  1  0.487434  0.166098  0.254264  1
  I  I8  1  0.009767  0.158195  0.752030  1
  I  I9  1  0.513239  0.844104  0.747441  1
  I  I10  1  0.682238  0.656126  0.547169  1
  I  I11  1  0.185846  0.342696  0.952334  1
  I  I12  1  0.309750  0.333940  0.460252  1
  I  I13  1  0.818134  0.659191  0.043724  1
  I  I14  1  0.714261  0.226021  0.955374  1
  I  I15  1  0.214008  0.771898  0.543875  1
  I  I16  1  0.285542  0.773786  0.038906  1
  I  I17  1  0.788006  0.218469  0.459934  1
