# generated using pymatgen
data_NdDy4Bi2Te
_symmetry_space_group_name_H-M   'P 1'
_cell_length_a   8.22482600
_cell_length_b   9.51694800
_cell_length_c   12.06349100
_cell_angle_alpha   90.00000000
_cell_angle_beta   90.00000000
_cell_angle_gamma   90.00000000
_symmetry_Int_Tables_number   1
_chemical_formula_structural   NdDy4Bi2Te
_chemical_formula_sum   'Nd4 Dy16 Bi8 Te4'
_cell_volume   944.27266956
_cell_formula_units_Z   4
loop_
 _symmetry_equiv_pos_site_id
 _symmetry_equiv_pos_as_xyz
  1  'x, y, z'
loop_
 _atom_site_type_symbol
 _atom_site_label
 _atom_site_symmetry_multiplicity
 _atom_site_fract_x
 _atom_site_fract_y
 _atom_site_fract_z
 _atom_site_occupancy
  Nd  Nd0  1  0.353593  0.750000  0.212266  1
  Nd  Nd1  1  0.853593  0.750000  0.287734  1
  Nd  Nd2  1  0.646407  0.250000  0.787734  1
  Nd  Nd3  1  0.146407  0.250000  0.712266  1
  Dy  Dy4  1  0.688736  0.562131  0.056239  1
  Dy  Dy5  1  0.188736  0.937869  0.443761  1
  Dy  Dy6  1  0.311264  0.062131  0.943761  1
  Dy  Dy7  1  0.811264  0.437869  0.556239  1
  Dy  Dy8  1  0.311264  0.437869  0.943761  1
  Dy  Dy9  1  0.811264  0.062131  0.556239  1
  Dy  Dy10  1  0.688736  0.937869  0.056239  1
  Dy  Dy11  1  0.188736  0.562131  0.443761  1
  Dy  Dy12  1  0.476032  0.250000  0.488575  1
  Dy  Dy13  1  0.976032  0.250000  0.011425  1
  Dy  Dy14  1  0.523968  0.750000  0.511425  1
  Dy  Dy15  1  0.023968  0.750000  0.988575  1
  Dy  Dy16  1  0.319484  0.250000  0.218362  1
  Dy  Dy17  1  0.819484  0.250000  0.281638  1
  Dy  Dy18  1  0.680516  0.750000  0.781638  1
  Dy  Dy19  1  0.180516  0.750000  0.718362  1
  Bi  Bi20  1  0.568234  0.999127  0.327368  1
  Bi  Bi21  1  0.068234  0.500873  0.172632  1
  Bi  Bi22  1  0.431766  0.499127  0.672632  1
  Bi  Bi23  1  0.931766  0.000873  0.827368  1
  Bi  Bi24  1  0.431766  0.000873  0.672632  1
  Bi  Bi25  1  0.931766  0.499127  0.827368  1
  Bi  Bi26  1  0.568234  0.500873  0.327368  1
  Bi  Bi27  1  0.068234  0.999127  0.172632  1
  Te  Te28  1  0.407038  0.750000  0.953298  1
  Te  Te29  1  0.907038  0.750000  0.546702  1
  Te  Te30  1  0.592962  0.250000  0.046702  1
  Te  Te31  1  0.092962  0.250000  0.453298  1
