# generated using pymatgen
data_Dy3Sb(AuCl6)4
_symmetry_space_group_name_H-M   'P 1'
_cell_length_a   8.05824954
_cell_length_b   10.01016601
_cell_length_c   14.01632800
_cell_angle_alpha   102.84960179
_cell_angle_beta   97.33939642
_cell_angle_gamma   113.18990192
_symmetry_Int_Tables_number   1
_chemical_formula_structural   Dy3Sb(AuCl6)4
_chemical_formula_sum   'Dy3 Sb1 Au4 Cl24'
_cell_volume   983.56386185
_cell_formula_units_Z   1
loop_
 _symmetry_equiv_pos_site_id
 _symmetry_equiv_pos_as_xyz
  1  'x, y, z'
loop_
 _atom_site_type_symbol
 _atom_site_label
 _atom_site_symmetry_multiplicity
 _atom_site_fract_x
 _atom_site_fract_y
 _atom_site_fract_z
 _atom_site_occupancy
  Dy  Dy0  1  0.031483  0.686434  0.128470  1
  Dy  Dy1  1  0.418504  0.077087  0.375881  1
  Dy  Dy2  1  0.975515  0.319320  0.873818  1
  Sb  Sb3  1  0.587799  0.946437  0.622474  1
  Au  Au4  1  0.288605  0.631191  0.766853  1
  Au  Au5  1  0.497359  0.496215  0.497832  1
  Au  Au6  1  0.711362  0.366852  0.236480  1
  Au  Au7  1  0.999437  0.999160  0.999021  1
  Cl  Cl8  1  0.792228  0.104289  0.973027  1
  Cl  Cl9  1  0.716010  0.150018  0.267702  1
  Cl  Cl10  1  0.277962  0.847354  0.740726  1
  Cl  Cl11  1  0.780799  0.789048  0.030177  1
  Cl  Cl12  1  0.623626  0.196391  0.739649  1
  Cl  Cl13  1  0.291830  0.409249  0.791478  1
  Cl  Cl14  1  0.707731  0.586907  0.209690  1
  Cl  Cl15  1  0.303447  0.614438  0.492878  1
  Cl  Cl16  1  0.219405  0.209370  0.968480  1
  Cl  Cl17  1  0.751022  0.726849  0.525748  1
  Cl  Cl18  1  0.208366  0.896030  0.025785  1
  Cl  Cl19  1  0.722740  0.056168  0.488523  1
  Cl  Cl20  1  0.593886  0.722293  0.755779  1
  Cl  Cl21  1  0.934361  0.064110  0.730246  1
  Cl  Cl22  1  0.246078  0.260486  0.467550  1
  Cl  Cl23  1  0.374217  0.810901  0.256974  1
  Cl  Cl24  1  0.978618  0.534401  0.776576  1
  Cl  Cl25  1  0.776604  0.435580  0.976191  1
  Cl  Cl26  1  0.227293  0.564987  0.024851  1
  Cl  Cl27  1  0.018939  0.463676  0.224702  1
  Cl  Cl28  1  0.403995  0.268013  0.249064  1
  Cl  Cl29  1  0.289519  0.955867  0.516117  1
  Cl  Cl30  1  0.686169  0.369574  0.499602  1
  Cl  Cl31  1  0.065093  0.941306  0.267657  1
