# generated using pymatgen
data_Hf6Zn12Cu11P
_symmetry_space_group_name_H-M   'P 1'
_cell_length_a   8.56006657
_cell_length_b   8.54512456
_cell_length_c   8.51551700
_cell_angle_alpha   60.11316205
_cell_angle_beta   60.17062471
_cell_angle_gamma   60.06039733
_symmetry_Int_Tables_number   1
_chemical_formula_structural   Hf6Zn12Cu11P
_chemical_formula_sum   'Hf6 Zn12 Cu11 P1'
_cell_volume   441.58890266
_cell_formula_units_Z   1
loop_
 _symmetry_equiv_pos_site_id
 _symmetry_equiv_pos_as_xyz
  1  'x, y, z'
loop_
 _atom_site_type_symbol
 _atom_site_label
 _atom_site_symmetry_multiplicity
 _atom_site_fract_x
 _atom_site_fract_y
 _atom_site_fract_z
 _atom_site_occupancy
  Hf  Hf0  1  0.716120  0.284346  0.295067  1
  Hf  Hf1  1  0.279009  0.715736  0.713786  1
  Hf  Hf2  1  0.279007  0.715739  0.291459  1
  Hf  Hf3  1  0.716110  0.284352  0.704457  1
  Hf  Hf4  1  0.290353  0.290085  0.709778  1
  Hf  Hf5  1  0.720557  0.709589  0.284924  1
  Zn  Zn6  1  0.882153  0.359533  0.879153  1
  Zn  Zn7  1  0.636168  0.120179  0.121823  1
  Zn  Zn8  1  0.365249  0.878729  0.878004  1
  Zn  Zn9  1  0.330525  0.336089  0.333795  1
  Zn  Zn10  1  0.665693  0.667378  0.662342  1
  Zn  Zn11  1  0.330537  0.336099  0.999572  1
  Zn  Zn12  1  0.329609  0.001593  0.334401  1
  Zn  Zn13  1  0.665697  0.667378  0.004576  1
  Zn  Zn14  1  0.672325  0.992499  0.667582  1
  Zn  Zn15  1  0.012719  0.329294  0.328994  1
  Zn  Zn16  1  0.990645  0.674130  0.667607  1
  Zn  Zn17  1  0.003062  0.989318  0.003828  1
  Cu  Cu18  1  0.119719  0.120942  0.118799  1
  Cu  Cu19  1  0.877925  0.879920  0.879665  1
  Cu  Cu20  1  0.119661  0.120944  0.640540  1
  Cu  Cu21  1  0.122560  0.633369  0.122050  1
  Cu  Cu22  1  0.877931  0.879907  0.362511  1
  Cu  Cu23  1  0.498743  0.002517  0.999213  1
  Cu  Cu24  1  0.999174  0.500032  0.501746  1
  Cu  Cu25  1  0.999184  0.500059  0.999038  1
  Cu  Cu26  1  0.498727  0.002521  0.499539  1
  Cu  Cu27  1  0.999611  0.002356  0.499045  1
  Cu  Cu28  1  0.502822  0.499153  0.999023  1
  P  P29  1  0.498402  0.506217  0.497683  1
