# generated using pymatgen
data_Ca2Ga2Co3Ni3B2
_symmetry_space_group_name_H-M   'P 1'
_cell_length_a   5.22768516
_cell_length_b   5.21801775
_cell_length_c   6.62458100
_cell_angle_alpha   90.00000000
_cell_angle_beta   90.00000000
_cell_angle_gamma   119.67784217
_symmetry_Int_Tables_number   1
_chemical_formula_structural   Ca2Ga2Co3Ni3B2
_chemical_formula_sum   'Ca2 Ga2 Co3 Ni3 B2'
_cell_volume   157.00183532
_cell_formula_units_Z   1
loop_
 _symmetry_equiv_pos_site_id
 _symmetry_equiv_pos_as_xyz
  1  'x, y, z'
loop_
 _atom_site_type_symbol
 _atom_site_label
 _atom_site_symmetry_multiplicity
 _atom_site_fract_x
 _atom_site_fract_y
 _atom_site_fract_z
 _atom_site_occupancy
  Ca  Ca0  1  0.000000  0.000000  0.502105  1
  Ca  Ca1  1  0.000000  0.000000  0.998711  1
  Ga  Ga2  1  0.327498  0.666695  0.500941  1
  Ga  Ga3  1  0.672502  0.333305  0.500941  1
  Co  Co4  1  0.000000  0.500000  0.799173  1
  Co  Co5  1  0.500000  0.000000  0.800078  1
  Co  Co6  1  0.000000  0.500000  0.200442  1
  Ni  Ni7  1  0.500000  0.500000  0.798198  1
  Ni  Ni8  1  0.500000  0.500000  0.201473  1
  Ni  Ni9  1  0.500000  0.000000  0.201840  1
  B  B10  1  0.674517  0.332779  0.998049  1
  B  B11  1  0.325483  0.667221  0.998049  1
