# generated using pymatgen
data_Er4Sn6Ir4Rh3
_symmetry_space_group_name_H-M   'P 1'
_cell_length_a   7.57868461
_cell_length_b   7.57954170
_cell_length_c   7.57868403
_cell_angle_alpha   109.47432931
_cell_angle_beta   109.46043258
_cell_angle_gamma   109.47432927
_symmetry_Int_Tables_number   1
_chemical_formula_structural   Er4Sn6Ir4Rh3
_chemical_formula_sum   'Er4 Sn6 Ir4 Rh3'
_cell_volume   335.14533634
_cell_formula_units_Z   1
loop_
 _symmetry_equiv_pos_site_id
 _symmetry_equiv_pos_as_xyz
  1  'x, y, z'
loop_
 _atom_site_type_symbol
 _atom_site_label
 _atom_site_symmetry_multiplicity
 _atom_site_fract_x
 _atom_site_fract_y
 _atom_site_fract_z
 _atom_site_occupancy
  Er  Er0  1  0.000560  0.001121  0.500560  1
  Er  Er1  1  0.998102  0.498770  0.998102  1
  Er  Er2  1  0.500560  0.001121  0.000560  1
  Er  Er3  1  0.500668  0.498770  0.500668  1
  Sn  Sn4  1  0.686881  0.687360  0.000479  1
  Sn  Sn5  1  0.313522  0.999095  0.313522  1
  Sn  Sn6  1  0.000542  0.313665  0.313124  1
  Sn  Sn7  1  0.313124  0.313665  0.000542  1
  Sn  Sn8  1  0.685573  0.999095  0.685573  1
  Sn  Sn9  1  0.000479  0.687360  0.686881  1
  Ir  Ir10  1  0.749988  0.250071  0.500083  1
  Ir  Ir11  1  0.749934  0.499868  0.249934  1
  Ir  Ir12  1  0.500083  0.250071  0.749988  1
  Ir  Ir13  1  0.249934  0.499868  0.749934  1
  Rh  Rh14  1  0.249988  0.750112  0.500124  1
  Rh  Rh15  1  0.500124  0.750112  0.249988  1
  Rh  Rh16  1  0.999939  0.999878  0.999939  1
