# generated using pymatgen
data_Ta6Si6OsW5
_symmetry_space_group_name_H-M   'P 1'
_cell_length_a   7.68330348
_cell_length_b   7.69277188
_cell_length_c   7.68332419
_cell_angle_alpha   126.47572729
_cell_angle_beta   128.28843504
_cell_angle_gamma   77.60957782
_symmetry_Int_Tables_number   1
_chemical_formula_structural   Ta6Si6OsW5
_chemical_formula_sum   'Ta6 Si6 Os1 W5'
_cell_volume   277.98410649
_cell_formula_units_Z   1
loop_
 _symmetry_equiv_pos_site_id
 _symmetry_equiv_pos_as_xyz
  1  'x, y, z'
loop_
 _atom_site_type_symbol
 _atom_site_label
 _atom_site_symmetry_multiplicity
 _atom_site_fract_x
 _atom_site_fract_y
 _atom_site_fract_z
 _atom_site_occupancy
  Ta  Ta0  1  0.550914  0.086825  0.038097  1
  Ta  Ta1  1  0.447980  0.496600  0.552835  1
  Ta  Ta2  1  0.943784  0.496583  0.048600  1
  Ta  Ta3  1  0.048717  0.086831  0.535932  1
  Ta  Ta4  1  0.757204  0.906994  0.653999  1
  Ta  Ta5  1  0.252963  0.906960  0.149782  1
  Si  Si6  1  0.745747  0.496896  0.249554  1
  Si  Si7  1  0.247307  0.496891  0.751158  1
  Si  Si8  1  0.334187  0.822584  0.488401  1
  Si  Si9  1  0.668413  0.165750  0.497317  1
  Si  Si10  1  0.834272  0.827736  0.993454  1
  Si  Si11  1  0.171694  0.170859  0.999214  1
  Os  Os12  1  0.370201  0.496466  0.126328  1
  W  W13  1  0.498657  0.238075  0.739406  1
  W  W14  1  0.001377  0.240232  0.238870  1
  W  W15  1  0.129374  0.755536  0.626161  1
  W  W16  1  0.868863  0.496688  0.627755  1
  W  W17  1  0.628345  0.753695  0.125334  1
