# generated using pymatgen
data_Y4Tc3B8Os
_symmetry_space_group_name_H-M   'P 1'
_cell_length_a   5.95175818
_cell_length_b   5.30132800
_cell_length_c   6.44210515
_cell_angle_alpha   90.00000000
_cell_angle_beta   90.33301999
_cell_angle_gamma   90.00000000
_symmetry_Int_Tables_number   1
_chemical_formula_structural   Y4Tc3B8Os
_chemical_formula_sum   'Y4 Tc3 B8 Os1'
_cell_volume   203.25930043
_cell_formula_units_Z   1
loop_
 _symmetry_equiv_pos_site_id
 _symmetry_equiv_pos_as_xyz
  1  'x, y, z'
loop_
 _atom_site_type_symbol
 _atom_site_label
 _atom_site_symmetry_multiplicity
 _atom_site_fract_x
 _atom_site_fract_y
 _atom_site_fract_z
 _atom_site_occupancy
  Y  Y0  1  0.014095  0.250000  0.338751  1
  Y  Y1  1  0.513631  0.250000  0.160619  1
  Y  Y2  1  0.985289  0.750000  0.662964  1
  Y  Y3  1  0.485154  0.750000  0.837134  1
  Tc  Tc4  1  0.181182  0.250000  0.814569  1
  Tc  Tc5  1  0.679010  0.250000  0.683583  1
  Tc  Tc6  1  0.820098  0.750000  0.185483  1
  B  B7  1  0.369513  0.078518  0.536629  1
  B  B8  1  0.871378  0.420887  0.963584  1
  B  B9  1  0.630198  0.580646  0.463408  1
  B  B10  1  0.131206  0.920318  0.037486  1
  B  B11  1  0.630198  0.919354  0.463408  1
  B  B12  1  0.131206  0.579682  0.037486  1
  B  B13  1  0.369513  0.421482  0.536629  1
  B  B14  1  0.871378  0.079113  0.963584  1
  Os  Os15  1  0.316949  0.750000  0.314681  1
