# generated using pymatgen
data_ErScCo4(SiC)2
_symmetry_space_group_name_H-M   'P 1'
_cell_length_a   5.52684013
_cell_length_b   5.52683909
_cell_length_c   6.64089500
_cell_angle_alpha   90.00000000
_cell_angle_beta   90.00000000
_cell_angle_gamma   141.82780713
_symmetry_Int_Tables_number   1
_chemical_formula_structural   ErScCo4(SiC)2
_chemical_formula_sum   'Er1 Sc1 Co4 Si2 C2'
_cell_volume   125.36829893
_cell_formula_units_Z   1
loop_
 _symmetry_equiv_pos_site_id
 _symmetry_equiv_pos_as_xyz
  1  'x, y, z'
loop_
 _atom_site_type_symbol
 _atom_site_label
 _atom_site_symmetry_multiplicity
 _atom_site_fract_x
 _atom_site_fract_y
 _atom_site_fract_z
 _atom_site_occupancy
  Er  Er0  1  0.451511  0.548489  0.750000  1
  Sc  Sc1  1  0.547919  0.452081  0.250000  1
  Co  Co2  1  0.836303  0.163697  0.057429  1
  Co  Co3  1  0.163390  0.836610  0.947100  1
  Co  Co4  1  0.163390  0.836610  0.552900  1
  Co  Co5  1  0.836303  0.163697  0.442571  1
  Si  Si6  1  0.269931  0.730069  0.250000  1
  Si  Si7  1  0.729087  0.270913  0.750000  1
  C  C8  1  0.001083  0.998917  0.010244  1
  C  C9  1  0.001083  0.998917  0.489756  1
