# generated using pymatgen
data_Ac5ThIr18
_symmetry_space_group_name_H-M   'P 1'
_cell_length_a   5.47959400
_cell_length_b   5.47980446
_cell_length_c   17.89015800
_cell_angle_alpha   89.99940015
_cell_angle_beta   90.00020469
_cell_angle_gamma   119.99668262
_symmetry_Int_Tables_number   1
_chemical_formula_structural   Ac5ThIr18
_chemical_formula_sum   'Ac5 Th1 Ir18'
_cell_volume   465.23541532
_cell_formula_units_Z   1
loop_
 _symmetry_equiv_pos_site_id
 _symmetry_equiv_pos_as_xyz
  1  'x, y, z'
loop_
 _atom_site_type_symbol
 _atom_site_label
 _atom_site_symmetry_multiplicity
 _atom_site_fract_x
 _atom_site_fract_y
 _atom_site_fract_z
 _atom_site_occupancy
  Ac  Ac0  1  0.333334  0.666672  0.959419  1
  Ac  Ac1  1  0.666666  0.333323  0.040770  1
  Ac  Ac2  1  0.666665  0.333330  0.459443  1
  Ac  Ac3  1  0.333331  0.666641  0.750827  1
  Ac  Ac4  1  0.666668  0.333355  0.250902  1
  Th  Th5  1  0.333334  0.666681  0.543150  1
  Ir  Ir6  1  0.166690  0.833298  0.372083  1
  Ir  Ir7  1  0.166695  0.333382  0.372065  1
  Ir  Ir8  1  0.666611  0.833295  0.372075  1
  Ir  Ir9  1  0.833708  0.166318  0.627199  1
  Ir  Ir10  1  0.833687  0.667392  0.627212  1
  Ir  Ir11  1  0.332612  0.166333  0.627205  1
  Ir  Ir12  1  0.834421  0.165596  0.868444  1
  Ir  Ir13  1  0.834401  0.668816  0.868428  1
  Ir  Ir14  1  0.331177  0.165605  0.868437  1
  Ir  Ir15  1  0.165251  0.834728  0.131201  1
  Ir  Ir16  1  0.165278  0.330537  0.131215  1
  Ir  Ir17  1  0.669471  0.834713  0.131208  1
  Ir  Ir18  1  0.333336  0.666756  0.250566  1
  Ir  Ir19  1  0.666662  0.333236  0.748582  1
  Ir  Ir20  1  0.999999  0.999956  0.251958  1
  Ir  Ir21  1  0.000001  0.000042  0.747929  1
  Ir  Ir22  1  0.000000  0.999993  0.499867  1
  Ir  Ir23  1  0.000000  0.999999  0.999815  1
