# generated using pymatgen
data_Er4Lu(ReO6)2
_symmetry_space_group_name_H-M   'P 1'
_cell_length_a   6.77239890
_cell_length_b   6.77240063
_cell_length_c   7.45336329
_cell_angle_alpha   73.75310799
_cell_angle_beta   73.75310293
_cell_angle_gamma   49.23904574
_symmetry_Int_Tables_number   1
_chemical_formula_structural   Er4Lu(ReO6)2
_chemical_formula_sum   'Er4 Lu1 Re2 O12'
_cell_volume   246.36506104
_cell_formula_units_Z   1
loop_
 _symmetry_equiv_pos_site_id
 _symmetry_equiv_pos_as_xyz
  1  'x, y, z'
loop_
 _atom_site_type_symbol
 _atom_site_label
 _atom_site_symmetry_multiplicity
 _atom_site_fract_x
 _atom_site_fract_y
 _atom_site_fract_z
 _atom_site_occupancy
  Er  Er0  1  0.802260  0.802260  0.359402  1
  Er  Er1  1  0.197740  0.197740  0.640598  1
  Er  Er2  1  0.184880  0.184880  0.178168  1
  Er  Er3  1  0.815120  0.815120  0.821832  1
  Lu  Lu4  1  0.500000  0.500000  0.500000  1
  Re  Re5  1  0.285516  0.714484  0.000000  1
  Re  Re6  1  0.714484  0.285516  0.000000  1
  O  O7  1  0.412694  0.920975  0.912810  1
  O  O8  1  0.079025  0.587306  0.087190  1
  O  O9  1  0.587306  0.079025  0.087190  1
  O  O10  1  0.920975  0.412694  0.912810  1
  O  O11  1  0.598727  0.097815  0.571217  1
  O  O12  1  0.902185  0.401273  0.428783  1
  O  O13  1  0.401273  0.902185  0.428783  1
  O  O14  1  0.000940  0.000940  0.819904  1
  O  O15  1  0.999060  0.999060  0.180096  1
  O  O16  1  0.497580  0.497580  0.790882  1
  O  O17  1  0.502420  0.502420  0.209118  1
  O  O18  1  0.097815  0.598727  0.571217  1
