# generated using pymatgen
data_Nd8Dy12Si15Sn
_symmetry_space_group_name_H-M   'P 1'
_cell_length_a   7.55647111
_cell_length_b   7.83731119
_cell_length_c   14.86343600
_cell_angle_alpha   90.00000000
_cell_angle_beta   90.00000000
_cell_angle_gamma   89.91438571
_symmetry_Int_Tables_number   1
_chemical_formula_structural   Nd8Dy12Si15Sn
_chemical_formula_sum   'Nd8 Dy12 Si15 Sn1'
_cell_volume   880.24760073
_cell_formula_units_Z   1
loop_
 _symmetry_equiv_pos_site_id
 _symmetry_equiv_pos_as_xyz
  1  'x, y, z'
loop_
 _atom_site_type_symbol
 _atom_site_label
 _atom_site_symmetry_multiplicity
 _atom_site_fract_x
 _atom_site_fract_y
 _atom_site_fract_z
 _atom_site_occupancy
  Nd  Nd0  1  0.980317  0.827662  0.092035  1
  Nd  Nd1  1  0.467700  0.682213  0.404713  1
  Nd  Nd2  1  0.527064  0.318844  0.900802  1
  Nd  Nd3  1  0.027006  0.181673  0.599876  1
  Nd  Nd4  1  0.027006  0.181673  0.900124  1
  Nd  Nd5  1  0.527064  0.318844  0.599198  1
  Nd  Nd6  1  0.467700  0.682213  0.095287  1
  Nd  Nd7  1  0.980317  0.827662  0.407965  1
  Dy  Dy8  1  0.642807  0.002538  0.250000  1
  Dy  Dy9  1  0.160390  0.508146  0.250000  1
  Dy  Dy10  1  0.850721  0.488766  0.750000  1
  Dy  Dy11  1  0.350999  0.011248  0.750000  1
  Dy  Dy12  1  0.682226  0.821086  0.876637  1
  Dy  Dy13  1  0.181686  0.678215  0.623497  1
  Dy  Dy14  1  0.821054  0.314762  0.120087  1
  Dy  Dy15  1  0.314100  0.176780  0.379041  1
  Dy  Dy16  1  0.314100  0.176780  0.120959  1
  Dy  Dy17  1  0.821054  0.314762  0.379913  1
  Dy  Dy18  1  0.181686  0.678215  0.876503  1
  Dy  Dy19  1  0.682226  0.821086  0.623363  1
  Si  Si20  1  0.265672  0.878485  0.250000  1
  Si  Si21  1  0.733578  0.121042  0.750000  1
  Si  Si22  1  0.233948  0.378673  0.750000  1
  Si  Si23  1  0.022416  0.110112  0.250000  1
  Si  Si24  1  0.520756  0.373702  0.250000  1
  Si  Si25  1  0.476734  0.610612  0.750000  1
  Si  Si26  1  0.976456  0.889844  0.750000  1
  Si  Si27  1  0.856387  0.530193  0.959392  1
  Si  Si28  1  0.355887  0.969496  0.541717  1
  Si  Si29  1  0.640898  0.027652  0.039660  1
  Si  Si30  1  0.142696  0.469828  0.460435  1
  Si  Si31  1  0.142696  0.469828  0.039565  1
  Si  Si32  1  0.640898  0.027652  0.460340  1
  Si  Si33  1  0.355887  0.969496  0.958283  1
  Si  Si34  1  0.856387  0.530193  0.540608  1
  Sn  Sn35  1  0.771481  0.630024  0.250000  1
