# generated using pymatgen
data_K2PuInO6
_symmetry_space_group_name_H-M   'P 1'
_cell_length_a   5.96345370
_cell_length_b   5.96345526
_cell_length_c   5.96346900
_cell_angle_alpha   60.00000938
_cell_angle_beta   59.99998277
_cell_angle_gamma   89.99986105
_symmetry_Int_Tables_number   1
_chemical_formula_structural   K2PuInO6
_chemical_formula_sum   'K2 Pu1 In1 O6'
_cell_volume   149.96166719
_cell_formula_units_Z   1
loop_
 _symmetry_equiv_pos_site_id
 _symmetry_equiv_pos_as_xyz
  1  'x, y, z'
loop_
 _atom_site_type_symbol
 _atom_site_label
 _atom_site_symmetry_multiplicity
 _atom_site_fract_x
 _atom_site_fract_y
 _atom_site_fract_z
 _atom_site_occupancy
  K  K0  1  0.250002  0.749999  0.500002  1
  K  K1  1  0.749999  0.249999  0.500004  1
  Pu  Pu2  1  0.000000  0.000001  0.000000  1
  In  In3  1  0.500001  0.500001  0.000000  1
  O  O4  1  0.239621  0.239621  0.000000  1
  O  O5  1  0.760378  0.239622  0.000000  1
  O  O6  1  0.239622  0.760380  0.000000  1
  O  O7  1  0.760380  0.760380  0.000000  1
  O  O8  1  0.760379  0.760380  0.479241  1
  O  O9  1  0.239621  0.239621  0.520758  1
