# generated using pymatgen
data_Ce3Zn3Cu2Ru
_symmetry_space_group_name_H-M   'P 1'
_cell_length_a   7.11847700
_cell_length_b   7.11847595
_cell_length_c   3.98670700
_cell_angle_alpha   90.00000000
_cell_angle_beta   90.00000000
_cell_angle_gamma   120.00000021
_symmetry_Int_Tables_number   1
_chemical_formula_structural   Ce3Zn3Cu2Ru
_chemical_formula_sum   'Ce3 Zn3 Cu2 Ru1'
_cell_volume   174.95205899
_cell_formula_units_Z   1
loop_
 _symmetry_equiv_pos_site_id
 _symmetry_equiv_pos_as_xyz
  1  'x, y, z'
loop_
 _atom_site_type_symbol
 _atom_site_label
 _atom_site_symmetry_multiplicity
 _atom_site_fract_x
 _atom_site_fract_y
 _atom_site_fract_z
 _atom_site_occupancy
  Ce  Ce0  1  0.010165  0.425474  0.500000  1
  Ce  Ce1  1  0.574526  0.584690  0.500000  1
  Ce  Ce2  1  0.415310  0.989835  0.500000  1
  Zn  Zn3  1  0.994427  0.763835  0.000000  1
  Zn  Zn4  1  0.236165  0.230593  0.000000  1
  Zn  Zn5  1  0.769407  0.005573  0.000000  1
  Cu  Cu6  1  0.666667  0.333333  0.000000  1
  Cu  Cu7  1  0.000000  0.000000  0.500000  1
  Ru  Ru8  1  0.333333  0.666667  0.000000  1
