# generated using pymatgen
data_Er20Si14IrPt
_symmetry_space_group_name_H-M   'P 1'
_cell_length_a   7.27466492
_cell_length_b   7.68989895
_cell_length_c   14.53957400
_cell_angle_alpha   90.00000000
_cell_angle_beta   90.00000000
_cell_angle_gamma   90.34084352
_symmetry_Int_Tables_number   1
_chemical_formula_structural   Er20Si14IrPt
_chemical_formula_sum   'Er20 Si14 Ir1 Pt1'
_cell_volume   813.35028706
_cell_formula_units_Z   1
loop_
 _symmetry_equiv_pos_site_id
 _symmetry_equiv_pos_as_xyz
  1  'x, y, z'
loop_
 _atom_site_type_symbol
 _atom_site_label
 _atom_site_symmetry_multiplicity
 _atom_site_fract_x
 _atom_site_fract_y
 _atom_site_fract_z
 _atom_site_occupancy
  Er  Er0  1  0.025898  0.815628  0.594116  1
  Er  Er1  1  0.522515  0.681056  0.593527  1
  Er  Er2  1  0.309270  0.824304  0.126089  1
  Er  Er3  1  0.826673  0.683970  0.125807  1
  Er  Er4  1  0.862722  0.523177  0.750000  1
  Er  Er5  1  0.476194  0.316571  0.095634  1
  Er  Er6  1  0.025898  0.815628  0.905884  1
  Er  Er7  1  0.476194  0.316571  0.404366  1
  Er  Er8  1  0.659520  0.011254  0.250000  1
  Er  Er9  1  0.522515  0.681056  0.906473  1
  Er  Er10  1  0.679368  0.178193  0.876830  1
  Er  Er11  1  0.185282  0.321770  0.621428  1
  Er  Er12  1  0.185282  0.321770  0.878572  1
  Er  Er13  1  0.826673  0.683970  0.374193  1
  Er  Er14  1  0.309270  0.824304  0.373911  1
  Er  Er15  1  0.340271  0.975385  0.750000  1
  Er  Er16  1  0.679368  0.178193  0.623170  1
  Er  Er17  1  0.145982  0.481952  0.250000  1
  Er  Er18  1  0.978757  0.174061  0.095069  1
  Er  Er19  1  0.978757  0.174061  0.404931  1
  Si  Si20  1  0.646615  0.971460  0.460045  1
  Si  Si21  1  0.348567  0.029194  0.538074  1
  Si  Si22  1  0.730240  0.877027  0.750000  1
  Si  Si23  1  0.273799  0.133447  0.250000  1
  Si  Si24  1  0.849733  0.467735  0.537534  1
  Si  Si25  1  0.482606  0.402405  0.750000  1
  Si  Si26  1  0.149256  0.521685  0.457596  1
  Si  Si27  1  0.149256  0.521685  0.042404  1
  Si  Si28  1  0.972421  0.109847  0.750000  1
  Si  Si29  1  0.759268  0.375728  0.250000  1
  Si  Si30  1  0.348567  0.029194  0.961926  1
  Si  Si31  1  0.849733  0.467735  0.962466  1
  Si  Si32  1  0.646615  0.971460  0.039955  1
  Si  Si33  1  0.520585  0.601793  0.250000  1
  Ir  Ir34  1  0.020392  0.907213  0.250000  1
  Pt  Pt35  1  0.235938  0.629518  0.750000  1
