# generated using pymatgen
data_Dy4HoTm3(ReB6)4
_symmetry_space_group_name_H-M   'P 1'
_cell_length_a   3.66457700
_cell_length_b   9.14102101
_cell_length_c   11.52672302
_cell_angle_alpha   90.00605956
_cell_angle_beta   90.00000000
_cell_angle_gamma   90.00000000
_symmetry_Int_Tables_number   1
_chemical_formula_structural   Dy4HoTm3(ReB6)4
_chemical_formula_sum   'Dy4 Ho1 Tm3 Re4 B24'
_cell_volume   386.12188142
_cell_formula_units_Z   1
loop_
 _symmetry_equiv_pos_site_id
 _symmetry_equiv_pos_as_xyz
  1  'x, y, z'
loop_
 _atom_site_type_symbol
 _atom_site_label
 _atom_site_symmetry_multiplicity
 _atom_site_fract_x
 _atom_site_fract_y
 _atom_site_fract_z
 _atom_site_occupancy
  Dy  Dy0  1  0.000000  0.323367  0.413967  1
  Dy  Dy1  1  0.000000  0.676592  0.586175  1
  Dy  Dy2  1  0.000000  0.823213  0.085915  1
  Dy  Dy3  1  0.000000  0.176770  0.913880  1
  Ho  Ho4  1  0.000000  0.943363  0.370368  1
  Tm  Tm5  1  0.000000  0.056868  0.630257  1
  Tm  Tm6  1  0.000000  0.443291  0.129720  1
  Tm  Tm7  1  0.000000  0.556732  0.870134  1
  Re  Re8  1  0.000000  0.638509  0.320171  1
  Re  Re9  1  0.000000  0.360903  0.679832  1
  Re  Re10  1  0.000000  0.139510  0.179354  1
  Re  Re11  1  0.000000  0.860837  0.820321  1
  B  B12  1  0.500000  0.553178  0.432726  1
  B  B13  1  0.500000  0.446444  0.567384  1
  B  B14  1  0.500000  0.053582  0.067100  1
  B  B15  1  0.500000  0.946495  0.932638  1
  B  B16  1  0.500000  0.749292  0.418392  1
  B  B17  1  0.500000  0.249955  0.581708  1
  B  B18  1  0.500000  0.250282  0.081504  1
  B  B19  1  0.500000  0.749848  0.918368  1
  B  B20  1  0.500000  0.792054  0.265228  1
  B  B21  1  0.500000  0.207376  0.734614  1
  B  B22  1  0.500000  0.292974  0.234437  1
  B  B23  1  0.500000  0.707292  0.765471  1
  B  B24  1  0.500000  0.630121  0.184937  1
  B  B25  1  0.500000  0.369680  0.814920  1
  B  B26  1  0.500000  0.130996  0.314548  1
  B  B27  1  0.500000  0.869613  0.685222  1
  B  B28  1  0.500000  0.982346  0.211967  1
  B  B29  1  0.500000  0.017980  0.787614  1
  B  B30  1  0.500000  0.481828  0.287465  1
  B  B31  1  0.500000  0.518028  0.712458  1
  B  B32  1  0.500000  0.598575  0.027421  1
  B  B33  1  0.500000  0.401442  0.972477  1
  B  B34  1  0.500000  0.099519  0.473036  1
  B  B35  1  0.500000  0.901144  0.528272  1
