# generated using pymatgen
data_Nd4Cu3Sb8
_symmetry_space_group_name_H-M   'P 1'
_cell_length_a   10.90001669
_cell_length_b   10.90001678
_cell_length_c   10.90001757
_cell_angle_alpha   147.00355995
_cell_angle_beta   147.00355895
_cell_angle_gamma   47.35851556
_symmetry_Int_Tables_number   1
_chemical_formula_structural   Nd4Cu3Sb8
_chemical_formula_sum   'Nd4 Cu3 Sb8'
_cell_volume   382.59429883
_cell_formula_units_Z   1
loop_
 _symmetry_equiv_pos_site_id
 _symmetry_equiv_pos_as_xyz
  1  'x, y, z'
loop_
 _atom_site_type_symbol
 _atom_site_label
 _atom_site_symmetry_multiplicity
 _atom_site_fract_x
 _atom_site_fract_y
 _atom_site_fract_z
 _atom_site_occupancy
  Nd  Nd0  1  0.631852  0.631852  0.503433  1
  Nd  Nd1  1  0.128418  0.128418  0.496567  1
  Nd  Nd2  1  0.368148  0.871582  0.000000  1
  Nd  Nd3  1  0.871582  0.368148  0.000000  1
  Cu  Cu4  1  0.000000  0.000000  0.000000  1
  Cu  Cu5  1  0.000000  0.500000  0.500000  1
  Cu  Cu6  1  0.500000  0.000000  0.500000  1
  Sb  Sb7  1  0.328328  0.328328  0.511466  1
  Sb  Sb8  1  0.816862  0.816862  0.488534  1
  Sb  Sb9  1  0.671672  0.183138  0.000000  1
  Sb  Sb10  1  0.183138  0.671672  0.000000  1
  Sb  Sb11  1  0.249817  0.249817  0.000000  1
  Sb  Sb12  1  0.750183  0.750183  0.000000  1
  Sb  Sb13  1  0.750000  0.250000  0.500000  1
  Sb  Sb14  1  0.250000  0.750000  0.500000  1
