# generated using pymatgen
data_Tb9YAlBi5
_symmetry_space_group_name_H-M   'P 1'
_cell_length_a   9.15235393
_cell_length_b   9.15235325
_cell_length_c   6.44303500
_cell_angle_alpha   90.00000000
_cell_angle_beta   90.00000000
_cell_angle_gamma   119.76613225
_symmetry_Int_Tables_number   1
_chemical_formula_structural   Tb9YAlBi5
_chemical_formula_sum   'Tb9 Y1 Al1 Bi5'
_cell_volume   468.49541794
_cell_formula_units_Z   1
loop_
 _symmetry_equiv_pos_site_id
 _symmetry_equiv_pos_as_xyz
  1  'x, y, z'
loop_
 _atom_site_type_symbol
 _atom_site_label
 _atom_site_symmetry_multiplicity
 _atom_site_fract_x
 _atom_site_fract_y
 _atom_site_fract_z
 _atom_site_occupancy
  Tb  Tb0  1  0.659796  0.335499  0.996958  1
  Tb  Tb1  1  0.335499  0.659796  0.996958  1
  Tb  Tb2  1  0.335499  0.659796  0.503042  1
  Tb  Tb3  1  0.659796  0.335499  0.503042  1
  Tb  Tb4  1  0.243761  0.012682  0.750000  1
  Tb  Tb5  1  0.012682  0.243761  0.750000  1
  Tb  Tb6  1  0.240033  0.240033  0.250000  1
  Tb  Tb7  1  0.758370  0.000505  0.250000  1
  Tb  Tb8  1  0.000505  0.758370  0.250000  1
  Y  Y9  1  0.750109  0.750109  0.750000  1
  Al  Al10  1  0.395769  0.395769  0.750000  1
  Bi  Bi11  1  0.611602  0.002392  0.750000  1
  Bi  Bi12  1  0.002392  0.611602  0.750000  1
  Bi  Bi13  1  0.607929  0.607929  0.250000  1
  Bi  Bi14  1  0.390276  0.995982  0.250000  1
  Bi  Bi15  1  0.995982  0.390276  0.250000  1
