# generated using pymatgen
data_Pr8Tm11LuSi16
_symmetry_space_group_name_H-M   'P 1'
_cell_length_a   7.45997700
_cell_length_b   7.75712200
_cell_length_c   14.70935900
_cell_angle_alpha   90.00000000
_cell_angle_beta   90.00000000
_cell_angle_gamma   90.00326828
_symmetry_Int_Tables_number   1
_chemical_formula_structural   Pr8Tm11LuSi16
_chemical_formula_sum   'Pr8 Tm11 Lu1 Si16'
_cell_volume   851.20047555
_cell_formula_units_Z   1
loop_
 _symmetry_equiv_pos_site_id
 _symmetry_equiv_pos_as_xyz
  1  'x, y, z'
loop_
 _atom_site_type_symbol
 _atom_site_label
 _atom_site_symmetry_multiplicity
 _atom_site_fract_x
 _atom_site_fract_y
 _atom_site_fract_z
 _atom_site_occupancy
  Pr  Pr0  1  0.019510  0.176981  0.402336  1
  Pr  Pr1  1  0.519504  0.323024  0.402339  1
  Pr  Pr2  1  0.480509  0.676965  0.902332  1
  Pr  Pr3  1  0.480509  0.676965  0.597668  1
  Pr  Pr4  1  0.980445  0.823059  0.597671  1
  Pr  Pr5  1  0.980445  0.823059  0.902329  1
  Pr  Pr6  1  0.519504  0.323024  0.097661  1
  Pr  Pr7  1  0.019510  0.176981  0.097664  1
  Tm  Tm8  1  0.323674  0.178108  0.623544  1
  Tm  Tm9  1  0.676364  0.821890  0.376463  1
  Tm  Tm10  1  0.176370  0.678097  0.376456  1
  Tm  Tm11  1  0.823588  0.321862  0.876459  1
  Tm  Tm12  1  0.823588  0.321862  0.623541  1
  Tm  Tm13  1  0.844939  0.490446  0.250000  1
  Tm  Tm14  1  0.344937  0.009555  0.250000  1
  Tm  Tm15  1  0.323674  0.178108  0.876456  1
  Tm  Tm16  1  0.176370  0.678097  0.123544  1
  Tm  Tm17  1  0.676364  0.821890  0.123537  1
  Tm  Tm18  1  0.155072  0.509513  0.750000  1
  Lu  Lu19  1  0.655081  0.990452  0.750000  1
  Si  Si20  1  0.275730  0.880053  0.750000  1
  Si  Si21  1  0.470834  0.615755  0.250000  1
  Si  Si22  1  0.029013  0.115736  0.750000  1
  Si  Si23  1  0.529151  0.384225  0.750000  1
  Si  Si24  1  0.147442  0.467850  0.539687  1
  Si  Si25  1  0.970834  0.884240  0.250000  1
  Si  Si26  1  0.724424  0.119944  0.250000  1
  Si  Si27  1  0.852565  0.532151  0.039674  1
  Si  Si28  1  0.352558  0.967846  0.039668  1
  Si  Si29  1  0.147442  0.467850  0.960313  1
  Si  Si30  1  0.647456  0.032140  0.539723  1
  Si  Si31  1  0.352558  0.967846  0.460332  1
  Si  Si32  1  0.852565  0.532151  0.460326  1
  Si  Si33  1  0.775582  0.620089  0.750000  1
  Si  Si34  1  0.224432  0.380049  0.250000  1
  Si  Si35  1  0.647456  0.032140  0.960277  1
