# generated using pymatgen
data_V6SiNi4AsN2
_symmetry_space_group_name_H-M   'P 1'
_cell_length_a   7.62199276
_cell_length_b   7.62900900
_cell_length_c   7.62900831
_cell_angle_alpha   60.04733782
_cell_angle_beta   60.03041218
_cell_angle_gamma   60.03041499
_symmetry_Int_Tables_number   1
_chemical_formula_structural   V6SiNi4AsN2
_chemical_formula_sum   'V12 Si2 Ni8 As2 N4'
_cell_volume   313.93845423
_cell_formula_units_Z   2
loop_
 _symmetry_equiv_pos_site_id
 _symmetry_equiv_pos_as_xyz
  1  'x, y, z'
loop_
 _atom_site_type_symbol
 _atom_site_label
 _atom_site_symmetry_multiplicity
 _atom_site_fract_x
 _atom_site_fract_y
 _atom_site_fract_z
 _atom_site_occupancy
  V  V0  1  0.816970  0.817406  0.180814  1
  V  V1  1  0.184810  0.180814  0.817406  1
  V  V2  1  0.816970  0.180814  0.817406  1
  V  V3  1  0.184810  0.817406  0.180814  1
  V  V4  1  0.181703  0.818297  0.818297  1
  V  V5  1  0.815730  0.184270  0.184270  1
  V  V6  1  0.433030  0.432594  0.069186  1
  V  V7  1  0.065190  0.069186  0.432594  1
  V  V8  1  0.433030  0.069186  0.432594  1
  V  V9  1  0.065190  0.432594  0.069186  1
  V  V10  1  0.068297  0.431703  0.431703  1
  V  V11  1  0.434270  0.065730  0.065730  1
  Si  Si12  1  0.625000  0.125000  0.625000  1
  Si  Si13  1  0.625000  0.625000  0.125000  1
  Ni  Ni14  1  0.751192  0.413869  0.413869  1
  Ni  Ni15  1  0.418019  0.753856  0.410105  1
  Ni  Ni16  1  0.418019  0.410105  0.753856  1
  Ni  Ni17  1  0.421068  0.413869  0.413869  1
  Ni  Ni18  1  0.498808  0.836131  0.836131  1
  Ni  Ni19  1  0.831981  0.496144  0.839895  1
  Ni  Ni20  1  0.831981  0.839895  0.496144  1
  Ni  Ni21  1  0.828932  0.836131  0.836131  1
  As  As22  1  0.125000  0.625000  0.625000  1
  As  As23  1  0.625000  0.625000  0.625000  1
  N  N24  1  0.625000  0.125000  0.125000  1
  N  N25  1  0.125000  0.625000  0.125000  1
  N  N26  1  0.125000  0.125000  0.625000  1
  N  N27  1  0.125000  0.125000  0.125000  1
