# generated using pymatgen
data_Sc6Al13Mo3Os7
_symmetry_space_group_name_H-M   'P 1'
_cell_length_a   8.81433924
_cell_length_b   8.81433966
_cell_length_c   8.81433981
_cell_angle_alpha   59.69821918
_cell_angle_beta   59.69821939
_cell_angle_gamma   59.69821493
_symmetry_Int_Tables_number   1
_chemical_formula_structural   Sc6Al13Mo3Os7
_chemical_formula_sum   'Sc6 Al13 Mo3 Os7'
_cell_volume   480.91351736
_cell_formula_units_Z   1
loop_
 _symmetry_equiv_pos_site_id
 _symmetry_equiv_pos_as_xyz
  1  'x, y, z'
loop_
 _atom_site_type_symbol
 _atom_site_label
 _atom_site_symmetry_multiplicity
 _atom_site_fract_x
 _atom_site_fract_y
 _atom_site_fract_z
 _atom_site_occupancy
  Sc  Sc0  1  0.711064  0.711064  0.282900  1
  Sc  Sc1  1  0.290137  0.710115  0.290137  1
  Sc  Sc2  1  0.710115  0.290137  0.290137  1
  Sc  Sc3  1  0.290137  0.290137  0.710115  1
  Sc  Sc4  1  0.711064  0.282900  0.711064  1
  Sc  Sc5  1  0.282900  0.711064  0.711064  1
  Al  Al6  1  0.880422  0.880422  0.880422  1
  Al  Al7  1  0.120590  0.120590  0.638070  1
  Al  Al8  1  0.120590  0.638070  0.120590  1
  Al  Al9  1  0.638070  0.120590  0.120590  1
  Al  Al10  1  0.122451  0.122451  0.122451  1
  Al  Al11  1  0.665391  0.665391  0.008935  1
  Al  Al12  1  0.665391  0.008935  0.665391  1
  Al  Al13  1  0.008935  0.665391  0.665391  1
  Al  Al14  1  0.657518  0.657518  0.657518  1
  Al  Al15  1  0.335641  0.335641  0.996181  1
  Al  Al16  1  0.335641  0.996181  0.335641  1
  Al  Al17  1  0.996181  0.335641  0.335641  1
  Al  Al18  1  0.335997  0.335997  0.335997  1
  Mo  Mo19  1  0.877377  0.877377  0.363301  1
  Mo  Mo20  1  0.877377  0.363301  0.877377  1
  Mo  Mo21  1  0.363301  0.877377  0.877377  1
  Os  Os22  1  0.004342  0.004342  0.004342  1
  Os  Os23  1  0.998756  0.998756  0.497579  1
  Os  Os24  1  0.503848  0.996581  0.503848  1
  Os  Os25  1  0.996581  0.503848  0.503848  1
  Os  Os26  1  0.503848  0.503848  0.996581  1
  Os  Os27  1  0.998756  0.497579  0.998756  1
  Os  Os28  1  0.497579  0.998756  0.998756  1
