# generated using pymatgen
data_Li4Yb11Pr5Ru4
_symmetry_space_group_name_H-M   'P 1'
_cell_length_a   10.09554523
_cell_length_b   9.95314573
_cell_length_c   9.96954700
_cell_angle_alpha   59.94546466
_cell_angle_beta   60.41199268
_cell_angle_gamma   60.18409919
_symmetry_Int_Tables_number   1
_chemical_formula_structural   Li4Yb11Pr5Ru4
_chemical_formula_sum   'Li4 Yb11 Pr5 Ru4'
_cell_volume   711.22674925
_cell_formula_units_Z   1
loop_
 _symmetry_equiv_pos_site_id
 _symmetry_equiv_pos_as_xyz
  1  'x, y, z'
loop_
 _atom_site_type_symbol
 _atom_site_label
 _atom_site_symmetry_multiplicity
 _atom_site_fract_x
 _atom_site_fract_y
 _atom_site_fract_z
 _atom_site_occupancy
  Li  Li0  1  0.422048  0.424748  0.425830  1
  Li  Li1  1  0.423884  0.726329  0.424894  1
  Li  Li2  1  0.727311  0.424786  0.423953  1
  Li  Li3  1  0.422048  0.424748  0.727375  1
  Yb  Yb4  1  0.045796  0.452875  0.450769  1
  Yb  Yb5  1  0.189569  0.812082  0.185272  1
  Yb  Yb6  1  0.657720  0.662242  0.660214  1
  Yb  Yb7  1  0.451165  0.451466  0.048684  1
  Yb  Yb8  1  0.045796  0.452875  0.050560  1
  Yb  Yb9  1  0.450786  0.048297  0.047637  1
  Yb  Yb10  1  0.047128  0.049704  0.451584  1
  Yb  Yb11  1  0.657720  0.662242  0.019824  1
  Yb  Yb12  1  0.658267  0.019178  0.661277  1
  Yb  Yb13  1  0.189569  0.812082  0.813077  1
  Yb  Yb14  1  0.450786  0.048297  0.453278  1
  Pr  Pr15  1  0.195034  0.183583  0.810692  1
  Pr  Pr16  1  0.021111  0.660006  0.659442  1
  Pr  Pr17  1  0.806142  0.816088  0.188885  1
  Pr  Pr18  1  0.808613  0.185907  0.189589  1
  Pr  Pr19  1  0.808613  0.185907  0.815891  1
  Ru  Ru20  1  0.870897  0.861921  0.863823  1
  Ru  Ru21  1  0.405734  0.871427  0.861419  1
  Ru  Ru22  1  0.873366  0.401287  0.862673  1
  Ru  Ru23  1  0.870897  0.861921  0.403359  1
