# generated using pymatgen
data_Pa2Fe12P7
_symmetry_space_group_name_H-M   'P 1'
_cell_length_a   3.62884600
_cell_length_b   8.98682749
_cell_length_c   8.98094311
_cell_angle_alpha   119.99949762
_cell_angle_beta   90.00000000
_cell_angle_gamma   90.00000000
_symmetry_Int_Tables_number   1
_chemical_formula_structural   Pa2Fe12P7
_chemical_formula_sum   'Pa2 Fe12 P7'
_cell_volume   253.64699336
_cell_formula_units_Z   1
loop_
 _symmetry_equiv_pos_site_id
 _symmetry_equiv_pos_as_xyz
  1  'x, y, z'
loop_
 _atom_site_type_symbol
 _atom_site_label
 _atom_site_symmetry_multiplicity
 _atom_site_fract_x
 _atom_site_fract_y
 _atom_site_fract_z
 _atom_site_occupancy
  Pa  Pa0  1  0.000000  0.666595  0.333269  1
  Pa  Pa1  1  0.500000  0.333321  0.666692  1
  Fe  Fe2  1  0.000000  0.368251  0.933081  1
  Fe  Fe3  1  0.000000  0.066821  0.434950  1
  Fe  Fe4  1  0.000000  0.564939  0.631786  1
  Fe  Fe5  1  0.000000  0.876325  0.726754  1
  Fe  Fe6  1  0.000000  0.273268  0.149550  1
  Fe  Fe7  1  0.000000  0.850391  0.123897  1
  Fe  Fe8  1  0.500000  0.942778  0.561189  1
  Fe  Fe9  1  0.500000  0.438773  0.381501  1
  Fe  Fe10  1  0.500000  0.618400  0.057252  1
  Fe  Fe11  1  0.500000  0.121545  0.895847  1
  Fe  Fe12  1  0.500000  0.104052  0.225402  1
  Fe  Fe13  1  0.500000  0.774328  0.878585  1
  P  P14  1  0.000000  0.103929  0.701052  1
  P  P15  1  0.000000  0.298872  0.402862  1
  P  P16  1  0.000000  0.597080  0.896062  1
  P  P17  1  0.500000  0.708916  0.603639  1
  P  P18  1  0.500000  0.396486  0.105211  1
  P  P19  1  0.500000  0.894792  0.291261  1
  P  P20  1  0.000000  0.000138  0.000158  1
