# generated using pymatgen
data_Y18Er2Sn3Pb13
_symmetry_space_group_name_H-M   'P 1'
_cell_length_a   8.19707675
_cell_length_b   8.24860043
_cell_length_c   15.65912400
_cell_angle_alpha   90.00000000
_cell_angle_beta   90.00000000
_cell_angle_gamma   89.85898695
_symmetry_Int_Tables_number   1
_chemical_formula_structural   Y18Er2Sn3Pb13
_chemical_formula_sum   'Y18 Er2 Sn3 Pb13'
_cell_volume   1058.77923622
_cell_formula_units_Z   1
loop_
 _symmetry_equiv_pos_site_id
 _symmetry_equiv_pos_as_xyz
  1  'x, y, z'
loop_
 _atom_site_type_symbol
 _atom_site_label
 _atom_site_symmetry_multiplicity
 _atom_site_fract_x
 _atom_site_fract_y
 _atom_site_fract_z
 _atom_site_occupancy
  Y  Y0  1  0.379384  0.838844  0.876686  1
  Y  Y1  1  0.878739  0.661672  0.623232  1
  Y  Y2  1  0.618926  0.161681  0.377913  1
  Y  Y3  1  0.123476  0.340895  0.121084  1
  Y  Y4  1  0.618926  0.161681  0.122087  1
  Y  Y5  1  0.123476  0.340895  0.378916  1
  Y  Y6  1  0.379384  0.838844  0.623314  1
  Y  Y7  1  0.878739  0.661672  0.876768  1
  Y  Y8  1  0.537887  0.327460  0.898195  1
  Y  Y9  1  0.037390  0.172267  0.601862  1
  Y  Y10  1  0.462565  0.672274  0.399421  1
  Y  Y11  1  0.962535  0.824357  0.099972  1
  Y  Y12  1  0.462565  0.672274  0.100579  1
  Y  Y13  1  0.962535  0.824357  0.400028  1
  Y  Y14  1  0.537887  0.327460  0.601805  1
  Y  Y15  1  0.037390  0.172267  0.898138  1
  Y  Y16  1  0.787590  0.494742  0.250000  1
  Y  Y17  1  0.290534  0.006124  0.250000  1
  Er  Er18  1  0.211720  0.507326  0.750000  1
  Er  Er19  1  0.711923  0.993058  0.750000  1
  Sn  Sn20  1  0.574757  0.623802  0.750000  1
  Sn  Sn21  1  0.074557  0.876200  0.750000  1
  Sn  Sn22  1  0.424343  0.376719  0.250000  1
  Pb  Pb23  1  0.281499  0.031492  0.041705  1
  Pb  Pb24  1  0.782129  0.467113  0.458480  1
  Pb  Pb25  1  0.717606  0.968079  0.542381  1
  Pb  Pb26  1  0.217815  0.532919  0.956930  1
  Pb  Pb27  1  0.717606  0.968079  0.957619  1
  Pb  Pb28  1  0.217815  0.532919  0.543070  1
  Pb  Pb29  1  0.281499  0.031492  0.458295  1
  Pb  Pb30  1  0.782129  0.467113  0.041520  1
  Pb  Pb31  1  0.926121  0.124568  0.250000  1
  Pb  Pb32  1  0.348602  0.153557  0.750000  1
  Pb  Pb33  1  0.848014  0.346798  0.750000  1
  Pb  Pb34  1  0.650475  0.846480  0.250000  1
  Pb  Pb35  1  0.151460  0.652522  0.250000  1
