# generated using pymatgen
data_Nd6GaSiBr6
_symmetry_space_group_name_H-M   'P 1'
_cell_length_a   10.48814313
_cell_length_b   10.48814260
_cell_length_c   10.43063149
_cell_angle_alpha   109.48074417
_cell_angle_beta   109.48074841
_cell_angle_gamma   109.67455818
_symmetry_Int_Tables_number   1
_chemical_formula_structural   Nd6GaSiBr6
_chemical_formula_sum   'Nd12 Ga2 Si2 Br12'
_cell_volume   880.81956683
_cell_formula_units_Z   2
loop_
 _symmetry_equiv_pos_site_id
 _symmetry_equiv_pos_as_xyz
  1  'x, y, z'
loop_
 _atom_site_type_symbol
 _atom_site_label
 _atom_site_symmetry_multiplicity
 _atom_site_fract_x
 _atom_site_fract_y
 _atom_site_fract_z
 _atom_site_occupancy
  Nd  Nd0  1  0.479763  0.491426  0.238165  1
  Nd  Nd1  1  0.753261  0.241599  0.261835  1
  Nd  Nd2  1  0.753608  0.011139  0.492192  1
  Nd  Nd3  1  0.238584  0.481053  0.492192  1
  Nd  Nd4  1  0.258401  0.746739  0.238165  1
  Nd  Nd5  1  0.018947  0.261416  0.007808  1
  Nd  Nd6  1  0.008574  0.020237  0.261835  1
  Nd  Nd7  1  0.488861  0.746392  0.007808  1
  Nd  Nd8  1  0.491573  0.241573  0.483147  1
  Nd  Nd9  1  0.011457  0.488543  0.750000  1
  Nd  Nd10  1  0.258427  0.008427  0.016853  1
  Nd  Nd11  1  0.238543  0.261457  0.750000  1
  Ga  Ga12  1  0.250326  0.249674  0.250000  1
  Ga  Ga13  1  0.499674  0.000326  0.250000  1
  Si  Si14  1  0.999622  0.249622  0.499245  1
  Si  Si15  1  0.250378  0.500378  0.000755  1
  Br  Br16  1  0.249937  0.753946  0.745468  1
  Br  Br17  1  0.508477  0.504469  0.754532  1
  Br  Br18  1  0.989880  0.744358  0.994563  1
  Br  Br19  1  0.746054  0.250063  0.754532  1
  Br  Br20  1  0.995531  0.991523  0.745468  1
  Br  Br21  1  0.249796  0.995316  0.505437  1
  Br  Br22  1  0.755642  0.510120  0.505437  1
  Br  Br23  1  0.504684  0.250204  0.994563  1
  Br  Br24  1  0.755063  0.744937  0.250000  1
  Br  Br25  1  0.745743  0.995743  0.991488  1
  Br  Br26  1  0.994937  0.505063  0.250000  1
  Br  Br27  1  0.504257  0.754257  0.508512  1
