# generated using pymatgen
data_P2Br9Cl
_symmetry_space_group_name_H-M   'P 1'
_cell_length_a   5.97725300
_cell_length_b   8.73845700
_cell_length_c   17.49460300
_cell_angle_alpha   90.00000000
_cell_angle_beta   90.00000000
_cell_angle_gamma   90.00000000
_symmetry_Int_Tables_number   1
_chemical_formula_structural   P2Br9Cl
_chemical_formula_sum   'P4 Br18 Cl2'
_cell_volume   913.77754964
_cell_formula_units_Z   2
loop_
 _symmetry_equiv_pos_site_id
 _symmetry_equiv_pos_as_xyz
  1  'x, y, z'
loop_
 _atom_site_type_symbol
 _atom_site_label
 _atom_site_symmetry_multiplicity
 _atom_site_fract_x
 _atom_site_fract_y
 _atom_site_fract_z
 _atom_site_occupancy
  P  P0  1  0.035291  0.750000  0.636067  1
  P  P1  1  0.035291  0.250000  0.863933  1
  P  P2  1  0.962484  0.250000  0.363925  1
  P  P3  1  0.962484  0.750000  0.136075  1
  Br  Br4  1  0.828383  0.250000  0.758979  1
  Br  Br5  1  0.828383  0.750000  0.741021  1
  Br  Br6  1  0.758372  0.962939  0.132051  1
  Br  Br7  1  0.758372  0.037061  0.367949  1
  Br  Br8  1  0.244186  0.460139  0.868648  1
  Br  Br9  1  0.244186  0.539861  0.631352  1
  Br  Br10  1  0.244186  0.039861  0.868648  1
  Br  Br11  1  0.244186  0.960139  0.631352  1
  Br  Br12  1  0.758372  0.537061  0.132051  1
  Br  Br13  1  0.758372  0.462939  0.367949  1
  Br  Br14  1  0.498973  0.750000  0.387479  1
  Br  Br15  1  0.498973  0.250000  0.112521  1
  Br  Br16  1  0.517379  0.250000  0.610821  1
  Br  Br17  1  0.517379  0.750000  0.889179  1
  Br  Br18  1  0.809273  0.750000  0.536455  1
  Br  Br19  1  0.809273  0.250000  0.963545  1
  Br  Br20  1  0.193232  0.250000  0.461629  1
  Br  Br21  1  0.193232  0.750000  0.038371  1
  Cl  Cl22  1  0.149869  0.750000  0.231974  1
  Cl  Cl23  1  0.149869  0.250000  0.268026  1
