# generated using pymatgen
data_TbCeY2F12
_symmetry_space_group_name_H-M   'P 1'
_cell_length_a   4.50939308
_cell_length_b   6.54294210
_cell_length_c   7.04647600
_cell_angle_alpha   90.00000000
_cell_angle_beta   90.00000000
_cell_angle_gamma   91.09665850
_symmetry_Int_Tables_number   1
_chemical_formula_structural   TbCeY2F12
_chemical_formula_sum   'Tb1 Ce1 Y2 F12'
_cell_volume   207.86606332
_cell_formula_units_Z   1
loop_
 _symmetry_equiv_pos_site_id
 _symmetry_equiv_pos_as_xyz
  1  'x, y, z'
loop_
 _atom_site_type_symbol
 _atom_site_label
 _atom_site_symmetry_multiplicity
 _atom_site_fract_x
 _atom_site_fract_y
 _atom_site_fract_z
 _atom_site_occupancy
  Tb  Tb0  1  0.060920  0.364171  0.250000  1
  Ce  Ce1  1  0.946426  0.632023  0.750000  1
  Y  Y2  1  0.441090  0.871024  0.250000  1
  Y  Y3  1  0.559449  0.131618  0.750000  1
  F  F4  1  0.374348  0.163914  0.433976  1
  F  F5  1  0.876630  0.327242  0.558172  1
  F  F6  1  0.127616  0.661943  0.070300  1
  F  F7  1  0.612148  0.844453  0.937626  1
  F  F8  1  0.596461  0.527530  0.250000  1
  F  F9  1  0.088498  0.991539  0.750000  1
  F  F10  1  0.906345  0.020673  0.250000  1
  F  F11  1  0.419329  0.466320  0.750000  1
  F  F12  1  0.374348  0.163914  0.066024  1
  F  F13  1  0.876630  0.327242  0.941828  1
  F  F14  1  0.127616  0.661943  0.429700  1
  F  F15  1  0.612148  0.844453  0.562374  1
