# generated using pymatgen
data_SrAc3(AgPb)4
_symmetry_space_group_name_H-M   'P 1'
_cell_length_a   4.94255800
_cell_length_b   8.21626679
_cell_length_c   8.65010400
_cell_angle_alpha   89.28107355
_cell_angle_beta   90.00000000
_cell_angle_gamma   90.00000000
_symmetry_Int_Tables_number   1
_chemical_formula_structural   SrAc3(AgPb)4
_chemical_formula_sum   'Sr1 Ac3 Ag4 Pb4'
_cell_volume   351.24766582
_cell_formula_units_Z   1
loop_
 _symmetry_equiv_pos_site_id
 _symmetry_equiv_pos_as_xyz
  1  'x, y, z'
loop_
 _atom_site_type_symbol
 _atom_site_label
 _atom_site_symmetry_multiplicity
 _atom_site_fract_x
 _atom_site_fract_y
 _atom_site_fract_z
 _atom_site_occupancy
  Sr  Sr0  1  0.250000  0.997032  0.787402  1
  Ac  Ac1  1  0.750000  0.000883  0.207050  1
  Ac  Ac2  1  0.750000  0.502511  0.288641  1
  Ac  Ac3  1  0.250000  0.496196  0.713235  1
  Ag  Ag4  1  0.250000  0.691540  0.079664  1
  Ag  Ag5  1  0.250000  0.179193  0.421325  1
  Ag  Ag6  1  0.750000  0.820303  0.580090  1
  Ag  Ag7  1  0.750000  0.313134  0.921431  1
  Pb  Pb8  1  0.250000  0.292611  0.095710  1
  Pb  Pb9  1  0.250000  0.787278  0.407609  1
  Pb  Pb10  1  0.750000  0.214046  0.592686  1
  Pb  Pb11  1  0.750000  0.705273  0.905162  1
