# generated using pymatgen
data_Y3Er(PdPt)2
_symmetry_space_group_name_H-M   'P 1'
_cell_length_a   4.51789900
_cell_length_b   5.62057432
_cell_length_c   7.06168062
_cell_angle_alpha   89.73339270
_cell_angle_beta   90.00000000
_cell_angle_gamma   90.00000000
_symmetry_Int_Tables_number   1
_chemical_formula_structural   Y3Er(PdPt)2
_chemical_formula_sum   'Y3 Er1 Pd2 Pt2'
_cell_volume   179.31663599
_cell_formula_units_Z   1
loop_
 _symmetry_equiv_pos_site_id
 _symmetry_equiv_pos_as_xyz
  1  'x, y, z'
loop_
 _atom_site_type_symbol
 _atom_site_label
 _atom_site_symmetry_multiplicity
 _atom_site_fract_x
 _atom_site_fract_y
 _atom_site_fract_z
 _atom_site_occupancy
  Y  Y0  1  0.000000  0.104152  0.683954  1
  Y  Y1  1  0.500000  0.387540  0.317778  1
  Y  Y2  1  0.500000  0.612772  0.818495  1
  Er  Er3  1  0.000000  0.896086  0.183562  1
  Pd  Pd4  1  0.000000  0.594845  0.538634  1
  Pd  Pd5  1  0.000000  0.407740  0.044554  1
  Pt  Pt6  1  0.500000  0.897972  0.452049  1
  Pt  Pt7  1  0.500000  0.098893  0.960975  1
