# generated using pymatgen
data_Dy10Os3Ru
_symmetry_space_group_name_H-M   'P 1'
_cell_length_a   8.46457223
_cell_length_b   8.46604127
_cell_length_c   7.31588944
_cell_angle_alpha   83.23790741
_cell_angle_beta   83.28092170
_cell_angle_gamma   44.26036164
_symmetry_Int_Tables_number   1
_chemical_formula_structural   Dy10Os3Ru
_chemical_formula_sum   'Dy10 Os3 Ru1'
_cell_volume   362.94710365
_cell_formula_units_Z   1
loop_
 _symmetry_equiv_pos_site_id
 _symmetry_equiv_pos_as_xyz
  1  'x, y, z'
loop_
 _atom_site_type_symbol
 _atom_site_label
 _atom_site_symmetry_multiplicity
 _atom_site_fract_x
 _atom_site_fract_y
 _atom_site_fract_z
 _atom_site_occupancy
  Dy  Dy0  1  0.207429  0.977107  0.584181  1
  Dy  Dy1  1  0.021685  0.793893  0.915601  1
  Dy  Dy2  1  0.203636  0.360341  0.315585  1
  Dy  Dy3  1  0.640516  0.793661  0.185789  1
  Dy  Dy4  1  0.794771  0.640718  0.684878  1
  Dy  Dy5  1  0.360268  0.204655  0.814781  1
  Dy  Dy6  1  0.978638  0.207448  0.084182  1
  Dy  Dy7  1  0.792708  0.022937  0.414906  1
  Dy  Dy8  1  0.576918  0.423493  0.749443  1
  Dy  Dy9  1  0.422721  0.577906  0.250543  1
  Os  Os10  1  0.176742  0.603061  0.575777  1
  Os  Os11  1  0.397357  0.822934  0.924907  1
  Os  Os12  1  0.822852  0.397056  0.424084  1
  Ru  Ru13  1  0.603761  0.174788  0.075343  1
