# generated using pymatgen
data_Zr24As3IrSe8
_symmetry_space_group_name_H-M   'P 1'
_cell_length_a   3.65686400
_cell_length_b   12.79002032
_cell_length_c   15.88250486
_cell_angle_alpha   90.32346754
_cell_angle_beta   90.00000000
_cell_angle_gamma   90.00000000
_symmetry_Int_Tables_number   1
_chemical_formula_structural   Zr24As3IrSe8
_chemical_formula_sum   'Zr24 As3 Ir1 Se8'
_cell_volume   742.83459142
_cell_formula_units_Z   1
loop_
 _symmetry_equiv_pos_site_id
 _symmetry_equiv_pos_as_xyz
  1  'x, y, z'
loop_
 _atom_site_type_symbol
 _atom_site_label
 _atom_site_symmetry_multiplicity
 _atom_site_fract_x
 _atom_site_fract_y
 _atom_site_fract_z
 _atom_site_occupancy
  Zr  Zr0  1  0.000000  0.344061  0.478900  1
  Zr  Zr1  1  0.000000  0.657857  0.516174  1
  Zr  Zr2  1  0.500000  0.152331  0.979081  1
  Zr  Zr3  1  0.500000  0.849425  0.020322  1
  Zr  Zr4  1  0.000000  0.082381  0.578295  1
  Zr  Zr5  1  0.000000  0.915397  0.420511  1
  Zr  Zr6  1  0.500000  0.415786  0.078192  1
  Zr  Zr7  1  0.500000  0.584840  0.924152  1
  Zr  Zr8  1  0.000000  0.696569  0.295126  1
  Zr  Zr9  1  0.000000  0.303854  0.704572  1
  Zr  Zr10  1  0.500000  0.805952  0.795099  1
  Zr  Zr11  1  0.500000  0.195310  0.204338  1
  Zr  Zr12  1  0.000000  0.030894  0.109662  1
  Zr  Zr13  1  0.000000  0.969376  0.889129  1
  Zr  Zr14  1  0.500000  0.468966  0.608744  1
  Zr  Zr15  1  0.500000  0.525640  0.393100  1
  Zr  Zr16  1  0.000000  0.620326  0.076873  1
  Zr  Zr17  1  0.000000  0.379514  0.923559  1
  Zr  Zr18  1  0.500000  0.878675  0.580712  1
  Zr  Zr19  1  0.500000  0.121115  0.423953  1
  Zr  Zr20  1  0.000000  0.410568  0.242337  1
  Zr  Zr21  1  0.000000  0.586368  0.758357  1
  Zr  Zr22  1  0.500000  0.086853  0.744651  1
  Zr  Zr23  1  0.500000  0.918350  0.252128  1
  As  As24  1  0.000000  0.255860  0.085360  1
  As  As25  1  0.000000  0.744577  0.914005  1
  As  As26  1  0.500000  0.242983  0.584211  1
  Ir  Ir27  1  0.500000  0.760215  0.414129  1
  Se  Se28  1  0.000000  0.815272  0.150354  1
  Se  Se29  1  0.000000  0.185458  0.849471  1
  Se  Se30  1  0.500000  0.683611  0.653146  1
  Se  Se31  1  0.500000  0.312152  0.349200  1
  Se  Se32  1  0.000000  0.073297  0.292847  1
  Se  Se33  1  0.000000  0.929124  0.708170  1
  Se  Se34  1  0.500000  0.429163  0.793017  1
  Se  Se35  1  0.500000  0.567876  0.208127  1
