# generated using pymatgen
data_GdZr2F11
_symmetry_space_group_name_H-M   'P 1'
_cell_length_a   8.39497458
_cell_length_b   8.39497529
_cell_length_c   8.39497543
_cell_angle_alpha   124.11456555
_cell_angle_beta   106.21396010
_cell_angle_gamma   99.20256943
_symmetry_Int_Tables_number   1
_chemical_formula_structural   GdZr2F11
_chemical_formula_sum   'Gd2 Zr4 F22'
_cell_volume   431.45815496
_cell_formula_units_Z   2
loop_
 _symmetry_equiv_pos_site_id
 _symmetry_equiv_pos_as_xyz
  1  'x, y, z'
loop_
 _atom_site_type_symbol
 _atom_site_label
 _atom_site_symmetry_multiplicity
 _atom_site_fract_x
 _atom_site_fract_y
 _atom_site_fract_z
 _atom_site_occupancy
  Gd  Gd0  1  0.250000  0.750000  0.500000  1
  Gd  Gd1  1  0.750000  0.250000  0.500000  1
  Zr  Zr2  1  0.181228  0.136116  0.317344  1
  Zr  Zr3  1  0.818772  0.863884  0.682656  1
  Zr  Zr4  1  0.681228  0.363884  0.045112  1
  Zr  Zr5  1  0.318772  0.636116  0.954888  1
  F  F6  1  0.207531  0.400692  0.344057  1
  F  F7  1  0.792469  0.599308  0.655943  1
  F  F8  1  0.056635  0.863474  0.655943  1
  F  F9  1  0.443365  0.099308  0.806839  1
  F  F10  1  0.943365  0.136526  0.344057  1
  F  F11  1  0.556635  0.900692  0.193161  1
  F  F12  1  0.292469  0.636526  0.193161  1
  F  F13  1  0.707531  0.363474  0.806839  1
  F  F14  1  0.000000  0.000000  0.000000  1
  F  F15  1  0.500000  0.500000  0.000000  1
  F  F16  1  0.282051  0.370984  0.653036  1
  F  F17  1  0.717949  0.629016  0.346964  1
  F  F18  1  0.782051  0.129016  0.911068  1
  F  F19  1  0.217949  0.870984  0.088932  1
  F  F20  1  0.457469  0.239099  0.419237  1
  F  F21  1  0.542531  0.760901  0.580763  1
  F  F22  1  0.819861  0.038232  0.580763  1
  F  F23  1  0.680139  0.260901  0.218370  1
  F  F24  1  0.180139  0.961768  0.419237  1
  F  F25  1  0.319861  0.739099  0.781630  1
  F  F26  1  0.042531  0.461768  0.781630  1
  F  F27  1  0.957469  0.538232  0.218370  1
