# generated using pymatgen
data_Dy3Ho5Cd2NiRu
_symmetry_space_group_name_H-M   'P 1'
_cell_length_a   9.55445534
_cell_length_b   9.55445628
_cell_length_c   9.61424200
_cell_angle_alpha   59.79278432
_cell_angle_beta   59.79278105
_cell_angle_gamma   59.63575746
_symmetry_Int_Tables_number   1
_chemical_formula_structural   Dy3Ho5Cd2NiRu
_chemical_formula_sum   'Dy6 Ho10 Cd4 Ni2 Ru2'
_cell_volume   616.93910753
_cell_formula_units_Z   2
loop_
 _symmetry_equiv_pos_site_id
 _symmetry_equiv_pos_as_xyz
  1  'x, y, z'
loop_
 _atom_site_type_symbol
 _atom_site_label
 _atom_site_symmetry_multiplicity
 _atom_site_fract_x
 _atom_site_fract_y
 _atom_site_fract_z
 _atom_site_occupancy
  Dy  Dy0  1  0.187843  0.809018  0.816251  1
  Dy  Dy1  1  0.809018  0.187843  0.186888  1
  Dy  Dy2  1  0.809018  0.187843  0.816251  1
  Dy  Dy3  1  0.187843  0.809018  0.186888  1
  Dy  Dy4  1  0.814870  0.814870  0.185130  1
  Dy  Dy5  1  0.190002  0.190002  0.809998  1
  Ho  Ho6  1  0.599130  0.599130  0.593799  1
  Ho  Ho7  1  0.599130  0.599130  0.207940  1
  Ho  Ho8  1  0.601734  0.206343  0.595962  1
  Ho  Ho9  1  0.206343  0.601734  0.595962  1
  Ho  Ho10  1  0.061512  0.436614  0.439196  1
  Ho  Ho11  1  0.436614  0.061512  0.062677  1
  Ho  Ho12  1  0.436614  0.061512  0.439196  1
  Ho  Ho13  1  0.061512  0.436614  0.062677  1
  Ho  Ho14  1  0.437624  0.437624  0.062376  1
  Ho  Ho15  1  0.061062  0.061062  0.438938  1
  Cd  Cd16  1  0.829417  0.829417  0.831968  1
  Cd  Cd17  1  0.829417  0.829417  0.509198  1
  Cd  Cd18  1  0.829954  0.506788  0.831628  1
  Cd  Cd19  1  0.506788  0.829954  0.831628  1
  Ni  Ni20  1  0.392510  0.825798  0.390846  1
  Ni  Ni21  1  0.825798  0.392510  0.390846  1
  Ru  Ru22  1  0.393122  0.393122  0.389385  1
  Ru  Ru23  1  0.393122  0.393122  0.824370  1
