# generated using pymatgen
data_Zr6TiZn22Si
_symmetry_space_group_name_H-M   'P 1'
_cell_length_a   8.80505088
_cell_length_b   8.80505093
_cell_length_c   8.80505100
_cell_angle_alpha   60.00000348
_cell_angle_beta   60.00000331
_cell_angle_gamma   59.99999804
_symmetry_Int_Tables_number   1
_chemical_formula_structural   Zr6TiZn22Si
_chemical_formula_sum   'Zr6 Ti1 Zn22 Si1'
_cell_volume   482.70370921
_cell_formula_units_Z   1
loop_
 _symmetry_equiv_pos_site_id
 _symmetry_equiv_pos_as_xyz
  1  'x, y, z'
loop_
 _atom_site_type_symbol
 _atom_site_label
 _atom_site_symmetry_multiplicity
 _atom_site_fract_x
 _atom_site_fract_y
 _atom_site_fract_z
 _atom_site_occupancy
  Zr  Zr0  1  0.710396  0.289604  0.289604  1
  Zr  Zr1  1  0.289604  0.710396  0.710396  1
  Zr  Zr2  1  0.289604  0.710396  0.289604  1
  Zr  Zr3  1  0.710396  0.289604  0.710396  1
  Zr  Zr4  1  0.289604  0.289604  0.710396  1
  Zr  Zr5  1  0.710396  0.710396  0.289604  1
  Ti  Ti6  1  0.000000  0.000000  0.000000  1
  Zn  Zn7  1  0.122808  0.122808  0.122808  1
  Zn  Zn8  1  0.877192  0.877192  0.877192  1
  Zn  Zn9  1  0.122808  0.122808  0.631578  1
  Zn  Zn10  1  0.122808  0.631578  0.122808  1
  Zn  Zn11  1  0.877192  0.877192  0.368422  1
  Zn  Zn12  1  0.877192  0.368422  0.877192  1
  Zn  Zn13  1  0.631578  0.122808  0.122808  1
  Zn  Zn14  1  0.368422  0.877192  0.877192  1
  Zn  Zn15  1  0.500000  0.000000  0.000000  1
  Zn  Zn16  1  0.000000  0.500000  0.500000  1
  Zn  Zn17  1  0.000000  0.500000  0.000000  1
  Zn  Zn18  1  0.500000  0.000000  0.500000  1
  Zn  Zn19  1  0.000000  0.000000  0.500000  1
  Zn  Zn20  1  0.500000  0.500000  0.000000  1
  Zn  Zn21  1  0.335729  0.335729  0.335729  1
  Zn  Zn22  1  0.664271  0.664271  0.664271  1
  Zn  Zn23  1  0.335729  0.335729  0.992815  1
  Zn  Zn24  1  0.335729  0.992815  0.335729  1
  Zn  Zn25  1  0.664271  0.664271  0.007185  1
  Zn  Zn26  1  0.664271  0.007185  0.664271  1
  Zn  Zn27  1  0.992815  0.335729  0.335729  1
  Zn  Zn28  1  0.007185  0.664271  0.664271  1
  Si  Si29  1  0.500000  0.500000  0.500000  1
