# generated using pymatgen
data_CeDyTm8Al2(GaRu3)2
_symmetry_space_group_name_H-M   'P 1'
_cell_length_a   8.32994038
_cell_length_b   8.33102681
_cell_length_c   8.22748900
_cell_angle_alpha   110.10439318
_cell_angle_beta   109.37844220
_cell_angle_gamma   109.47987400
_symmetry_Int_Tables_number   1
_chemical_formula_structural   CeDyTm8Al2(GaRu3)2
_chemical_formula_sum   'Ce1 Dy1 Tm8 Al2 Ga2 Ru6'
_cell_volume   436.50826017
_cell_formula_units_Z   1
loop_
 _symmetry_equiv_pos_site_id
 _symmetry_equiv_pos_as_xyz
  1  'x, y, z'
loop_
 _atom_site_type_symbol
 _atom_site_label
 _atom_site_symmetry_multiplicity
 _atom_site_fract_x
 _atom_site_fract_y
 _atom_site_fract_z
 _atom_site_occupancy
  Ce  Ce0  1  0.193948  0.942385  0.250613  1
  Dy  Dy1  1  0.932158  0.253551  0.183153  1
  Tm  Tm2  1  0.779713  0.785727  0.782151  1
  Tm  Tm3  1  0.319380  0.568906  0.750487  1
  Tm  Tm4  1  0.753891  0.321669  0.571340  1
  Tm  Tm5  1  0.568957  0.746606  0.317826  1
  Tm  Tm6  1  0.715447  0.499919  0.997996  1
  Tm  Tm7  1  0.003072  0.717789  0.504362  1
  Tm  Tm8  1  0.501924  0.995774  0.714471  1
  Tm  Tm9  1  0.251179  0.184353  0.929651  1
  Al  Al10  1  0.991896  0.086676  0.495713  1
  Al  Al11  1  0.505355  0.005786  0.091181  1
  Ga  Ga12  1  0.416648  0.416941  0.411927  1
  Ga  Ga13  1  0.090597  0.495417  0.001986  1
  Ru  Ru14  1  0.871451  0.119981  0.745743  1
  Ru  Ru15  1  0.738538  0.868642  0.116473  1
  Ru  Ru16  1  0.128242  0.763219  0.902397  1
  Ru  Ru17  1  0.252478  0.625093  0.384048  1
  Ru  Ru18  1  0.357453  0.224365  0.598745  1
  Ru  Ru19  1  0.627670  0.377203  0.249740  1
