# generated using pymatgen
data_TbDy6Er13Pb16
_symmetry_space_group_name_H-M   'P 1'
_cell_length_a   8.18331977
_cell_length_b   8.25806151
_cell_length_c   15.57690187
_cell_angle_alpha   89.99884312
_cell_angle_beta   90.06446707
_cell_angle_gamma   89.97148936
_symmetry_Int_Tables_number   1
_chemical_formula_structural   TbDy6Er13Pb16
_chemical_formula_sum   'Tb1 Dy6 Er13 Pb16'
_cell_volume   1052.66065509
_cell_formula_units_Z   1
loop_
 _symmetry_equiv_pos_site_id
 _symmetry_equiv_pos_as_xyz
  1  'x, y, z'
loop_
 _atom_site_type_symbol
 _atom_site_label
 _atom_site_symmetry_multiplicity
 _atom_site_fract_x
 _atom_site_fract_y
 _atom_site_fract_z
 _atom_site_occupancy
  Tb  Tb0  1  0.036423  0.176751  0.599968  1
  Dy  Dy1  1  0.463499  0.676646  0.400036  1
  Dy  Dy2  1  0.963364  0.823453  0.099989  1
  Dy  Dy3  1  0.463408  0.676554  0.099929  1
  Dy  Dy4  1  0.963495  0.823335  0.400004  1
  Dy  Dy5  1  0.536495  0.323436  0.599905  1
  Dy  Dy6  1  0.036574  0.176703  0.899994  1
  Er  Er7  1  0.376526  0.841473  0.879092  1
  Er  Er8  1  0.876424  0.658550  0.621033  1
  Er  Er9  1  0.623532  0.158513  0.378838  1
  Er  Er10  1  0.123334  0.341322  0.121031  1
  Er  Er11  1  0.623342  0.158694  0.120895  1
  Er  Er12  1  0.123555  0.341443  0.378765  1
  Er  Er13  1  0.376579  0.841416  0.621068  1
  Er  Er14  1  0.876454  0.658454  0.879104  1
  Er  Er15  1  0.536970  0.323697  0.899930  1
  Er  Er16  1  0.208479  0.504554  0.750171  1
  Er  Er17  1  0.708079  0.995367  0.750171  1
  Er  Er18  1  0.791710  0.495366  0.249942  1
  Er  Er19  1  0.291744  0.004651  0.249968  1
  Pb  Pb20  1  0.281657  0.033383  0.042873  1
  Pb  Pb21  1  0.781822  0.466504  0.457168  1
  Pb  Pb22  1  0.717976  0.966309  0.542832  1
  Pb  Pb23  1  0.218901  0.532953  0.957062  1
  Pb  Pb24  1  0.717928  0.966859  0.957091  1
  Pb  Pb25  1  0.218307  0.533707  0.542827  1
  Pb  Pb26  1  0.281990  0.033383  0.457064  1
  Pb  Pb27  1  0.781374  0.466126  0.042519  1
  Pb  Pb28  1  0.571229  0.626794  0.749995  1
  Pb  Pb29  1  0.071310  0.872900  0.750030  1
  Pb  Pb30  1  0.428713  0.373030  0.249991  1
  Pb  Pb31  1  0.928715  0.127066  0.250020  1
  Pb  Pb32  1  0.348040  0.153981  0.750450  1
  Pb  Pb33  1  0.847195  0.346706  0.750259  1
  Pb  Pb34  1  0.652442  0.846509  0.249984  1
  Pb  Pb35  1  0.152416  0.653411  0.250002  1
