# generated using pymatgen
data_Nd6Ho10MgHg3Rh4
_symmetry_space_group_name_H-M   'P 1'
_cell_length_a   9.68664188
_cell_length_b   9.69453091
_cell_length_c   9.69453100
_cell_angle_alpha   59.99999629
_cell_angle_beta   59.97305170
_cell_angle_gamma   59.97306201
_symmetry_Int_Tables_number   1
_chemical_formula_structural   Nd6Ho10MgHg3Rh4
_chemical_formula_sum   'Nd6 Ho10 Mg1 Hg3 Rh4'
_cell_volume   643.47970337
_cell_formula_units_Z   1
loop_
 _symmetry_equiv_pos_site_id
 _symmetry_equiv_pos_as_xyz
  1  'x, y, z'
loop_
 _atom_site_type_symbol
 _atom_site_label
 _atom_site_symmetry_multiplicity
 _atom_site_fract_x
 _atom_site_fract_y
 _atom_site_fract_z
 _atom_site_occupancy
  Nd  Nd0  1  0.189367  0.812002  0.812002  1
  Nd  Nd1  1  0.810079  0.189209  0.189209  1
  Nd  Nd2  1  0.810079  0.189209  0.811505  1
  Nd  Nd3  1  0.189367  0.812002  0.186628  1
  Nd  Nd4  1  0.810079  0.811505  0.189209  1
  Nd  Nd5  1  0.189367  0.186628  0.812002  1
  Ho  Ho6  1  0.598271  0.597428  0.597428  1
  Ho  Ho7  1  0.598271  0.597428  0.206875  1
  Ho  Ho8  1  0.598271  0.206875  0.597428  1
  Ho  Ho9  1  0.198369  0.600544  0.600544  1
  Ho  Ho10  1  0.061337  0.437759  0.437759  1
  Ho  Ho11  1  0.433521  0.065698  0.065698  1
  Ho  Ho12  1  0.433521  0.065698  0.435083  1
  Ho  Ho13  1  0.061337  0.437759  0.063145  1
  Ho  Ho14  1  0.433521  0.435083  0.065698  1
  Ho  Ho15  1  0.061337  0.063145  0.437759  1
  Mg  Mg16  1  0.538648  0.820451  0.820451  1
  Hg  Hg17  1  0.830251  0.834236  0.834236  1
  Hg  Hg18  1  0.830251  0.834236  0.501278  1
  Hg  Hg19  1  0.830251  0.501278  0.834236  1
  Rh  Rh20  1  0.390390  0.393046  0.393046  1
  Rh  Rh21  1  0.390390  0.393046  0.823517  1
  Rh  Rh22  1  0.390390  0.823517  0.393046  1
  Rh  Rh23  1  0.823339  0.392220  0.392220  1
