# generated using pymatgen
data_Tm2Lu3InBi2
_symmetry_space_group_name_H-M   'P 1'
_cell_length_a   6.40662604
_cell_length_b   8.96424220
_cell_length_c   8.93185512
_cell_angle_alpha   120.12002823
_cell_angle_beta   90.00448891
_cell_angle_gamma   89.99107033
_symmetry_Int_Tables_number   1
_chemical_formula_structural   Tm2Lu3InBi2
_chemical_formula_sum   'Tm4 Lu6 In2 Bi4'
_cell_volume   443.69926502
_cell_formula_units_Z   2
loop_
 _symmetry_equiv_pos_site_id
 _symmetry_equiv_pos_as_xyz
  1  'x, y, z'
loop_
 _atom_site_type_symbol
 _atom_site_label
 _atom_site_symmetry_multiplicity
 _atom_site_fract_x
 _atom_site_fract_y
 _atom_site_fract_z
 _atom_site_occupancy
  Tm  Tm0  1  0.750167  0.234710  0.000000  1
  Tm  Tm1  1  0.750116  0.765895  0.763524  1
  Tm  Tm2  1  0.750116  0.002371  0.236476  1
  Tm  Tm3  1  0.250403  0.767434  0.000000  1
  Lu  Lu4  1  0.496039  0.332231  0.659648  1
  Lu  Lu5  1  0.496039  0.672584  0.340352  1
  Lu  Lu6  1  0.003869  0.672395  0.340149  1
  Lu  Lu7  1  0.003869  0.332247  0.659851  1
  Lu  Lu8  1  0.250172  0.231589  0.241951  1
  Lu  Lu9  1  0.250172  0.989638  0.758049  1
  In  In10  1  0.249482  0.603229  0.604363  1
  In  In11  1  0.249482  0.998866  0.395637  1
  Bi  Bi12  1  0.750053  0.605614  0.000000  1
  Bi  Bi13  1  0.749914  0.397876  0.393433  1
  Bi  Bi14  1  0.749914  0.004443  0.606567  1
  Bi  Bi15  1  0.250196  0.388877  0.000000  1
