# generated using pymatgen
data_TbTm3(VB4)4
_symmetry_space_group_name_H-M   'P 1'
_cell_length_a   3.42148500
_cell_length_b   5.98189341
_cell_length_c   11.58802279
_cell_angle_alpha   89.95776749
_cell_angle_beta   90.00000000
_cell_angle_gamma   90.00000000
_symmetry_Int_Tables_number   1
_chemical_formula_structural   TbTm3(VB4)4
_chemical_formula_sum   'Tb1 Tm3 V4 B16'
_cell_volume   237.17151776
_cell_formula_units_Z   1
loop_
 _symmetry_equiv_pos_site_id
 _symmetry_equiv_pos_as_xyz
  1  'x, y, z'
loop_
 _atom_site_type_symbol
 _atom_site_label
 _atom_site_symmetry_multiplicity
 _atom_site_fract_x
 _atom_site_fract_y
 _atom_site_fract_z
 _atom_site_occupancy
  Tb  Tb0  1  0.000000  0.375363  0.651755  1
  Tm  Tm1  1  0.000000  0.124218  0.151609  1
  Tm  Tm2  1  0.000000  0.875706  0.848719  1
  Tm  Tm3  1  0.000000  0.624245  0.348075  1
  V  V4  1  0.000000  0.127241  0.416168  1
  V  V5  1  0.000000  0.872207  0.582533  1
  V  V6  1  0.000000  0.627686  0.083353  1
  V  V7  1  0.000000  0.372519  0.917757  1
  B  B8  1  0.500000  0.477203  0.193015  1
  B  B9  1  0.500000  0.524505  0.808473  1
  B  B10  1  0.500000  0.976970  0.306561  1
  B  B11  1  0.500000  0.021833  0.692839  1
  B  B12  1  0.500000  0.287456  0.313548  1
  B  B13  1  0.500000  0.714842  0.686336  1
  B  B14  1  0.500000  0.787457  0.186019  1
  B  B15  1  0.500000  0.212095  0.815271  1
  B  B16  1  0.500000  0.364640  0.466202  1
  B  B17  1  0.500000  0.635408  0.531529  1
  B  B18  1  0.500000  0.865341  0.032994  1
  B  B19  1  0.500000  0.134665  0.968134  1
  B  B20  1  0.500000  0.384555  0.048389  1
  B  B21  1  0.500000  0.615994  0.952695  1
  B  B22  1  0.500000  0.884058  0.451245  1
  B  B23  1  0.500000  0.113795  0.546781  1
