# generated using pymatgen
data_TbCo2(PIr)3
_symmetry_space_group_name_H-M   'P 1'
_cell_length_a   3.87395700
_cell_length_b   10.60564400
_cell_length_c   12.20598600
_cell_angle_alpha   90.00000000
_cell_angle_beta   90.00000000
_cell_angle_gamma   90.00000000
_symmetry_Int_Tables_number   1
_chemical_formula_structural   TbCo2(PIr)3
_chemical_formula_sum   'Tb4 Co8 P12 Ir12'
_cell_volume   501.49280717
_cell_formula_units_Z   4
loop_
 _symmetry_equiv_pos_site_id
 _symmetry_equiv_pos_as_xyz
  1  'x, y, z'
loop_
 _atom_site_type_symbol
 _atom_site_label
 _atom_site_symmetry_multiplicity
 _atom_site_fract_x
 _atom_site_fract_y
 _atom_site_fract_z
 _atom_site_occupancy
  Tb  Tb0  1  0.250000  0.584818  0.710310  1
  Tb  Tb1  1  0.250000  0.915182  0.210310  1
  Tb  Tb2  1  0.750000  0.415182  0.289690  1
  Tb  Tb3  1  0.750000  0.084818  0.789690  1
  Co  Co4  1  0.250000  0.884162  0.697294  1
  Co  Co5  1  0.250000  0.615838  0.197294  1
  Co  Co6  1  0.750000  0.115838  0.302706  1
  Co  Co7  1  0.750000  0.384162  0.802706  1
  Co  Co8  1  0.250000  0.464185  0.933705  1
  Co  Co9  1  0.250000  0.035815  0.433705  1
  Co  Co10  1  0.750000  0.535815  0.066295  1
  Co  Co11  1  0.750000  0.964185  0.566295  1
  P  P12  1  0.250000  0.432253  0.110739  1
  P  P13  1  0.250000  0.067747  0.610739  1
  P  P14  1  0.750000  0.567747  0.889261  1
  P  P15  1  0.750000  0.932253  0.389261  1
  P  P16  1  0.250000  0.275215  0.870464  1
  P  P17  1  0.250000  0.224785  0.370464  1
  P  P18  1  0.750000  0.724785  0.129536  1
  P  P19  1  0.750000  0.775215  0.629536  1
  P  P20  1  0.250000  0.597932  0.377555  1
  P  P21  1  0.250000  0.902068  0.877555  1
  P  P22  1  0.750000  0.402068  0.622445  1
  P  P23  1  0.750000  0.097932  0.122445  1
  Ir  Ir24  1  0.250000  0.722905  0.990437  1
  Ir  Ir25  1  0.250000  0.777095  0.490437  1
  Ir  Ir26  1  0.750000  0.277095  0.009563  1
  Ir  Ir27  1  0.750000  0.222905  0.509563  1
  Ir  Ir28  1  0.250000  0.409887  0.477563  1
  Ir  Ir29  1  0.250000  0.090113  0.977563  1
  Ir  Ir30  1  0.750000  0.590113  0.522437  1
  Ir  Ir31  1  0.750000  0.909887  0.022437  1
  Ir  Ir32  1  0.250000  0.227329  0.178477  1
  Ir  Ir33  1  0.250000  0.272671  0.678477  1
  Ir  Ir34  1  0.750000  0.772671  0.821523  1
  Ir  Ir35  1  0.750000  0.727329  0.321523  1
