# generated using pymatgen
data_Hf4Zr4In4Ir3Au5
_symmetry_space_group_name_H-M   'P 1'
_cell_length_a   7.62564199
_cell_length_b   7.62564193
_cell_length_c   6.96546319
_cell_angle_alpha   90.15184814
_cell_angle_beta   90.15185119
_cell_angle_gamma   89.24754745
_symmetry_Int_Tables_number   1
_chemical_formula_structural   Hf4Zr4In4Ir3Au5
_chemical_formula_sum   'Hf4 Zr4 In4 Ir3 Au5'
_cell_volume   405.00684105
_cell_formula_units_Z   1
loop_
 _symmetry_equiv_pos_site_id
 _symmetry_equiv_pos_as_xyz
  1  'x, y, z'
loop_
 _atom_site_type_symbol
 _atom_site_label
 _atom_site_symmetry_multiplicity
 _atom_site_fract_x
 _atom_site_fract_y
 _atom_site_fract_z
 _atom_site_occupancy
  Hf  Hf0  1  0.646773  0.361692  0.490021  1
  Hf  Hf1  1  0.361692  0.646773  0.490021  1
  Hf  Hf2  1  0.681257  0.334370  0.007406  1
  Hf  Hf3  1  0.334370  0.681257  0.007406  1
  Zr  Zr4  1  0.150879  0.150879  0.007944  1
  Zr  Zr5  1  0.835270  0.835270  0.996326  1
  Zr  Zr6  1  0.801784  0.801784  0.502139  1
  Zr  Zr7  1  0.195750  0.195750  0.490998  1
  In  In8  1  0.501309  0.004885  0.243116  1
  In  In9  1  0.498871  0.996934  0.753030  1
  In  In10  1  0.004885  0.501309  0.243116  1
  In  In11  1  0.996934  0.498871  0.753030  1
  Ir  Ir12  1  0.369767  0.369767  0.222165  1
  Ir  Ir13  1  0.625686  0.625686  0.774684  1
  Ir  Ir14  1  0.632964  0.632964  0.219878  1
  Au  Au15  1  0.866252  0.132094  0.713598  1
  Au  Au16  1  0.867126  0.129412  0.288304  1
  Au  Au17  1  0.366924  0.366924  0.794916  1
  Au  Au18  1  0.129412  0.867126  0.288304  1
  Au  Au19  1  0.132094  0.866252  0.713598  1
