# generated using pymatgen
data_Dy9Ho3In2FeTc2
_symmetry_space_group_name_H-M   'P 1'
_cell_length_a   8.41979909
_cell_length_b   8.41757959
_cell_length_c   8.41757722
_cell_angle_alpha   108.80489879
_cell_angle_beta   108.82187475
_cell_angle_gamma   110.78409910
_symmetry_Int_Tables_number   1
_chemical_formula_structural   Dy9Ho3In2FeTc2
_chemical_formula_sum   'Dy9 Ho3 In2 Fe1 Tc2'
_cell_volume   459.13452991
_cell_formula_units_Z   1
loop_
 _symmetry_equiv_pos_site_id
 _symmetry_equiv_pos_as_xyz
  1  'x, y, z'
loop_
 _atom_site_type_symbol
 _atom_site_label
 _atom_site_symmetry_multiplicity
 _atom_site_fract_x
 _atom_site_fract_y
 _atom_site_fract_z
 _atom_site_occupancy
  Dy  Dy0  1  0.303844  0.303857  0.610695  1
  Dy  Dy1  1  0.693300  0.692310  0.389157  1
  Dy  Dy2  1  0.693300  0.304144  0.000991  1
  Dy  Dy3  1  0.303844  0.693150  0.999989  1
  Dy  Dy4  1  0.190965  0.432128  0.241492  1
  Dy  Dy5  1  0.806198  0.568422  0.761904  1
  Dy  Dy6  1  0.190965  0.949472  0.758837  1
  Dy  Dy7  1  0.949467  0.189957  0.759511  1
  Dy  Dy8  1  0.806198  0.044295  0.237777  1
  Ho  Ho9  1  0.044596  0.807367  0.237229  1
  Ho  Ho10  1  0.429683  0.189636  0.240047  1
  Ho  Ho11  1  0.569510  0.807044  0.762465  1
  In  In12  1  0.998190  0.498575  0.499615  1
  In  In13  1  0.497677  0.997845  0.499831  1
  Fe  Fe14  1  0.631653  0.631195  0.000460  1
  Tc  Tc15  1  0.390387  0.390346  0.000041  1
  Tc  Tc16  1  0.000222  0.000259  0.999963  1
