# generated using pymatgen
data_Tb3Dy2Y3(CdNi)2
_symmetry_space_group_name_H-M   'P 1'
_cell_length_a   9.56031864
_cell_length_b   9.56000482
_cell_length_c   9.56000401
_cell_angle_alpha   60.00217789
_cell_angle_beta   59.99891146
_cell_angle_gamma   59.99890731
_symmetry_Int_Tables_number   1
_chemical_formula_structural   Tb3Dy2Y3(CdNi)2
_chemical_formula_sum   'Tb6 Dy4 Y6 Cd4 Ni4'
_cell_volume   617.83647374
_cell_formula_units_Z   2
loop_
 _symmetry_equiv_pos_site_id
 _symmetry_equiv_pos_as_xyz
  1  'x, y, z'
loop_
 _atom_site_type_symbol
 _atom_site_label
 _atom_site_symmetry_multiplicity
 _atom_site_fract_x
 _atom_site_fract_y
 _atom_site_fract_z
 _atom_site_occupancy
  Tb  Tb0  1  0.598820  0.598830  0.598830  1
  Tb  Tb1  1  0.598830  0.598820  0.203522  1
  Tb  Tb2  1  0.598830  0.203522  0.598820  1
  Tb  Tb3  1  0.203522  0.598830  0.598830  1
  Tb  Tb4  1  0.061136  0.438864  0.438864  1
  Tb  Tb5  1  0.438864  0.061136  0.061136  1
  Dy  Dy6  1  0.438877  0.061123  0.438877  1
  Dy  Dy7  1  0.061123  0.438877  0.061123  1
  Dy  Dy8  1  0.438877  0.438877  0.061123  1
  Dy  Dy9  1  0.061123  0.061123  0.438877  1
  Y  Y10  1  0.186726  0.813274  0.813274  1
  Y  Y11  1  0.813274  0.186726  0.186726  1
  Y  Y12  1  0.813274  0.186726  0.813274  1
  Y  Y13  1  0.186726  0.813274  0.186726  1
  Y  Y14  1  0.813274  0.813274  0.186726  1
  Y  Y15  1  0.186726  0.186726  0.813274  1
  Cd  Cd16  1  0.831239  0.831228  0.831228  1
  Cd  Cd17  1  0.831228  0.831239  0.506302  1
  Cd  Cd18  1  0.831228  0.506302  0.831239  1
  Cd  Cd19  1  0.506302  0.831228  0.831228  1
  Ni  Ni20  1  0.392608  0.392610  0.392610  1
  Ni  Ni21  1  0.392610  0.392608  0.822173  1
  Ni  Ni22  1  0.392610  0.822173  0.392608  1
  Ni  Ni23  1  0.822173  0.392610  0.392610  1
