# generated using pymatgen
data_HoTm2Lu5Pt4
_symmetry_space_group_name_H-M   'P 1'
_cell_length_a   4.72553200
_cell_length_b   7.05065804
_cell_length_c   8.58953918
_cell_angle_alpha   90.24891165
_cell_angle_beta   90.00000000
_cell_angle_gamma   90.00000000
_symmetry_Int_Tables_number   1
_chemical_formula_structural   HoTm2Lu5Pt4
_chemical_formula_sum   'Ho1 Tm2 Lu5 Pt4'
_cell_volume   286.18451242
_cell_formula_units_Z   1
loop_
 _symmetry_equiv_pos_site_id
 _symmetry_equiv_pos_as_xyz
  1  'x, y, z'
loop_
 _atom_site_type_symbol
 _atom_site_label
 _atom_site_symmetry_multiplicity
 _atom_site_fract_x
 _atom_site_fract_y
 _atom_site_fract_z
 _atom_site_occupancy
  Ho  Ho0  1  0.750000  0.511729  0.829715  1
  Tm  Tm1  1  0.250000  0.487863  0.170150  1
  Tm  Tm2  1  0.750000  0.013083  0.669912  1
  Lu  Lu3  1  0.250000  0.856511  0.922923  1
  Lu  Lu4  1  0.250000  0.356992  0.576516  1
  Lu  Lu5  1  0.750000  0.143083  0.079032  1
  Lu  Lu6  1  0.750000  0.644111  0.421934  1
  Lu  Lu7  1  0.250000  0.987574  0.331255  1
  Pt  Pt8  1  0.250000  0.255078  0.904587  1
  Pt  Pt9  1  0.250000  0.756839  0.592008  1
  Pt  Pt10  1  0.750000  0.744108  0.095700  1
  Pt  Pt11  1  0.750000  0.243026  0.406268  1
