# generated using pymatgen
data_Dy2Sc3P12Ru19
_symmetry_space_group_name_H-M   'P 1'
_cell_length_a   12.45473500
_cell_length_b   12.45473533
_cell_length_c   3.95190500
_cell_angle_alpha   90.00000000
_cell_angle_beta   90.00000000
_cell_angle_gamma   120.00000178
_symmetry_Int_Tables_number   1
_chemical_formula_structural   Dy2Sc3P12Ru19
_chemical_formula_sum   'Dy2 Sc3 P12 Ru19'
_cell_volume   530.89191854
_cell_formula_units_Z   1
loop_
 _symmetry_equiv_pos_site_id
 _symmetry_equiv_pos_as_xyz
  1  'x, y, z'
loop_
 _atom_site_type_symbol
 _atom_site_label
 _atom_site_symmetry_multiplicity
 _atom_site_fract_x
 _atom_site_fract_y
 _atom_site_fract_z
 _atom_site_occupancy
  Dy  Dy0  1  0.666667  0.333333  0.000000  1
  Dy  Dy1  1  0.333333  0.666667  0.000000  1
  Sc  Sc2  1  0.000000  0.182288  0.500000  1
  Sc  Sc3  1  0.817712  0.817712  0.500000  1
  Sc  Sc4  1  0.182288  0.000000  0.500000  1
  P  P5  1  0.000000  0.818785  0.000000  1
  P  P6  1  0.181215  0.181215  0.000000  1
  P  P7  1  0.818785  0.000000  0.000000  1
  P  P8  1  0.693115  0.169643  0.500000  1
  P  P9  1  0.830357  0.523472  0.500000  1
  P  P10  1  0.476528  0.306885  0.500000  1
  P  P11  1  0.169643  0.693115  0.500000  1
  P  P12  1  0.523472  0.830357  0.500000  1
  P  P13  1  0.306885  0.476528  0.500000  1
  P  P14  1  0.000000  0.372156  0.000000  1
  P  P15  1  0.627844  0.627844  0.000000  1
  P  P16  1  0.372156  0.000000  0.000000  1
  Ru  Ru17  1  0.000000  0.555644  0.000000  1
  Ru  Ru18  1  0.444356  0.444356  0.000000  1
  Ru  Ru19  1  0.555644  0.000000  0.000000  1
  Ru  Ru20  1  0.000000  0.721067  0.500000  1
  Ru  Ru21  1  0.278933  0.278933  0.500000  1
  Ru  Ru22  1  0.721067  0.000000  0.500000  1
  Ru  Ru23  1  0.811917  0.184494  0.000000  1
  Ru  Ru24  1  0.815506  0.627423  0.000000  1
  Ru  Ru25  1  0.372577  0.188083  0.000000  1
  Ru  Ru26  1  0.184494  0.811917  0.000000  1
  Ru  Ru27  1  0.627423  0.815506  0.000000  1
  Ru  Ru28  1  0.188083  0.372577  0.000000  1
  Ru  Ru29  1  0.874073  0.364933  0.500000  1
  Ru  Ru30  1  0.635067  0.509140  0.500000  1
  Ru  Ru31  1  0.490860  0.125927  0.500000  1
  Ru  Ru32  1  0.364933  0.874073  0.500000  1
  Ru  Ru33  1  0.509140  0.635067  0.500000  1
  Ru  Ru34  1  0.125927  0.490860  0.500000  1
  Ru  Ru35  1  0.000000  0.000000  0.000000  1
