# generated using pymatgen
data_HoI35
_symmetry_space_group_name_H-M   'P 1'
_cell_length_a   17.58017498
_cell_length_b   12.54030950
_cell_length_c   11.87107100
_cell_angle_alpha   88.81408644
_cell_angle_beta   66.02770740
_cell_angle_gamma   92.31545562
_symmetry_Int_Tables_number   1
_chemical_formula_structural   HoI35
_chemical_formula_sum   'Ho1 I35'
_cell_volume   2387.43274716
_cell_formula_units_Z   1
loop_
 _symmetry_equiv_pos_site_id
 _symmetry_equiv_pos_as_xyz
  1  'x, y, z'
loop_
 _atom_site_type_symbol
 _atom_site_label
 _atom_site_symmetry_multiplicity
 _atom_site_fract_x
 _atom_site_fract_y
 _atom_site_fract_z
 _atom_site_occupancy
  Ho  Ho0  1  0.225909  0.407467  0.455192  1
  I  I1  1  0.507190  0.295091  0.560318  1
  I  I2  1  0.736614  0.588804  0.598642  1
  I  I3  1  0.464394  0.706599  0.765494  1
  I  I4  1  0.071790  0.898801  0.793174  1
  I  I5  1  0.884888  0.142477  0.022172  1
  I  I6  1  0.635768  0.324819  0.305538  1
  I  I7  1  0.600900  0.337698  0.862741  1
  I  I8  1  0.338272  0.803428  0.701420  1
  I  I9  1  0.344031  0.558735  0.214068  1
  I  I10  1  0.639248  0.124064  0.822387  1
  I  I11  1  0.881717  0.564703  0.376122  1
  I  I12  1  0.060869  0.928648  0.557316  1
  I  I13  1  0.889514  0.112103  0.266823  1
  I  I14  1  0.875972  0.181821  0.787311  1
  I  I15  1  0.641976  0.056147  0.282800  1
  I  I16  1  0.057682  0.847913  0.046490  1
  I  I17  1  0.354950  0.023792  0.762813  1
  I  I18  1  0.883150  0.336104  0.328120  1
  I  I19  1  0.873041  0.901484  0.673716  1
  I  I20  1  0.985787  0.627636  0.762202  1
  I  I21  1  0.328757  0.042136  0.220660  1
  I  I22  1  0.333698  0.305123  0.210765  1
  I  I23  1  0.587823  0.608496  0.836146  1
  I  I24  1  0.087096  0.448896  0.401994  1
  I  I25  1  0.695467  0.887969  0.803290  1
  I  I26  1  0.918850  0.409584  0.779083  1
  I  I27  1  0.490759  0.043447  0.254085  1
  I  I28  1  0.189586  0.209140  0.587784  1
  I  I29  1  0.692900  0.790521  0.251925  1
  I  I30  1  0.875714  0.815151  0.149755  1
  I  I31  1  0.380306  0.248590  0.808236  1
  I  I32  1  0.334957  0.500560  0.582616  1
  I  I33  1  0.658906  0.556306  0.273320  1
  I  I34  1  0.162305  0.570395  0.674600  1
  I  I35  1  0.309214  0.795351  0.220887  1
