# generated using pymatgen
data_Nd2Si3Tc14C3
_symmetry_space_group_name_H-M   'P 1'
_cell_length_a   6.92635933
_cell_length_b   6.92636086
_cell_length_c   6.92636066
_cell_angle_alpha   82.48358447
_cell_angle_beta   82.48358138
_cell_angle_gamma   82.48358130
_symmetry_Int_Tables_number   1
_chemical_formula_structural   Nd2Si3Tc14C3
_chemical_formula_sum   'Nd2 Si3 Tc14 C3'
_cell_volume   324.40997214
_cell_formula_units_Z   1
loop_
 _symmetry_equiv_pos_site_id
 _symmetry_equiv_pos_as_xyz
  1  'x, y, z'
loop_
 _atom_site_type_symbol
 _atom_site_label
 _atom_site_symmetry_multiplicity
 _atom_site_fract_x
 _atom_site_fract_y
 _atom_site_fract_z
 _atom_site_occupancy
  Nd  Nd0  1  0.650055  0.650055  0.650055  1
  Nd  Nd1  1  0.349945  0.349945  0.349945  1
  Si  Si2  1  0.000000  0.000000  0.500000  1
  Si  Si3  1  0.500000  0.000000  0.000000  1
  Si  Si4  1  0.000000  0.500000  0.000000  1
  Tc  Tc5  1  0.723187  0.276813  0.000000  1
  Tc  Tc6  1  0.000000  0.723187  0.276813  1
  Tc  Tc7  1  0.276813  0.000000  0.723187  1
  Tc  Tc8  1  0.000000  0.276813  0.723187  1
  Tc  Tc9  1  0.723187  0.000000  0.276813  1
  Tc  Tc10  1  0.276813  0.723187  0.000000  1
  Tc  Tc11  1  0.345610  0.861646  0.345610  1
  Tc  Tc12  1  0.345610  0.345610  0.861646  1
  Tc  Tc13  1  0.861646  0.345610  0.345610  1
  Tc  Tc14  1  0.654390  0.138354  0.654390  1
  Tc  Tc15  1  0.654390  0.654390  0.138354  1
  Tc  Tc16  1  0.138354  0.654390  0.654390  1
  Tc  Tc17  1  0.901504  0.901504  0.901504  1
  Tc  Tc18  1  0.098496  0.098496  0.098496  1
  C  C19  1  0.500000  0.500000  0.000000  1
  C  C20  1  0.000000  0.500000  0.500000  1
  C  C21  1  0.500000  0.000000  0.500000  1
