# generated using pymatgen
data_SrLi12Gd11(WO6)8
_symmetry_space_group_name_H-M   'P 1'
_cell_length_a   10.80610279
_cell_length_b   10.82287260
_cell_length_c   10.80610221
_cell_angle_alpha   109.39576965
_cell_angle_beta   109.55954502
_cell_angle_gamma   109.39576543
_symmetry_Int_Tables_number   1
_chemical_formula_structural   SrLi12Gd11(WO6)8
_chemical_formula_sum   'Sr1 Li12 Gd11 W8 O48'
_cell_volume   973.62766316
_cell_formula_units_Z   1
loop_
 _symmetry_equiv_pos_site_id
 _symmetry_equiv_pos_as_xyz
  1  'x, y, z'
loop_
 _atom_site_type_symbol
 _atom_site_label
 _atom_site_symmetry_multiplicity
 _atom_site_fract_x
 _atom_site_fract_y
 _atom_site_fract_z
 _atom_site_occupancy
  Sr  Sr0  1  0.375000  0.250000  0.125000  1
  Li  Li1  1  0.751819  0.374838  0.125420  1
  Li  Li2  1  0.874090  0.750000  0.124090  1
  Li  Li3  1  0.123018  0.374838  0.249417  1
  Li  Li4  1  0.624796  0.875219  0.249305  1
  Li  Li5  1  0.250583  0.125162  0.376982  1
  Li  Li6  1  0.625139  0.250000  0.375138  1
  Li  Li7  1  0.375910  0.750000  0.625910  1
  Li  Li8  1  0.750422  0.875219  0.625915  1
  Li  Li9  1  0.374580  0.125162  0.748181  1
  Li  Li10  1  0.874086  0.624782  0.749578  1
  Li  Li11  1  0.124862  0.249999  0.874862  1
  Li  Li12  1  0.250695  0.624781  0.875204  1
  Gd  Gd13  1  0.248605  0.873307  0.124108  1
  Gd  Gd14  1  0.874460  0.123381  0.248334  1
  Gd  Gd15  1  0.375892  0.626694  0.251394  1
  Gd  Gd16  1  0.125000  0.750000  0.375000  1
  Gd  Gd17  1  0.750801  0.626693  0.375299  1
  Gd  Gd18  1  0.875000  0.250000  0.625000  1
  Gd  Gd19  1  0.251665  0.376619  0.625541  1
  Gd  Gd20  1  0.624954  0.376619  0.751080  1
  Gd  Gd21  1  0.124701  0.873307  0.749199  1
  Gd  Gd22  1  0.748920  0.123381  0.875046  1
  Gd  Gd23  1  0.625001  0.750000  0.875000  1
  W  W24  1  0.999536  0.998408  0.998147  1
  W  W25  1  0.498872  0.998408  0.000261  1
  W  W26  1  0.999576  0.499803  0.999592  1
  W  W27  1  0.499739  0.501592  0.001128  1
  W  W28  1  0.500408  0.000197  0.500424  1
  W  W29  1  0.000227  0.499803  0.500211  1
  W  W30  1  0.999789  0.000197  0.499773  1
  W  W31  1  0.501853  0.501592  0.500464  1
  O  O32  1  0.197727  0.618581  0.025613  1
  O  O33  1  0.325459  0.416137  0.020919  1
  O  O34  1  0.698183  0.171562  0.080882  1
  O  O35  1  0.878405  0.907427  0.080195  1
  O  O36  1  0.973380  0.171562  0.090680  1
  O  O37  1  0.619270  0.916106  0.089113  1
  O  O38  1  0.024988  0.698053  0.117596  1
  O  O39  1  0.600387  0.427945  0.116981  1
  O  O40  1  0.189036  0.072055  0.172442  1
  O  O41  1  0.479081  0.083864  0.174541  1
  O  O42  1  0.117334  0.525842  0.198212  1
  O  O43  1  0.581824  0.674787  0.199806  1
  O  O44  1  0.327556  0.427944  0.310964  1
  O  O45  1  0.474387  0.881419  0.302273  1
  O  O46  1  0.919543  0.801947  0.326934  1
  O  O47  1  0.908509  0.525843  0.327631  1
  O  O48  1  0.590677  0.416136  0.395218  1
  O  O49  1  0.301789  0.974158  0.382667  1
  O  O50  1  0.826710  0.025890  0.407431  1
  O  O51  1  0.080678  0.382114  0.408166  1
  O  O52  1  0.827654  0.302506  0.420048  1
  O  O53  1  0.091835  0.117886  0.419321  1
  O  O54  1  0.382404  0.801947  0.475012  1
  O  O55  1  0.592963  0.674787  0.474981  1
  O  O56  1  0.409320  0.328437  0.526620  1
  O  O57  1  0.617542  0.197494  0.525148  1
  O  O58  1  0.173064  0.698053  0.580457  1
  O  O59  1  0.907031  0.881419  0.579145  1
  O  O60  1  0.920855  0.618581  0.592969  1
  O  O61  1  0.172369  0.974158  0.591491  1
  O  O62  1  0.419804  0.592573  0.621594  1
  O  O63  1  0.699180  0.025890  0.618460  1
  O  O64  1  0.079951  0.197494  0.672346  1
  O  O65  1  0.092569  0.474110  0.673290  1
  O  O66  1  0.673007  0.583894  0.703164  1
  O  O67  1  0.526051  0.117886  0.698564  1
  O  O68  1  0.419118  0.328438  0.801817  1
  O  O69  1  0.881541  0.474110  0.800820  1
  O  O70  1  0.529021  0.907427  0.827232  1
  O  O71  1  0.796836  0.916106  0.826993  1
  O  O72  1  0.974852  0.302506  0.882457  1
  O  O73  1  0.410888  0.583895  0.880731  1
  O  O74  1  0.025019  0.825213  0.907037  1
  O  O75  1  0.383020  0.072055  0.899613  1
  O  O76  1  0.104782  0.083864  0.909323  1
  O  O77  1  0.300194  0.825213  0.918177  1
  O  O78  1  0.801436  0.382114  0.973950  1
  O  O79  1  0.672768  0.592573  0.970979  1
