# generated using pymatgen
data_Ta4Al2(VZn)3
_symmetry_space_group_name_H-M   'P 1'
_cell_length_a   5.00735600
_cell_length_b   5.00735693
_cell_length_c   8.44022400
_cell_angle_alpha   90.00000000
_cell_angle_beta   90.00000000
_cell_angle_gamma   120.00000706
_symmetry_Int_Tables_number   1
_chemical_formula_structural   Ta4Al2(VZn)3
_chemical_formula_sum   'Ta4 Al2 V3 Zn3'
_cell_volume   183.27430954
_cell_formula_units_Z   1
loop_
 _symmetry_equiv_pos_site_id
 _symmetry_equiv_pos_as_xyz
  1  'x, y, z'
loop_
 _atom_site_type_symbol
 _atom_site_label
 _atom_site_symmetry_multiplicity
 _atom_site_fract_x
 _atom_site_fract_y
 _atom_site_fract_z
 _atom_site_occupancy
  Ta  Ta0  1  0.333333  0.666667  0.434324  1
  Ta  Ta1  1  0.666667  0.333333  0.551803  1
  Ta  Ta2  1  0.666667  0.333333  0.948197  1
  Ta  Ta3  1  0.333333  0.666667  0.065676  1
  Al  Al4  1  0.000000  0.000000  0.502560  1
  Al  Al5  1  0.000000  0.000000  0.997440  1
  V  V6  1  0.827267  0.172733  0.250000  1
  V  V7  1  0.827267  0.654535  0.250000  1
  V  V8  1  0.345465  0.172733  0.250000  1
  Zn  Zn9  1  0.171895  0.828105  0.750000  1
  Zn  Zn10  1  0.171895  0.343790  0.750000  1
  Zn  Zn11  1  0.656210  0.828105  0.750000  1
