# generated using pymatgen
data_Hf3Zr7(Ir3O)2
_symmetry_space_group_name_H-M   'P 1'
_cell_length_a   8.06671500
_cell_length_b   8.06671515
_cell_length_c   5.51811100
_cell_angle_alpha   90.00000000
_cell_angle_beta   90.00000000
_cell_angle_gamma   120.00000348
_symmetry_Int_Tables_number   1
_chemical_formula_structural   Hf3Zr7(Ir3O)2
_chemical_formula_sum   'Hf3 Zr7 Ir6 O2'
_cell_volume   310.96712876
_cell_formula_units_Z   1
loop_
 _symmetry_equiv_pos_site_id
 _symmetry_equiv_pos_as_xyz
  1  'x, y, z'
loop_
 _atom_site_type_symbol
 _atom_site_label
 _atom_site_symmetry_multiplicity
 _atom_site_fract_x
 _atom_site_fract_y
 _atom_site_fract_z
 _atom_site_occupancy
  Hf  Hf0  1  0.333333  0.666667  0.500000  1
  Hf  Hf1  1  0.666667  0.333333  0.500000  1
  Hf  Hf2  1  0.666667  0.333333  0.000000  1
  Zr  Zr3  1  0.240571  0.000486  0.749665  1
  Zr  Zr4  1  0.759915  0.000486  0.250335  1
  Zr  Zr5  1  0.999514  0.240085  0.749665  1
  Zr  Zr6  1  0.999514  0.759429  0.250335  1
  Zr  Zr7  1  0.759915  0.759429  0.749665  1
  Zr  Zr8  1  0.240571  0.240085  0.250335  1
  Zr  Zr9  1  0.333333  0.666667  0.000000  1
  Ir  Ir10  1  0.593959  0.001913  0.749069  1
  Ir  Ir11  1  0.407954  0.001913  0.250931  1
  Ir  Ir12  1  0.998087  0.592046  0.749069  1
  Ir  Ir13  1  0.998087  0.406041  0.250931  1
  Ir  Ir14  1  0.407954  0.406041  0.749069  1
  Ir  Ir15  1  0.593959  0.592046  0.250931  1
  O  O16  1  0.000000  0.000000  0.500000  1
  O  O17  1  0.000000  0.000000  0.000000  1
