# generated using pymatgen
data_Tm2Pu2ReB12W
_symmetry_space_group_name_H-M   'P 1'
_cell_length_a   3.65285600
_cell_length_b   9.18075339
_cell_length_c   11.54341949
_cell_angle_alpha   89.96666323
_cell_angle_beta   90.00000000
_cell_angle_gamma   90.00000000
_symmetry_Int_Tables_number   1
_chemical_formula_structural   Tm2Pu2ReB12W
_chemical_formula_sum   'Tm4 Pu4 Re2 B24 W2'
_cell_volume   387.11970529
_cell_formula_units_Z   2
loop_
 _symmetry_equiv_pos_site_id
 _symmetry_equiv_pos_as_xyz
  1  'x, y, z'
loop_
 _atom_site_type_symbol
 _atom_site_label
 _atom_site_symmetry_multiplicity
 _atom_site_fract_x
 _atom_site_fract_y
 _atom_site_fract_z
 _atom_site_occupancy
  Tm  Tm0  1  0.000000  0.945067  0.372230  1
  Tm  Tm1  1  0.000000  0.054933  0.627770  1
  Tm  Tm2  1  0.000000  0.443207  0.127106  1
  Tm  Tm3  1  0.000000  0.556793  0.872894  1
  Pu  Pu4  1  0.000000  0.321167  0.413380  1
  Pu  Pu5  1  0.000000  0.678833  0.586620  1
  Pu  Pu6  1  0.000000  0.822644  0.085662  1
  Pu  Pu7  1  0.000000  0.177356  0.914338  1
  Re  Re8  1  0.000000  0.138288  0.178363  1
  Re  Re9  1  0.000000  0.861712  0.821637  1
  B  B10  1  0.500000  0.551548  0.434620  1
  B  B11  1  0.500000  0.448452  0.565380  1
  B  B12  1  0.500000  0.052946  0.066731  1
  B  B13  1  0.500000  0.947054  0.933269  1
  B  B14  1  0.500000  0.750859  0.421664  1
  B  B15  1  0.500000  0.249141  0.578336  1
  B  B16  1  0.500000  0.249080  0.080544  1
  B  B17  1  0.500000  0.750920  0.919456  1
  B  B18  1  0.500000  0.795669  0.263920  1
  B  B19  1  0.500000  0.204331  0.736080  1
  B  B20  1  0.500000  0.292452  0.234512  1
  B  B21  1  0.500000  0.707548  0.765488  1
  B  B22  1  0.500000  0.632537  0.182704  1
  B  B23  1  0.500000  0.367463  0.817296  1
  B  B24  1  0.500000  0.131678  0.314608  1
  B  B25  1  0.500000  0.868322  0.685392  1
  B  B26  1  0.500000  0.982128  0.212346  1
  B  B27  1  0.500000  0.017872  0.787654  1
  B  B28  1  0.500000  0.478640  0.286857  1
  B  B29  1  0.500000  0.521360  0.713143  1
  B  B30  1  0.500000  0.605648  0.028841  1
  B  B31  1  0.500000  0.394352  0.971159  1
  B  B32  1  0.500000  0.104914  0.470105  1
  B  B33  1  0.500000  0.895086  0.529895  1
  W  W34  1  0.000000  0.638624  0.321003  1
  W  W35  1  0.000000  0.361376  0.678997  1
