# generated using pymatgen
data_ErI35
_symmetry_space_group_name_H-M   'P 1'
_cell_length_a   17.58017498
_cell_length_b   12.54030950
_cell_length_c   11.87107100
_cell_angle_alpha   88.81408644
_cell_angle_beta   66.02770740
_cell_angle_gamma   92.31545562
_symmetry_Int_Tables_number   1
_chemical_formula_structural   ErI35
_chemical_formula_sum   'Er1 I35'
_cell_volume   2387.43274716
_cell_formula_units_Z   1
loop_
 _symmetry_equiv_pos_site_id
 _symmetry_equiv_pos_as_xyz
  1  'x, y, z'
loop_
 _atom_site_type_symbol
 _atom_site_label
 _atom_site_symmetry_multiplicity
 _atom_site_fract_x
 _atom_site_fract_y
 _atom_site_fract_z
 _atom_site_occupancy
  Er  Er0  1  0.218918  0.427010  0.470605  1
  I  I1  1  0.510850  0.269236  0.528365  1
  I  I2  1  0.763744  0.587321  0.562152  1
  I  I3  1  0.486187  0.686358  0.753848  1
  I  I4  1  0.057177  0.887427  0.857509  1
  I  I5  1  0.893419  0.148387  0.000583  1
  I  I6  1  0.655892  0.310977  0.283380  1
  I  I7  1  0.619975  0.358740  0.841857  1
  I  I8  1  0.351623  0.757371  0.694777  1
  I  I9  1  0.351034  0.568643  0.232406  1
  I  I10  1  0.636161  0.140617  0.805993  1
  I  I11  1  0.901812  0.548506  0.340361  1
  I  I12  1  0.053629  0.951066  0.623919  1
  I  I13  1  0.892857  0.094852  0.248196  1
  I  I14  1  0.887210  0.206188  0.770264  1
  I  I15  1  0.660253  0.048232  0.251230  1
  I  I16  1  0.033013  0.813141  0.108473  1
  I  I17  1  0.361912  0.982913  0.732199  1
  I  I18  1  0.896038  0.316900  0.307587  1
  I  I19  1  0.867147  0.924001  0.712804  1
  I  I20  1  0.905675  0.665383  0.787446  1
  I  I21  1  0.328542  0.050186  0.253531  1
  I  I22  1  0.341296  0.314522  0.240058  1
  I  I23  1  0.625516  0.617808  0.813198  1
  I  I24  1  0.095646  0.436897  0.374872  1
  I  I25  1  0.690516  0.901615  0.802509  1
  I  I26  1  0.877747  0.444479  0.790116  1
  I  I27  1  0.498801  0.043589  0.252163  1
  I  I28  1  0.158438  0.246080  0.636044  1
  I  I29  1  0.670180  0.779317  0.270491  1
  I  I30  1  0.852097  0.800658  0.190747  1
  I  I31  1  0.373705  0.217384  0.760213  1
  I  I32  1  0.340498  0.491295  0.587161  1
  I  I33  1  0.656172  0.542285  0.254526  1
  I  I34  1  0.170514  0.617621  0.623627  1
  I  I35  1  0.315806  0.802994  0.236793  1
