# generated using pymatgen
data_Sm2ThAs3
_symmetry_space_group_name_H-M   'P 1'
_cell_length_a   7.31981120
_cell_length_b   7.31981079
_cell_length_c   7.31981233
_cell_angle_alpha   146.35114331
_cell_angle_beta   131.95026950
_cell_angle_gamma   59.93816038
_symmetry_Int_Tables_number   1
_chemical_formula_structural   Sm2ThAs3
_chemical_formula_sum   'Sm2 Th1 As3'
_cell_volume   160.14756866
_cell_formula_units_Z   1
loop_
 _symmetry_equiv_pos_site_id
 _symmetry_equiv_pos_as_xyz
  1  'x, y, z'
loop_
 _atom_site_type_symbol
 _atom_site_label
 _atom_site_symmetry_multiplicity
 _atom_site_fract_x
 _atom_site_fract_y
 _atom_site_fract_z
 _atom_site_occupancy
  Sm  Sm0  1  0.667145  0.667145  0.000000  1
  Sm  Sm1  1  0.332855  0.332855  0.000000  1
  Th  Th2  1  0.000000  0.000000  0.000000  1
  As  As3  1  0.500000  0.000000  0.500000  1
  As  As4  1  0.166298  0.666298  0.500000  1
  As  As5  1  0.833702  0.333702  0.500000  1
