# generated using pymatgen
data_Co20Cu(TcB3)2
_symmetry_space_group_name_H-M   'P 1'
_cell_length_a   7.39123315
_cell_length_b   7.39123260
_cell_length_c   7.39123300
_cell_angle_alpha   60.00000268
_cell_angle_beta   60.00000513
_cell_angle_gamma   59.99999581
_symmetry_Int_Tables_number   1
_chemical_formula_structural   Co20Cu(TcB3)2
_chemical_formula_sum   'Co20 Cu1 Tc2 B6'
_cell_volume   285.51943691
_cell_formula_units_Z   1
loop_
 _symmetry_equiv_pos_site_id
 _symmetry_equiv_pos_as_xyz
  1  'x, y, z'
loop_
 _atom_site_type_symbol
 _atom_site_label
 _atom_site_symmetry_multiplicity
 _atom_site_fract_x
 _atom_site_fract_y
 _atom_site_fract_z
 _atom_site_occupancy
  Co  Co0  1  0.618464  0.144608  0.618464  1
  Co  Co1  1  0.381536  0.381536  0.855392  1
  Co  Co2  1  0.855392  0.381536  0.381536  1
  Co  Co3  1  0.381536  0.381536  0.381536  1
  Co  Co4  1  0.144608  0.618464  0.618464  1
  Co  Co5  1  0.618464  0.618464  0.618464  1
  Co  Co6  1  0.618464  0.618464  0.144608  1
  Co  Co7  1  0.381536  0.855392  0.381536  1
  Co  Co8  1  0.658838  0.341162  0.000000  1
  Co  Co9  1  0.000000  0.341162  0.658838  1
  Co  Co10  1  0.658838  0.000000  0.000000  1
  Co  Co11  1  0.000000  0.000000  0.341162  1
  Co  Co12  1  0.000000  0.000000  0.658838  1
  Co  Co13  1  0.000000  0.341162  0.000000  1
  Co  Co14  1  0.658838  0.000000  0.341162  1
  Co  Co15  1  0.341162  0.000000  0.000000  1
  Co  Co16  1  0.000000  0.658838  0.000000  1
  Co  Co17  1  0.341162  0.000000  0.658838  1
  Co  Co18  1  0.000000  0.658838  0.341162  1
  Co  Co19  1  0.341162  0.658838  0.000000  1
  Cu  Cu20  1  0.000000  0.000000  0.000000  1
  Tc  Tc21  1  0.750000  0.750000  0.750000  1
  Tc  Tc22  1  0.250000  0.250000  0.250000  1
  B  B23  1  0.275774  0.275774  0.724226  1
  B  B24  1  0.275774  0.724226  0.724226  1
  B  B25  1  0.724226  0.275774  0.275774  1
  B  B26  1  0.275774  0.724226  0.275774  1
  B  B27  1  0.724226  0.275774  0.724226  1
  B  B28  1  0.724226  0.724226  0.275774  1
