# generated using pymatgen
data_Tb3Pr8Nd9Pb16
_symmetry_space_group_name_H-M   'P 1'
_cell_length_a   8.42518300
_cell_length_b   8.53485000
_cell_length_c   16.24929400
_cell_angle_alpha   90.00000000
_cell_angle_beta   90.00000000
_cell_angle_gamma   90.00155074
_symmetry_Int_Tables_number   1
_chemical_formula_structural   Tb3Pr8Nd9Pb16
_chemical_formula_sum   'Tb3 Pr8 Nd9 Pb16'
_cell_volume   1168.44892151
_cell_formula_units_Z   1
loop_
 _symmetry_equiv_pos_site_id
 _symmetry_equiv_pos_as_xyz
  1  'x, y, z'
loop_
 _atom_site_type_symbol
 _atom_site_label
 _atom_site_symmetry_multiplicity
 _atom_site_fract_x
 _atom_site_fract_y
 _atom_site_fract_z
 _atom_site_occupancy
  Tb  Tb0  1  0.708771  0.995547  0.750000  1
  Tb  Tb1  1  0.790887  0.496544  0.250000  1
  Tb  Tb2  1  0.291126  0.003886  0.250000  1
  Pr  Pr3  1  0.533050  0.321212  0.899808  1
  Pr  Pr4  1  0.032785  0.176946  0.600438  1
  Pr  Pr5  1  0.466698  0.677820  0.398752  1
  Pr  Pr6  1  0.966869  0.822110  0.100712  1
  Pr  Pr7  1  0.466698  0.677820  0.101248  1
  Pr  Pr8  1  0.966869  0.822110  0.399288  1
  Pr  Pr9  1  0.533050  0.321212  0.600192  1
  Pr  Pr10  1  0.032785  0.176946  0.899562  1
  Nd  Nd11  1  0.378328  0.841413  0.881308  1
  Nd  Nd12  1  0.876963  0.659189  0.618656  1
  Nd  Nd13  1  0.622678  0.158678  0.380501  1
  Nd  Nd14  1  0.122477  0.341195  0.120119  1
  Nd  Nd15  1  0.622678  0.158678  0.119499  1
  Nd  Nd16  1  0.122477  0.341195  0.379881  1
  Nd  Nd17  1  0.378328  0.841413  0.618692  1
  Nd  Nd18  1  0.876963  0.659189  0.881344  1
  Nd  Nd19  1  0.207947  0.502885  0.750000  1
  Pb  Pb20  1  0.281861  0.031539  0.045988  1
  Pb  Pb21  1  0.782000  0.468954  0.454002  1
  Pb  Pb22  1  0.718623  0.969062  0.545313  1
  Pb  Pb23  1  0.218051  0.532415  0.956362  1
  Pb  Pb24  1  0.718623  0.969062  0.954687  1
  Pb  Pb25  1  0.218051  0.532415  0.543638  1
  Pb  Pb26  1  0.281861  0.031539  0.454012  1
  Pb  Pb27  1  0.782000  0.468954  0.045998  1
  Pb  Pb28  1  0.575550  0.628074  0.750000  1
  Pb  Pb29  1  0.071656  0.877067  0.750000  1
  Pb  Pb30  1  0.428232  0.374151  0.250000  1
  Pb  Pb31  1  0.927567  0.125376  0.250000  1
  Pb  Pb32  1  0.343721  0.147362  0.750000  1
  Pb  Pb33  1  0.839842  0.347255  0.750000  1
  Pb  Pb34  1  0.656789  0.848639  0.250000  1
  Pb  Pb35  1  0.157151  0.652149  0.250000  1
