# generated using pymatgen
data_Ce4Sb4As3Se
_symmetry_space_group_name_H-M   'P 1'
_cell_length_a   4.25667500
_cell_length_b   4.25736602
_cell_length_c   17.28995639
_cell_angle_alpha   90.01167568
_cell_angle_beta   90.01180872
_cell_angle_gamma   90.00157460
_symmetry_Int_Tables_number   1
_chemical_formula_structural   Ce4Sb4As3Se
_chemical_formula_sum   'Ce4 Sb4 As3 Se1'
_cell_volume   313.33244100
_cell_formula_units_Z   1
loop_
 _symmetry_equiv_pos_site_id
 _symmetry_equiv_pos_as_xyz
  1  'x, y, z'
loop_
 _atom_site_type_symbol
 _atom_site_label
 _atom_site_symmetry_multiplicity
 _atom_site_fract_x
 _atom_site_fract_y
 _atom_site_fract_z
 _atom_site_occupancy
  Ce  Ce0  1  0.749780  0.241558  0.849636  1
  Ce  Ce1  1  0.750126  0.258427  0.348413  1
  Ce  Ce2  1  0.249849  0.758582  0.152444  1
  Ce  Ce3  1  0.250158  0.741969  0.649113  1
  Sb  Sb4  1  0.250056  0.248741  0.499471  1
  Sb  Sb5  1  0.250005  0.250637  0.001173  1
  Sb  Sb6  1  0.750039  0.751177  0.499443  1
  Sb  Sb7  1  0.749991  0.748780  0.001173  1
  As  As8  1  0.750090  0.241172  0.678167  1
  As  As9  1  0.749808  0.259198  0.177666  1
  As  As10  1  0.250216  0.758835  0.323038  1
  Se  Se11  1  0.249883  0.740924  0.820264  1
