# generated using pymatgen
data_Tb8Ti9Si16W3
_symmetry_space_group_name_H-M   'P 1'
_cell_length_a   7.01834090
_cell_length_b   7.01834090
_cell_length_c   12.91636172
_cell_angle_alpha   90.02706778
_cell_angle_beta   89.97293222
_cell_angle_gamma   89.94876768
_symmetry_Int_Tables_number   1
_chemical_formula_structural   Tb8Ti9Si16W3
_chemical_formula_sum   'Tb8 Ti9 Si16 W3'
_cell_volume   636.22224009
_cell_formula_units_Z   1
loop_
 _symmetry_equiv_pos_site_id
 _symmetry_equiv_pos_as_xyz
  1  'x, y, z'
loop_
 _atom_site_type_symbol
 _atom_site_label
 _atom_site_symmetry_multiplicity
 _atom_site_fract_x
 _atom_site_fract_y
 _atom_site_fract_z
 _atom_site_occupancy
  Tb  Tb0  1  0.339620  0.002181  0.466658  1
  Tb  Tb1  1  0.498454  0.841083  0.717966  1
  Tb  Tb2  1  0.500671  0.159569  0.216752  1
  Tb  Tb3  1  0.841083  0.498454  0.282034  1
  Tb  Tb4  1  0.159569  0.500671  0.783248  1
  Tb  Tb5  1  0.660016  0.999267  0.966973  1
  Tb  Tb6  1  0.002181  0.339620  0.533342  1
  Tb  Tb7  1  0.999267  0.660016  0.033027  1
  Ti  Ti8  1  0.672887  0.672887  0.500000  1
  Ti  Ti9  1  0.153374  0.009450  0.876380  1
  Ti  Ti10  1  0.490175  0.653525  0.125717  1
  Ti  Ti11  1  0.508625  0.345367  0.627561  1
  Ti  Ti12  1  0.653525  0.490175  0.874283  1
  Ti  Ti13  1  0.345367  0.508625  0.372439  1
  Ti  Ti14  1  0.847780  0.991311  0.375119  1
  Ti  Ti15  1  0.009450  0.153374  0.123620  1
  Ti  Ti16  1  0.991311  0.847780  0.624881  1
  Si  Si17  1  0.200578  0.129031  0.685125  1
  Si  Si18  1  0.370475  0.699968  0.935218  1
  Si  Si19  1  0.629427  0.297941  0.435161  1
  Si  Si20  1  0.699968  0.370475  0.064782  1
  Si  Si21  1  0.297941  0.629427  0.564839  1
  Si  Si22  1  0.799836  0.870858  0.185549  1
  Si  Si23  1  0.129031  0.200578  0.314875  1
  Si  Si24  1  0.870858  0.799836  0.814451  1
  Si  Si25  1  0.291451  0.953771  0.065286  1
  Si  Si26  1  0.545460  0.790919  0.315077  1
  Si  Si27  1  0.453461  0.208819  0.815493  1
  Si  Si28  1  0.790919  0.545460  0.684923  1
  Si  Si29  1  0.208819  0.453461  0.184507  1
  Si  Si30  1  0.708523  0.047805  0.566129  1
  Si  Si31  1  0.953771  0.291451  0.934714  1
  Si  Si32  1  0.047805  0.708523  0.433871  1
  W  W33  1  0.327154  0.327154  0.000000  1
  W  W34  1  0.173769  0.827397  0.249352  1
  W  W35  1  0.827397  0.173769  0.750648  1
