# generated using pymatgen
data_Sm7Th(Sc3Sn4)4
_symmetry_space_group_name_H-M   'P 1'
_cell_length_a   7.82896181
_cell_length_b   7.96439711
_cell_length_c   15.00519276
_cell_angle_alpha   89.96619645
_cell_angle_beta   89.98638895
_cell_angle_gamma   90.05025911
_symmetry_Int_Tables_number   1
_chemical_formula_structural   Sm7Th(Sc3Sn4)4
_chemical_formula_sum   'Sm7 Th1 Sc12 Sn16'
_cell_volume   935.61764691
_cell_formula_units_Z   1
loop_
 _symmetry_equiv_pos_site_id
 _symmetry_equiv_pos_as_xyz
  1  'x, y, z'
loop_
 _atom_site_type_symbol
 _atom_site_label
 _atom_site_symmetry_multiplicity
 _atom_site_fract_x
 _atom_site_fract_y
 _atom_site_fract_z
 _atom_site_occupancy
  Sm  Sm0  1  0.015476  0.174999  0.594434  1
  Sm  Sm1  1  0.484161  0.676221  0.404344  1
  Sm  Sm2  1  0.984423  0.824177  0.095870  1
  Sm  Sm3  1  0.484670  0.675725  0.095807  1
  Sm  Sm4  1  0.984544  0.823685  0.404450  1
  Sm  Sm5  1  0.516838  0.324016  0.596094  1
  Sm  Sm6  1  0.016797  0.175939  0.904904  1
  Th  Th7  1  0.514510  0.324225  0.904684  1
  Sc  Sc8  1  0.357403  0.837647  0.874428  1
  Sc  Sc9  1  0.857410  0.662723  0.625537  1
  Sc  Sc10  1  0.642706  0.162804  0.374415  1
  Sc  Sc11  1  0.143097  0.337227  0.125753  1
  Sc  Sc12  1  0.642175  0.162990  0.125572  1
  Sc  Sc13  1  0.142414  0.337118  0.374330  1
  Sc  Sc14  1  0.357509  0.836541  0.625437  1
  Sc  Sc15  1  0.856576  0.662795  0.874299  1
  Sc  Sc16  1  0.188374  0.506270  0.749703  1
  Sc  Sc17  1  0.687942  0.995343  0.749921  1
  Sc  Sc18  1  0.811685  0.494557  0.249867  1
  Sc  Sc19  1  0.311252  0.005896  0.250440  1
  Sn  Sn20  1  0.309887  0.043914  0.043035  1
  Sn  Sn21  1  0.810059  0.456183  0.457188  1
  Sn  Sn22  1  0.689516  0.955663  0.543010  1
  Sn  Sn23  1  0.188707  0.545527  0.957551  1
  Sn  Sn24  1  0.691213  0.956105  0.956778  1
  Sn  Sn25  1  0.190441  0.543111  0.542905  1
  Sn  Sn26  1  0.310422  0.044091  0.457006  1
  Sn  Sn27  1  0.810733  0.456271  0.043177  1
  Sn  Sn28  1  0.552884  0.630443  0.750584  1
  Sn  Sn29  1  0.052133  0.869546  0.749930  1
  Sn  Sn30  1  0.446732  0.370472  0.250375  1
  Sn  Sn31  1  0.946910  0.129975  0.250059  1
  Sn  Sn32  1  0.322704  0.141375  0.748615  1
  Sn  Sn33  1  0.826749  0.356112  0.749548  1
  Sn  Sn34  1  0.675605  0.857216  0.249958  1
  Sn  Sn35  1  0.175344  0.643096  0.249992  1
