# generated using pymatgen
data_La6TcAuI6
_symmetry_space_group_name_H-M   'P 1'
_cell_length_a   11.02863338
_cell_length_b   11.02863387
_cell_length_c   11.17595092
_cell_angle_alpha   109.62439069
_cell_angle_beta   109.62439211
_cell_angle_gamma   108.62195855
_symmetry_Int_Tables_number   1
_chemical_formula_structural   La6TcAuI6
_chemical_formula_sum   'La12 Tc2 Au2 I12'
_cell_volume   1053.29244533
_cell_formula_units_Z   2
loop_
 _symmetry_equiv_pos_site_id
 _symmetry_equiv_pos_as_xyz
  1  'x, y, z'
loop_
 _atom_site_type_symbol
 _atom_site_label
 _atom_site_symmetry_multiplicity
 _atom_site_fract_x
 _atom_site_fract_y
 _atom_site_fract_z
 _atom_site_occupancy
  La  La0  1  0.460442  0.473126  0.238969  1
  La  La1  1  0.734156  0.221473  0.261031  1
  La  La2  1  0.729738  0.009312  0.466089  1
  La  La3  1  0.236351  0.456776  0.466089  1
  La  La4  1  0.278527  0.765844  0.238969  1
  La  La5  1  0.043224  0.263649  0.033911  1
  La  La6  1  0.026874  0.039558  0.261031  1
  La  La7  1  0.490688  0.770262  0.033911  1
  La  La8  1  0.479568  0.229568  0.459134  1
  La  La9  1  0.017423  0.482577  0.750000  1
  La  La10  1  0.270432  0.020432  0.040866  1
  La  La11  1  0.232577  0.267423  0.750000  1
  Tc  Tc12  1  0.243978  0.256022  0.250000  1
  Tc  Tc13  1  0.506022  0.993978  0.250000  1
  Au  Au14  1  0.999286  0.249286  0.498571  1
  Au  Au15  1  0.250714  0.500714  0.001429  1
  I  I16  1  0.250714  0.757381  0.746298  1
  I  I17  1  0.511084  0.504415  0.753702  1
  I  I18  1  0.983278  0.740318  0.989527  1
  I  I19  1  0.742619  0.249286  0.753702  1
  I  I20  1  0.995585  0.988916  0.746298  1
  I  I21  1  0.250792  0.993752  0.510473  1
  I  I22  1  0.759682  0.516722  0.510473  1
  I  I23  1  0.506248  0.249208  0.989527  1
  I  I24  1  0.757580  0.742420  0.250000  1
  I  I25  1  0.740632  0.990632  0.981263  1
  I  I26  1  0.992420  0.507580  0.250000  1
  I  I27  1  0.509368  0.759368  0.518737  1
