# generated using pymatgen
data_Tb3Dy3Al24Ir5Ru3
_symmetry_space_group_name_H-M   'P 1'
_cell_length_a   8.83960361
_cell_length_b   8.80025254
_cell_length_c   9.54198701
_cell_angle_alpha   90.00000019
_cell_angle_beta   90.10330760
_cell_angle_gamma   119.85284895
_symmetry_Int_Tables_number   1
_chemical_formula_structural   Tb3Dy3Al24Ir5Ru3
_chemical_formula_sum   'Tb3 Dy3 Al24 Ir5 Ru3'
_cell_volume   643.78151148
_cell_formula_units_Z   1
loop_
 _symmetry_equiv_pos_site_id
 _symmetry_equiv_pos_as_xyz
  1  'x, y, z'
loop_
 _atom_site_type_symbol
 _atom_site_label
 _atom_site_symmetry_multiplicity
 _atom_site_fract_x
 _atom_site_fract_y
 _atom_site_fract_z
 _atom_site_occupancy
  Tb  Tb0  1  0.190863  0.806347  0.249790  1
  Tb  Tb1  1  0.190863  0.384515  0.249790  1
  Tb  Tb2  1  0.615546  0.807773  0.249918  1
  Dy  Dy3  1  0.808695  0.194264  0.750281  1
  Dy  Dy4  1  0.808695  0.614431  0.750281  1
  Dy  Dy5  1  0.385399  0.192700  0.750082  1
  Al  Al6  1  0.561948  0.436725  0.250272  1
  Al  Al7  1  0.561948  0.125223  0.250272  1
  Al  Al8  1  0.875483  0.437741  0.248676  1
  Al  Al9  1  0.438287  0.563085  0.749747  1
  Al  Al10  1  0.438287  0.875202  0.749747  1
  Al  Al11  1  0.124085  0.562043  0.751244  1
  Al  Al12  1  0.325870  0.162935  0.423954  1
  Al  Al13  1  0.835311  0.162619  0.423765  1
  Al  Al14  1  0.835311  0.672691  0.423765  1
  Al  Al15  1  0.674444  0.837222  0.576864  1
  Al  Al16  1  0.164530  0.837589  0.577116  1
  Al  Al17  1  0.164530  0.326942  0.577116  1
  Al  Al18  1  0.673550  0.836775  0.924007  1
  Al  Al19  1  0.162363  0.835403  0.922974  1
  Al  Al20  1  0.162363  0.326961  0.922974  1
  Al  Al21  1  0.326771  0.163385  0.075144  1
  Al  Al22  1  0.837440  0.164763  0.076155  1
  Al  Al23  1  0.837440  0.672677  0.076155  1
  Al  Al24  1  0.667403  0.333700  0.528810  1
  Al  Al25  1  0.332587  0.666295  0.472302  1
  Al  Al26  1  0.330480  0.665241  0.026951  1
  Al  Al27  1  0.669477  0.334738  0.971987  1
  Al  Al28  1  0.998069  0.999034  0.250065  1
  Al  Al29  1  0.001948  0.000974  0.749947  1
  Ir  Ir30  1  0.500150  0.499873  0.500316  1
  Ir  Ir31  1  0.500150  0.000277  0.500316  1
  Ir  Ir32  1  0.999738  0.499869  0.500319  1
  Ir  Ir33  1  0.500133  0.499860  0.999676  1
  Ir  Ir34  1  0.500133  0.000273  0.999676  1
  Ru  Ru35  1  0.000007  0.000003  0.500064  1
  Ru  Ru36  1  0.999994  0.999997  0.999951  1
  Ru  Ru37  1  0.999709  0.499855  0.999530  1
