# generated using pymatgen
data_Sm2VIr3
_symmetry_space_group_name_H-M   'P 1'
_cell_length_a   5.18408326
_cell_length_b   5.65194752
_cell_length_c   5.65194800
_cell_angle_alpha   59.99999719
_cell_angle_beta   56.96678581
_cell_angle_gamma   56.96678725
_symmetry_Int_Tables_number   1
_chemical_formula_structural   Sm2VIr3
_chemical_formula_sum   'Sm2 V1 Ir3'
_cell_volume   111.43970804
_cell_formula_units_Z   1
loop_
 _symmetry_equiv_pos_site_id
 _symmetry_equiv_pos_as_xyz
  1  'x, y, z'
loop_
 _atom_site_type_symbol
 _atom_site_label
 _atom_site_symmetry_multiplicity
 _atom_site_fract_x
 _atom_site_fract_y
 _atom_site_fract_z
 _atom_site_occupancy
  Sm  Sm0  1  0.002868  0.999044  0.999044  1
  Sm  Sm1  1  0.247134  0.250955  0.250955  1
  V  V2  1  0.124999  0.625001  0.625001  1
  Ir  Ir3  1  0.625000  0.625001  0.625001  1
  Ir  Ir4  1  0.625000  0.625001  0.125000  1
  Ir  Ir5  1  0.625000  0.125000  0.625001  1
