# generated using pymatgen
data_CsTb6(CBr6)2
_symmetry_space_group_name_H-M   'P 1'
_cell_length_a   8.96874323
_cell_length_b   8.93984680
_cell_length_c   9.45719052
_cell_angle_alpha   72.47931456
_cell_angle_beta   71.23626291
_cell_angle_gamma   72.87837160
_symmetry_Int_Tables_number   1
_chemical_formula_structural   CsTb6(CBr6)2
_chemical_formula_sum   'Cs1 Tb6 C2 Br12'
_cell_volume   668.07224155
_cell_formula_units_Z   1
loop_
 _symmetry_equiv_pos_site_id
 _symmetry_equiv_pos_as_xyz
  1  'x, y, z'
loop_
 _atom_site_type_symbol
 _atom_site_label
 _atom_site_symmetry_multiplicity
 _atom_site_fract_x
 _atom_site_fract_y
 _atom_site_fract_z
 _atom_site_occupancy
  Cs  Cs0  1  0.999996  0.500001  0.000001  1
  Tb  Tb1  1  0.473614  0.115839  0.183658  1
  Tb  Tb2  1  0.776596  0.033106  0.407265  1
  Tb  Tb3  1  0.592946  0.725243  0.474925  1
  Tb  Tb4  1  0.407056  0.274753  0.525075  1
  Tb  Tb5  1  0.223406  0.966893  0.592733  1
  Tb  Tb6  1  0.526386  0.884165  0.816343  1
  C  C7  1  0.492735  0.026635  0.423104  1
  C  C8  1  0.507268  0.973359  0.576899  1
  Br  Br9  1  0.794593  0.156174  0.084594  1
  Br  Br10  1  0.582226  0.786578  0.142847  1
  Br  Br11  1  0.352125  0.431490  0.225175  1
  Br  Br12  1  0.136042  0.070013  0.296442  1
  Br  Br13  1  0.920792  0.723865  0.355559  1
  Br  Br14  1  0.712848  0.364334  0.431587  1
  Br  Br15  1  0.287154  0.635666  0.568415  1
  Br  Br16  1  0.079211  0.276133  0.644440  1
  Br  Br17  1  0.863972  0.929984  0.703544  1
  Br  Br18  1  0.647871  0.568513  0.774824  1
  Br  Br19  1  0.417759  0.213431  0.857164  1
  Br  Br20  1  0.205408  0.843823  0.915406  1
