# generated using pymatgen
data_Ho7ErSc12Si15Ir
_symmetry_space_group_name_H-M   'P 1'
_cell_length_a   7.06869301
_cell_length_b   7.42477646
_cell_length_c   13.92916202
_cell_angle_alpha   89.99396535
_cell_angle_beta   90.00199258
_cell_angle_gamma   90.13414646
_symmetry_Int_Tables_number   1
_chemical_formula_structural   Ho7ErSc12Si15Ir
_chemical_formula_sum   'Ho7 Er1 Sc12 Si15 Ir1'
_cell_volume   731.04868608
_cell_formula_units_Z   1
loop_
 _symmetry_equiv_pos_site_id
 _symmetry_equiv_pos_as_xyz
  1  'x, y, z'
loop_
 _atom_site_type_symbol
 _atom_site_label
 _atom_site_symmetry_multiplicity
 _atom_site_fract_x
 _atom_site_fract_y
 _atom_site_fract_z
 _atom_site_occupancy
  Ho  Ho0  1  0.011791  0.179891  0.096212  1
  Ho  Ho1  1  0.990491  0.825250  0.904587  1
  Ho  Ho2  1  0.489028  0.676733  0.905189  1
  Ho  Ho3  1  0.990491  0.825227  0.595402  1
  Ho  Ho4  1  0.511438  0.323356  0.096139  1
  Ho  Ho5  1  0.011788  0.179886  0.403794  1
  Ho  Ho6  1  0.511433  0.323361  0.403879  1
  Er  Er7  1  0.488980  0.676853  0.594882  1
  Sc  Sc8  1  0.157479  0.502542  0.749983  1
  Sc  Sc9  1  0.838851  0.496889  0.249997  1
  Sc  Sc10  1  0.340538  0.006119  0.249999  1
  Sc  Sc11  1  0.666931  0.996063  0.749984  1
  Sc  Sc12  1  0.318696  0.171847  0.627454  1
  Sc  Sc13  1  0.672406  0.826013  0.373542  1
  Sc  Sc14  1  0.171392  0.678199  0.373990  1
  Sc  Sc15  1  0.672434  0.826038  0.126469  1
  Sc  Sc16  1  0.835494  0.319520  0.627406  1
  Sc  Sc17  1  0.318687  0.171830  0.872542  1
  Sc  Sc18  1  0.835494  0.319509  0.872590  1
  Sc  Sc19  1  0.171372  0.678186  0.126015  1
  Si  Si20  1  0.970439  0.887669  0.250001  1
  Si  Si21  1  0.469700  0.613948  0.250004  1
  Si  Si22  1  0.529092  0.388684  0.749970  1
  Si  Si23  1  0.287263  0.864981  0.749950  1
  Si  Si24  1  0.714358  0.132383  0.250000  1
  Si  Si25  1  0.213975  0.370879  0.250001  1
  Si  Si26  1  0.778463  0.626088  0.749951  1
  Si  Si27  1  0.160191  0.467806  0.537731  1
  Si  Si28  1  0.842246  0.535705  0.461616  1
  Si  Si29  1  0.344458  0.966722  0.460271  1
  Si  Si30  1  0.842294  0.535700  0.038395  1
  Si  Si31  1  0.656340  0.033961  0.538472  1
  Si  Si32  1  0.160062  0.467742  0.962293  1
  Si  Si33  1  0.656375  0.034055  0.961544  1
  Si  Si34  1  0.344441  0.966801  0.039750  1
  Ir  Ir35  1  0.025091  0.103563  0.749994  1
