# generated using pymatgen
data_Zr10CuSn5Bi2
_symmetry_space_group_name_H-M   'P 1'
_cell_length_a   8.81650032
_cell_length_b   8.80692360
_cell_length_c   5.97803622
_cell_angle_alpha   89.98453360
_cell_angle_beta   90.03089271
_cell_angle_gamma   120.03597769
_symmetry_Int_Tables_number   1
_chemical_formula_structural   Zr10CuSn5Bi2
_chemical_formula_sum   'Zr10 Cu1 Sn5 Bi2'
_cell_volume   401.83892715
_cell_formula_units_Z   1
loop_
 _symmetry_equiv_pos_site_id
 _symmetry_equiv_pos_as_xyz
  1  'x, y, z'
loop_
 _atom_site_type_symbol
 _atom_site_label
 _atom_site_symmetry_multiplicity
 _atom_site_fract_x
 _atom_site_fract_y
 _atom_site_fract_z
 _atom_site_occupancy
  Zr  Zr0  1  0.330809  0.663404  0.998493  1
  Zr  Zr1  1  0.667105  0.336276  0.501391  1
  Zr  Zr2  1  0.667407  0.336596  0.998493  1
  Zr  Zr3  1  0.330828  0.663724  0.501391  1
  Zr  Zr4  1  0.271154  0.000000  0.230665  1
  Zr  Zr5  1  0.274562  0.275209  0.768802  1
  Zr  Zr6  1  0.999353  0.724791  0.768802  1
  Zr  Zr7  1  0.005557  0.277767  0.231464  1
  Zr  Zr8  1  0.727790  0.722233  0.231464  1
  Zr  Zr9  1  0.726044  0.000000  0.767673  1
  Cu  Cu10  1  0.000165  0.000000  0.998840  1
  Sn  Sn11  1  0.613712  0.614350  0.746949  1
  Sn  Sn12  1  0.999362  0.385650  0.746949  1
  Sn  Sn13  1  0.000487  0.613614  0.253330  1
  Sn  Sn14  1  0.386873  0.386386  0.253330  1
  Sn  Sn15  1  0.385189  0.000000  0.747163  1
  Bi  Bi16  1  0.999988  0.000000  0.500979  1
  Bi  Bi17  1  0.613615  0.000000  0.253821  1
