# generated using pymatgen
data_Y3CdIn3CuRu
_symmetry_space_group_name_H-M   'P 1'
_cell_length_a   7.74012400
_cell_length_b   7.74012436
_cell_length_c   3.94190000
_cell_angle_alpha   90.00000000
_cell_angle_beta   90.00000000
_cell_angle_gamma   119.99998993
_symmetry_Int_Tables_number   1
_chemical_formula_structural   Y3CdIn3CuRu
_chemical_formula_sum   'Y3 Cd1 In3 Cu1 Ru1'
_cell_volume   204.51828158
_cell_formula_units_Z   1
loop_
 _symmetry_equiv_pos_site_id
 _symmetry_equiv_pos_as_xyz
  1  'x, y, z'
loop_
 _atom_site_type_symbol
 _atom_site_label
 _atom_site_symmetry_multiplicity
 _atom_site_fract_x
 _atom_site_fract_y
 _atom_site_fract_z
 _atom_site_occupancy
  Y  Y0  1  0.390959  0.968147  0.500000  1
  Y  Y1  1  0.031853  0.422812  0.500000  1
  Y  Y2  1  0.577188  0.609041  0.500000  1
  Cd  Cd3  1  0.666667  0.333333  0.000000  1
  In  In4  1  0.747991  0.994167  0.000000  1
  In  In5  1  0.005833  0.753825  0.000000  1
  In  In6  1  0.246175  0.252009  0.000000  1
  Cu  Cu7  1  0.000000  0.000000  0.500000  1
  Ru  Ru8  1  0.333333  0.666667  0.000000  1
