# generated using pymatgen
data_Y9Ho(Ir2Rh)2
_symmetry_space_group_name_H-M   'P 1'
_cell_length_a   10.93462800
_cell_length_b   10.93462800
_cell_length_c   6.41758900
_cell_angle_alpha   90.00000000
_cell_angle_beta   90.00000000
_cell_angle_gamma   90.00000000
_symmetry_Int_Tables_number   1
_chemical_formula_structural   Y9Ho(Ir2Rh)2
_chemical_formula_sum   'Y18 Ho2 Ir8 Rh4'
_cell_volume   767.32602074
_cell_formula_units_Z   2
loop_
 _symmetry_equiv_pos_site_id
 _symmetry_equiv_pos_as_xyz
  1  'x, y, z'
loop_
 _atom_site_type_symbol
 _atom_site_label
 _atom_site_symmetry_multiplicity
 _atom_site_fract_x
 _atom_site_fract_y
 _atom_site_fract_z
 _atom_site_occupancy
  Y  Y0  1  0.290786  0.089195  0.380585  1
  Y  Y1  1  0.290786  0.910805  0.880585  1
  Y  Y2  1  0.709214  0.089195  0.880585  1
  Y  Y3  1  0.709214  0.910805  0.380585  1
  Y  Y4  1  0.589034  0.790735  0.880718  1
  Y  Y5  1  0.589034  0.209265  0.380718  1
  Y  Y6  1  0.410966  0.790735  0.380718  1
  Y  Y7  1  0.410966  0.209265  0.880718  1
  Y  Y8  1  0.209265  0.410966  0.619282  1
  Y  Y9  1  0.209265  0.589034  0.119282  1
  Y  Y10  1  0.790735  0.410966  0.119282  1
  Y  Y11  1  0.790735  0.589034  0.619282  1
  Y  Y12  1  0.910805  0.709214  0.119415  1
  Y  Y13  1  0.910805  0.290786  0.619415  1
  Y  Y14  1  0.089195  0.709214  0.619415  1
  Y  Y15  1  0.089195  0.290786  0.119415  1
  Y  Y16  1  0.000000  0.000000  0.500000  1
  Y  Y17  1  0.000000  0.000000  0.000000  1
  Ho  Ho18  1  0.500000  0.500000  0.000000  1
  Ho  Ho19  1  0.500000  0.500000  0.500000  1
  Ir  Ir20  1  0.846011  0.153989  0.250000  1
  Ir  Ir21  1  0.846011  0.846011  0.750000  1
  Ir  Ir22  1  0.153989  0.153989  0.750000  1
  Ir  Ir23  1  0.153989  0.846011  0.250000  1
  Ir  Ir24  1  0.652474  0.347526  0.750000  1
  Ir  Ir25  1  0.652474  0.652474  0.250000  1
  Ir  Ir26  1  0.347526  0.347526  0.250000  1
  Ir  Ir27  1  0.347526  0.652474  0.750000  1
  Rh  Rh28  1  0.500000  0.000000  0.125686  1
  Rh  Rh29  1  0.500000  0.000000  0.625686  1
  Rh  Rh30  1  0.000000  0.500000  0.874314  1
  Rh  Rh31  1  0.000000  0.500000  0.374314  1
