# generated using pymatgen
data_Yb8Ga(CuPd3)6
_symmetry_space_group_name_H-M   'P 1'
_cell_length_a   8.19444220
_cell_length_b   8.19444220
_cell_length_c   8.19444220
_cell_angle_alpha   89.90876242
_cell_angle_beta   89.90876242
_cell_angle_gamma   90.09123758
_symmetry_Int_Tables_number   1
_chemical_formula_structural   Yb8Ga(CuPd3)6
_chemical_formula_sum   'Yb8 Ga1 Cu6 Pd18'
_cell_volume   550.24554492
_cell_formula_units_Z   1
loop_
 _symmetry_equiv_pos_site_id
 _symmetry_equiv_pos_as_xyz
  1  'x, y, z'
loop_
 _atom_site_type_symbol
 _atom_site_label
 _atom_site_symmetry_multiplicity
 _atom_site_fract_x
 _atom_site_fract_y
 _atom_site_fract_z
 _atom_site_occupancy
  Yb  Yb0  1  0.253785  0.253785  0.746215  1
  Yb  Yb1  1  0.247160  0.749280  0.250720  1
  Yb  Yb2  1  0.749280  0.247160  0.250720  1
  Yb  Yb3  1  0.749280  0.749280  0.752840  1
  Yb  Yb4  1  0.750991  0.750991  0.249009  1
  Yb  Yb5  1  0.747605  0.250372  0.749628  1
  Yb  Yb6  1  0.250372  0.747605  0.749628  1
  Yb  Yb7  1  0.250372  0.250372  0.252395  1
  Ga  Ga8  1  0.993180  0.993180  0.006820  1
  Cu  Cu9  1  0.997613  0.495779  0.726349  1
  Cu  Cu10  1  0.495779  0.273651  0.002387  1
  Cu  Cu11  1  0.273651  0.997613  0.504221  1
  Cu  Cu12  1  0.997613  0.273651  0.504221  1
  Cu  Cu13  1  0.495779  0.997613  0.726349  1
  Cu  Cu14  1  0.273651  0.495779  0.002387  1
  Pd  Pd15  1  0.495556  0.495556  0.752053  1
  Pd  Pd16  1  0.495556  0.247947  0.504444  1
  Pd  Pd17  1  0.247947  0.495556  0.504444  1
  Pd  Pd18  1  0.495530  0.495530  0.252846  1
  Pd  Pd19  1  0.495530  0.747154  0.504470  1
  Pd  Pd20  1  0.747154  0.495530  0.504470  1
  Pd  Pd21  1  0.013489  0.013489  0.700952  1
  Pd  Pd22  1  0.013489  0.299048  0.986511  1
  Pd  Pd23  1  0.299048  0.013489  0.986511  1
  Pd  Pd24  1  0.011904  0.011904  0.312284  1
  Pd  Pd25  1  0.011904  0.687716  0.988096  1
  Pd  Pd26  1  0.687716  0.011904  0.988096  1
  Pd  Pd27  1  0.999674  0.493080  0.263222  1
  Pd  Pd28  1  0.493080  0.736778  0.000326  1
  Pd  Pd29  1  0.999674  0.736778  0.506920  1
  Pd  Pd30  1  0.493080  0.999674  0.263222  1
  Pd  Pd31  1  0.736778  0.999674  0.506920  1
  Pd  Pd32  1  0.736778  0.493080  0.000326  1
