# generated using pymatgen
data_Pr2Ge4PdAu3
_symmetry_space_group_name_H-M   'P 1'
_cell_length_a   4.47902200
_cell_length_b   4.47902200
_cell_length_c   10.38849200
_cell_angle_alpha   90.00000000
_cell_angle_beta   90.00000000
_cell_angle_gamma   90.00000000
_symmetry_Int_Tables_number   1
_chemical_formula_structural   Pr2Ge4PdAu3
_chemical_formula_sum   'Pr2 Ge4 Pd1 Au3'
_cell_volume   208.41016666
_cell_formula_units_Z   1
loop_
 _symmetry_equiv_pos_site_id
 _symmetry_equiv_pos_as_xyz
  1  'x, y, z'
loop_
 _atom_site_type_symbol
 _atom_site_label
 _atom_site_symmetry_multiplicity
 _atom_site_fract_x
 _atom_site_fract_y
 _atom_site_fract_z
 _atom_site_occupancy
  Pr  Pr0  1  0.000000  0.500001  0.247925  1
  Pr  Pr1  1  0.500001  0.000000  0.747586  1
  Ge  Ge2  1  0.500001  0.000000  0.142403  1
  Ge  Ge3  1  0.000000  0.000000  0.491785  1
  Ge  Ge4  1  0.500001  0.500001  0.491785  1
  Ge  Ge5  1  0.000000  0.500001  0.867714  1
  Pd  Pd6  1  0.500001  0.000000  0.378908  1
  Au  Au7  1  0.000000  0.000000  0.002006  1
  Au  Au8  1  0.500001  0.500001  0.002006  1
  Au  Au9  1  0.000000  0.500001  0.627884  1
