# generated using pymatgen
data_La2B2Pt5Rh2Au
_symmetry_space_group_name_H-M   'P 1'
_cell_length_a   5.51507700
_cell_length_b   5.55417091
_cell_length_c   7.68388400
_cell_angle_alpha   90.00000000
_cell_angle_beta   90.00000000
_cell_angle_gamma   119.76742898
_symmetry_Int_Tables_number   1
_chemical_formula_structural   La2B2Pt5Rh2Au
_chemical_formula_sum   'La2 B2 Pt5 Rh2 Au1'
_cell_volume   204.31265854
_cell_formula_units_Z   1
loop_
 _symmetry_equiv_pos_site_id
 _symmetry_equiv_pos_as_xyz
  1  'x, y, z'
loop_
 _atom_site_type_symbol
 _atom_site_label
 _atom_site_symmetry_multiplicity
 _atom_site_fract_x
 _atom_site_fract_y
 _atom_site_fract_z
 _atom_site_occupancy
  La  La0  1  0.001521  0.003043  0.500000  1
  La  La1  1  0.000092  0.000184  0.000000  1
  B  B2  1  0.336251  0.672503  0.000000  1
  B  B3  1  0.664013  0.328025  0.000000  1
  Pt  Pt4  1  0.657103  0.314204  0.500000  1
  Pt  Pt5  1  0.999033  0.499482  0.198635  1
  Pt  Pt6  1  0.999033  0.499482  0.801365  1
  Pt  Pt7  1  0.500450  0.499482  0.198635  1
  Pt  Pt8  1  0.500450  0.499482  0.801365  1
  Rh  Rh9  1  0.501309  0.002617  0.190234  1
  Rh  Rh10  1  0.501309  0.002617  0.809766  1
  Au  Au11  1  0.339438  0.678876  0.500000  1
