# generated using pymatgen
data_Y4ZrPd13Au2
_symmetry_space_group_name_H-M   'P 1'
_cell_length_a   4.17102600
_cell_length_b   4.13240000
_cell_length_c   20.54593000
_cell_angle_alpha   90.00000000
_cell_angle_beta   90.00000000
_cell_angle_gamma   90.00000000
_symmetry_Int_Tables_number   1
_chemical_formula_structural   Y4ZrPd13Au2
_chemical_formula_sum   'Y4 Zr1 Pd13 Au2'
_cell_volume   354.13679623
_cell_formula_units_Z   1
loop_
 _symmetry_equiv_pos_site_id
 _symmetry_equiv_pos_as_xyz
  1  'x, y, z'
loop_
 _atom_site_type_symbol
 _atom_site_label
 _atom_site_symmetry_multiplicity
 _atom_site_fract_x
 _atom_site_fract_y
 _atom_site_fract_z
 _atom_site_occupancy
  Y  Y0  1  0.000000  0.000000  0.197295  1
  Y  Y1  1  0.000000  0.000000  0.396643  1
  Y  Y2  1  0.000000  0.000000  0.605930  1
  Y  Y3  1  0.000000  0.000000  0.801652  1
  Zr  Zr4  1  0.000000  0.000000  0.997644  1
  Pd  Pd5  1  0.500000  0.500000  0.000737  1
  Pd  Pd6  1  0.500000  0.500000  0.397069  1
  Pd  Pd7  1  0.500000  0.500000  0.601797  1
  Pd  Pd8  1  0.500000  0.500000  0.804219  1
  Pd  Pd9  1  0.500000  0.000000  0.094925  1
  Pd  Pd10  1  0.500000  0.000000  0.296952  1
  Pd  Pd11  1  0.500000  0.000000  0.702820  1
  Pd  Pd12  1  0.500000  0.000000  0.905820  1
  Pd  Pd13  1  0.000000  0.500000  0.094724  1
  Pd  Pd14  1  0.000000  0.500000  0.296893  1
  Pd  Pd15  1  0.000000  0.500000  0.499662  1
  Pd  Pd16  1  0.000000  0.500000  0.702968  1
  Pd  Pd17  1  0.000000  0.500000  0.905915  1
  Au  Au18  1  0.500000  0.500000  0.196053  1
  Au  Au19  1  0.500000  0.000000  0.500279  1
