# generated using pymatgen
data_Y6Tm14Cd6FeNi
_symmetry_space_group_name_H-M   'P 1'
_cell_length_a   9.52813900
_cell_length_b   9.52814061
_cell_length_c   9.61118100
_cell_angle_alpha   90.00000000
_cell_angle_beta   90.00000000
_cell_angle_gamma   119.99999787
_symmetry_Int_Tables_number   1
_chemical_formula_structural   Y6Tm14Cd6FeNi
_chemical_formula_sum   'Y6 Tm14 Cd6 Fe1 Ni1'
_cell_volume   755.65513690
_cell_formula_units_Z   1
loop_
 _symmetry_equiv_pos_site_id
 _symmetry_equiv_pos_as_xyz
  1  'x, y, z'
loop_
 _atom_site_type_symbol
 _atom_site_label
 _atom_site_symmetry_multiplicity
 _atom_site_fract_x
 _atom_site_fract_y
 _atom_site_fract_z
 _atom_site_occupancy
  Y  Y0  1  0.540407  0.459593  0.250000  1
  Y  Y1  1  0.540407  0.080815  0.250000  1
  Y  Y2  1  0.919185  0.459593  0.250000  1
  Y  Y3  1  0.457584  0.542416  0.750000  1
  Y  Y4  1  0.457584  0.915168  0.750000  1
  Y  Y5  1  0.084832  0.542416  0.750000  1
  Tm  Tm6  1  0.000000  0.000000  0.499691  1
  Tm  Tm7  1  0.000000  0.000000  0.000309  1
  Tm  Tm8  1  0.212228  0.787772  0.435487  1
  Tm  Tm9  1  0.212228  0.424459  0.435487  1
  Tm  Tm10  1  0.575541  0.787772  0.435487  1
  Tm  Tm11  1  0.789013  0.210987  0.562640  1
  Tm  Tm12  1  0.789013  0.578025  0.562640  1
  Tm  Tm13  1  0.421975  0.210987  0.562640  1
  Tm  Tm14  1  0.789013  0.210987  0.937360  1
  Tm  Tm15  1  0.789013  0.578025  0.937360  1
  Tm  Tm16  1  0.421975  0.210987  0.937360  1
  Tm  Tm17  1  0.212228  0.787772  0.064513  1
  Tm  Tm18  1  0.212228  0.424459  0.064513  1
  Tm  Tm19  1  0.575541  0.787772  0.064513  1
  Cd  Cd20  1  0.886055  0.113945  0.250000  1
  Cd  Cd21  1  0.886055  0.772110  0.250000  1
  Cd  Cd22  1  0.227890  0.113945  0.250000  1
  Cd  Cd23  1  0.114027  0.885973  0.750000  1
  Cd  Cd24  1  0.114027  0.228054  0.750000  1
  Cd  Cd25  1  0.771946  0.885973  0.750000  1
  Fe  Fe26  1  0.333333  0.666667  0.250000  1
  Ni  Ni27  1  0.666667  0.333333  0.750000  1
