# generated using pymatgen
data_Ba2Yb(BO2)6
_symmetry_space_group_name_H-M   'P 1'
_cell_length_a   7.27873457
_cell_length_b   7.27873421
_cell_length_c   7.27873566
_cell_angle_alpha   59.48547232
_cell_angle_beta   59.48547347
_cell_angle_gamma   59.48547180
_symmetry_Int_Tables_number   1
_chemical_formula_structural   Ba2Yb(BO2)6
_chemical_formula_sum   'Ba2 Yb1 B6 O12'
_cell_volume   269.48852241
_cell_formula_units_Z   1
loop_
 _symmetry_equiv_pos_site_id
 _symmetry_equiv_pos_as_xyz
  1  'x, y, z'
loop_
 _atom_site_type_symbol
 _atom_site_label
 _atom_site_symmetry_multiplicity
 _atom_site_fract_x
 _atom_site_fract_y
 _atom_site_fract_z
 _atom_site_occupancy
  Ba  Ba0  1  0.793105  0.793105  0.793105  1
  Ba  Ba1  1  0.206895  0.206895  0.206895  1
  Yb  Yb2  1  0.000000  0.000000  0.000000  1
  B  B3  1  0.366642  0.633385  0.755916  1
  B  B4  1  0.633385  0.755916  0.366642  1
  B  B5  1  0.755916  0.366642  0.633385  1
  B  B6  1  0.633358  0.366615  0.244084  1
  B  B7  1  0.366615  0.244084  0.633358  1
  B  B8  1  0.244084  0.633358  0.366615  1
  O  O9  1  0.162531  0.667998  0.913453  1
  O  O10  1  0.667998  0.913453  0.162531  1
  O  O11  1  0.913453  0.162531  0.667998  1
  O  O12  1  0.837469  0.332002  0.086547  1
  O  O13  1  0.332002  0.086547  0.837469  1
  O  O14  1  0.086547  0.837469  0.332002  1
  O  O15  1  0.541046  0.421675  0.798273  1
  O  O16  1  0.421675  0.798273  0.541046  1
  O  O17  1  0.798273  0.541046  0.421675  1
  O  O18  1  0.458954  0.578325  0.201727  1
  O  O19  1  0.578325  0.201727  0.458954  1
  O  O20  1  0.201727  0.458954  0.578325  1
