# generated using pymatgen
data_DyY9(In2Au)4
_symmetry_space_group_name_H-M   'P 1'
_cell_length_a   3.67933000
_cell_length_b   8.25118882
_cell_length_c   18.49060746
_cell_angle_alpha   90.03824523
_cell_angle_beta   90.00000000
_cell_angle_gamma   90.00000000
_symmetry_Int_Tables_number   1
_chemical_formula_structural   DyY9(In2Au)4
_chemical_formula_sum   'Dy1 Y9 In8 Au4'
_cell_volume   561.35338935
_cell_formula_units_Z   1
loop_
 _symmetry_equiv_pos_site_id
 _symmetry_equiv_pos_as_xyz
  1  'x, y, z'
loop_
 _atom_site_type_symbol
 _atom_site_label
 _atom_site_symmetry_multiplicity
 _atom_site_fract_x
 _atom_site_fract_y
 _atom_site_fract_z
 _atom_site_occupancy
  Dy  Dy0  1  0.000000  0.739043  0.281966  1
  Y  Y1  1  0.000000  0.120771  0.419927  1
  Y  Y2  1  0.000000  0.878896  0.579952  1
  Y  Y3  1  0.000000  0.379074  0.920116  1
  Y  Y4  1  0.000000  0.621125  0.080088  1
  Y  Y5  1  0.000000  0.238880  0.217756  1
  Y  Y6  1  0.000000  0.761292  0.782437  1
  Y  Y7  1  0.000000  0.261268  0.717554  1
  Y  Y8  1  0.000000  0.000067  0.000002  1
  Y  Y9  1  0.000000  0.499927  0.500027  1
  In  In10  1  0.500000  0.423545  0.353488  1
  In  In11  1  0.500000  0.576680  0.646592  1
  In  In12  1  0.500000  0.076855  0.853447  1
  In  In13  1  0.500000  0.923509  0.146439  1
  In  In14  1  0.500000  0.290369  0.066878  1
  In  In15  1  0.500000  0.709609  0.933241  1
  In  In16  1  0.500000  0.209535  0.566731  1
  In  In17  1  0.500000  0.790035  0.433075  1
  Au  Au18  1  0.500000  0.026502  0.302983  1
  Au  Au19  1  0.500000  0.972076  0.696858  1
  Au  Au20  1  0.500000  0.472121  0.803161  1
  Au  Au21  1  0.500000  0.528821  0.197282  1
