# generated using pymatgen
data_Ta6Be15Pt8
_symmetry_space_group_name_H-M   'P 1'
_cell_length_a   7.91408331
_cell_length_b   7.91408268
_cell_length_c   7.91408200
_cell_angle_alpha   59.99999447
_cell_angle_beta   59.99999713
_cell_angle_gamma   59.99999542
_symmetry_Int_Tables_number   1
_chemical_formula_structural   Ta6Be15Pt8
_chemical_formula_sum   'Ta6 Be15 Pt8'
_cell_volume   350.49893788
_cell_formula_units_Z   1
loop_
 _symmetry_equiv_pos_site_id
 _symmetry_equiv_pos_as_xyz
  1  'x, y, z'
loop_
 _atom_site_type_symbol
 _atom_site_label
 _atom_site_symmetry_multiplicity
 _atom_site_fract_x
 _atom_site_fract_y
 _atom_site_fract_z
 _atom_site_occupancy
  Ta  Ta0  1  0.195176  0.195176  0.804824  1
  Ta  Ta1  1  0.195176  0.804824  0.804824  1
  Ta  Ta2  1  0.804824  0.195176  0.195176  1
  Ta  Ta3  1  0.195176  0.804824  0.195176  1
  Ta  Ta4  1  0.804824  0.195176  0.804824  1
  Ta  Ta5  1  0.804824  0.804824  0.195176  1
  Be  Be6  1  0.500000  0.500000  0.500000  1
  Be  Be7  1  0.500000  0.500000  0.000000  1
  Be  Be8  1  0.000000  0.500000  0.500000  1
  Be  Be9  1  0.500000  0.000000  0.000000  1
  Be  Be10  1  0.000000  0.000000  0.500000  1
  Be  Be11  1  0.000000  0.500000  0.000000  1
  Be  Be12  1  0.500000  0.000000  0.500000  1
  Be  Be13  1  0.832436  0.502692  0.832436  1
  Be  Be14  1  0.167564  0.167564  0.497308  1
  Be  Be15  1  0.497308  0.167564  0.167564  1
  Be  Be16  1  0.167564  0.167564  0.167564  1
  Be  Be17  1  0.502692  0.832436  0.832436  1
  Be  Be18  1  0.832436  0.832436  0.832436  1
  Be  Be19  1  0.832436  0.832436  0.502692  1
  Be  Be20  1  0.167564  0.497308  0.167564  1
  Pt  Pt21  1  0.626479  0.120561  0.626479  1
  Pt  Pt22  1  0.373521  0.373521  0.879439  1
  Pt  Pt23  1  0.879439  0.373521  0.373521  1
  Pt  Pt24  1  0.373521  0.373521  0.373521  1
  Pt  Pt25  1  0.120561  0.626479  0.626479  1
  Pt  Pt26  1  0.626479  0.626479  0.626479  1
  Pt  Pt27  1  0.626479  0.626479  0.120561  1
  Pt  Pt28  1  0.373521  0.879439  0.373521  1
