# generated using pymatgen
data_Y19Ho(Ag3Ru)2
_symmetry_space_group_name_H-M   'P 1'
_cell_length_a   9.53681200
_cell_length_b   9.53681160
_cell_length_c   9.68460700
_cell_angle_alpha   90.00000000
_cell_angle_beta   90.00000000
_cell_angle_gamma   120.00000139
_symmetry_Int_Tables_number   1
_chemical_formula_structural   Y19Ho(Ag3Ru)2
_chemical_formula_sum   'Y19 Ho1 Ag6 Ru2'
_cell_volume   762.81469717
_cell_formula_units_Z   1
loop_
 _symmetry_equiv_pos_site_id
 _symmetry_equiv_pos_as_xyz
  1  'x, y, z'
loop_
 _atom_site_type_symbol
 _atom_site_label
 _atom_site_symmetry_multiplicity
 _atom_site_fract_x
 _atom_site_fract_y
 _atom_site_fract_z
 _atom_site_occupancy
  Y  Y0  1  0.000000  0.000000  0.000000  1
  Y  Y1  1  0.208656  0.791344  0.440936  1
  Y  Y2  1  0.208656  0.417311  0.440936  1
  Y  Y3  1  0.582689  0.791344  0.440936  1
  Y  Y4  1  0.791344  0.208656  0.559064  1
  Y  Y5  1  0.791344  0.582689  0.559064  1
  Y  Y6  1  0.417311  0.208656  0.559064  1
  Y  Y7  1  0.791105  0.208895  0.940893  1
  Y  Y8  1  0.791105  0.582209  0.940893  1
  Y  Y9  1  0.417791  0.208895  0.940893  1
  Y  Y10  1  0.208895  0.791105  0.059107  1
  Y  Y11  1  0.208895  0.417791  0.059107  1
  Y  Y12  1  0.582209  0.791105  0.059107  1
  Y  Y13  1  0.541082  0.458918  0.250002  1
  Y  Y14  1  0.541082  0.082163  0.250002  1
  Y  Y15  1  0.917837  0.458918  0.250002  1
  Y  Y16  1  0.458918  0.541082  0.749998  1
  Y  Y17  1  0.458918  0.917837  0.749998  1
  Y  Y18  1  0.082163  0.541082  0.749998  1
  Ho  Ho19  1  0.000000  0.000000  0.500000  1
  Ag  Ag20  1  0.883914  0.116086  0.250356  1
  Ag  Ag21  1  0.883914  0.767830  0.250356  1
  Ag  Ag22  1  0.232170  0.116086  0.250356  1
  Ag  Ag23  1  0.116086  0.883914  0.749644  1
  Ag  Ag24  1  0.116086  0.232170  0.749644  1
  Ag  Ag25  1  0.767830  0.883914  0.749644  1
  Ru  Ru26  1  0.333333  0.666667  0.250049  1
  Ru  Ru27  1  0.666667  0.333333  0.749951  1
