# generated using pymatgen
data_Ho3ErCd2(Ni7B2)2
_symmetry_space_group_name_H-M   'P 1'
_cell_length_a   4.99719900
_cell_length_b   4.99719851
_cell_length_c   14.19159100
_cell_angle_alpha   90.00000000
_cell_angle_beta   90.00000000
_cell_angle_gamma   119.99999665
_symmetry_Int_Tables_number   1
_chemical_formula_structural   Ho3ErCd2(Ni7B2)2
_chemical_formula_sum   'Ho3 Er1 Cd2 Ni14 B4'
_cell_volume   306.91278390
_cell_formula_units_Z   1
loop_
 _symmetry_equiv_pos_site_id
 _symmetry_equiv_pos_as_xyz
  1  'x, y, z'
loop_
 _atom_site_type_symbol
 _atom_site_label
 _atom_site_symmetry_multiplicity
 _atom_site_fract_x
 _atom_site_fract_y
 _atom_site_fract_z
 _atom_site_occupancy
  Ho  Ho0  1  0.666667  0.333333  0.529349  1
  Ho  Ho1  1  0.333333  0.666667  0.029362  1
  Ho  Ho2  1  0.666667  0.333333  0.756364  1
  Er  Er3  1  0.333333  0.666667  0.256367  1
  Cd  Cd4  1  0.333333  0.666667  0.468013  1
  Cd  Cd5  1  0.666667  0.333333  0.968033  1
  Ni  Ni6  1  0.834454  0.165546  0.351675  1
  Ni  Ni7  1  0.834454  0.668908  0.351675  1
  Ni  Ni8  1  0.000000  0.000000  0.999517  1
  Ni  Ni9  1  0.000000  0.000000  0.499522  1
  Ni  Ni10  1  0.834136  0.668272  0.148219  1
  Ni  Ni11  1  0.165867  0.834133  0.648201  1
  Ni  Ni12  1  0.668266  0.834133  0.648201  1
  Ni  Ni13  1  0.331728  0.165864  0.148219  1
  Ni  Ni14  1  0.834136  0.165864  0.148219  1
  Ni  Ni15  1  0.165542  0.331084  0.851690  1
  Ni  Ni16  1  0.165542  0.834458  0.851690  1
  Ni  Ni17  1  0.165867  0.331734  0.648201  1
  Ni  Ni18  1  0.668916  0.834458  0.851690  1
  Ni  Ni19  1  0.331092  0.165546  0.351675  1
  B  B20  1  0.666667  0.333333  0.249712  1
  B  B21  1  0.333333  0.666667  0.749713  1
  B  B22  1  0.000000  0.000000  0.747348  1
  B  B23  1  0.000000  0.000000  0.247347  1
