# generated using pymatgen
data_Nd8Er2IrPt5
_symmetry_space_group_name_H-M   'P 1'
_cell_length_a   11.31746100
_cell_length_b   11.31746100
_cell_length_c   6.55596600
_cell_angle_alpha   90.00000000
_cell_angle_beta   90.00000000
_cell_angle_gamma   90.00000000
_symmetry_Int_Tables_number   1
_chemical_formula_structural   Nd8Er2IrPt5
_chemical_formula_sum   'Nd16 Er4 Ir2 Pt10'
_cell_volume   839.72040349
_cell_formula_units_Z   2
loop_
 _symmetry_equiv_pos_site_id
 _symmetry_equiv_pos_as_xyz
  1  'x, y, z'
loop_
 _atom_site_type_symbol
 _atom_site_label
 _atom_site_symmetry_multiplicity
 _atom_site_fract_x
 _atom_site_fract_y
 _atom_site_fract_z
 _atom_site_occupancy
  Nd  Nd0  1  0.289709  0.087880  0.378547  1
  Nd  Nd1  1  0.289709  0.912120  0.878547  1
  Nd  Nd2  1  0.710291  0.087880  0.878547  1
  Nd  Nd3  1  0.710291  0.912120  0.378547  1
  Nd  Nd4  1  0.587880  0.789709  0.878547  1
  Nd  Nd5  1  0.587880  0.210291  0.378547  1
  Nd  Nd6  1  0.412120  0.789709  0.378547  1
  Nd  Nd7  1  0.412120  0.210291  0.878547  1
  Nd  Nd8  1  0.208104  0.412795  0.621519  1
  Nd  Nd9  1  0.208104  0.587205  0.121519  1
  Nd  Nd10  1  0.791896  0.412795  0.121519  1
  Nd  Nd11  1  0.791896  0.587205  0.621519  1
  Nd  Nd12  1  0.912795  0.708104  0.121519  1
  Nd  Nd13  1  0.912795  0.291896  0.621519  1
  Nd  Nd14  1  0.087205  0.708104  0.621519  1
  Nd  Nd15  1  0.087205  0.291896  0.121519  1
  Er  Er16  1  0.000000  0.000000  0.500224  1
  Er  Er17  1  0.000000  0.000000  0.000224  1
  Er  Er18  1  0.500000  0.500000  0.000224  1
  Er  Er19  1  0.500000  0.500000  0.500224  1
  Ir  Ir20  1  0.000000  0.500000  0.881924  1
  Ir  Ir21  1  0.000000  0.500000  0.381924  1
  Pt  Pt22  1  0.851931  0.146808  0.249991  1
  Pt  Pt23  1  0.851931  0.853192  0.749991  1
  Pt  Pt24  1  0.148069  0.146808  0.749991  1
  Pt  Pt25  1  0.148069  0.853192  0.249991  1
  Pt  Pt26  1  0.646808  0.351931  0.749991  1
  Pt  Pt27  1  0.646808  0.648069  0.249991  1
  Pt  Pt28  1  0.353192  0.351931  0.249991  1
  Pt  Pt29  1  0.353192  0.648069  0.749991  1
  Pt  Pt30  1  0.500000  0.000000  0.117401  1
  Pt  Pt31  1  0.500000  0.000000  0.617401  1
