# generated using pymatgen
data_Ti4ReTcB4
_symmetry_space_group_name_H-M   'P 1'
_cell_length_a   5.94758400
_cell_length_b   5.94758400
_cell_length_c   3.16991100
_cell_angle_alpha   90.00000000
_cell_angle_beta   90.00000000
_cell_angle_gamma   90.00000000
_symmetry_Int_Tables_number   1
_chemical_formula_structural   Ti4ReTcB4
_chemical_formula_sum   'Ti4 Re1 Tc1 B4'
_cell_volume   112.13165647
_cell_formula_units_Z   1
loop_
 _symmetry_equiv_pos_site_id
 _symmetry_equiv_pos_as_xyz
  1  'x, y, z'
loop_
 _atom_site_type_symbol
 _atom_site_label
 _atom_site_symmetry_multiplicity
 _atom_site_fract_x
 _atom_site_fract_y
 _atom_site_fract_z
 _atom_site_occupancy
  Ti  Ti0  1  0.818461  0.679731  0.500000  1
  Ti  Ti1  1  0.320269  0.818461  0.500000  1
  Ti  Ti2  1  0.181539  0.320269  0.500000  1
  Ti  Ti3  1  0.679731  0.181539  0.500000  1
  Re  Re4  1  0.000000  0.000000  0.000000  1
  Tc  Tc5  1  0.500000  0.500000  0.000000  1
  B  B6  1  0.106813  0.609135  0.000000  1
  B  B7  1  0.609135  0.893187  0.000000  1
  B  B8  1  0.390865  0.106813  0.000000  1
  B  B9  1  0.893187  0.390865  0.000000  1
