# generated using pymatgen
data_Tb6Tm2Ti5Si16Mo7
_symmetry_space_group_name_H-M   'P 1'
_cell_length_a   6.94760534
_cell_length_b   6.93785080
_cell_length_c   12.84922430
_cell_angle_alpha   89.90219629
_cell_angle_beta   90.05697356
_cell_angle_gamma   90.05107510
_symmetry_Int_Tables_number   1
_chemical_formula_structural   Tb6Tm2Ti5Si16Mo7
_chemical_formula_sum   'Tb6 Tm2 Ti5 Si16 Mo7'
_cell_volume   619.34977968
_cell_formula_units_Z   1
loop_
 _symmetry_equiv_pos_site_id
 _symmetry_equiv_pos_as_xyz
  1  'x, y, z'
loop_
 _atom_site_type_symbol
 _atom_site_label
 _atom_site_symmetry_multiplicity
 _atom_site_fract_x
 _atom_site_fract_y
 _atom_site_fract_z
 _atom_site_occupancy
  Tb  Tb0  1  0.502275  0.160275  0.218761  1
  Tb  Tb1  1  0.839749  0.496153  0.281369  1
  Tb  Tb2  1  0.160197  0.502538  0.782368  1
  Tb  Tb3  1  0.659744  0.997105  0.968081  1
  Tb  Tb4  1  0.003255  0.339554  0.532069  1
  Tb  Tb5  1  0.996122  0.661382  0.031052  1
  Tm  Tm6  1  0.341575  0.002079  0.467601  1
  Tm  Tm7  1  0.498472  0.841366  0.718542  1
  Ti  Ti8  1  0.329665  0.330119  0.999114  1
  Ti  Ti9  1  0.169833  0.829283  0.250475  1
  Ti  Ti10  1  0.827788  0.171553  0.749873  1
  Ti  Ti11  1  0.669559  0.668178  0.499501  1
  Ti  Ti12  1  0.993560  0.841361  0.625421  1
  Si  Si13  1  0.203676  0.127207  0.683547  1
  Si  Si14  1  0.372589  0.701785  0.933577  1
  Si  Si15  1  0.628310  0.298579  0.434702  1
  Si  Si16  1  0.699368  0.371808  0.065549  1
  Si  Si17  1  0.301906  0.631287  0.565604  1
  Si  Si18  1  0.799026  0.872253  0.184554  1
  Si  Si19  1  0.128019  0.199451  0.317056  1
  Si  Si20  1  0.871583  0.800121  0.814892  1
  Si  Si21  1  0.288407  0.958964  0.062684  1
  Si  Si22  1  0.540430  0.788661  0.313452  1
  Si  Si23  1  0.458656  0.209958  0.812124  1
  Si  Si24  1  0.787500  0.543261  0.687269  1
  Si  Si25  1  0.211498  0.458512  0.187104  1
  Si  Si26  1  0.708746  0.041481  0.563617  1
  Si  Si27  1  0.958600  0.288591  0.937114  1
  Si  Si28  1  0.044345  0.712015  0.437481  1
  Mo  Mo29  1  0.161009  0.008113  0.874644  1
  Mo  Mo30  1  0.492012  0.659466  0.124516  1
  Mo  Mo31  1  0.506395  0.340507  0.623437  1
  Mo  Mo32  1  0.657365  0.491454  0.876732  1
  Mo  Mo33  1  0.342125  0.505352  0.375264  1
  Mo  Mo34  1  0.839350  0.990906  0.374221  1
  Mo  Mo35  1  0.007290  0.159324  0.126636  1
