# generated using pymatgen
data_Pr19SmSn7Pb9
_symmetry_space_group_name_H-M   'P 1'
_cell_length_a   8.38513700
_cell_length_b   8.57571056
_cell_length_c   16.31271100
_cell_angle_alpha   90.00000000
_cell_angle_beta   90.00000000
_cell_angle_gamma   90.12849237
_symmetry_Int_Tables_number   1
_chemical_formula_structural   Pr19SmSn7Pb9
_chemical_formula_sum   'Pr19 Sm1 Sn7 Pb9'
_cell_volume   1173.01975904
_cell_formula_units_Z   1
loop_
 _symmetry_equiv_pos_site_id
 _symmetry_equiv_pos_as_xyz
  1  'x, y, z'
loop_
 _atom_site_type_symbol
 _atom_site_label
 _atom_site_symmetry_multiplicity
 _atom_site_fract_x
 _atom_site_fract_y
 _atom_site_fract_z
 _atom_site_occupancy
  Pr  Pr0  1  0.365316  0.839531  0.878579  1
  Pr  Pr1  1  0.870023  0.662373  0.622151  1
  Pr  Pr2  1  0.632064  0.162704  0.377790  1
  Pr  Pr3  1  0.131828  0.337995  0.121100  1
  Pr  Pr4  1  0.632064  0.162704  0.122210  1
  Pr  Pr5  1  0.131828  0.337995  0.378900  1
  Pr  Pr6  1  0.365316  0.839531  0.621421  1
  Pr  Pr7  1  0.870023  0.662373  0.877849  1
  Pr  Pr8  1  0.519753  0.317570  0.898148  1
  Pr  Pr9  1  0.020067  0.181901  0.602181  1
  Pr  Pr10  1  0.480353  0.680888  0.398179  1
  Pr  Pr11  1  0.980077  0.819041  0.102397  1
  Pr  Pr12  1  0.480353  0.680888  0.101821  1
  Pr  Pr13  1  0.980077  0.819041  0.397603  1
  Pr  Pr14  1  0.519753  0.317570  0.601852  1
  Pr  Pr15  1  0.020067  0.181901  0.897819  1
  Pr  Pr16  1  0.698123  0.000823  0.750000  1
  Pr  Pr17  1  0.803001  0.498155  0.250000  1
  Pr  Pr18  1  0.303294  0.001378  0.250000  1
  Sm  Sm19  1  0.195754  0.500739  0.750000  1
  Sn  Sn20  1  0.067579  0.880148  0.750000  1
  Sn  Sn21  1  0.432665  0.382045  0.250000  1
  Sn  Sn22  1  0.933728  0.118421  0.250000  1
  Sn  Sn23  1  0.321948  0.147840  0.750000  1
  Sn  Sn24  1  0.827472  0.355310  0.750000  1
  Sn  Sn25  1  0.677773  0.855230  0.250000  1
  Sn  Sn26  1  0.177692  0.643831  0.250000  1
  Pb  Pb27  1  0.290149  0.036036  0.041710  1
  Pb  Pb28  1  0.789450  0.464240  0.458926  1
  Pb  Pb29  1  0.709587  0.963570  0.541654  1
  Pb  Pb30  1  0.210766  0.533168  0.956066  1
  Pb  Pb31  1  0.709587  0.963570  0.958346  1
  Pb  Pb32  1  0.210766  0.533168  0.543934  1
  Pb  Pb33  1  0.290149  0.036036  0.458290  1
  Pb  Pb34  1  0.789450  0.464240  0.041074  1
  Pb  Pb35  1  0.562107  0.618052  0.750000  1
