# generated using pymatgen
data_Y4Er6Tl7InPd4
_symmetry_space_group_name_H-M   'P 1'
_cell_length_a   3.64377000
_cell_length_b   8.20211042
_cell_length_c   18.33980153
_cell_angle_alpha   89.57128856
_cell_angle_beta   90.00000000
_cell_angle_gamma   90.00000000
_symmetry_Int_Tables_number   1
_chemical_formula_structural   Y4Er6Tl7InPd4
_chemical_formula_sum   'Y4 Er6 Tl7 In1 Pd4'
_cell_volume   548.09903984
_cell_formula_units_Z   1
loop_
 _symmetry_equiv_pos_site_id
 _symmetry_equiv_pos_as_xyz
  1  'x, y, z'
loop_
 _atom_site_type_symbol
 _atom_site_label
 _atom_site_symmetry_multiplicity
 _atom_site_fract_x
 _atom_site_fract_y
 _atom_site_fract_z
 _atom_site_occupancy
  Y  Y0  1  0.000000  0.499982  0.500241  1
  Y  Y1  1  0.000000  0.000974  0.998810  1
  Y  Y2  1  0.000000  0.738810  0.283353  1
  Y  Y3  1  0.000000  0.261396  0.717012  1
  Er  Er4  1  0.000000  0.760574  0.782817  1
  Er  Er5  1  0.000000  0.239029  0.217203  1
  Er  Er6  1  0.000000  0.615245  0.086275  1
  Er  Er7  1  0.000000  0.384431  0.913757  1
  Er  Er8  1  0.000000  0.883978  0.586927  1
  Er  Er9  1  0.000000  0.115933  0.413805  1
  Tl  Tl10  1  0.500000  0.707189  0.934146  1
  Tl  Tl11  1  0.500000  0.295378  0.064269  1
  Tl  Tl12  1  0.500000  0.796546  0.436360  1
  Tl  Tl13  1  0.500000  0.203031  0.564303  1
  Tl  Tl14  1  0.500000  0.586299  0.650511  1
  Tl  Tl15  1  0.500000  0.413267  0.350058  1
  Tl  Tl16  1  0.500000  0.914573  0.149672  1
  In  In17  1  0.500000  0.086161  0.848686  1
  Pd  Pd18  1  0.500000  0.521633  0.196188  1
  Pd  Pd19  1  0.500000  0.474842  0.803949  1
  Pd  Pd20  1  0.500000  0.972229  0.698013  1
  Pd  Pd21  1  0.500000  0.028501  0.303643  1
