# generated using pymatgen
data_Tb10Dy9ErPb16
_symmetry_space_group_name_H-M   'P 1'
_cell_length_a   8.21936300
_cell_length_b   8.30303560
_cell_length_c   15.66989207
_cell_angle_alpha   90.01065126
_cell_angle_beta   90.00086355
_cell_angle_gamma   90.02214059
_symmetry_Int_Tables_number   1
_chemical_formula_structural   Tb10Dy9ErPb16
_chemical_formula_sum   'Tb10 Dy9 Er1 Pb16'
_cell_volume   1069.40208434
_cell_formula_units_Z   1
loop_
 _symmetry_equiv_pos_site_id
 _symmetry_equiv_pos_as_xyz
  1  'x, y, z'
loop_
 _atom_site_type_symbol
 _atom_site_label
 _atom_site_symmetry_multiplicity
 _atom_site_fract_x
 _atom_site_fract_y
 _atom_site_fract_z
 _atom_site_occupancy
  Tb  Tb0  1  0.377474  0.840629  0.620376  1
  Tb  Tb1  1  0.877493  0.659384  0.879495  1
  Tb  Tb2  1  0.534627  0.323275  0.899873  1
  Tb  Tb3  1  0.034613  0.176709  0.600026  1
  Tb  Tb4  1  0.465213  0.676830  0.399713  1
  Tb  Tb5  1  0.965460  0.823541  0.100277  1
  Tb  Tb6  1  0.465204  0.676812  0.100171  1
  Tb  Tb7  1  0.965442  0.823561  0.399830  1
  Tb  Tb8  1  0.534701  0.323398  0.600167  1
  Tb  Tb9  1  0.034674  0.176598  0.899939  1
  Dy  Dy10  1  0.377314  0.840703  0.879537  1
  Dy  Dy11  1  0.877334  0.659306  0.620590  1
  Dy  Dy12  1  0.622402  0.159052  0.379313  1
  Dy  Dy13  1  0.122794  0.340724  0.120665  1
  Dy  Dy14  1  0.622396  0.159148  0.120771  1
  Dy  Dy15  1  0.122775  0.340627  0.379246  1
  Dy  Dy16  1  0.209066  0.503897  0.750015  1
  Dy  Dy17  1  0.709046  0.996170  0.749987  1
  Dy  Dy18  1  0.791003  0.495961  0.250018  1
  Er  Er19  1  0.291032  0.004255  0.249990  1
  Pb  Pb20  1  0.281168  0.033154  0.043176  1
  Pb  Pb21  1  0.781098  0.466645  0.457184  1
  Pb  Pb22  1  0.719296  0.966717  0.542534  1
  Pb  Pb23  1  0.219241  0.533205  0.957448  1
  Pb  Pb24  1  0.718609  0.967020  0.957452  1
  Pb  Pb25  1  0.218575  0.532876  0.542562  1
  Pb  Pb26  1  0.281053  0.033392  0.456595  1
  Pb  Pb27  1  0.780980  0.466377  0.043060  1
  Pb  Pb28  1  0.573006  0.626272  0.750012  1
  Pb  Pb29  1  0.072999  0.873774  0.749987  1
  Pb  Pb30  1  0.426844  0.373117  0.250001  1
  Pb  Pb31  1  0.927690  0.126015  0.249998  1
  Pb  Pb32  1  0.346035  0.152134  0.750082  1
  Pb  Pb33  1  0.846107  0.347610  0.749922  1
  Pb  Pb34  1  0.653398  0.848019  0.249994  1
  Pb  Pb35  1  0.153840  0.653094  0.249996  1
