# generated using pymatgen
data_HoB9N
_symmetry_space_group_name_H-M   'P 1'
_cell_length_a   5.50718891
_cell_length_b   5.50718966
_cell_length_c   7.58702324
_cell_angle_alpha   111.28054116
_cell_angle_beta   68.71945042
_cell_angle_gamma   119.99999280
_symmetry_Int_Tables_number   1
_chemical_formula_structural   HoB9N
_chemical_formula_sum   'Ho2 B18 N2'
_cell_volume   180.93535969
_cell_formula_units_Z   2
loop_
 _symmetry_equiv_pos_site_id
 _symmetry_equiv_pos_as_xyz
  1  'x, y, z'
loop_
 _atom_site_type_symbol
 _atom_site_label
 _atom_site_symmetry_multiplicity
 _atom_site_fract_x
 _atom_site_fract_y
 _atom_site_fract_z
 _atom_site_occupancy
  Ho  Ho0  1  0.298269  0.701730  0.105192  1
  Ho  Ho1  1  0.701729  0.298270  0.894808  1
  B  B2  1  0.180418  0.143021  0.105623  1
  B  B3  1  0.856980  0.143020  0.105623  1
  B  B4  1  0.856980  0.819583  0.105623  1
  B  B5  1  0.352075  0.323663  0.295250  1
  B  B6  1  0.676338  0.323662  0.295250  1
  B  B7  1  0.676338  0.647926  0.295250  1
  B  B8  1  0.337248  0.133921  0.459427  1
  B  B9  1  0.337248  0.662752  0.459427  1
  B  B10  1  0.866078  0.662752  0.459427  1
  B  B11  1  0.133921  0.337248  0.540574  1
  B  B12  1  0.662752  0.337248  0.540574  1
  B  B13  1  0.662752  0.866079  0.540574  1
  B  B14  1  0.323663  0.352075  0.704750  1
  B  B15  1  0.323663  0.676338  0.704750  1
  B  B16  1  0.647924  0.676337  0.704750  1
  B  B17  1  0.143021  0.180418  0.894377  1
  B  B18  1  0.143021  0.856980  0.894377  1
  B  B19  1  0.819583  0.856980  0.894377  1
  N  N20  1  0.189130  0.810869  0.432609  1
  N  N21  1  0.810869  0.189130  0.567391  1
