# generated using pymatgen
data_Ce4Co3Si4Pd
_symmetry_space_group_name_H-M   'P 1'
_cell_length_a   5.62472428
_cell_length_b   7.58527743
_cell_length_c   10.40652800
_cell_angle_alpha   87.86559801
_cell_angle_beta   89.88526014
_cell_angle_gamma   89.83503251
_symmetry_Int_Tables_number   1
_chemical_formula_structural   Ce4Co3Si4Pd
_chemical_formula_sum   'Ce8 Co6 Si8 Pd2'
_cell_volume   443.68482061
_cell_formula_units_Z   2
loop_
 _symmetry_equiv_pos_site_id
 _symmetry_equiv_pos_as_xyz
  1  'x, y, z'
loop_
 _atom_site_type_symbol
 _atom_site_label
 _atom_site_symmetry_multiplicity
 _atom_site_fract_x
 _atom_site_fract_y
 _atom_site_fract_z
 _atom_site_occupancy
  Ce  Ce0  1  0.340838  0.975997  0.127049  1
  Ce  Ce1  1  0.659162  0.024003  0.872951  1
  Ce  Ce2  1  0.839159  0.542004  0.866922  1
  Ce  Ce3  1  0.160841  0.457996  0.133078  1
  Ce  Ce4  1  0.877076  0.837526  0.362692  1
  Ce  Ce5  1  0.122924  0.162474  0.637308  1
  Ce  Ce6  1  0.357000  0.679927  0.636649  1
  Ce  Ce7  1  0.643000  0.320073  0.363351  1
  Co  Co8  1  0.914658  0.849141  0.053451  1
  Co  Co9  1  0.085342  0.150859  0.946549  1
  Co  Co10  1  0.396467  0.648845  0.952591  1
  Co  Co11  1  0.603533  0.351155  0.047409  1
  Co  Co12  1  0.901021  0.815592  0.678390  1
  Co  Co13  1  0.098979  0.184408  0.321610  1
  Si  Si14  1  0.856774  0.548991  0.573513  1
  Si  Si15  1  0.143226  0.451009  0.426487  1
  Si  Si16  1  0.361855  0.979667  0.416607  1
  Si  Si17  1  0.638145  0.020333  0.583393  1
  Si  Si18  1  0.655029  0.633699  0.132767  1
  Si  Si19  1  0.344971  0.366301  0.867233  1
  Si  Si20  1  0.148770  0.868616  0.861969  1
  Si  Si21  1  0.851230  0.131384  0.138031  1
  Pd  Pd22  1  0.400510  0.680531  0.330521  1
  Pd  Pd23  1  0.599490  0.319469  0.669479  1
