# generated using pymatgen
data_La2Pr4Zn4Pt13
_symmetry_space_group_name_H-M   'P 1'
_cell_length_a   8.45109843
_cell_length_b   8.45109923
_cell_length_c   8.45049686
_cell_angle_alpha   109.52458142
_cell_angle_beta   109.52458619
_cell_angle_gamma   109.36744381
_symmetry_Int_Tables_number   1
_chemical_formula_structural   La2Pr4Zn4Pt13
_chemical_formula_sum   'La2 Pr4 Zn4 Pt13'
_cell_volume   464.59024749
_cell_formula_units_Z   1
loop_
 _symmetry_equiv_pos_site_id
 _symmetry_equiv_pos_as_xyz
  1  'x, y, z'
loop_
 _atom_site_type_symbol
 _atom_site_label
 _atom_site_symmetry_multiplicity
 _atom_site_fract_x
 _atom_site_fract_y
 _atom_site_fract_z
 _atom_site_occupancy
  La  La0  1  0.697992  0.000092  0.698084  1
  La  La1  1  0.000092  0.697992  0.698084  1
  Pr  Pr2  1  0.697907  0.697907  0.000264  1
  Pr  Pr3  1  0.301811  0.000136  0.301947  1
  Pr  Pr4  1  0.000136  0.301811  0.301947  1
  Pr  Pr5  1  0.302358  0.302358  0.000264  1
  Zn  Zn6  1  0.000111  0.000111  0.499583  1
  Zn  Zn7  1  0.000104  0.500104  0.000209  1
  Zn  Zn8  1  0.500104  0.000104  0.000209  1
  Zn  Zn9  1  0.499472  0.499472  0.499583  1
  Pt  Pt10  1  0.328921  0.328921  0.657843  1
  Pt  Pt11  1  0.671344  0.000136  0.328726  1
  Pt  Pt12  1  0.000136  0.671344  0.328726  1
  Pt  Pt13  1  0.671124  0.328986  0.000109  1
  Pt  Pt14  1  0.328589  0.657383  0.328726  1
  Pt  Pt15  1  0.999985  0.328697  0.671198  1
  Pt  Pt16  1  0.328986  0.671124  0.000109  1
  Pt  Pt17  1  0.328697  0.999985  0.671198  1
  Pt  Pt18  1  0.657383  0.328589  0.328726  1
  Pt  Pt19  1  0.670983  0.670983  0.341965  1
  Pt  Pt20  1  0.671212  0.342500  0.671198  1
  Pt  Pt21  1  0.342500  0.671212  0.671198  1
  Pt  Pt22  1  0.000052  0.000052  0.000105  1
