# generated using pymatgen
data_Dy4Y2Al24Os5Pt3
_symmetry_space_group_name_H-M   'P 1'
_cell_length_a   8.82128824
_cell_length_b   8.84368467
_cell_length_c   9.56799651
_cell_angle_alpha   90.12272627
_cell_angle_beta   89.74596748
_cell_angle_gamma   119.49561864
_symmetry_Int_Tables_number   1
_chemical_formula_structural   Dy4Y2Al24Os5Pt3
_chemical_formula_sum   'Dy4 Y2 Al24 Os5 Pt3'
_cell_volume   649.67710886
_cell_formula_units_Z   1
loop_
 _symmetry_equiv_pos_site_id
 _symmetry_equiv_pos_as_xyz
  1  'x, y, z'
loop_
 _atom_site_type_symbol
 _atom_site_label
 _atom_site_symmetry_multiplicity
 _atom_site_fract_x
 _atom_site_fract_y
 _atom_site_fract_z
 _atom_site_occupancy
  Dy  Dy0  1  0.613749  0.813874  0.252212  1
  Dy  Dy1  1  0.386251  0.186126  0.747788  1
  Dy  Dy2  1  0.195062  0.809098  0.251482  1
  Dy  Dy3  1  0.804938  0.190902  0.748518  1
  Y  Y4  1  0.188083  0.383420  0.250757  1
  Y  Y5  1  0.811917  0.616580  0.749243  1
  Al  Al6  1  0.335319  0.671355  0.028684  1
  Al  Al7  1  0.664681  0.328645  0.971316  1
  Al  Al8  1  0.669148  0.331207  0.527088  1
  Al  Al9  1  0.330852  0.668793  0.472912  1
  Al  Al10  1  0.158103  0.325600  0.575092  1
  Al  Al11  1  0.841897  0.674400  0.424908  1
  Al  Al12  1  0.673391  0.840847  0.575483  1
  Al  Al13  1  0.836953  0.676130  0.078070  1
  Al  Al14  1  0.326609  0.159153  0.424517  1
  Al  Al15  1  0.163047  0.323870  0.921930  1
  Al  Al16  1  0.163853  0.835158  0.575935  1
  Al  Al17  1  0.325657  0.158639  0.076205  1
  Al  Al18  1  0.836147  0.164842  0.424065  1
  Al  Al19  1  0.674343  0.841361  0.923795  1
  Al  Al20  1  0.831776  0.159150  0.077452  1
  Al  Al21  1  0.168224  0.840850  0.922548  1
  Al  Al22  1  0.560715  0.124671  0.249833  1
  Al  Al23  1  0.439285  0.875329  0.750167  1
  Al  Al24  1  0.874090  0.437863  0.252708  1
  Al  Al25  1  0.125910  0.562137  0.747292  1
  Al  Al26  1  0.562773  0.436634  0.249796  1
  Al  Al27  1  0.437227  0.563366  0.750204  1
  Al  Al28  1  0.998618  0.002230  0.250208  1
  Al  Al29  1  0.001382  0.997770  0.749792  1
  Os  Os30  1  0.500000  0.000000  0.000000  1
  Os  Os31  1  0.500000  0.000000  0.500000  1
  Os  Os32  1  0.000000  0.500000  0.500000  1
  Os  Os33  1  0.000000  0.000000  0.000000  1
  Os  Os34  1  0.000000  0.000000  0.500000  1
  Pt  Pt35  1  0.000000  0.500000  0.000000  1
  Pt  Pt36  1  0.500000  0.500000  0.000000  1
  Pt  Pt37  1  0.500000  0.500000  0.500000  1
