# generated using pymatgen
data_CaTmSi7Rh12
_symmetry_space_group_name_H-M   'P 1'
_cell_length_a   9.77043800
_cell_length_b   9.77043892
_cell_length_c   3.84262100
_cell_angle_alpha   90.00000000
_cell_angle_beta   90.00000000
_cell_angle_gamma   120.00000365
_symmetry_Int_Tables_number   1
_chemical_formula_structural   CaTmSi7Rh12
_chemical_formula_sum   'Ca1 Tm1 Si7 Rh12'
_cell_volume   317.67736726
_cell_formula_units_Z   1
loop_
 _symmetry_equiv_pos_site_id
 _symmetry_equiv_pos_as_xyz
  1  'x, y, z'
loop_
 _atom_site_type_symbol
 _atom_site_label
 _atom_site_symmetry_multiplicity
 _atom_site_fract_x
 _atom_site_fract_y
 _atom_site_fract_z
 _atom_site_occupancy
  Ca  Ca0  1  0.333333  0.666667  0.251683  1
  Tm  Tm1  1  0.000000  0.000000  0.750223  1
  Si  Si2  1  0.666667  0.333333  0.526197  1
  Si  Si3  1  0.066507  0.622397  0.751029  1
  Si  Si4  1  0.377603  0.444109  0.751029  1
  Si  Si5  1  0.555891  0.933493  0.751029  1
  Si  Si6  1  0.266054  0.041935  0.250062  1
  Si  Si7  1  0.958065  0.224120  0.250062  1
  Si  Si8  1  0.775880  0.733946  0.250062  1
  Rh  Rh9  1  0.810975  0.596576  0.745380  1
  Rh  Rh10  1  0.403424  0.214398  0.745380  1
  Rh  Rh11  1  0.785602  0.189025  0.745380  1
  Rh  Rh12  1  0.525620  0.074435  0.256443  1
  Rh  Rh13  1  0.925565  0.451185  0.256443  1
  Rh  Rh14  1  0.548815  0.474380  0.256443  1
  Rh  Rh15  1  0.109693  0.394133  0.752300  1
  Rh  Rh16  1  0.605867  0.715560  0.752300  1
  Rh  Rh17  1  0.284440  0.890307  0.752300  1
  Rh  Rh18  1  0.222010  0.267629  0.248731  1
  Rh  Rh19  1  0.732371  0.954381  0.248731  1
  Rh  Rh20  1  0.045619  0.777990  0.248731  1
