# generated using pymatgen
data_PrNd3Ga9SiPt6
_symmetry_space_group_name_H-M   'P 1'
_cell_length_a   8.54843548
_cell_length_b   8.60728755
_cell_length_c   8.60728616
_cell_angle_alpha   138.06600076
_cell_angle_beta   106.33710306
_cell_angle_gamma   88.65683913
_symmetry_Int_Tables_number   1
_chemical_formula_structural   PrNd3Ga9SiPt6
_chemical_formula_sum   'Pr1 Nd3 Ga9 Si1 Pt6'
_cell_volume   388.71655609
_cell_formula_units_Z   1
loop_
 _symmetry_equiv_pos_site_id
 _symmetry_equiv_pos_as_xyz
  1  'x, y, z'
loop_
 _atom_site_type_symbol
 _atom_site_label
 _atom_site_symmetry_multiplicity
 _atom_site_fract_x
 _atom_site_fract_y
 _atom_site_fract_z
 _atom_site_occupancy
  Pr  Pr0  1  0.600737  0.868581  0.732156  1
  Nd  Nd1  1  0.864014  0.630657  0.233357  1
  Nd  Nd2  1  0.134987  0.370485  0.764502  1
  Nd  Nd3  1  0.392027  0.129578  0.262449  1
  Ga  Ga4  1  0.503342  0.750306  0.248763  1
  Ga  Ga5  1  0.503342  0.254579  0.753036  1
  Ga  Ga6  1  0.228733  0.968760  0.743580  1
  Ga  Ga7  1  0.769141  0.522782  0.751317  1
  Ga  Ga8  1  0.769141  0.017824  0.246359  1
  Ga  Ga9  1  0.228733  0.485153  0.259973  1
  Ga  Ga10  1  0.042269  0.892706  0.149563  1
  Ga  Ga11  1  0.956838  0.104337  0.852501  1
  Ga  Ga12  1  0.742281  0.392616  0.349665  1
  Si  Si13  1  0.254284  0.605158  0.649126  1
  Pt  Pt14  1  0.009669  0.746935  0.750613  1
  Pt  Pt15  1  0.009669  0.259057  0.262734  1
  Pt  Pt16  1  0.251352  0.864757  0.386596  1
  Pt  Pt17  1  0.756483  0.139445  0.617037  1
  Pt  Pt18  1  0.472152  0.360570  0.111582  1
  Pt  Pt19  1  0.510805  0.635716  0.875089  1
