# generated using pymatgen
data_DyGa2CuNi2
_symmetry_space_group_name_H-M   'P 1'
_cell_length_a   4.08522800
_cell_length_b   8.81947054
_cell_length_c   8.81946961
_cell_angle_alpha   59.95737633
_cell_angle_beta   90.00000000
_cell_angle_gamma   90.00000000
_symmetry_Int_Tables_number   1
_chemical_formula_structural   DyGa2CuNi2
_chemical_formula_sum   'Dy3 Ga6 Cu3 Ni6'
_cell_volume   275.07126315
_cell_formula_units_Z   3
loop_
 _symmetry_equiv_pos_site_id
 _symmetry_equiv_pos_as_xyz
  1  'x, y, z'
loop_
 _atom_site_type_symbol
 _atom_site_label
 _atom_site_symmetry_multiplicity
 _atom_site_fract_x
 _atom_site_fract_y
 _atom_site_fract_z
 _atom_site_occupancy
  Dy  Dy0  1  0.500000  0.333311  0.333371  1
  Dy  Dy1  1  0.500000  0.666629  0.666689  1
  Dy  Dy2  1  0.000000  0.000025  0.999975  1
  Ga  Ga3  1  0.000000  0.515009  0.484991  1
  Ga  Ga4  1  0.000000  0.484928  0.999976  1
  Ga  Ga5  1  0.000000  0.000024  0.515072  1
  Ga  Ga6  1  0.500000  0.279531  0.720469  1
  Ga  Ga7  1  0.500000  0.720402  0.000023  1
  Ga  Ga8  1  0.500000  0.999977  0.279598  1
  Cu  Cu9  1  0.500000  0.705060  0.294940  1
  Cu  Cu10  1  0.500000  0.294645  0.000044  1
  Cu  Cu11  1  0.500000  0.999956  0.705355  1
  Ni  Ni12  1  0.000000  0.175079  0.196025  1
  Ni  Ni13  1  0.000000  0.196163  0.628555  1
  Ni  Ni14  1  0.000000  0.628800  0.175059  1
  Ni  Ni15  1  0.000000  0.803975  0.824921  1
  Ni  Ni16  1  0.000000  0.371445  0.803837  1
  Ni  Ni17  1  0.000000  0.824941  0.371200  1
