# generated using pymatgen
data_La3Pr3OsBr10
_symmetry_space_group_name_H-M   'P 1'
_cell_length_a   7.81748240
_cell_length_b   9.50171913
_cell_length_c   9.83787804
_cell_angle_alpha   108.53818689
_cell_angle_beta   97.44847647
_cell_angle_gamma   105.37471697
_symmetry_Int_Tables_number   1
_chemical_formula_structural   La3Pr3OsBr10
_chemical_formula_sum   'La3 Pr3 Os1 Br10'
_cell_volume   649.49169398
_cell_formula_units_Z   1
loop_
 _symmetry_equiv_pos_site_id
 _symmetry_equiv_pos_as_xyz
  1  'x, y, z'
loop_
 _atom_site_type_symbol
 _atom_site_label
 _atom_site_symmetry_multiplicity
 _atom_site_fract_x
 _atom_site_fract_y
 _atom_site_fract_z
 _atom_site_occupancy
  La  La0  1  0.533672  0.215160  0.414507  1
  La  La1  1  0.466691  0.785058  0.586246  1
  La  La2  1  0.126883  0.355093  0.309856  1
  Pr  Pr3  1  0.869979  0.643032  0.687780  1
  Pr  Pr4  1  0.630512  0.552030  0.249258  1
  Pr  Pr5  1  0.371017  0.449424  0.751565  1
  Os  Os6  1  0.499571  0.499767  0.499586  1
  Br  Br7  1  0.151820  0.040888  0.227767  1
  Br  Br8  1  0.850103  0.956511  0.772199  1
  Br  Br9  1  0.254073  0.417222  0.048629  1
  Br  Br10  1  0.749177  0.584004  0.950409  1
  Br  Br11  1  0.702653  0.245896  0.153687  1
  Br  Br12  1  0.294370  0.753383  0.845297  1
  Br  Br13  1  0.045218  0.675572  0.420645  1
  Br  Br14  1  0.954363  0.326672  0.582329  1
  Br  Br15  1  0.413622  0.132192  0.672721  1
  Br  Br16  1  0.586275  0.868097  0.327518  1
