# generated using pymatgen
data_HoLu3Pd3PtO14
_symmetry_space_group_name_H-M   'P 1'
_cell_length_a   7.18321988
_cell_length_b   7.18322016
_cell_length_c   7.17600960
_cell_angle_alpha   59.96676708
_cell_angle_beta   59.96676486
_cell_angle_gamma   60.00000171
_symmetry_Int_Tables_number   1
_chemical_formula_structural   HoLu3Pd3PtO14
_chemical_formula_sum   'Ho1 Lu3 Pd3 Pt1 O14'
_cell_volume   261.69053444
_cell_formula_units_Z   1
loop_
 _symmetry_equiv_pos_site_id
 _symmetry_equiv_pos_as_xyz
  1  'x, y, z'
loop_
 _atom_site_type_symbol
 _atom_site_label
 _atom_site_symmetry_multiplicity
 _atom_site_fract_x
 _atom_site_fract_y
 _atom_site_fract_z
 _atom_site_occupancy
  Ho  Ho0  1  0.625000  0.625000  0.125000  1
  Lu  Lu1  1  0.625000  0.625000  0.625000  1
  Lu  Lu2  1  0.625000  0.125000  0.625000  1
  Lu  Lu3  1  0.125000  0.625000  0.625000  1
  Pd  Pd4  1  0.125000  0.125000  0.125000  1
  Pd  Pd5  1  0.625000  0.125000  0.125000  1
  Pd  Pd6  1  0.125000  0.625000  0.125000  1
  Pt  Pt7  1  0.125000  0.125000  0.625000  1
  O  O8  1  0.030898  0.468066  0.470137  1
  O  O9  1  0.781978  0.781978  0.220034  1
  O  O10  1  0.781978  0.216011  0.220034  1
  O  O11  1  0.468066  0.030898  0.470137  1
  O  O12  1  0.751859  0.751859  0.744424  1
  O  O13  1  0.033989  0.468022  0.029966  1
  O  O14  1  0.030898  0.030898  0.470137  1
  O  O15  1  0.216011  0.781978  0.220034  1
  O  O16  1  0.219102  0.219102  0.779863  1
  O  O17  1  0.781934  0.219102  0.779863  1
  O  O18  1  0.498141  0.498141  0.505576  1
  O  O19  1  0.468022  0.033989  0.029966  1
  O  O20  1  0.468022  0.468022  0.029966  1
  O  O21  1  0.219102  0.781934  0.779863  1
