# generated using pymatgen
data_Dy2PuU3(Ni3Sb4)2
_symmetry_space_group_name_H-M   'P 1'
_cell_length_a   8.12483757
_cell_length_b   8.13716105
_cell_length_c   8.14279559
_cell_angle_alpha   109.79167900
_cell_angle_beta   109.31946409
_cell_angle_gamma   109.32463283
_symmetry_Int_Tables_number   1
_chemical_formula_structural   Dy2PuU3(Ni3Sb4)2
_chemical_formula_sum   'Dy2 Pu1 U3 Ni6 Sb8'
_cell_volume   414.29849339
_cell_formula_units_Z   1
loop_
 _symmetry_equiv_pos_site_id
 _symmetry_equiv_pos_as_xyz
  1  'x, y, z'
loop_
 _atom_site_type_symbol
 _atom_site_label
 _atom_site_symmetry_multiplicity
 _atom_site_fract_x
 _atom_site_fract_y
 _atom_site_fract_z
 _atom_site_occupancy
  Dy  Dy0  1  0.874449  0.249398  0.125088  1
  Dy  Dy1  1  0.625582  0.750672  0.374954  1
  Pu  Pu2  1  0.249919  0.127184  0.877267  1
  U  U3  1  0.749974  0.371894  0.621911  1
  U  U4  1  0.122631  0.873812  0.249772  1
  U  U5  1  0.377406  0.627150  0.751265  1
  Ni  Ni6  1  0.381086  0.253445  0.619328  1
  Ni  Ni7  1  0.118777  0.737968  0.872274  1
  Ni  Ni8  1  0.249954  0.628266  0.378096  1
  Ni  Ni9  1  0.750131  0.870536  0.120543  1
  Ni  Ni10  1  0.631812  0.376738  0.265796  1
  Ni  Ni11  1  0.868082  0.133999  0.744874  1
  Sb  Sb12  1  0.661962  0.498499  0.001349  1
  Sb  Sb13  1  0.498755  0.998491  0.662108  1
  Sb  Sb14  1  0.001268  0.663334  0.499673  1
  Sb  Sb15  1  0.838072  0.839386  0.836496  1
  Sb  Sb16  1  0.499884  0.999082  0.161296  1
  Sb  Sb17  1  0.163908  0.499951  0.002507  1
  Sb  Sb18  1  0.000202  0.161486  0.499254  1
  Sb  Sb19  1  0.336146  0.338706  0.336150  1
