# generated using pymatgen
data_ErUGa5Fe6
_symmetry_space_group_name_H-M   'P 1'
_cell_length_a   5.01694017
_cell_length_b   6.65378900
_cell_length_c   6.65378900
_cell_angle_alpha   85.62860981
_cell_angle_beta   67.85210318
_cell_angle_gamma   67.85209653
_symmetry_Int_Tables_number   1
_chemical_formula_structural   ErUGa5Fe6
_chemical_formula_sum   'Er1 U1 Ga5 Fe6'
_cell_volume   189.98267307
_cell_formula_units_Z   1
loop_
 _symmetry_equiv_pos_site_id
 _symmetry_equiv_pos_as_xyz
  1  'x, y, z'
loop_
 _atom_site_type_symbol
 _atom_site_label
 _atom_site_symmetry_multiplicity
 _atom_site_fract_x
 _atom_site_fract_y
 _atom_site_fract_z
 _atom_site_occupancy
  Er  Er0  1  0.000000  0.991716  0.008284  1
  U  U1  1  0.000000  0.356900  0.643100  1
  Ga  Ga2  1  0.000000  0.675541  0.324459  1
  Ga  Ga3  1  0.500000  0.162340  0.837660  1
  Ga  Ga4  1  0.500000  0.823707  0.176293  1
  Ga  Ga5  1  0.343029  0.659384  0.654557  1
  Ga  Ga6  1  0.656971  0.345443  0.340616  1
  Fe  Fe7  1  0.247305  0.251726  0.253665  1
  Fe  Fe8  1  0.752695  0.746335  0.748274  1
  Fe  Fe9  1  0.491906  0.001402  0.507947  1
  Fe  Fe10  1  0.508094  0.492053  0.998598  1
  Fe  Fe11  1  0.001256  0.492053  0.998598  1
  Fe  Fe12  1  0.998744  0.001402  0.507947  1
