# generated using pymatgen
data_ThFe7Tc5
_symmetry_space_group_name_H-M   'P 1'
_cell_length_a   4.74242979
_cell_length_b   6.61236499
_cell_length_c   6.61236520
_cell_angle_alpha   83.92830726
_cell_angle_beta   68.98556584
_cell_angle_gamma   68.98555817
_symmetry_Int_Tables_number   1
_chemical_formula_structural   ThFe7Tc5
_chemical_formula_sum   'Th1 Fe7 Tc5'
_cell_volume   180.62795737
_cell_formula_units_Z   1
loop_
 _symmetry_equiv_pos_site_id
 _symmetry_equiv_pos_as_xyz
  1  'x, y, z'
loop_
 _atom_site_type_symbol
 _atom_site_label
 _atom_site_symmetry_multiplicity
 _atom_site_fract_x
 _atom_site_fract_y
 _atom_site_fract_z
 _atom_site_occupancy
  Th  Th0  1  0.992568  0.007432  0.007432  1
  Fe  Fe1  1  0.284398  0.215602  0.215602  1
  Fe  Fe2  1  0.501835  0.228007  0.768323  1
  Fe  Fe3  1  0.501835  0.768323  0.228007  1
  Fe  Fe4  1  0.003712  0.000476  0.494523  1
  Fe  Fe5  1  0.501289  0.000476  0.494523  1
  Fe  Fe6  1  0.501289  0.494523  0.000476  1
  Fe  Fe7  1  0.003712  0.494523  0.000476  1
  Tc  Tc8  1  0.004987  0.356292  0.633735  1
  Tc  Tc9  1  0.004987  0.633735  0.356292  1
  Tc  Tc10  1  0.639249  0.360751  0.360751  1
  Tc  Tc11  1  0.353618  0.646382  0.646382  1
  Tc  Tc12  1  0.706520  0.793480  0.793480  1
