# generated using pymatgen
data_Er3Tm7(Sn3P)2
_symmetry_space_group_name_H-M   'P 1'
_cell_length_a   8.95743000
_cell_length_b   8.95743042
_cell_length_c   6.60037700
_cell_angle_alpha   90.00000000
_cell_angle_beta   90.00000000
_cell_angle_gamma   119.99999105
_symmetry_Int_Tables_number   1
_chemical_formula_structural   Er3Tm7(Sn3P)2
_chemical_formula_sum   'Er3 Tm7 Sn6 P2'
_cell_volume   458.63403421
_cell_formula_units_Z   1
loop_
 _symmetry_equiv_pos_site_id
 _symmetry_equiv_pos_as_xyz
  1  'x, y, z'
loop_
 _atom_site_type_symbol
 _atom_site_label
 _atom_site_symmetry_multiplicity
 _atom_site_fract_x
 _atom_site_fract_y
 _atom_site_fract_z
 _atom_site_occupancy
  Er  Er0  1  0.758002  0.758002  0.750000  1
  Er  Er1  1  0.241998  0.000000  0.750000  1
  Er  Er2  1  0.000000  0.241998  0.750000  1
  Tm  Tm3  1  0.666667  0.333333  0.000046  1
  Tm  Tm4  1  0.333333  0.666667  0.000046  1
  Tm  Tm5  1  0.333333  0.666667  0.499954  1
  Tm  Tm6  1  0.666667  0.333333  0.499954  1
  Tm  Tm7  1  0.241641  0.241641  0.250000  1
  Tm  Tm8  1  0.758359  0.000000  0.250000  1
  Tm  Tm9  1  0.000000  0.758359  0.250000  1
  Sn  Sn10  1  0.398898  0.398898  0.750000  1
  Sn  Sn11  1  0.601102  0.000000  0.750000  1
  Sn  Sn12  1  0.000000  0.601102  0.750000  1
  Sn  Sn13  1  0.601316  0.601316  0.250000  1
  Sn  Sn14  1  0.398684  0.000000  0.250000  1
  Sn  Sn15  1  0.000000  0.398684  0.250000  1
  P  P16  1  0.000000  0.000000  0.000763  1
  P  P17  1  0.000000  0.000000  0.499237  1
