# generated using pymatgen
data_ZrNb2Mo3AsP2
_symmetry_space_group_name_H-M   'P 1'
_cell_length_a   6.98475574
_cell_length_b   6.93482507
_cell_length_c   3.39828500
_cell_angle_alpha   90.00000000
_cell_angle_beta   90.00000000
_cell_angle_gamma   120.17897186
_symmetry_Int_Tables_number   1
_chemical_formula_structural   ZrNb2Mo3AsP2
_chemical_formula_sum   'Zr1 Nb2 Mo3 As1 P2'
_cell_volume   142.29548233
_cell_formula_units_Z   1
loop_
 _symmetry_equiv_pos_site_id
 _symmetry_equiv_pos_as_xyz
  1  'x, y, z'
loop_
 _atom_site_type_symbol
 _atom_site_label
 _atom_site_symmetry_multiplicity
 _atom_site_fract_x
 _atom_site_fract_y
 _atom_site_fract_z
 _atom_site_occupancy
  Zr  Zr0  1  0.016128  0.605549  0.500000  1
  Nb  Nb1  1  0.389858  0.411051  0.500000  1
  Nb  Nb2  1  0.592132  0.979380  0.500000  1
  Mo  Mo3  1  0.002899  0.250830  0.000000  1
  Mo  Mo4  1  0.252942  0.001457  0.000000  1
  Mo  Mo5  1  0.743635  0.751573  0.000000  1
  As  As6  1  0.661866  0.330192  0.000000  1
  P  P7  1  0.339077  0.669393  0.000000  1
  P  P8  1  0.001464  0.000575  0.500000  1
