# generated using pymatgen
data_Y5SiTe4
_symmetry_space_group_name_H-M   'P 1'
_cell_length_a   7.63459957
_cell_length_b   7.63459876
_cell_length_c   10.74994100
_cell_angle_alpha   61.49348989
_cell_angle_beta   61.49349319
_cell_angle_gamma   33.02267440
_symmetry_Int_Tables_number   1
_chemical_formula_structural   Y5SiTe4
_chemical_formula_sum   'Y5 Si1 Te4'
_cell_volume   296.15652058
_cell_formula_units_Z   1
loop_
 _symmetry_equiv_pos_site_id
 _symmetry_equiv_pos_as_xyz
  1  'x, y, z'
loop_
 _atom_site_type_symbol
 _atom_site_label
 _atom_site_symmetry_multiplicity
 _atom_site_fract_x
 _atom_site_fract_y
 _atom_site_fract_z
 _atom_site_occupancy
  Y  Y0  1  0.000000  0.000000  0.500000  1
  Y  Y1  1  0.582683  0.582683  0.087821  1
  Y  Y2  1  0.182420  0.182420  0.731814  1
  Y  Y3  1  0.817580  0.817580  0.268186  1
  Y  Y4  1  0.417317  0.417317  0.912179  1
  Si  Si5  1  0.000000  0.000000  0.000000  1
  Te  Te6  1  0.608731  0.608731  0.589511  1
  Te  Te7  1  0.195036  0.195036  0.194619  1
  Te  Te8  1  0.804964  0.804964  0.805381  1
  Te  Te9  1  0.391269  0.391269  0.410489  1
