# generated using pymatgen
data_YLu3Ga4NiRu3
_symmetry_space_group_name_H-M   'P 1'
_cell_length_a   4.42804800
_cell_length_b   6.99044462
_cell_length_c   7.12626581
_cell_angle_alpha   89.13567238
_cell_angle_beta   90.00000000
_cell_angle_gamma   90.00000000
_symmetry_Int_Tables_number   1
_chemical_formula_structural   YLu3Ga4NiRu3
_chemical_formula_sum   'Y1 Lu3 Ga4 Ni1 Ru3'
_cell_volume   220.56150643
_cell_formula_units_Z   1
loop_
 _symmetry_equiv_pos_site_id
 _symmetry_equiv_pos_as_xyz
  1  'x, y, z'
loop_
 _atom_site_type_symbol
 _atom_site_label
 _atom_site_symmetry_multiplicity
 _atom_site_fract_x
 _atom_site_fract_y
 _atom_site_fract_z
 _atom_site_occupancy
  Y  Y0  1  0.250000  0.516355  0.691424  1
  Lu  Lu1  1  0.250000  0.018234  0.801593  1
  Lu  Lu2  1  0.750000  0.985158  0.200818  1
  Lu  Lu3  1  0.750000  0.484744  0.300095  1
  Ga  Ga4  1  0.250000  0.201939  0.399409  1
  Ga  Ga5  1  0.250000  0.696515  0.102233  1
  Ga  Ga6  1  0.750000  0.793405  0.604447  1
  Ga  Ga7  1  0.750000  0.305854  0.894719  1
  Ni  Ni8  1  0.750000  0.667949  0.939771  1
  Ru  Ru9  1  0.250000  0.839897  0.432355  1
  Ru  Ru10  1  0.250000  0.330397  0.065990  1
  Ru  Ru11  1  0.750000  0.159554  0.567146  1
