# generated using pymatgen
data_HoCrWO6
_symmetry_space_group_name_H-M   'P 1'
_cell_length_a   5.21583600
_cell_length_b   7.41480600
_cell_length_c   11.04535500
_cell_angle_alpha   90.00000000
_cell_angle_beta   90.00000000
_cell_angle_gamma   90.00000000
_symmetry_Int_Tables_number   1
_chemical_formula_structural   HoCrWO6
_chemical_formula_sum   'Ho4 Cr4 W4 O24'
_cell_volume   427.17261071
_cell_formula_units_Z   4
loop_
 _symmetry_equiv_pos_site_id
 _symmetry_equiv_pos_as_xyz
  1  'x, y, z'
loop_
 _atom_site_type_symbol
 _atom_site_label
 _atom_site_symmetry_multiplicity
 _atom_site_fract_x
 _atom_site_fract_y
 _atom_site_fract_z
 _atom_site_occupancy
  Ho  Ho0  1  0.546703  0.250463  0.045224  1
  Ho  Ho1  1  0.046702  0.750463  0.454776  1
  Ho  Ho2  1  0.953298  0.250463  0.545224  1
  Ho  Ho3  1  0.453297  0.750463  0.954776  1
  Cr  Cr4  1  0.051389  0.998502  0.133918  1
  Cr  Cr5  1  0.551387  0.498502  0.366082  1
  Cr  Cr6  1  0.448612  0.998502  0.633917  1
  Cr  Cr7  1  0.948611  0.498502  0.866082  1
  W  W8  1  0.058388  0.505936  0.143716  1
  W  W9  1  0.558386  0.005936  0.356283  1
  W  W10  1  0.441613  0.505936  0.643716  1
  W  W11  1  0.941614  0.005936  0.856284  1
  O  O12  1  0.754508  0.959594  0.020952  1
  O  O13  1  0.765765  0.546028  0.026528  1
  O  O14  1  0.180206  0.748968  0.116779  1
  O  O15  1  0.934040  0.258462  0.143418  1
  O  O16  1  0.379429  0.433924  0.207988  1
  O  O17  1  0.390119  0.068223  0.212656  1
  O  O18  1  0.890118  0.568223  0.287344  1
  O  O19  1  0.879428  0.933924  0.292012  1
  O  O20  1  0.434039  0.758462  0.356582  1
  O  O21  1  0.680205  0.248968  0.383221  1
  O  O22  1  0.265766  0.046028  0.473471  1
  O  O23  1  0.254509  0.459594  0.479048  1
  O  O24  1  0.745491  0.959594  0.520952  1
  O  O25  1  0.734234  0.546028  0.526528  1
  O  O26  1  0.319795  0.748968  0.616778  1
  O  O27  1  0.565961  0.258462  0.643417  1
  O  O28  1  0.120571  0.433924  0.707988  1
  O  O29  1  0.109882  0.068223  0.712657  1
  O  O30  1  0.609881  0.568223  0.787344  1
  O  O31  1  0.620570  0.933924  0.792012  1
  O  O32  1  0.065960  0.758462  0.856582  1
  O  O33  1  0.819794  0.248968  0.883221  1
  O  O34  1  0.234235  0.046028  0.973471  1
  O  O35  1  0.245492  0.459594  0.979048  1
