# generated using pymatgen
data_YV6GaO18
_symmetry_space_group_name_H-M   'P 1'
_cell_length_a   7.25391068
_cell_length_b   8.28047493
_cell_length_c   9.33411900
_cell_angle_alpha   105.84519550
_cell_angle_beta   112.82302055
_cell_angle_gamma   64.00095368
_symmetry_Int_Tables_number   1
_chemical_formula_structural   YV6GaO18
_chemical_formula_sum   'Y1 V6 Ga1 O18'
_cell_volume   460.86546307
_cell_formula_units_Z   1
loop_
 _symmetry_equiv_pos_site_id
 _symmetry_equiv_pos_as_xyz
  1  'x, y, z'
loop_
 _atom_site_type_symbol
 _atom_site_label
 _atom_site_symmetry_multiplicity
 _atom_site_fract_x
 _atom_site_fract_y
 _atom_site_fract_z
 _atom_site_occupancy
  Y  Y0  1  0.687451  0.357457  0.243569  1
  V  V1  1  0.724509  0.613798  0.987530  1
  V  V2  1  0.999779  0.906745  0.063619  1
  V  V3  1  0.405127  0.807151  0.431968  1
  V  V4  1  0.669833  0.100332  0.519276  1
  V  V5  1  0.186392  0.425752  0.579778  1
  V  V6  1  0.183444  0.295659  0.910843  1
  Ga  Ga7  1  0.202738  0.859367  0.746738  1
  O  O8  1  0.359790  0.367875  0.066575  1
  O  O9  1  0.841633  0.129199  0.074082  1
  O  O10  1  0.850775  0.775909  0.052707  1
  O  O11  1  0.664599  0.581152  0.132359  1
  O  O12  1  0.208212  0.873425  0.248322  1
  O  O13  1  0.690193  0.153218  0.364780  1
  O  O14  1  0.012352  0.368771  0.411197  1
  O  O15  1  0.526773  0.579271  0.413261  1
  O  O16  1  0.595239  0.907465  0.463877  1
  O  O17  1  0.294237  0.885575  0.579165  1
  O  O18  1  0.132122  0.651256  0.607843  1
  O  O19  1  0.463159  0.291557  0.586961  1
  O  O20  1  0.911019  0.042014  0.660861  1
  O  O21  1  0.153175  0.370902  0.738028  1
  O  O22  1  0.498516  0.687703  0.835694  1
  O  O23  1  0.102256  0.838649  0.912339  1
  O  O24  1  0.276794  0.066284  0.887934  1
  O  O25  1  0.916678  0.400116  0.930895  1
