# generated using pymatgen
data_KY2CuSe4
_symmetry_space_group_name_H-M   'P 1'
_cell_length_a   7.36031960
_cell_length_b   7.36031913
_cell_length_c   14.40149700
_cell_angle_alpha   90.00000000
_cell_angle_beta   90.00000000
_cell_angle_gamma   147.44863643
_symmetry_Int_Tables_number   1
_chemical_formula_structural   KY2CuSe4
_chemical_formula_sum   'K2 Y4 Cu2 Se8'
_cell_volume   419.78604766
_cell_formula_units_Z   2
loop_
 _symmetry_equiv_pos_site_id
 _symmetry_equiv_pos_as_xyz
  1  'x, y, z'
loop_
 _atom_site_type_symbol
 _atom_site_label
 _atom_site_symmetry_multiplicity
 _atom_site_fract_x
 _atom_site_fract_y
 _atom_site_fract_z
 _atom_site_occupancy
  K  K0  1  0.109991  0.890009  0.250000  1
  K  K1  1  0.890009  0.109991  0.750000  1
  Y  Y2  1  0.634373  0.365627  0.935789  1
  Y  Y3  1  0.365627  0.634373  0.435789  1
  Y  Y4  1  0.634373  0.365627  0.564211  1
  Y  Y5  1  0.365627  0.634373  0.064211  1
  Cu  Cu6  1  0.162313  0.837687  0.750000  1
  Cu  Cu7  1  0.837687  0.162313  0.250000  1
  Se  Se8  1  0.000000  0.000000  0.500000  1
  Se  Se9  1  0.000000  0.000000  0.000000  1
  Se  Se10  1  0.735175  0.264825  0.111339  1
  Se  Se11  1  0.264825  0.735175  0.888661  1
  Se  Se12  1  0.566078  0.433922  0.750000  1
  Se  Se13  1  0.735175  0.264825  0.388661  1
  Se  Se14  1  0.433922  0.566078  0.250000  1
  Se  Se15  1  0.264825  0.735175  0.611339  1
