# generated using pymatgen
data_TbYB6Ru
_symmetry_space_group_name_H-M   'P 1'
_cell_length_a   3.67227700
_cell_length_b   9.17041200
_cell_length_c   11.54991700
_cell_angle_alpha   90.00000000
_cell_angle_beta   90.00000000
_cell_angle_gamma   90.00000000
_symmetry_Int_Tables_number   1
_chemical_formula_structural   TbYB6Ru
_chemical_formula_sum   'Tb4 Y4 B24 Ru4'
_cell_volume   388.95838980
_cell_formula_units_Z   4
loop_
 _symmetry_equiv_pos_site_id
 _symmetry_equiv_pos_as_xyz
  1  'x, y, z'
loop_
 _atom_site_type_symbol
 _atom_site_label
 _atom_site_symmetry_multiplicity
 _atom_site_fract_x
 _atom_site_fract_y
 _atom_site_fract_z
 _atom_site_occupancy
  Tb  Tb0  1  0.000000  0.323303  0.413894  1
  Tb  Tb1  1  0.000000  0.676697  0.586106  1
  Tb  Tb2  1  0.000000  0.823303  0.086106  1
  Tb  Tb3  1  0.000000  0.176697  0.913894  1
  Y  Y4  1  0.000000  0.943709  0.372604  1
  Y  Y5  1  0.000000  0.056291  0.627396  1
  Y  Y6  1  0.000000  0.443709  0.127396  1
  Y  Y7  1  0.000000  0.556291  0.872604  1
  B  B8  1  0.500000  0.553971  0.432697  1
  B  B9  1  0.500000  0.446029  0.567303  1
  B  B10  1  0.500000  0.053971  0.067303  1
  B  B11  1  0.500000  0.946029  0.932697  1
  B  B12  1  0.500000  0.747376  0.419738  1
  B  B13  1  0.500000  0.252624  0.580262  1
  B  B14  1  0.500000  0.247376  0.080262  1
  B  B15  1  0.500000  0.752624  0.919738  1
  B  B16  1  0.500000  0.790601  0.266525  1
  B  B17  1  0.500000  0.209399  0.733475  1
  B  B18  1  0.500000  0.290601  0.233475  1
  B  B19  1  0.500000  0.709399  0.766525  1
  B  B20  1  0.500000  0.632021  0.185497  1
  B  B21  1  0.500000  0.367979  0.814503  1
  B  B22  1  0.500000  0.132021  0.314503  1
  B  B23  1  0.500000  0.867979  0.685497  1
  B  B24  1  0.500000  0.983857  0.212872  1
  B  B25  1  0.500000  0.016143  0.787128  1
  B  B26  1  0.500000  0.483857  0.287128  1
  B  B27  1  0.500000  0.516143  0.712872  1
  B  B28  1  0.500000  0.609226  0.030223  1
  B  B29  1  0.500000  0.390774  0.969777  1
  B  B30  1  0.500000  0.109226  0.469777  1
  B  B31  1  0.500000  0.890774  0.530223  1
  Ru  Ru32  1  0.000000  0.637753  0.321197  1
  Ru  Ru33  1  0.000000  0.362247  0.678803  1
  Ru  Ru34  1  0.000000  0.137753  0.178803  1
  Ru  Ru35  1  0.000000  0.862247  0.821197  1
