# generated using pymatgen
data_DyEr(MgIr4)2
_symmetry_space_group_name_H-M   'P 1'
_cell_length_a   5.26943100
_cell_length_b   5.26943029
_cell_length_c   8.56955100
_cell_angle_alpha   90.00000000
_cell_angle_beta   90.00000000
_cell_angle_gamma   120.00001074
_symmetry_Int_Tables_number   1
_chemical_formula_structural   DyEr(MgIr4)2
_chemical_formula_sum   'Dy1 Er1 Mg2 Ir8'
_cell_volume   206.07060113
_cell_formula_units_Z   1
loop_
 _symmetry_equiv_pos_site_id
 _symmetry_equiv_pos_as_xyz
  1  'x, y, z'
loop_
 _atom_site_type_symbol
 _atom_site_label
 _atom_site_symmetry_multiplicity
 _atom_site_fract_x
 _atom_site_fract_y
 _atom_site_fract_z
 _atom_site_occupancy
  Dy  Dy0  1  0.666667  0.333333  0.569385  1
  Er  Er1  1  0.333333  0.666667  0.069367  1
  Mg  Mg2  1  0.666667  0.333333  0.936761  1
  Mg  Mg3  1  0.333333  0.666667  0.436434  1
  Ir  Ir4  1  0.000000  0.000000  0.995889  1
  Ir  Ir5  1  0.000000  0.000000  0.495679  1
  Ir  Ir6  1  0.829222  0.658443  0.248891  1
  Ir  Ir7  1  0.170873  0.829127  0.749936  1
  Ir  Ir8  1  0.658254  0.829127  0.749936  1
  Ir  Ir9  1  0.341557  0.170778  0.248891  1
  Ir  Ir10  1  0.829222  0.170778  0.248891  1
  Ir  Ir11  1  0.170873  0.341746  0.749936  1
