# generated using pymatgen
data_Zr16Ni4IrOs3
_symmetry_space_group_name_H-M   'P 1'
_cell_length_a   8.72354473
_cell_length_b   8.72354429
_cell_length_c   8.73063582
_cell_angle_alpha   60.02686625
_cell_angle_beta   60.02686403
_cell_angle_gamma   60.00000400
_symmetry_Int_Tables_number   1
_chemical_formula_structural   Zr16Ni4IrOs3
_chemical_formula_sum   'Zr16 Ni4 Ir1 Os3'
_cell_volume   469.99483371
_cell_formula_units_Z   1
loop_
 _symmetry_equiv_pos_site_id
 _symmetry_equiv_pos_as_xyz
  1  'x, y, z'
loop_
 _atom_site_type_symbol
 _atom_site_label
 _atom_site_symmetry_multiplicity
 _atom_site_fract_x
 _atom_site_fract_y
 _atom_site_fract_z
 _atom_site_occupancy
  Zr  Zr0  1  0.185487  0.604582  0.605351  1
  Zr  Zr1  1  0.604582  0.185487  0.605351  1
  Zr  Zr2  1  0.604582  0.604582  0.605351  1
  Zr  Zr3  1  0.604044  0.604044  0.187870  1
  Zr  Zr4  1  0.452435  0.452435  0.047301  1
  Zr  Zr5  1  0.048020  0.048020  0.452858  1
  Zr  Zr6  1  0.452435  0.047830  0.047301  1
  Zr  Zr7  1  0.048020  0.451103  0.452858  1
  Zr  Zr8  1  0.047830  0.452435  0.047301  1
  Zr  Zr9  1  0.451103  0.048020  0.452858  1
  Zr  Zr10  1  0.815499  0.815499  0.181478  1
  Zr  Zr11  1  0.184846  0.184846  0.815095  1
  Zr  Zr12  1  0.815499  0.187526  0.181478  1
  Zr  Zr13  1  0.184846  0.815213  0.815095  1
  Zr  Zr14  1  0.187526  0.815499  0.181478  1
  Zr  Zr15  1  0.815213  0.184846  0.815095  1
  Ni  Ni16  1  0.825480  0.391228  0.392064  1
  Ni  Ni17  1  0.391228  0.825480  0.392064  1
  Ni  Ni18  1  0.391228  0.391228  0.392064  1
  Ni  Ni19  1  0.391569  0.391569  0.825292  1
  Ir  Ir20  1  0.831918  0.831918  0.504244  1
  Os  Os21  1  0.503339  0.831638  0.833386  1
  Os  Os22  1  0.831638  0.503339  0.833386  1
  Os  Os23  1  0.831638  0.831638  0.833386  1
