# generated using pymatgen
data_Ho16Cd4Ir3Os
_symmetry_space_group_name_H-M   'P 1'
_cell_length_a   9.63288562
_cell_length_b   9.63288563
_cell_length_c   9.63288575
_cell_angle_alpha   59.55108768
_cell_angle_beta   59.55109024
_cell_angle_gamma   59.55108863
_symmetry_Int_Tables_number   1
_chemical_formula_structural   Ho16Cd4Ir3Os
_chemical_formula_sum   'Ho16 Cd4 Ir3 Os1'
_cell_volume   625.60313387
_cell_formula_units_Z   1
loop_
 _symmetry_equiv_pos_site_id
 _symmetry_equiv_pos_as_xyz
  1  'x, y, z'
loop_
 _atom_site_type_symbol
 _atom_site_label
 _atom_site_symmetry_multiplicity
 _atom_site_fract_x
 _atom_site_fract_y
 _atom_site_fract_z
 _atom_site_occupancy
  Ho  Ho0  1  0.598920  0.598920  0.598920  1
  Ho  Ho1  1  0.598903  0.598903  0.205516  1
  Ho  Ho2  1  0.598903  0.205516  0.598903  1
  Ho  Ho3  1  0.205516  0.598903  0.598903  1
  Ho  Ho4  1  0.061100  0.439095  0.439095  1
  Ho  Ho5  1  0.437963  0.059750  0.059750  1
  Ho  Ho6  1  0.439095  0.061100  0.439095  1
  Ho  Ho7  1  0.059750  0.437963  0.059750  1
  Ho  Ho8  1  0.439095  0.439095  0.061100  1
  Ho  Ho9  1  0.059750  0.059750  0.437963  1
  Ho  Ho10  1  0.188779  0.811656  0.811656  1
  Ho  Ho11  1  0.807513  0.189418  0.189418  1
  Ho  Ho12  1  0.811656  0.188779  0.811656  1
  Ho  Ho13  1  0.189418  0.807513  0.189418  1
  Ho  Ho14  1  0.811656  0.811656  0.188779  1
  Ho  Ho15  1  0.189418  0.189418  0.807513  1
  Cd  Cd16  1  0.830333  0.830333  0.830333  1
  Cd  Cd17  1  0.830842  0.830842  0.505946  1
  Cd  Cd18  1  0.830842  0.505946  0.830842  1
  Cd  Cd19  1  0.505946  0.830842  0.830842  1
  Ir  Ir20  1  0.393216  0.393216  0.826795  1
  Ir  Ir21  1  0.393216  0.826795  0.393216  1
  Ir  Ir22  1  0.826795  0.393216  0.393216  1
  Os  Os23  1  0.391375  0.391375  0.391375  1
