# generated using pymatgen
data_Li2TbGd(SiO4)2
_symmetry_space_group_name_H-M   'P 1'
_cell_length_a   6.27332223
_cell_length_b   5.48171989
_cell_length_c   11.01078477
_cell_angle_alpha   66.48246883
_cell_angle_beta   90.19415642
_cell_angle_gamma   90.10491399
_symmetry_Int_Tables_number   1
_chemical_formula_structural   Li2TbGd(SiO4)2
_chemical_formula_sum   'Li4 Tb2 Gd2 Si4 O16'
_cell_volume   347.19234325
_cell_formula_units_Z   2
loop_
 _symmetry_equiv_pos_site_id
 _symmetry_equiv_pos_as_xyz
  1  'x, y, z'
loop_
 _atom_site_type_symbol
 _atom_site_label
 _atom_site_symmetry_multiplicity
 _atom_site_fract_x
 _atom_site_fract_y
 _atom_site_fract_z
 _atom_site_occupancy
  Li  Li0  1  0.134012  0.919766  0.429804  1
  Li  Li1  1  0.633734  0.079373  0.070532  1
  Li  Li2  1  0.865988  0.080234  0.570196  1
  Li  Li3  1  0.366266  0.920627  0.929468  1
  Tb  Tb4  1  0.616139  0.555179  0.651461  1
  Tb  Tb5  1  0.383861  0.444821  0.348539  1
  Gd  Gd6  1  0.116971  0.445297  0.847344  1
  Gd  Gd7  1  0.883029  0.554703  0.152656  1
  Si  Si8  1  0.650460  0.904343  0.359942  1
  Si  Si9  1  0.349540  0.095657  0.640058  1
  Si  Si10  1  0.153663  0.093690  0.141965  1
  Si  Si11  1  0.846337  0.906310  0.858035  1
  O  O12  1  0.855669  0.230879  0.775317  1
  O  O13  1  0.639019  0.229120  0.277993  1
  O  O14  1  0.164108  0.183521  0.524809  1
  O  O15  1  0.834915  0.761163  0.751997  1
  O  O16  1  0.144331  0.769121  0.224683  1
  O  O17  1  0.570517  0.226803  0.554836  1
  O  O18  1  0.660514  0.760397  0.253321  1
  O  O19  1  0.429483  0.773197  0.445164  1
  O  O20  1  0.069620  0.779413  0.942647  1
  O  O21  1  0.662565  0.818524  0.973488  1
  O  O22  1  0.165085  0.238837  0.248003  1
  O  O23  1  0.930380  0.220587  0.057353  1
  O  O24  1  0.337435  0.181476  0.026512  1
  O  O25  1  0.339486  0.239603  0.746679  1
  O  O26  1  0.360981  0.770880  0.722007  1
  O  O27  1  0.835892  0.816479  0.475191  1
