# generated using pymatgen
data_Dy5Tm11In2(AgRh2)2
_symmetry_space_group_name_H-M   'P 1'
_cell_length_a   9.52520116
_cell_length_b   9.50680461
_cell_length_c   9.50680463
_cell_angle_alpha   59.74835412
_cell_angle_beta   59.63267322
_cell_angle_gamma   59.63267188
_symmetry_Int_Tables_number   1
_chemical_formula_structural   Dy5Tm11In2(AgRh2)2
_chemical_formula_sum   'Dy5 Tm11 In2 Ag2 Rh4'
_cell_volume   604.18659167
_cell_formula_units_Z   1
loop_
 _symmetry_equiv_pos_site_id
 _symmetry_equiv_pos_as_xyz
  1  'x, y, z'
loop_
 _atom_site_type_symbol
 _atom_site_label
 _atom_site_symmetry_multiplicity
 _atom_site_fract_x
 _atom_site_fract_y
 _atom_site_fract_z
 _atom_site_occupancy
  Dy  Dy0  1  0.058496  0.068407  0.437876  1
  Dy  Dy1  1  0.435796  0.065191  0.436793  1
  Dy  Dy2  1  0.058496  0.437876  0.068407  1
  Dy  Dy3  1  0.053838  0.648616  0.648616  1
  Dy  Dy4  1  0.435796  0.436793  0.065191  1
  Tm  Tm5  1  0.647846  0.051518  0.648171  1
  Tm  Tm6  1  0.189184  0.812961  0.188434  1
  Tm  Tm7  1  0.189184  0.188434  0.812961  1
  Tm  Tm8  1  0.810071  0.811252  0.190052  1
  Tm  Tm9  1  0.437263  0.062376  0.062376  1
  Tm  Tm10  1  0.814406  0.187381  0.187381  1
  Tm  Tm11  1  0.059281  0.440319  0.440319  1
  Tm  Tm12  1  0.810071  0.190052  0.811252  1
  Tm  Tm13  1  0.191589  0.810179  0.810179  1
  Tm  Tm14  1  0.647846  0.648171  0.051518  1
  Tm  Tm15  1  0.648908  0.650086  0.650086  1
  In  In16  1  0.423231  0.743025  0.416095  1
  In  In17  1  0.423231  0.416095  0.743025  1
  Ag  Ag18  1  0.419803  0.416721  0.416721  1
  Ag  Ag19  1  0.750384  0.416238  0.416238  1
  Rh  Rh20  1  0.855998  0.855618  0.427166  1
  Rh  Rh21  1  0.855629  0.858242  0.858242  1
  Rh  Rh22  1  0.427656  0.857280  0.857280  1
  Rh  Rh23  1  0.855998  0.427166  0.855618  1
