# generated using pymatgen
data_Hf4FeSi2Ni3As2
_symmetry_space_group_name_H-M   'P 1'
_cell_length_a   3.81940200
_cell_length_b   6.43932896
_cell_length_c   7.25718843
_cell_angle_alpha   89.65685788
_cell_angle_beta   90.00000000
_cell_angle_gamma   90.00000000
_symmetry_Int_Tables_number   1
_chemical_formula_structural   Hf4FeSi2Ni3As2
_chemical_formula_sum   'Hf4 Fe1 Si2 Ni3 As2'
_cell_volume   178.48289209
_cell_formula_units_Z   1
loop_
 _symmetry_equiv_pos_site_id
 _symmetry_equiv_pos_as_xyz
  1  'x, y, z'
loop_
 _atom_site_type_symbol
 _atom_site_label
 _atom_site_symmetry_multiplicity
 _atom_site_fract_x
 _atom_site_fract_y
 _atom_site_fract_z
 _atom_site_occupancy
  Hf  Hf0  1  0.250000  0.016837  0.319030  1
  Hf  Hf1  1  0.250000  0.520149  0.185848  1
  Hf  Hf2  1  0.750000  0.978327  0.684855  1
  Hf  Hf3  1  0.750000  0.483162  0.808764  1
  Fe  Fe4  1  0.250000  0.636275  0.554663  1
  Si  Si5  1  0.750000  0.728191  0.393559  1
  Si  Si6  1  0.750000  0.230774  0.113168  1
  Ni  Ni7  1  0.250000  0.146924  0.945868  1
  Ni  Ni8  1  0.750000  0.859658  0.072411  1
  Ni  Ni9  1  0.750000  0.359429  0.426012  1
  As  As10  1  0.250000  0.271025  0.618111  1
  As  As11  1  0.250000  0.769247  0.877713  1
