# generated using pymatgen
data_Y4Ho8Os3Rh
_symmetry_space_group_name_H-M   'P 1'
_cell_length_a   6.36597417
_cell_length_b   7.36940048
_cell_length_c   9.06000200
_cell_angle_alpha   90.00000000
_cell_angle_beta   90.00000000
_cell_angle_gamma   90.25288516
_symmetry_Int_Tables_number   1
_chemical_formula_structural   Y4Ho8Os3Rh
_chemical_formula_sum   'Y4 Ho8 Os3 Rh1'
_cell_volume   425.03147680
_cell_formula_units_Z   1
loop_
 _symmetry_equiv_pos_site_id
 _symmetry_equiv_pos_as_xyz
  1  'x, y, z'
loop_
 _atom_site_type_symbol
 _atom_site_label
 _atom_site_symmetry_multiplicity
 _atom_site_fract_x
 _atom_site_fract_y
 _atom_site_fract_z
 _atom_site_occupancy
  Y  Y0  1  0.871464  0.537813  0.250000  1
  Y  Y1  1  0.628404  0.039461  0.250000  1
  Y  Y2  1  0.127295  0.462383  0.750000  1
  Y  Y3  1  0.370841  0.962369  0.750000  1
  Ho  Ho4  1  0.334593  0.672585  0.061433  1
  Ho  Ho5  1  0.169064  0.177477  0.438279  1
  Ho  Ho6  1  0.669505  0.324374  0.563577  1
  Ho  Ho7  1  0.827017  0.824062  0.933611  1
  Ho  Ho8  1  0.669505  0.324374  0.936423  1
  Ho  Ho9  1  0.827017  0.824062  0.566389  1
  Ho  Ho10  1  0.334593  0.672585  0.438567  1
  Ho  Ho11  1  0.169064  0.177477  0.061721  1
  Os  Os12  1  0.457069  0.383904  0.250000  1
  Os  Os13  1  0.958556  0.114996  0.750000  1
  Os  Os14  1  0.540451  0.616093  0.750000  1
  Rh  Rh15  1  0.045562  0.885985  0.250000  1
