# generated using pymatgen
data_Rb3Gd2Br9
_symmetry_space_group_name_H-M   'P 1'
_cell_length_a   7.94563500
_cell_length_b   14.00039883
_cell_length_c   24.04423100
_cell_angle_alpha   54.61464604
_cell_angle_beta   90.00000000
_cell_angle_gamma   90.00000000
_symmetry_Int_Tables_number   1
_chemical_formula_structural   Rb3Gd2Br9
_chemical_formula_sum   'Rb12 Gd8 Br36'
_cell_volume   2180.64256985
_cell_formula_units_Z   4
loop_
 _symmetry_equiv_pos_site_id
 _symmetry_equiv_pos_as_xyz
  1  'x, y, z'
loop_
 _atom_site_type_symbol
 _atom_site_label
 _atom_site_symmetry_multiplicity
 _atom_site_fract_x
 _atom_site_fract_y
 _atom_site_fract_z
 _atom_site_occupancy
  Rb  Rb0  1  0.488892  0.260540  0.226036  1
  Rb  Rb1  1  0.011108  0.260540  0.726036  1
  Rb  Rb2  1  0.511108  0.739460  0.773964  1
  Rb  Rb3  1  0.988892  0.739460  0.273964  1
  Rb  Rb4  1  0.498296  0.258635  0.560949  1
  Rb  Rb5  1  0.001704  0.258635  0.060949  1
  Rb  Rb6  1  0.501704  0.741365  0.439051  1
  Rb  Rb7  1  0.998296  0.741365  0.939051  1
  Rb  Rb8  1  0.511576  0.767142  0.082716  1
  Rb  Rb9  1  0.988424  0.767142  0.582716  1
  Rb  Rb10  1  0.488424  0.232858  0.917284  1
  Rb  Rb11  1  0.011576  0.232858  0.417284  1
  Gd  Gd12  1  0.502189  0.495052  0.338494  1
  Gd  Gd13  1  0.997811  0.495052  0.838494  1
  Gd  Gd14  1  0.497811  0.504948  0.661506  1
  Gd  Gd15  1  0.002189  0.504948  0.161506  1
  Gd  Gd16  1  0.493985  0.997256  0.838068  1
  Gd  Gd17  1  0.006015  0.997256  0.338068  1
  Gd  Gd18  1  0.506015  0.002744  0.161932  1
  Gd  Gd19  1  0.993985  0.002744  0.661932  1
  Br  Br20  1  0.933923  0.251435  0.254773  1
  Br  Br21  1  0.566077  0.251435  0.754773  1
  Br  Br22  1  0.066077  0.748565  0.745227  1
  Br  Br23  1  0.433923  0.748565  0.245227  1
  Br  Br24  1  0.942298  0.240271  0.588671  1
  Br  Br25  1  0.557702  0.240271  0.088671  1
  Br  Br26  1  0.057702  0.759729  0.411329  1
  Br  Br27  1  0.442298  0.759729  0.911329  1
  Br  Br28  1  0.068588  0.740502  0.083065  1
  Br  Br29  1  0.431412  0.740502  0.583065  1
  Br  Br30  1  0.931412  0.259498  0.916935  1
  Br  Br31  1  0.568588  0.259498  0.416935  1
  Br  Br32  1  0.205204  0.020838  0.565935  1
  Br  Br33  1  0.294796  0.020838  0.065935  1
  Br  Br34  1  0.794796  0.979162  0.434065  1
  Br  Br35  1  0.705204  0.979162  0.934065  1
  Br  Br36  1  0.201214  0.459092  0.086077  1
  Br  Br37  1  0.298786  0.459092  0.586077  1
  Br  Br38  1  0.798786  0.540908  0.913923  1
  Br  Br39  1  0.701214  0.540908  0.413923  1
  Br  Br40  1  0.210754  0.042712  0.883339  1
  Br  Br41  1  0.289246  0.042712  0.383339  1
  Br  Br42  1  0.789246  0.957288  0.116661  1
  Br  Br43  1  0.710754  0.957288  0.616661  1
  Br  Br44  1  0.211284  0.470621  0.407249  1
  Br  Br45  1  0.288716  0.470621  0.907249  1
  Br  Br46  1  0.788716  0.529379  0.592751  1
  Br  Br47  1  0.711284  0.529379  0.092751  1
  Br  Br48  1  0.197436  0.031126  0.222781  1
  Br  Br49  1  0.302564  0.031126  0.722781  1
  Br  Br50  1  0.802564  0.968874  0.777219  1
  Br  Br51  1  0.697436  0.968874  0.277219  1
  Br  Br52  1  0.199543  0.468267  0.745257  1
  Br  Br53  1  0.300457  0.468267  0.245257  1
  Br  Br54  1  0.800457  0.531733  0.254743  1
  Br  Br55  1  0.699543  0.531733  0.754743  1
