# generated using pymatgen
data_TbHo5Ga7Co16
_symmetry_space_group_name_H-M   'P 1'
_cell_length_a   8.46623698
_cell_length_b   8.46161656
_cell_length_c   8.46161526
_cell_angle_alpha   60.03613121
_cell_angle_beta   59.98193357
_cell_angle_gamma   59.98193619
_symmetry_Int_Tables_number   1
_chemical_formula_structural   TbHo5Ga7Co16
_chemical_formula_sum   'Tb1 Ho5 Ga7 Co16'
_cell_volume   428.62922889
_cell_formula_units_Z   1
loop_
 _symmetry_equiv_pos_site_id
 _symmetry_equiv_pos_as_xyz
  1  'x, y, z'
loop_
 _atom_site_type_symbol
 _atom_site_label
 _atom_site_symmetry_multiplicity
 _atom_site_fract_x
 _atom_site_fract_y
 _atom_site_fract_z
 _atom_site_occupancy
  Tb  Tb0  1  0.718795  0.281205  0.281205  1
  Ho  Ho1  1  0.719902  0.280098  0.720077  1
  Ho  Ho2  1  0.719902  0.720077  0.280098  1
  Ho  Ho3  1  0.280207  0.719793  0.719793  1
  Ho  Ho4  1  0.279923  0.720077  0.280098  1
  Ho  Ho5  1  0.279923  0.280098  0.720077  1
  Ga  Ga6  1  0.000123  0.999877  0.999877  1
  Ga  Ga7  1  0.500053  0.999947  0.999947  1
  Ga  Ga8  1  0.499553  0.999578  0.500447  1
  Ga  Ga9  1  0.499553  0.500447  0.999578  1
  Ga  Ga10  1  0.000053  0.499947  0.499947  1
  Ga  Ga11  1  0.000422  0.500447  0.999578  1
  Ga  Ga12  1  0.000422  0.999578  0.500447  1
  Co  Co13  1  0.621812  0.125675  0.125675  1
  Co  Co14  1  0.125966  0.622100  0.125968  1
  Co  Co15  1  0.125966  0.125968  0.622100  1
  Co  Co16  1  0.126838  0.125675  0.125675  1
  Co  Co17  1  0.377900  0.874034  0.874034  1
  Co  Co18  1  0.874325  0.378188  0.873162  1
  Co  Co19  1  0.874325  0.873162  0.378188  1
  Co  Co20  1  0.874032  0.874034  0.874034  1
  Co  Co21  1  0.036501  0.321236  0.321236  1
  Co  Co22  1  0.321237  0.036312  0.321214  1
  Co  Co23  1  0.321237  0.321214  0.036312  1
  Co  Co24  1  0.321029  0.321236  0.321236  1
  Co  Co25  1  0.963688  0.678763  0.678763  1
  Co  Co26  1  0.678764  0.963499  0.678971  1
  Co  Co27  1  0.678764  0.678971  0.963499  1
  Co  Co28  1  0.678786  0.678763  0.678763  1
