# generated using pymatgen
data_CeHo(Al5Ru)4
_symmetry_space_group_name_H-M   'P 1'
_cell_length_a   6.84976222
_cell_length_b   6.84976270
_cell_length_c   9.12822200
_cell_angle_alpha   90.00000000
_cell_angle_beta   90.00000000
_cell_angle_gamma   96.93717960
_symmetry_Int_Tables_number   1
_chemical_formula_structural   CeHo(Al5Ru)4
_chemical_formula_sum   'Ce1 Ho1 Al20 Ru4'
_cell_volume   425.15386036
_cell_formula_units_Z   1
loop_
 _symmetry_equiv_pos_site_id
 _symmetry_equiv_pos_as_xyz
  1  'x, y, z'
loop_
 _atom_site_type_symbol
 _atom_site_label
 _atom_site_symmetry_multiplicity
 _atom_site_fract_x
 _atom_site_fract_y
 _atom_site_fract_z
 _atom_site_occupancy
  Ce  Ce0  1  0.875135  0.124865  0.750000  1
  Ho  Ho1  1  0.128262  0.871738  0.250000  1
  Al  Al2  1  0.622757  0.377243  0.549886  1
  Al  Al3  1  0.376165  0.623835  0.448982  1
  Al  Al4  1  0.376165  0.623835  0.051018  1
  Al  Al5  1  0.622757  0.377243  0.950114  1
  Al  Al6  1  0.226953  0.226299  0.498612  1
  Al  Al7  1  0.773701  0.773047  0.498612  1
  Al  Al8  1  0.773701  0.773047  0.001388  1
  Al  Al9  1  0.226953  0.226299  0.001388  1
  Al  Al10  1  0.843253  0.156747  0.101504  1
  Al  Al11  1  0.157577  0.842423  0.900147  1
  Al  Al12  1  0.157577  0.842423  0.599853  1
  Al  Al13  1  0.843253  0.156747  0.398496  1
  Al  Al14  1  0.859651  0.588857  0.750000  1
  Al  Al15  1  0.141086  0.415385  0.250000  1
  Al  Al16  1  0.411143  0.140349  0.750000  1
  Al  Al17  1  0.584615  0.858914  0.250000  1
  Al  Al18  1  0.221008  0.481289  0.750000  1
  Al  Al19  1  0.779914  0.520263  0.250000  1
  Al  Al20  1  0.518711  0.778992  0.750000  1
  Al  Al21  1  0.479737  0.220086  0.250000  1
  Ru  Ru22  1  0.999600  0.499637  0.499530  1
  Ru  Ru23  1  0.999600  0.499637  0.000470  1
  Ru  Ru24  1  0.500363  0.000400  0.000470  1
  Ru  Ru25  1  0.500363  0.000400  0.499530  1
