# generated using pymatgen
data_Tb8BPBr12
_symmetry_space_group_name_H-M   'P 1'
_cell_length_a   4.00198000
_cell_length_b   13.10724061
_cell_length_c   13.81916644
_cell_angle_alpha   90.35252564
_cell_angle_beta   90.00000000
_cell_angle_gamma   90.00000000
_symmetry_Int_Tables_number   1
_chemical_formula_structural   Tb8BPBr12
_chemical_formula_sum   'Tb8 B1 P1 Br12'
_cell_volume   724.86947721
_cell_formula_units_Z   1
loop_
 _symmetry_equiv_pos_site_id
 _symmetry_equiv_pos_as_xyz
  1  'x, y, z'
loop_
 _atom_site_type_symbol
 _atom_site_label
 _atom_site_symmetry_multiplicity
 _atom_site_fract_x
 _atom_site_fract_y
 _atom_site_fract_z
 _atom_site_occupancy
  Tb  Tb0  1  0.500000  0.111860  0.349412  1
  Tb  Tb1  1  0.500000  0.888140  0.650588  1
  Tb  Tb2  1  0.500000  0.618815  0.159640  1
  Tb  Tb3  1  0.500000  0.381185  0.840360  1
  Tb  Tb4  1  0.000000  0.108427  0.572620  1
  Tb  Tb5  1  0.000000  0.891573  0.427380  1
  Tb  Tb6  1  0.000000  0.616447  0.922309  1
  Tb  Tb7  1  0.000000  0.383553  0.077691  1
  B  B8  1  0.500000  0.000000  0.500000  1
  P  P9  1  0.500000  0.500000  0.000000  1
  Br  Br10  1  0.500000  0.244709  0.164864  1
  Br  Br11  1  0.500000  0.755291  0.835136  1
  Br  Br12  1  0.500000  0.748179  0.336412  1
  Br  Br13  1  0.500000  0.251821  0.663588  1
  Br  Br14  1  0.000000  0.257162  0.414987  1
  Br  Br15  1  0.000000  0.742838  0.585013  1
  Br  Br16  1  0.000000  0.757664  0.087259  1
  Br  Br17  1  0.000000  0.242336  0.912741  1
  Br  Br18  1  0.000000  0.998539  0.241489  1
  Br  Br19  1  0.000000  0.001461  0.758511  1
  Br  Br20  1  0.000000  0.500868  0.259737  1
  Br  Br21  1  0.000000  0.499132  0.740263  1
