# generated using pymatgen
data_Er3ThAl16(GaIr3)2
_symmetry_space_group_name_H-M   'P 1'
_cell_length_a   7.56306257
_cell_length_b   7.57896463
_cell_length_c   9.50222000
_cell_angle_alpha   90.00000000
_cell_angle_beta   90.00000000
_cell_angle_gamma   119.70415297
_symmetry_Int_Tables_number   1
_chemical_formula_structural   Er3ThAl16(GaIr3)2
_chemical_formula_sum   'Er3 Th1 Al16 Ga2 Ir6'
_cell_volume   473.09709352
_cell_formula_units_Z   1
loop_
 _symmetry_equiv_pos_site_id
 _symmetry_equiv_pos_as_xyz
  1  'x, y, z'
loop_
 _atom_site_type_symbol
 _atom_site_label
 _atom_site_symmetry_multiplicity
 _atom_site_fract_x
 _atom_site_fract_y
 _atom_site_fract_z
 _atom_site_occupancy
  Er  Er0  1  0.001282  0.329968  0.250000  1
  Er  Er1  1  0.668252  0.995535  0.750000  1
  Er  Er2  1  0.330019  0.002808  0.250000  1
  Th  Th3  1  0.995047  0.666854  0.750000  1
  Al  Al4  1  0.127708  0.129813  0.750000  1
  Al  Al5  1  0.874030  0.876406  0.250000  1
  Al  Al6  1  0.001933  0.329346  0.570547  1
  Al  Al7  1  0.000374  0.665721  0.418508  1
  Al  Al8  1  0.000374  0.665721  0.081492  1
  Al  Al9  1  0.338783  0.005877  0.929076  1
  Al  Al10  1  0.001933  0.329346  0.929453  1
  Al  Al11  1  0.665504  0.001063  0.076005  1
  Al  Al12  1  0.665504  0.001063  0.423995  1
  Al  Al13  1  0.338783  0.005877  0.570924  1
  Al  Al14  1  0.331673  0.331759  0.062599  1
  Al  Al15  1  0.662756  0.666193  0.957387  1
  Al  Al16  1  0.662756  0.666193  0.542613  1
  Al  Al17  1  0.331673  0.331759  0.437401  1
  Al  Al18  1  0.659930  0.450074  0.250000  1
  Al  Al19  1  0.450541  0.662511  0.250000  1
  Ga  Ga20  1  0.346307  0.547332  0.750000  1
  Ga  Ga21  1  0.541237  0.336202  0.750000  1
  Ir  Ir22  1  0.674166  0.330000  0.498469  1
  Ir  Ir23  1  0.326777  0.672246  0.498512  1
  Ir  Ir24  1  0.326777  0.672246  0.001488  1
  Ir  Ir25  1  0.674166  0.330000  0.001531  1
  Ir  Ir26  1  0.000856  0.999045  0.500741  1
  Ir  Ir27  1  0.000856  0.999045  0.999259  1
