# generated using pymatgen
data_Ho8AlCuPd23
_symmetry_space_group_name_H-M   'P 1'
_cell_length_a   8.26997200
_cell_length_b   8.32108100
_cell_length_c   8.36413400
_cell_angle_alpha   90.00000000
_cell_angle_beta   90.00000000
_cell_angle_gamma   90.00000000
_symmetry_Int_Tables_number   1
_chemical_formula_structural   Ho8AlCuPd23
_chemical_formula_sum   'Ho8 Al1 Cu1 Pd23'
_cell_volume   575.57877517
_cell_formula_units_Z   1
loop_
 _symmetry_equiv_pos_site_id
 _symmetry_equiv_pos_as_xyz
  1  'x, y, z'
loop_
 _atom_site_type_symbol
 _atom_site_label
 _atom_site_symmetry_multiplicity
 _atom_site_fract_x
 _atom_site_fract_y
 _atom_site_fract_z
 _atom_site_occupancy
  Ho  Ho0  1  0.252142  0.249511  0.256049  1
  Ho  Ho1  1  0.747969  0.747308  0.749041  1
  Ho  Ho2  1  0.747969  0.747308  0.250959  1
  Ho  Ho3  1  0.747969  0.252692  0.749041  1
  Ho  Ho4  1  0.252142  0.249511  0.743951  1
  Ho  Ho5  1  0.252142  0.750489  0.256049  1
  Ho  Ho6  1  0.252142  0.750489  0.743951  1
  Ho  Ho7  1  0.747969  0.252692  0.250959  1
  Al  Al8  1  0.995798  0.000000  0.000000  1
  Cu  Cu9  1  0.264861  0.500000  0.000000  1
  Pd  Pd10  1  0.743684  0.500000  0.000000  1
  Pd  Pd11  1  0.998497  0.258824  0.500000  1
  Pd  Pd12  1  0.493392  0.263875  0.000000  1
  Pd  Pd13  1  0.998497  0.741176  0.500000  1
  Pd  Pd14  1  0.493392  0.736125  0.000000  1
  Pd  Pd15  1  0.499915  0.000000  0.259949  1
  Pd  Pd16  1  0.258510  0.000000  0.500000  1
  Pd  Pd17  1  0.499915  0.000000  0.740051  1
  Pd  Pd18  1  0.740683  0.000000  0.500000  1
  Pd  Pd19  1  0.002976  0.500000  0.259428  1
  Pd  Pd20  1  0.002976  0.500000  0.740572  1
  Pd  Pd21  1  0.253126  0.500000  0.500000  1
  Pd  Pd22  1  0.746617  0.500000  0.500000  1
  Pd  Pd23  1  0.501293  0.253510  0.500000  1
  Pd  Pd24  1  0.501293  0.746490  0.500000  1
  Pd  Pd25  1  0.495967  0.500000  0.250799  1
  Pd  Pd26  1  0.495967  0.500000  0.749201  1
  Pd  Pd27  1  0.286531  0.000000  0.000000  1
  Pd  Pd28  1  0.705300  0.000000  0.000000  1
  Pd  Pd29  1  0.011296  0.291985  0.000000  1
  Pd  Pd30  1  0.011296  0.708015  0.000000  1
  Pd  Pd31  1  0.998887  0.000000  0.287156  1
  Pd  Pd32  1  0.998887  0.000000  0.712844  1
