# generated using pymatgen
data_Yb3TmLu4(B6Ru)4
_symmetry_space_group_name_H-M   'P 1'
_cell_length_a   3.60810200
_cell_length_b   9.06931741
_cell_length_c   11.45050301
_cell_angle_alpha   89.94857516
_cell_angle_beta   90.00000000
_cell_angle_gamma   90.00000000
_symmetry_Int_Tables_number   1
_chemical_formula_structural   Yb3TmLu4(B6Ru)4
_chemical_formula_sum   'Yb3 Tm1 Lu4 B24 Ru4'
_cell_volume   374.69491401
_cell_formula_units_Z   1
loop_
 _symmetry_equiv_pos_site_id
 _symmetry_equiv_pos_as_xyz
  1  'x, y, z'
loop_
 _atom_site_type_symbol
 _atom_site_label
 _atom_site_symmetry_multiplicity
 _atom_site_fract_x
 _atom_site_fract_y
 _atom_site_fract_z
 _atom_site_occupancy
  Yb  Yb0  1  0.000000  0.324487  0.414601  1
  Yb  Yb1  1  0.000000  0.675405  0.584961  1
  Yb  Yb2  1  0.000000  0.823208  0.085867  1
  Tm  Tm3  1  0.000000  0.176008  0.915191  1
  Lu  Lu4  1  0.000000  0.941404  0.367073  1
  Lu  Lu5  1  0.000000  0.057864  0.631237  1
  Lu  Lu6  1  0.000000  0.443132  0.132122  1
  Lu  Lu7  1  0.000000  0.558257  0.868571  1
  B  B8  1  0.500000  0.553547  0.432858  1
  B  B9  1  0.500000  0.445579  0.568020  1
  B  B10  1  0.500000  0.054395  0.066282  1
  B  B11  1  0.500000  0.946223  0.933313  1
  B  B12  1  0.500000  0.749719  0.417507  1
  B  B13  1  0.500000  0.250089  0.582794  1
  B  B14  1  0.500000  0.250092  0.081176  1
  B  B15  1  0.500000  0.750692  0.917894  1
  B  B16  1  0.500000  0.791506  0.263865  1
  B  B17  1  0.500000  0.207757  0.736860  1
  B  B18  1  0.500000  0.291674  0.234734  1
  B  B19  1  0.500000  0.709386  0.764790  1
  B  B20  1  0.500000  0.630408  0.185051  1
  B  B21  1  0.500000  0.369040  0.816276  1
  B  B22  1  0.500000  0.130705  0.314083  1
  B  B23  1  0.500000  0.870010  0.684837  1
  B  B24  1  0.500000  0.982698  0.210829  1
  B  B25  1  0.500000  0.018053  0.788629  1
  B  B26  1  0.500000  0.483026  0.288376  1
  B  B27  1  0.500000  0.516542  0.712391  1
  B  B28  1  0.500000  0.598097  0.026980  1
  B  B29  1  0.500000  0.400621  0.972831  1
  B  B30  1  0.500000  0.096318  0.473145  1
  B  B31  1  0.500000  0.903644  0.526100  1
  Ru  Ru32  1  0.000000  0.639330  0.319893  1
  Ru  Ru33  1  0.000000  0.359194  0.681852  1
  Ru  Ru34  1  0.000000  0.139090  0.179111  1
  Ru  Ru35  1  0.000000  0.862804  0.819900  1
