# generated using pymatgen
data_Ac4YIn3
_symmetry_space_group_name_H-M   'P 1'
_cell_length_a   6.61593448
_cell_length_b   9.81389714
_cell_length_c   9.81389800
_cell_angle_alpha   83.47619985
_cell_angle_beta   70.30155589
_cell_angle_gamma   70.30155724
_symmetry_Int_Tables_number   1
_chemical_formula_structural   Ac4YIn3
_chemical_formula_sum   'Ac8 Y2 In6'
_cell_volume   564.80191455
_cell_formula_units_Z   2
loop_
 _symmetry_equiv_pos_site_id
 _symmetry_equiv_pos_as_xyz
  1  'x, y, z'
loop_
 _atom_site_type_symbol
 _atom_site_label
 _atom_site_symmetry_multiplicity
 _atom_site_fract_x
 _atom_site_fract_y
 _atom_site_fract_z
 _atom_site_occupancy
  Ac  Ac0  1  0.719889  0.865645  0.693594  1
  Ac  Ac1  1  0.280111  0.134355  0.306406  1
  Ac  Ac2  1  0.780111  0.306406  0.134355  1
  Ac  Ac3  1  0.219889  0.693594  0.865645  1
  Ac  Ac4  1  0.585520  0.694227  0.134487  1
  Ac  Ac5  1  0.414480  0.305773  0.865513  1
  Ac  Ac6  1  0.085520  0.134487  0.694227  1
  Ac  Ac7  1  0.914480  0.865513  0.305773  1
  Y  Y8  1  0.750000  0.500531  0.499469  1
  Y  Y9  1  0.250000  0.499469  0.500531  1
  In  In10  1  0.152993  0.500061  0.193191  1
  In  In11  1  0.847007  0.499939  0.806809  1
  In  In12  1  0.347007  0.806809  0.499939  1
  In  In13  1  0.652993  0.193191  0.500061  1
  In  In14  1  0.250000  0.999905  0.000095  1
  In  In15  1  0.750000  0.000095  0.999905  1
