# generated using pymatgen
data_Nb4FeB4As2Ru9
_symmetry_space_group_name_H-M   'P 1'
_cell_length_a   9.31044204
_cell_length_b   9.31044204
_cell_length_c   2.97481500
_cell_angle_alpha   90.00000000
_cell_angle_beta   90.00000000
_cell_angle_gamma   89.82349300
_symmetry_Int_Tables_number   1
_chemical_formula_structural   Nb4FeB4As2Ru9
_chemical_formula_sum   'Nb4 Fe1 B4 As2 Ru9'
_cell_volume   257.86862471
_cell_formula_units_Z   1
loop_
 _symmetry_equiv_pos_site_id
 _symmetry_equiv_pos_as_xyz
  1  'x, y, z'
loop_
 _atom_site_type_symbol
 _atom_site_label
 _atom_site_symmetry_multiplicity
 _atom_site_fract_x
 _atom_site_fract_y
 _atom_site_fract_z
 _atom_site_occupancy
  Nb  Nb0  1  0.821962  0.678038  0.000000  1
  Nb  Nb1  1  0.178038  0.321962  0.000000  1
  Nb  Nb2  1  0.329020  0.829020  0.000000  1
  Nb  Nb3  1  0.670980  0.170980  0.000000  1
  Fe  Fe4  1  0.500000  0.000000  0.500000  1
  B  B5  1  0.613763  0.886237  0.000000  1
  B  B6  1  0.386237  0.113763  0.000000  1
  B  B7  1  0.123989  0.623989  0.000000  1
  B  B8  1  0.876011  0.376011  0.000000  1
  As  As9  1  0.500000  0.500000  0.000000  1
  As  As10  1  0.000000  0.000000  0.000000  1
  Ru  Ru11  1  0.565918  0.719053  0.500000  1
  Ru  Ru12  1  0.434082  0.280947  0.500000  1
  Ru  Ru13  1  0.068394  0.787677  0.500000  1
  Ru  Ru14  1  0.931606  0.212323  0.500000  1
  Ru  Ru15  1  0.287677  0.568394  0.500000  1
  Ru  Ru16  1  0.712323  0.431606  0.500000  1
  Ru  Ru17  1  0.219053  0.065918  0.500000  1
  Ru  Ru18  1  0.780947  0.934082  0.500000  1
  Ru  Ru19  1  0.000000  0.500000  0.500000  1
