# generated using pymatgen
data_NdP12IrOs3
_symmetry_space_group_name_H-M   'P 1'
_cell_length_a   7.04228288
_cell_length_b   7.05271944
_cell_length_c   7.04228297
_cell_angle_alpha   109.50124941
_cell_angle_beta   109.44118377
_cell_angle_gamma   109.50124407
_symmetry_Int_Tables_number   1
_chemical_formula_structural   NdP12IrOs3
_chemical_formula_sum   'Nd1 P12 Ir1 Os3'
_cell_volume   269.15382487
_cell_formula_units_Z   1
loop_
 _symmetry_equiv_pos_site_id
 _symmetry_equiv_pos_as_xyz
  1  'x, y, z'
loop_
 _atom_site_type_symbol
 _atom_site_label
 _atom_site_symmetry_multiplicity
 _atom_site_fract_x
 _atom_site_fract_y
 _atom_site_fract_z
 _atom_site_occupancy
  Nd  Nd0  1  0.000000  0.000000  0.000000  1
  P  P1  1  0.355207  0.211764  0.856993  1
  P  P2  1  0.644793  0.788236  0.143007  1
  P  P3  1  0.642333  0.502022  0.855820  1
  P  P4  1  0.357667  0.497978  0.144180  1
  P  P5  1  0.213487  0.859689  0.357667  1
  P  P6  1  0.786513  0.140311  0.642333  1
  P  P7  1  0.501786  0.856557  0.644793  1
  P  P8  1  0.498214  0.143443  0.355207  1
  P  P9  1  0.855820  0.353798  0.213487  1
  P  P10  1  0.144180  0.646202  0.786513  1
  P  P11  1  0.856993  0.645229  0.501786  1
  P  P12  1  0.143007  0.354771  0.498214  1
  Ir  Ir13  1  0.000000  0.500000  0.000000  1
  Os  Os14  1  0.000000  0.000000  0.500000  1
  Os  Os15  1  0.500000  0.000000  0.000000  1
  Os  Os16  1  0.500000  0.500000  0.500000  1
