# generated using pymatgen
data_Ho5Mn3(P3Ir4)4
_symmetry_space_group_name_H-M   'P 1'
_cell_length_a   12.66432400
_cell_length_b   12.66432460
_cell_length_c   3.95765500
_cell_angle_alpha   90.00000000
_cell_angle_beta   90.00000000
_cell_angle_gamma   119.99999843
_symmetry_Int_Tables_number   1
_chemical_formula_structural   Ho5Mn3(P3Ir4)4
_chemical_formula_sum   'Ho5 Mn3 P12 Ir16'
_cell_volume   549.70870925
_cell_formula_units_Z   1
loop_
 _symmetry_equiv_pos_site_id
 _symmetry_equiv_pos_as_xyz
  1  'x, y, z'
loop_
 _atom_site_type_symbol
 _atom_site_label
 _atom_site_symmetry_multiplicity
 _atom_site_fract_x
 _atom_site_fract_y
 _atom_site_fract_z
 _atom_site_occupancy
  Ho  Ho0  1  0.333333  0.666667  0.500000  1
  Ho  Ho1  1  0.666667  0.333333  0.500000  1
  Ho  Ho2  1  0.000000  0.810101  0.000000  1
  Ho  Ho3  1  0.189899  0.189899  0.000000  1
  Ho  Ho4  1  0.810101  0.000000  0.000000  1
  Mn  Mn5  1  0.000000  0.457978  0.500000  1
  Mn  Mn6  1  0.542022  0.542022  0.500000  1
  Mn  Mn7  1  0.457978  0.000000  0.500000  1
  P  P8  1  0.000000  0.635497  0.500000  1
  P  P9  1  0.364503  0.364503  0.500000  1
  P  P10  1  0.635497  0.000000  0.500000  1
  P  P11  1  0.516885  0.685898  0.000000  1
  P  P12  1  0.314102  0.830987  0.000000  1
  P  P13  1  0.169013  0.483115  0.000000  1
  P  P14  1  0.483115  0.169013  0.000000  1
  P  P15  1  0.685898  0.516885  0.000000  1
  P  P16  1  0.830987  0.314102  0.000000  1
  P  P17  1  0.000000  0.178429  0.500000  1
  P  P18  1  0.821571  0.821571  0.500000  1
  P  P19  1  0.178429  0.000000  0.500000  1
  Ir  Ir20  1  0.507925  0.867796  0.000000  1
  Ir  Ir21  1  0.132204  0.640130  0.000000  1
  Ir  Ir22  1  0.359870  0.492075  0.000000  1
  Ir  Ir23  1  0.492075  0.359870  0.000000  1
  Ir  Ir24  1  0.867796  0.507925  0.000000  1
  Ir  Ir25  1  0.640130  0.132204  0.000000  1
  Ir  Ir26  1  0.000000  0.282333  0.000000  1
  Ir  Ir27  1  0.717667  0.717667  0.000000  1
  Ir  Ir28  1  0.282333  0.000000  0.000000  1
  Ir  Ir29  1  0.623946  0.802964  0.500000  1
  Ir  Ir30  1  0.197036  0.820982  0.500000  1
  Ir  Ir31  1  0.179018  0.376054  0.500000  1
  Ir  Ir32  1  0.376054  0.179018  0.500000  1
  Ir  Ir33  1  0.802964  0.623946  0.500000  1
  Ir  Ir34  1  0.820982  0.197036  0.500000  1
  Ir  Ir35  1  0.000000  0.000000  0.500000  1
