# generated using pymatgen
data_NaAc3(SnPt)4
_symmetry_space_group_name_H-M   'P 1'
_cell_length_a   4.78740100
_cell_length_b   7.67838464
_cell_length_c   8.22270500
_cell_angle_alpha   89.07776670
_cell_angle_beta   90.00000000
_cell_angle_gamma   90.00000000
_symmetry_Int_Tables_number   1
_chemical_formula_structural   NaAc3(SnPt)4
_chemical_formula_sum   'Na1 Ac3 Sn4 Pt4'
_cell_volume   302.22342190
_cell_formula_units_Z   1
loop_
 _symmetry_equiv_pos_site_id
 _symmetry_equiv_pos_as_xyz
  1  'x, y, z'
loop_
 _atom_site_type_symbol
 _atom_site_label
 _atom_site_symmetry_multiplicity
 _atom_site_fract_x
 _atom_site_fract_y
 _atom_site_fract_z
 _atom_site_occupancy
  Na  Na0  1  0.750000  0.478887  0.185663  1
  Ac  Ac1  1  0.250000  0.022656  0.688277  1
  Ac  Ac2  1  0.250000  0.521808  0.820850  1
  Ac  Ac3  1  0.750000  0.974175  0.311995  1
  Sn  Sn4  1  0.750000  0.344539  0.563081  1
  Sn  Sn5  1  0.250000  0.649289  0.411899  1
  Sn  Sn6  1  0.250000  0.174633  0.080973  1
  Sn  Sn7  1  0.750000  0.830954  0.929204  1
  Pt  Pt8  1  0.750000  0.711168  0.607501  1
  Pt  Pt9  1  0.250000  0.285333  0.398035  1
  Pt  Pt10  1  0.250000  0.801329  0.103853  1
  Pt  Pt11  1  0.750000  0.205227  0.898669  1
