# generated using pymatgen
data_TbEr11Tc3Rh
_symmetry_space_group_name_H-M   'P 1'
_cell_length_a   6.24921300
_cell_length_b   7.35141929
_cell_length_c   9.06657000
_cell_angle_alpha   90.00000000
_cell_angle_beta   90.00000000
_cell_angle_gamma   89.88724965
_symmetry_Int_Tables_number   1
_chemical_formula_structural   TbEr11Tc3Rh
_chemical_formula_sum   'Tb1 Er11 Tc3 Rh1'
_cell_volume   416.52272333
_cell_formula_units_Z   1
loop_
 _symmetry_equiv_pos_site_id
 _symmetry_equiv_pos_as_xyz
  1  'x, y, z'
loop_
 _atom_site_type_symbol
 _atom_site_label
 _atom_site_symmetry_multiplicity
 _atom_site_fract_x
 _atom_site_fract_y
 _atom_site_fract_z
 _atom_site_occupancy
  Tb  Tb0  1  0.369391  0.542803  0.250000  1
  Er  Er1  1  0.663308  0.173832  0.060737  1
  Er  Er2  1  0.168201  0.323020  0.934904  1
  Er  Er3  1  0.836659  0.678760  0.439254  1
  Er  Er4  1  0.336691  0.824449  0.562707  1
  Er  Er5  1  0.336691  0.824449  0.937293  1
  Er  Er6  1  0.836659  0.678760  0.060746  1
  Er  Er7  1  0.168201  0.323020  0.565096  1
  Er  Er8  1  0.663308  0.173832  0.439263  1
  Er  Er9  1  0.875403  0.960846  0.750000  1
  Er  Er10  1  0.626549  0.459223  0.750000  1
  Er  Er11  1  0.127345  0.041037  0.250000  1
  Tc  Tc12  1  0.038186  0.612877  0.750000  1
  Tc  Tc13  1  0.539635  0.884034  0.250000  1
  Tc  Tc14  1  0.459555  0.115330  0.750000  1
  Rh  Rh15  1  0.954220  0.383728  0.250000  1
