# generated using pymatgen
data_Y6Al24Ru7Au
_symmetry_space_group_name_H-M   'P 1'
_cell_length_a   8.84976705
_cell_length_b   8.84976581
_cell_length_c   9.56453853
_cell_angle_alpha   89.91057062
_cell_angle_beta   90.08943663
_cell_angle_gamma   119.88675720
_symmetry_Int_Tables_number   1
_chemical_formula_structural   Y6Al24Ru7Au
_chemical_formula_sum   'Y6 Al24 Ru7 Au1'
_cell_volume   649.45940658
_cell_formula_units_Z   1
loop_
 _symmetry_equiv_pos_site_id
 _symmetry_equiv_pos_as_xyz
  1  'x, y, z'
loop_
 _atom_site_type_symbol
 _atom_site_label
 _atom_site_symmetry_multiplicity
 _atom_site_fract_x
 _atom_site_fract_y
 _atom_site_fract_z
 _atom_site_occupancy
  Y  Y0  1  0.191946  0.385617  0.249692  1
  Y  Y1  1  0.808054  0.614383  0.750308  1
  Y  Y2  1  0.614383  0.808054  0.249692  1
  Y  Y3  1  0.385617  0.191946  0.750308  1
  Y  Y4  1  0.193935  0.806065  0.253622  1
  Y  Y5  1  0.806065  0.193935  0.746378  1
  Al  Al6  1  0.327841  0.672159  0.022137  1
  Al  Al7  1  0.672159  0.327841  0.977863  1
  Al  Al8  1  0.666575  0.333425  0.516489  1
  Al  Al9  1  0.333425  0.666575  0.483511  1
  Al  Al10  1  0.162477  0.324435  0.577679  1
  Al  Al11  1  0.837523  0.675565  0.422321  1
  Al  Al12  1  0.675565  0.837523  0.577679  1
  Al  Al13  1  0.849078  0.678107  0.079779  1
  Al  Al14  1  0.324435  0.162477  0.422321  1
  Al  Al15  1  0.150922  0.321893  0.920221  1
  Al  Al16  1  0.162799  0.837201  0.578528  1
  Al  Al17  1  0.321893  0.150922  0.079779  1
  Al  Al18  1  0.837201  0.162799  0.421472  1
  Al  Al19  1  0.678107  0.849078  0.920221  1
  Al  Al20  1  0.837247  0.162753  0.077583  1
  Al  Al21  1  0.162753  0.837247  0.922417  1
  Al  Al22  1  0.560856  0.121561  0.248497  1
  Al  Al23  1  0.439144  0.878439  0.751503  1
  Al  Al24  1  0.878439  0.439144  0.248497  1
  Al  Al25  1  0.121561  0.560856  0.751503  1
  Al  Al26  1  0.563874  0.436126  0.256010  1
  Al  Al27  1  0.436126  0.563874  0.743990  1
  Al  Al28  1  0.999386  0.000614  0.250068  1
  Al  Al29  1  0.000614  0.999386  0.749932  1
  Ru  Ru30  1  0.500000  0.000000  0.000000  1
  Ru  Ru31  1  0.000000  0.500000  0.000000  1
  Ru  Ru32  1  0.500000  0.000000  0.500000  1
  Ru  Ru33  1  0.000000  0.500000  0.500000  1
  Ru  Ru34  1  0.500000  0.500000  0.500000  1
  Ru  Ru35  1  0.000000  0.000000  0.000000  1
  Ru  Ru36  1  0.000000  0.000000  0.500000  1
  Au  Au37  1  0.500000  0.500000  0.000000  1
