# generated using pymatgen
data_Li2Tm(Rh2Pb)3
_symmetry_space_group_name_H-M   'P 1'
_cell_length_a   4.60632400
_cell_length_b   6.43142500
_cell_length_c   13.73780601
_cell_angle_alpha   90.00000000
_cell_angle_beta   89.99644825
_cell_angle_gamma   90.00000000
_symmetry_Int_Tables_number   1
_chemical_formula_structural   Li2Tm(Rh2Pb)3
_chemical_formula_sum   'Li4 Tm2 Rh12 Pb6'
_cell_volume   406.98562540
_cell_formula_units_Z   2
loop_
 _symmetry_equiv_pos_site_id
 _symmetry_equiv_pos_as_xyz
  1  'x, y, z'
loop_
 _atom_site_type_symbol
 _atom_site_label
 _atom_site_symmetry_multiplicity
 _atom_site_fract_x
 _atom_site_fract_y
 _atom_site_fract_z
 _atom_site_occupancy
  Li  Li0  1  0.999801  0.000000  0.337003  1
  Li  Li1  1  0.499998  0.500000  0.501155  1
  Li  Li2  1  0.000214  0.000000  0.665514  1
  Li  Li3  1  0.500193  0.500000  0.829620  1
  Tm  Tm4  1  0.999991  0.000000  0.996992  1
  Tm  Tm5  1  0.499868  0.500000  0.169671  1
  Rh  Rh6  1  0.499990  0.251237  0.994603  1
  Rh  Rh7  1  0.499990  0.748762  0.994603  1
  Rh  Rh8  1  0.999867  0.248803  0.171927  1
  Rh  Rh9  1  0.999867  0.751196  0.171927  1
  Rh  Rh10  1  0.499822  0.247470  0.339533  1
  Rh  Rh11  1  0.499822  0.752530  0.339533  1
  Rh  Rh12  1  0.000015  0.241403  0.501624  1
  Rh  Rh13  1  0.000015  0.758596  0.501624  1
  Rh  Rh14  1  0.500169  0.258632  0.665142  1
  Rh  Rh15  1  0.500169  0.741368  0.665142  1
  Rh  Rh16  1  0.000129  0.252531  0.827163  1
  Rh  Rh17  1  0.000129  0.747468  0.827163  1
  Pb  Pb18  1  0.999983  0.500000  0.992698  1
  Pb  Pb19  1  0.499837  0.000000  0.173918  1
  Pb  Pb20  1  0.999797  0.500000  0.345133  1
  Pb  Pb21  1  0.500015  0.000000  0.506223  1
  Pb  Pb22  1  0.000175  0.500000  0.660523  1
  Pb  Pb23  1  0.500144  0.000000  0.821568  1
