# generated using pymatgen
data_Hf18TiRe7SiOs
_symmetry_space_group_name_H-M   'P 1'
_cell_length_a   8.62543800
_cell_length_b   8.62543813
_cell_length_c   8.59722900
_cell_angle_alpha   90.00000000
_cell_angle_beta   90.00000000
_cell_angle_gamma   120.00000717
_symmetry_Int_Tables_number   1
_chemical_formula_structural   Hf18TiRe7SiOs
_chemical_formula_sum   'Hf18 Ti1 Re7 Si1 Os1'
_cell_volume   553.92557532
_cell_formula_units_Z   1
loop_
 _symmetry_equiv_pos_site_id
 _symmetry_equiv_pos_as_xyz
  1  'x, y, z'
loop_
 _atom_site_type_symbol
 _atom_site_label
 _atom_site_symmetry_multiplicity
 _atom_site_fract_x
 _atom_site_fract_y
 _atom_site_fract_z
 _atom_site_occupancy
  Hf  Hf0  1  0.197365  0.802635  0.448213  1
  Hf  Hf1  1  0.197365  0.394731  0.448213  1
  Hf  Hf2  1  0.605269  0.802635  0.448213  1
  Hf  Hf3  1  0.804911  0.195089  0.547836  1
  Hf  Hf4  1  0.804911  0.609821  0.547836  1
  Hf  Hf5  1  0.390179  0.195089  0.547836  1
  Hf  Hf6  1  0.806649  0.193351  0.952259  1
  Hf  Hf7  1  0.806649  0.613298  0.952259  1
  Hf  Hf8  1  0.386702  0.193351  0.952259  1
  Hf  Hf9  1  0.198318  0.801682  0.053156  1
  Hf  Hf10  1  0.198318  0.396637  0.053156  1
  Hf  Hf11  1  0.603363  0.801682  0.053156  1
  Hf  Hf12  1  0.540310  0.459690  0.249683  1
  Hf  Hf13  1  0.540310  0.080619  0.249683  1
  Hf  Hf14  1  0.919381  0.459690  0.249683  1
  Hf  Hf15  1  0.461786  0.538214  0.750478  1
  Hf  Hf16  1  0.461786  0.923574  0.750478  1
  Hf  Hf17  1  0.076426  0.538214  0.750478  1
  Ti  Ti18  1  0.000000  0.000000  0.498148  1
  Re  Re19  1  0.888458  0.111542  0.250842  1
  Re  Re20  1  0.888458  0.776914  0.250842  1
  Re  Re21  1  0.223086  0.111542  0.250842  1
  Re  Re22  1  0.110758  0.889242  0.748129  1
  Re  Re23  1  0.110758  0.221518  0.748129  1
  Re  Re24  1  0.778482  0.889242  0.748129  1
  Re  Re25  1  0.000000  0.000000  0.998660  1
  Si  Si26  1  0.666667  0.333333  0.751360  1
  Os  Os27  1  0.333333  0.666667  0.250042  1
