# generated using pymatgen
data_HoV6BiO18
_symmetry_space_group_name_H-M   'P 1'
_cell_length_a   8.33508303
_cell_length_b   8.36159815
_cell_length_c   10.74570700
_cell_angle_alpha   122.34262988
_cell_angle_beta   122.13844463
_cell_angle_gamma   52.31105090
_symmetry_Int_Tables_number   1
_chemical_formula_structural   HoV6BiO18
_chemical_formula_sum   'Ho1 V6 Bi1 O18'
_cell_volume   476.61585225
_cell_formula_units_Z   1
loop_
 _symmetry_equiv_pos_site_id
 _symmetry_equiv_pos_as_xyz
  1  'x, y, z'
loop_
 _atom_site_type_symbol
 _atom_site_label
 _atom_site_symmetry_multiplicity
 _atom_site_fract_x
 _atom_site_fract_y
 _atom_site_fract_z
 _atom_site_occupancy
  Ho  Ho0  1  0.988357  0.510953  0.497566  1
  V  V1  1  0.504185  0.723555  0.176822  1
  V  V2  1  0.056746  0.963290  0.262607  1
  V  V3  1  0.295969  0.489552  0.331884  1
  V  V4  1  0.730596  0.494461  0.675015  1
  V  V5  1  0.961345  0.051440  0.762516  1
  V  V6  1  0.474734  0.302426  0.823828  1
  Bi  Bi7  1  0.512246  0.990200  0.999321  1
  O  O8  1  0.852725  0.951163  0.097826  1
  O  O9  1  0.370142  0.329422  0.170057  1
  O  O10  1  0.616820  0.831135  0.170190  1
  O  O11  1  0.257056  0.928377  0.217798  1
  O  O12  1  0.137693  0.432109  0.336934  1
  O  O13  1  0.668020  0.614071  0.320754  1
  O  O14  1  0.159934  0.761990  0.339415  1
  O  O15  1  0.976881  0.203480  0.396068  1
  O  O16  1  0.529393  0.451067  0.496869  1
  O  O17  1  0.967831  0.832918  0.606975  1
  O  O18  1  0.311059  0.376461  0.662618  1
  O  O19  1  0.840192  0.601540  0.665405  1
  O  O20  1  0.928910  0.243304  0.710526  1
  O  O21  1  0.415582  0.143087  0.825157  1
  O  O22  1  0.618429  0.657649  0.819249  1
  O  O23  1  0.746954  0.160917  0.828734  1
  O  O24  1  0.190964  0.988641  0.907903  1
  O  O25  1  0.449835  0.529396  0.995377  1
