# generated using pymatgen
data_Hf2Zr4CoBr15
_symmetry_space_group_name_H-M   'P 1'
_cell_length_a   9.41636598
_cell_length_b   9.41791222
_cell_length_c   9.41636727
_cell_angle_alpha   109.48164585
_cell_angle_beta   109.44371894
_cell_angle_gamma   109.48165068
_symmetry_Int_Tables_number   1
_chemical_formula_structural   Hf2Zr4CoBr15
_chemical_formula_sum   'Hf2 Zr4 Co1 Br15'
_cell_volume   642.88758177
_cell_formula_units_Z   1
loop_
 _symmetry_equiv_pos_site_id
 _symmetry_equiv_pos_as_xyz
  1  'x, y, z'
loop_
 _atom_site_type_symbol
 _atom_site_label
 _atom_site_symmetry_multiplicity
 _atom_site_fract_x
 _atom_site_fract_y
 _atom_site_fract_z
 _atom_site_occupancy
  Hf  Hf0  1  0.000162  0.229168  0.229006  1
  Hf  Hf1  1  0.229006  0.229168  0.000162  1
  Zr  Zr2  1  0.770000  0.770260  0.000261  1
  Zr  Zr3  1  0.229423  0.000391  0.229423  1
  Zr  Zr4  1  0.770969  0.000391  0.770969  1
  Zr  Zr5  1  0.000261  0.770260  0.770000  1
  Co  Co6  1  0.998531  0.997062  0.998531  1
  Br  Br7  1  0.500667  0.001335  0.500667  1
  Br  Br8  1  0.000750  0.493536  0.492786  1
  Br  Br9  1  0.492786  0.493536  0.000750  1
  Br  Br10  1  0.505475  0.753240  0.753268  1
  Br  Br11  1  0.755513  0.004376  0.248863  1
  Br  Br12  1  0.492804  0.249157  0.244742  1
  Br  Br13  1  0.244742  0.249157  0.492804  1
  Br  Br14  1  0.247766  0.753240  0.999972  1
  Br  Br15  1  0.004416  0.249157  0.756354  1
  Br  Br16  1  0.999972  0.753240  0.247766  1
  Br  Br17  1  0.248863  0.004376  0.755513  1
  Br  Br18  1  0.245753  0.491506  0.245753  1
  Br  Br19  1  0.756354  0.249157  0.004416  1
  Br  Br20  1  0.752522  0.505043  0.752522  1
  Br  Br21  1  0.753268  0.753240  0.505475  1
