# generated using pymatgen
data_Tb4In3Co2
_symmetry_space_group_name_H-M   'P 1'
_cell_length_a   3.65851800
_cell_length_b   7.39907241
_cell_length_c   8.20486310
_cell_angle_alpha   71.57102372
_cell_angle_beta   90.00000000
_cell_angle_gamma   90.00000000
_symmetry_Int_Tables_number   1
_chemical_formula_structural   Tb4In3Co2
_chemical_formula_sum   'Tb4 In3 Co2'
_cell_volume   210.71242987
_cell_formula_units_Z   1
loop_
 _symmetry_equiv_pos_site_id
 _symmetry_equiv_pos_as_xyz
  1  'x, y, z'
loop_
 _atom_site_type_symbol
 _atom_site_label
 _atom_site_symmetry_multiplicity
 _atom_site_fract_x
 _atom_site_fract_y
 _atom_site_fract_z
 _atom_site_occupancy
  Tb  Tb0  1  0.500000  0.607321  0.181194  1
  Tb  Tb1  1  0.500000  0.392679  0.818806  1
  Tb  Tb2  1  0.500000  0.091089  0.278617  1
  Tb  Tb3  1  0.500000  0.908911  0.721383  1
  In  In4  1  0.000000  0.704370  0.506660  1
  In  In5  1  0.000000  0.000000  0.000000  1
  In  In6  1  0.000000  0.295630  0.493340  1
  Co  Co7  1  0.000000  0.648429  0.895169  1
  Co  Co8  1  0.000000  0.351571  0.104831  1
