# generated using pymatgen
data_DyZn2Cu2Au
_symmetry_space_group_name_H-M   'P 1'
_cell_length_a   5.14132630
_cell_length_b   5.12159670
_cell_length_c   5.12159714
_cell_angle_alpha   60.25334302
_cell_angle_beta   59.87248385
_cell_angle_gamma   59.87249235
_symmetry_Int_Tables_number   1
_chemical_formula_structural   DyZn2Cu2Au
_chemical_formula_sum   'Dy1 Zn2 Cu2 Au1'
_cell_volume   95.35700858
_cell_formula_units_Z   1
loop_
 _symmetry_equiv_pos_site_id
 _symmetry_equiv_pos_as_xyz
  1  'x, y, z'
loop_
 _atom_site_type_symbol
 _atom_site_label
 _atom_site_symmetry_multiplicity
 _atom_site_fract_x
 _atom_site_fract_y
 _atom_site_fract_z
 _atom_site_occupancy
  Dy  Dy0  1  0.002746  0.997254  0.997254  1
  Zn  Zn1  1  0.623087  0.624368  0.129459  1
  Zn  Zn2  1  0.623087  0.129459  0.624368  1
  Cu  Cu3  1  0.125595  0.624842  0.624842  1
  Cu  Cu4  1  0.624721  0.624842  0.624842  1
  Au  Au5  1  0.250764  0.249236  0.249236  1
