# generated using pymatgen
data_HoPa(Tl2Te3)2
_symmetry_space_group_name_H-M   'P 1'
_cell_length_a   8.01805447
_cell_length_b   8.01805410
_cell_length_c   8.75331300
_cell_angle_alpha   81.04347205
_cell_angle_beta   81.04345800
_cell_angle_gamma   120.05552906
_symmetry_Int_Tables_number   1
_chemical_formula_structural   HoPa(Tl2Te3)2
_chemical_formula_sum   'Ho1 Pa1 Tl4 Te6'
_cell_volume   462.82216228
_cell_formula_units_Z   1
loop_
 _symmetry_equiv_pos_site_id
 _symmetry_equiv_pos_as_xyz
  1  'x, y, z'
loop_
 _atom_site_type_symbol
 _atom_site_label
 _atom_site_symmetry_multiplicity
 _atom_site_fract_x
 _atom_site_fract_y
 _atom_site_fract_z
 _atom_site_occupancy
  Ho  Ho0  1  0.167648  0.832352  0.000000  1
  Pa  Pa1  1  0.832316  0.167684  0.000000  1
  Tl  Tl2  1  0.499891  0.500109  0.000000  1
  Tl  Tl3  1  0.655336  0.344664  0.500000  1
  Tl  Tl4  1  0.344944  0.655056  0.500000  1
  Tl  Tl5  1  0.999660  0.000340  0.500000  1
  Te  Te6  1  0.797335  0.804460  0.207261  1
  Te  Te7  1  0.195540  0.202665  0.792739  1
  Te  Te8  1  0.433924  0.057797  0.214498  1
  Te  Te9  1  0.580731  0.949527  0.784862  1
  Te  Te10  1  0.942203  0.566076  0.785502  1
  Te  Te11  1  0.050473  0.419269  0.215138  1
