# generated using pymatgen
data_Y8Zr12Si15Rh
_symmetry_space_group_name_H-M   'P 1'
_cell_length_a   7.18323897
_cell_length_b   7.32228728
_cell_length_c   13.94988723
_cell_angle_alpha   90.17335827
_cell_angle_beta   90.06383686
_cell_angle_gamma   90.10240445
_symmetry_Int_Tables_number   1
_chemical_formula_structural   Y8Zr12Si15Rh
_chemical_formula_sum   'Y8 Zr12 Si15 Rh1'
_cell_volume   733.72754196
_cell_formula_units_Z   1
loop_
 _symmetry_equiv_pos_site_id
 _symmetry_equiv_pos_as_xyz
  1  'x, y, z'
loop_
 _atom_site_type_symbol
 _atom_site_label
 _atom_site_symmetry_multiplicity
 _atom_site_fract_x
 _atom_site_fract_y
 _atom_site_fract_z
 _atom_site_occupancy
  Y  Y0  1  0.517410  0.677480  0.598220  1
  Y  Y1  1  0.018890  0.823937  0.903438  1
  Y  Y2  1  0.480824  0.324922  0.096822  1
  Y  Y3  1  0.981091  0.175095  0.402375  1
  Y  Y4  1  0.478067  0.326051  0.402500  1
  Y  Y5  1  0.981359  0.176614  0.097282  1
  Y  Y6  1  0.520853  0.675340  0.902600  1
  Y  Y7  1  0.020362  0.824084  0.599674  1
  Zr  Zr8  1  0.677238  0.168321  0.620013  1
  Zr  Zr9  1  0.177013  0.322711  0.875507  1
  Zr  Zr10  1  0.325723  0.822057  0.124045  1
  Zr  Zr11  1  0.827849  0.679304  0.377298  1
  Zr  Zr12  1  0.324083  0.824211  0.375885  1
  Zr  Zr13  1  0.823700  0.674351  0.124966  1
  Zr  Zr14  1  0.675035  0.176477  0.875526  1
  Zr  Zr15  1  0.175321  0.324919  0.624803  1
  Zr  Zr16  1  0.850454  0.498439  0.750120  1
  Zr  Zr17  1  0.349869  0.001563  0.750555  1
  Zr  Zr18  1  0.148819  0.502418  0.250831  1
  Zr  Zr19  1  0.653496  0.001574  0.253401  1
  Si  Si20  1  0.150979  0.530964  0.041365  1
  Si  Si21  1  0.347183  0.031020  0.958573  1
  Si  Si22  1  0.850293  0.469955  0.543759  1
  Si  Si23  1  0.342750  0.034250  0.543001  1
  Si  Si24  1  0.850850  0.467986  0.957755  1
  Si  Si25  1  0.651781  0.966938  0.041125  1
  Si  Si26  1  0.150620  0.533300  0.459821  1
  Si  Si27  1  0.474667  0.379889  0.749272  1
  Si  Si28  1  0.972623  0.118448  0.750008  1
  Si  Si29  1  0.527546  0.618963  0.249083  1
  Si  Si30  1  0.029743  0.881439  0.247553  1
  Si  Si31  1  0.724686  0.873029  0.751513  1
  Si  Si32  1  0.223960  0.625446  0.751529  1
  Si  Si33  1  0.276235  0.126083  0.247051  1
  Si  Si34  1  0.775433  0.375933  0.248960  1
  Rh  Rh35  1  0.643198  0.966491  0.453775  1
