# generated using pymatgen
data_Ho5Tc3(P3Ir4)4
_symmetry_space_group_name_H-M   'P 1'
_cell_length_a   12.65783800
_cell_length_b   12.65783864
_cell_length_c   3.98058600
_cell_angle_alpha   90.00000000
_cell_angle_beta   90.00000000
_cell_angle_gamma   119.99999834
_symmetry_Int_Tables_number   1
_chemical_formula_structural   Ho5Tc3(P3Ir4)4
_chemical_formula_sum   'Ho5 Tc3 P12 Ir16'
_cell_volume   552.32759064
_cell_formula_units_Z   1
loop_
 _symmetry_equiv_pos_site_id
 _symmetry_equiv_pos_as_xyz
  1  'x, y, z'
loop_
 _atom_site_type_symbol
 _atom_site_label
 _atom_site_symmetry_multiplicity
 _atom_site_fract_x
 _atom_site_fract_y
 _atom_site_fract_z
 _atom_site_occupancy
  Ho  Ho0  1  0.333333  0.666667  0.500000  1
  Ho  Ho1  1  0.666667  0.333333  0.500000  1
  Ho  Ho2  1  0.000000  0.817160  0.000000  1
  Ho  Ho3  1  0.182840  0.182840  0.000000  1
  Ho  Ho4  1  0.817160  0.000000  0.000000  1
  Tc  Tc5  1  0.000000  0.454946  0.500000  1
  Tc  Tc6  1  0.545054  0.545054  0.500000  1
  Tc  Tc7  1  0.454946  0.000000  0.500000  1
  P  P8  1  0.000000  0.638810  0.500000  1
  P  P9  1  0.361190  0.361190  0.500000  1
  P  P10  1  0.638810  0.000000  0.500000  1
  P  P11  1  0.515517  0.685290  0.000000  1
  P  P12  1  0.314710  0.830227  0.000000  1
  P  P13  1  0.169773  0.484483  0.000000  1
  P  P14  1  0.484483  0.169773  0.000000  1
  P  P15  1  0.685290  0.515517  0.000000  1
  P  P16  1  0.830227  0.314710  0.000000  1
  P  P17  1  0.000000  0.176081  0.500000  1
  P  P18  1  0.823919  0.823919  0.500000  1
  P  P19  1  0.176081  0.000000  0.500000  1
  Ir  Ir20  1  0.509782  0.868163  0.000000  1
  Ir  Ir21  1  0.131837  0.641620  0.000000  1
  Ir  Ir22  1  0.358380  0.490218  0.000000  1
  Ir  Ir23  1  0.490218  0.358380  0.000000  1
  Ir  Ir24  1  0.868163  0.509782  0.000000  1
  Ir  Ir25  1  0.641620  0.131837  0.000000  1
  Ir  Ir26  1  0.000000  0.290830  0.000000  1
  Ir  Ir27  1  0.709170  0.709170  0.000000  1
  Ir  Ir28  1  0.290830  0.000000  0.000000  1
  Ir  Ir29  1  0.626725  0.805894  0.500000  1
  Ir  Ir30  1  0.194106  0.820832  0.500000  1
  Ir  Ir31  1  0.179168  0.373275  0.500000  1
  Ir  Ir32  1  0.373275  0.179168  0.500000  1
  Ir  Ir33  1  0.805894  0.626725  0.500000  1
  Ir  Ir34  1  0.820832  0.194106  0.500000  1
  Ir  Ir35  1  0.000000  0.000000  0.500000  1
