# generated using pymatgen
data_LiYb2PdPt2
_symmetry_space_group_name_H-M   'P 1'
_cell_length_a   5.57918218
_cell_length_b   5.55002774
_cell_length_c   5.18345768
_cell_angle_alpha   57.22739871
_cell_angle_beta   57.44074609
_cell_angle_gamma   59.82609078
_symmetry_Int_Tables_number   1
_chemical_formula_structural   LiYb2PdPt2
_chemical_formula_sum   'Li1 Yb2 Pd1 Pt2'
_cell_volume   108.57123000
_cell_formula_units_Z   1
loop_
 _symmetry_equiv_pos_site_id
 _symmetry_equiv_pos_as_xyz
  1  'x, y, z'
loop_
 _atom_site_type_symbol
 _atom_site_label
 _atom_site_symmetry_multiplicity
 _atom_site_fract_x
 _atom_site_fract_y
 _atom_site_fract_z
 _atom_site_occupancy
  Li  Li0  1  0.125000  0.125000  0.625000  1
  Yb  Yb1  1  0.748544  0.750764  0.752149  1
  Yb  Yb2  1  0.501456  0.499236  0.497851  1
  Pd  Pd3  1  0.125000  0.625000  0.125000  1
  Pt  Pt4  1  0.625000  0.125000  0.125000  1
  Pt  Pt5  1  0.125000  0.125000  0.125000  1
