# generated using pymatgen
data_YEr3ThSn4
_symmetry_space_group_name_H-M   'P 1'
_cell_length_a   8.08604700
_cell_length_b   8.17189100
_cell_length_c   15.44370900
_cell_angle_alpha   90.00000000
_cell_angle_beta   90.00000000
_cell_angle_gamma   90.00000000
_symmetry_Int_Tables_number   1
_chemical_formula_structural   YEr3ThSn4
_chemical_formula_sum   'Y4 Er12 Th4 Sn16'
_cell_volume   1020.49395464
_cell_formula_units_Z   4
loop_
 _symmetry_equiv_pos_site_id
 _symmetry_equiv_pos_as_xyz
  1  'x, y, z'
loop_
 _atom_site_type_symbol
 _atom_site_label
 _atom_site_symmetry_multiplicity
 _atom_site_fract_x
 _atom_site_fract_y
 _atom_site_fract_z
 _atom_site_occupancy
  Y  Y0  1  0.474327  0.677866  0.099217  1
  Y  Y1  1  0.974327  0.822134  0.400783  1
  Y  Y2  1  0.525673  0.322134  0.599217  1
  Y  Y3  1  0.025673  0.177866  0.900783  1
  Er  Er4  1  0.366083  0.837113  0.876670  1
  Er  Er5  1  0.866083  0.662887  0.623330  1
  Er  Er6  1  0.633917  0.162887  0.376670  1
  Er  Er7  1  0.133917  0.337113  0.123330  1
  Er  Er8  1  0.633437  0.163902  0.123039  1
  Er  Er9  1  0.133437  0.336098  0.376961  1
  Er  Er10  1  0.366563  0.836098  0.623039  1
  Er  Er11  1  0.866563  0.663902  0.876961  1
  Er  Er12  1  0.196922  0.502033  0.749697  1
  Er  Er13  1  0.696922  0.997967  0.750303  1
  Er  Er14  1  0.803078  0.497967  0.249697  1
  Er  Er15  1  0.303078  0.002033  0.250303  1
  Th  Th16  1  0.520947  0.321206  0.903478  1
  Th  Th17  1  0.020947  0.178794  0.596522  1
  Th  Th18  1  0.479053  0.678794  0.403478  1
  Th  Th19  1  0.979053  0.821206  0.096522  1
  Sn  Sn20  1  0.295511  0.038746  0.041203  1
  Sn  Sn21  1  0.795511  0.461254  0.458797  1
  Sn  Sn22  1  0.704489  0.961254  0.541203  1
  Sn  Sn23  1  0.204489  0.538746  0.958797  1
  Sn  Sn24  1  0.706988  0.965300  0.957070  1
  Sn  Sn25  1  0.206988  0.534700  0.542930  1
  Sn  Sn26  1  0.293012  0.034700  0.457070  1
  Sn  Sn27  1  0.793012  0.465300  0.042930  1
  Sn  Sn28  1  0.564035  0.622841  0.750544  1
  Sn  Sn29  1  0.064035  0.877159  0.749456  1
  Sn  Sn30  1  0.435965  0.377159  0.250544  1
  Sn  Sn31  1  0.935965  0.122841  0.249456  1
  Sn  Sn32  1  0.330547  0.145357  0.748666  1
  Sn  Sn33  1  0.830547  0.354643  0.751334  1
  Sn  Sn34  1  0.669453  0.854643  0.248666  1
  Sn  Sn35  1  0.169453  0.645357  0.251334  1
