# generated using pymatgen
data_Y5ErAl2(GaNi6)2
_symmetry_space_group_name_H-M   'P 1'
_cell_length_a   7.75809128
_cell_length_b   7.74707753
_cell_length_c   7.74707809
_cell_angle_alpha   109.34433809
_cell_angle_beta   109.50583872
_cell_angle_gamma   109.50584367
_symmetry_Int_Tables_number   1
_chemical_formula_structural   Y5ErAl2(GaNi6)2
_chemical_formula_sum   'Y5 Er1 Al2 Ga2 Ni12'
_cell_volume   358.68773650
_cell_formula_units_Z   1
loop_
 _symmetry_equiv_pos_site_id
 _symmetry_equiv_pos_as_xyz
  1  'x, y, z'
loop_
 _atom_site_type_symbol
 _atom_site_label
 _atom_site_symmetry_multiplicity
 _atom_site_fract_x
 _atom_site_fract_y
 _atom_site_fract_z
 _atom_site_occupancy
  Y  Y0  1  0.709404  0.707241  0.001882  1
  Y  Y1  1  0.290596  0.997836  0.292478  1
  Y  Y2  1  0.000000  0.292609  0.292609  1
  Y  Y3  1  0.290596  0.292478  0.997836  1
  Y  Y4  1  0.709404  0.001882  0.707241  1
  Er  Er5  1  0.000000  0.704232  0.704232  1
  Al  Al6  1  0.499783  0.000119  0.000119  1
  Al  Al7  1  0.500217  0.500336  0.500336  1
  Ga  Ga8  1  0.000000  0.000228  0.500291  1
  Ga  Ga9  1  0.000000  0.500291  0.000228  1
  Ni  Ni10  1  0.337270  0.336902  0.670737  1
  Ni  Ni11  1  0.662730  0.999632  0.333467  1
  Ni  Ni12  1  0.000000  0.663422  0.337676  1
  Ni  Ni13  1  0.662730  0.333467  0.999632  1
  Ni  Ni14  1  0.337270  0.670737  0.336902  1
  Ni  Ni15  1  0.000000  0.337676  0.663422  1
  Ni  Ni16  1  0.335696  0.666663  0.999026  1
  Ni  Ni17  1  0.335696  0.999026  0.666663  1
  Ni  Ni18  1  0.670688  0.335808  0.335808  1
  Ni  Ni19  1  0.664304  0.663330  0.330968  1
  Ni  Ni20  1  0.664304  0.330968  0.663330  1
  Ni  Ni21  1  0.329312  0.665119  0.665119  1
