# generated using pymatgen
data_Li4La2DyHoSi6
_symmetry_space_group_name_H-M   'P 1'
_cell_length_a   9.40876420
_cell_length_b   9.40876285
_cell_length_c   6.88175600
_cell_angle_alpha   90.00000000
_cell_angle_beta   90.00000000
_cell_angle_gamma   153.12305597
_symmetry_Int_Tables_number   1
_chemical_formula_structural   Li4La2DyHoSi6
_chemical_formula_sum   'Li4 La2 Dy1 Ho1 Si6'
_cell_volume   275.40742651
_cell_formula_units_Z   1
loop_
 _symmetry_equiv_pos_site_id
 _symmetry_equiv_pos_as_xyz
  1  'x, y, z'
loop_
 _atom_site_type_symbol
 _atom_site_label
 _atom_site_symmetry_multiplicity
 _atom_site_fract_x
 _atom_site_fract_y
 _atom_site_fract_z
 _atom_site_occupancy
  Li  Li0  1  0.190620  0.809380  0.059215  1
  Li  Li1  1  0.190620  0.809380  0.440785  1
  Li  Li2  1  0.809257  0.190743  0.940540  1
  Li  Li3  1  0.809257  0.190743  0.559460  1
  La  La4  1  0.554041  0.445959  0.250000  1
  La  La5  1  0.446079  0.553921  0.750000  1
  Dy  Dy6  1  0.344204  0.655796  0.250000  1
  Ho  Ho7  1  0.655727  0.344273  0.750000  1
  Si  Si8  1  0.724183  0.275817  0.250000  1
  Si  Si9  1  0.275537  0.724463  0.750000  1
  Si  Si10  1  0.059441  0.940559  0.923408  1
  Si  Si11  1  0.940795  0.059205  0.076486  1
  Si  Si12  1  0.940795  0.059205  0.423514  1
  Si  Si13  1  0.059441  0.940559  0.576592  1
