# generated using pymatgen
data_YPaPdPtPb
_symmetry_space_group_name_H-M   'P 1'
_cell_length_a   7.93141700
_cell_length_b   7.92699100
_cell_length_c   3.64854000
_cell_angle_alpha   90.00000000
_cell_angle_beta   90.00000000
_cell_angle_gamma   90.00000000
_symmetry_Int_Tables_number   1
_chemical_formula_structural   YPaPdPtPb
_chemical_formula_sum   'Y2 Pa2 Pd2 Pt2 Pb2'
_cell_volume   229.39199628
_cell_formula_units_Z   2
loop_
 _symmetry_equiv_pos_site_id
 _symmetry_equiv_pos_as_xyz
  1  'x, y, z'
loop_
 _atom_site_type_symbol
 _atom_site_label
 _atom_site_symmetry_multiplicity
 _atom_site_fract_x
 _atom_site_fract_y
 _atom_site_fract_z
 _atom_site_occupancy
  Y  Y0  1  0.825813  0.665820  0.500000  1
  Y  Y1  1  0.325813  0.834180  0.500000  1
  Pa  Pa2  1  0.667845  0.176568  0.500000  1
  Pa  Pa3  1  0.167845  0.323432  0.500000  1
  Pd  Pd4  1  0.630361  0.887713  0.000000  1
  Pd  Pd5  1  0.130361  0.612287  0.000000  1
  Pt  Pt6  1  0.877960  0.359909  0.000000  1
  Pt  Pt7  1  0.377960  0.140091  0.000000  1
  Pb  Pb8  1  0.998021  0.981835  0.000000  1
  Pb  Pb9  1  0.498021  0.518165  0.000000  1
