# generated using pymatgen
data_Zr8Fe(Si2Rh)7
_symmetry_space_group_name_H-M   'P 1'
_cell_length_a   9.72075296
_cell_length_b   9.72080921
_cell_length_c   9.70379185
_cell_angle_alpha   94.36705667
_cell_angle_beta   94.36797365
_cell_angle_gamma   147.95411097
_symmetry_Int_Tables_number   1
_chemical_formula_structural   Zr8Fe(Si2Rh)7
_chemical_formula_sum   'Zr8 Fe1 Si14 Rh7'
_cell_volume   467.64644754
_cell_formula_units_Z   1
loop_
 _symmetry_equiv_pos_site_id
 _symmetry_equiv_pos_as_xyz
  1  'x, y, z'
loop_
 _atom_site_type_symbol
 _atom_site_label
 _atom_site_symmetry_multiplicity
 _atom_site_fract_x
 _atom_site_fract_y
 _atom_site_fract_z
 _atom_site_occupancy
  Zr  Zr0  1  0.498269  0.305582  0.806143  1
  Zr  Zr1  1  0.500527  0.691651  0.193809  1
  Zr  Zr2  1  0.694496  0.501790  0.193871  1
  Zr  Zr3  1  0.308374  0.499513  0.806197  1
  Zr  Zr4  1  0.136422  0.135275  0.272479  1
  Zr  Zr5  1  0.864743  0.863624  0.727537  1
  Zr  Zr6  1  0.864702  0.135292  0.999995  1
  Zr  Zr7  1  0.136221  0.863802  0.999993  1
  Fe  Fe8  1  0.599598  0.400299  0.499965  1
  Si  Si9  1  0.518531  0.929534  0.412358  1
  Si  Si10  1  0.530651  0.126609  0.584907  1
  Si  Si11  1  0.070373  0.481373  0.587648  1
  Si  Si12  1  0.873431  0.469376  0.415086  1
  Si  Si13  1  0.997540  0.288979  0.291205  1
  Si  Si14  1  0.981583  0.691159  0.702816  1
  Si  Si15  1  0.711081  0.002552  0.708785  1
  Si  Si16  1  0.308754  0.018300  0.297168  1
  Si  Si17  1  0.309606  0.304609  0.584592  1
  Si  Si18  1  0.695368  0.690367  0.415415  1
  Si  Si19  1  0.705536  0.294397  0.000002  1
  Si  Si20  1  0.294582  0.705456  0.000003  1
  Si  Si21  1  0.252073  0.251184  0.999917  1
  Si  Si22  1  0.748838  0.747953  0.000098  1
  Rh  Rh23  1  0.901278  0.399142  0.802328  1
  Rh  Rh24  1  0.600890  0.098734  0.197700  1
  Rh  Rh25  1  0.104680  0.895271  0.500025  1
  Rh  Rh26  1  0.392950  0.607109  0.500031  1
  Rh  Rh27  1  0.106061  0.609942  0.214308  1
  Rh  Rh28  1  0.390020  0.893956  0.785650  1
  Rh  Rh29  1  0.902821  0.097168  0.499971  1
