# generated using pymatgen
data_Yb3Np(Si3Ni5)4
_symmetry_space_group_name_H-M   'P 1'
_cell_length_a   18.66620094
_cell_length_b   3.75114200
_cell_length_c   6.61890908
_cell_angle_alpha   90.00000000
_cell_angle_beta   90.30909649
_cell_angle_gamma   90.00000000
_symmetry_Int_Tables_number   1
_chemical_formula_structural   Yb3Np(Si3Ni5)4
_chemical_formula_sum   'Yb3 Np1 Si12 Ni20'
_cell_volume   463.44642582
_cell_formula_units_Z   1
loop_
 _symmetry_equiv_pos_site_id
 _symmetry_equiv_pos_as_xyz
  1  'x, y, z'
loop_
 _atom_site_type_symbol
 _atom_site_label
 _atom_site_symmetry_multiplicity
 _atom_site_fract_x
 _atom_site_fract_y
 _atom_site_fract_z
 _atom_site_occupancy
  Yb  Yb0  1  0.142618  0.250000  0.876473  1
  Yb  Yb1  1  0.357802  0.750000  0.376624  1
  Yb  Yb2  1  0.855960  0.750000  0.122413  1
  Np  Np3  1  0.643518  0.250000  0.626941  1
  Si  Si4  1  0.913541  0.250000  0.418401  1
  Si  Si5  1  0.414286  0.250000  0.081592  1
  Si  Si6  1  0.085697  0.750000  0.579137  1
  Si  Si7  1  0.586888  0.750000  0.919579  1
  Si  Si8  1  0.736953  0.250000  0.119161  1
  Si  Si9  1  0.238838  0.250000  0.374457  1
  Si  Si10  1  0.261460  0.750000  0.874815  1
  Si  Si11  1  0.763209  0.750000  0.619455  1
  Si  Si12  1  0.926524  0.250000  0.846381  1
  Si  Si13  1  0.424398  0.250000  0.658586  1
  Si  Si14  1  0.075197  0.750000  0.156943  1
  Si  Si15  1  0.573093  0.750000  0.352309  1
  Ni  Ni16  1  0.801769  0.250000  0.814015  1
  Ni  Ni17  1  0.299289  0.250000  0.682079  1
  Ni  Ni18  1  0.200309  0.750000  0.181710  1
  Ni  Ni19  1  0.698752  0.750000  0.312807  1
  Ni  Ni20  1  0.996489  0.250000  0.134194  1
  Ni  Ni21  1  0.493543  0.250000  0.369292  1
  Ni  Ni22  1  0.005598  0.750000  0.867491  1
  Ni  Ni23  1  0.502720  0.750000  0.637282  1
  Ni  Ni24  1  0.515222  0.250000  0.885532  1
  Ni  Ni25  1  0.015448  0.250000  0.614932  1
  Ni  Ni26  1  0.485157  0.750000  0.117125  1
  Ni  Ni27  1  0.984089  0.750000  0.382460  1
  Ni  Ni28  1  0.613678  0.250000  0.147090  1
  Ni  Ni29  1  0.116805  0.250000  0.359708  1
  Ni  Ni30  1  0.383270  0.750000  0.860360  1
  Ni  Ni31  1  0.885541  0.750000  0.643950  1
  Ni  Ni32  1  0.793172  0.250000  0.427438  1
  Ni  Ni33  1  0.293364  0.250000  0.065294  1
  Ni  Ni34  1  0.206523  0.750000  0.564806  1
  Ni  Ni35  1  0.709283  0.750000  0.929167  1
