# generated using pymatgen
data_KPu(SO4)2
_symmetry_space_group_name_H-M   'P 1'
_cell_length_a   5.15765551
_cell_length_b   5.15765597
_cell_length_c   8.55502163
_cell_angle_alpha   89.11936850
_cell_angle_beta   89.11936954
_cell_angle_gamma   65.20721805
_symmetry_Int_Tables_number   1
_chemical_formula_structural   KPu(SO4)2
_chemical_formula_sum   'K1 Pu1 S2 O8'
_cell_volume   206.56569700
_cell_formula_units_Z   1
loop_
 _symmetry_equiv_pos_site_id
 _symmetry_equiv_pos_as_xyz
  1  'x, y, z'
loop_
 _atom_site_type_symbol
 _atom_site_label
 _atom_site_symmetry_multiplicity
 _atom_site_fract_x
 _atom_site_fract_y
 _atom_site_fract_z
 _atom_site_occupancy
  K  K0  1  0.000000  0.000000  0.500000  1
  Pu  Pu1  1  0.000000  0.000000  0.000000  1
  S  S2  1  0.371110  0.371110  0.774229  1
  S  S3  1  0.628890  0.628890  0.225771  1
  O  O4  1  0.300167  0.300167  0.621570  1
  O  O5  1  0.699833  0.699833  0.378430  1
  O  O6  1  0.690476  0.251207  0.793100  1
  O  O7  1  0.309524  0.748793  0.206900  1
  O  O8  1  0.748793  0.309524  0.206900  1
  O  O9  1  0.251207  0.690476  0.793100  1
  O  O10  1  0.256264  0.256264  0.907922  1
  O  O11  1  0.743736  0.743736  0.092078  1
