# generated using pymatgen
data_Li3Yb4GaPt4
_symmetry_space_group_name_H-M   'P 1'
_cell_length_a   4.05792200
_cell_length_b   7.10617021
_cell_length_c   8.17668317
_cell_angle_alpha   89.71639692
_cell_angle_beta   90.00000000
_cell_angle_gamma   90.00000000
_symmetry_Int_Tables_number   1
_chemical_formula_structural   Li3Yb4GaPt4
_chemical_formula_sum   'Li3 Yb4 Ga1 Pt4'
_cell_volume   235.78227296
_cell_formula_units_Z   1
loop_
 _symmetry_equiv_pos_site_id
 _symmetry_equiv_pos_as_xyz
  1  'x, y, z'
loop_
 _atom_site_type_symbol
 _atom_site_label
 _atom_site_symmetry_multiplicity
 _atom_site_fract_x
 _atom_site_fract_y
 _atom_site_fract_z
 _atom_site_occupancy
  Li  Li0  1  0.250000  0.368168  0.560780  1
  Li  Li1  1  0.250000  0.863987  0.937118  1
  Li  Li2  1  0.750000  0.633158  0.441603  1
  Yb  Yb3  1  0.250000  0.966729  0.320211  1
  Yb  Yb4  1  0.250000  0.468038  0.181205  1
  Yb  Yb5  1  0.750000  0.034087  0.677237  1
  Yb  Yb6  1  0.750000  0.534887  0.820894  1
  Ga  Ga7  1  0.750000  0.129315  0.062330  1
  Pt  Pt8  1  0.250000  0.232963  0.887674  1
  Pt  Pt9  1  0.250000  0.741738  0.623829  1
  Pt  Pt10  1  0.750000  0.769654  0.121739  1
  Pt  Pt11  1  0.750000  0.257276  0.365380  1
