# generated using pymatgen
data_LaTeClO3
_symmetry_space_group_name_H-M   'P 1'
_cell_length_a   7.14756800
_cell_length_b   8.27584850
_cell_length_c   8.88566339
_cell_angle_alpha   71.89474350
_cell_angle_beta   90.00000000
_cell_angle_gamma   90.00000000
_symmetry_Int_Tables_number   1
_chemical_formula_structural   LaTeClO3
_chemical_formula_sum   'La4 Te4 Cl4 O12'
_cell_volume   499.58221426
_cell_formula_units_Z   4
loop_
 _symmetry_equiv_pos_site_id
 _symmetry_equiv_pos_as_xyz
  1  'x, y, z'
loop_
 _atom_site_type_symbol
 _atom_site_label
 _atom_site_symmetry_multiplicity
 _atom_site_fract_x
 _atom_site_fract_y
 _atom_site_fract_z
 _atom_site_occupancy
  La  La0  1  0.839099  0.325011  0.400988  1
  La  La1  1  0.160901  0.674989  0.599012  1
  La  La2  1  0.339099  0.174989  0.599012  1
  La  La3  1  0.660901  0.825011  0.400988  1
  Te  Te4  1  0.184911  0.028224  0.253611  1
  Te  Te5  1  0.815089  0.971776  0.746389  1
  Te  Te6  1  0.315089  0.528224  0.253611  1
  Te  Te7  1  0.684911  0.471776  0.746389  1
  Cl  Cl8  1  0.670562  0.151515  0.163105  1
  Cl  Cl9  1  0.829438  0.651515  0.163105  1
  Cl  Cl10  1  0.329438  0.848485  0.836895  1
  Cl  Cl11  1  0.170562  0.348485  0.836895  1
  O  O12  1  0.493302  0.616597  0.628831  1
  O  O13  1  0.337225  0.963506  0.441282  1
  O  O14  1  0.837225  0.536494  0.558718  1
  O  O15  1  0.887411  0.764647  0.714494  1
  O  O16  1  0.993302  0.883403  0.371169  1
  O  O17  1  0.662775  0.036494  0.558718  1
  O  O18  1  0.006698  0.116597  0.628831  1
  O  O19  1  0.387411  0.735353  0.285506  1
  O  O20  1  0.162775  0.463506  0.441282  1
  O  O21  1  0.506698  0.383403  0.371169  1
  O  O22  1  0.112589  0.235353  0.285506  1
  O  O23  1  0.612589  0.264647  0.714494  1
