# generated using pymatgen
data_Ca2OsC2
_symmetry_space_group_name_H-M   'P 1'
_cell_length_a   5.19097700
_cell_length_b   6.57787400
_cell_length_c   10.30278600
_cell_angle_alpha   90.00000000
_cell_angle_beta   90.00000000
_cell_angle_gamma   90.00000000
_symmetry_Int_Tables_number   1
_chemical_formula_structural   Ca2OsC2
_chemical_formula_sum   'Ca8 Os4 C8'
_cell_volume   351.79473384
_cell_formula_units_Z   4
loop_
 _symmetry_equiv_pos_site_id
 _symmetry_equiv_pos_as_xyz
  1  'x, y, z'
loop_
 _atom_site_type_symbol
 _atom_site_label
 _atom_site_symmetry_multiplicity
 _atom_site_fract_x
 _atom_site_fract_y
 _atom_site_fract_z
 _atom_site_occupancy
  Ca  Ca0  1  0.250000  0.692293  0.548867  1
  Ca  Ca1  1  0.750000  0.307707  0.451133  1
  Ca  Ca2  1  0.750000  0.807707  0.048867  1
  Ca  Ca3  1  0.250000  0.192293  0.951133  1
  Ca  Ca4  1  0.250000  0.533200  0.219741  1
  Ca  Ca5  1  0.750000  0.466800  0.780259  1
  Ca  Ca6  1  0.750000  0.966800  0.719741  1
  Ca  Ca7  1  0.250000  0.033200  0.280259  1
  Os  Os8  1  0.250000  0.734171  0.849512  1
  Os  Os9  1  0.750000  0.265829  0.150488  1
  Os  Os10  1  0.750000  0.765829  0.349512  1
  Os  Os11  1  0.250000  0.234171  0.650488  1
  C  C12  1  0.250000  0.470026  0.760250  1
  C  C13  1  0.750000  0.529974  0.239750  1
  C  C14  1  0.750000  0.029974  0.260250  1
  C  C15  1  0.250000  0.970026  0.739750  1
  C  C16  1  0.250000  0.788374  0.025060  1
  C  C17  1  0.750000  0.211626  0.974940  1
  C  C18  1  0.750000  0.711626  0.525060  1
  C  C19  1  0.250000  0.288374  0.474940  1
