# generated using pymatgen
data_Li8Ho6Er2Sn3Sb5
_symmetry_space_group_name_H-M   'P 1'
_cell_length_a   9.39951015
_cell_length_b   9.40054933
_cell_length_c   7.05831916
_cell_angle_alpha   90.00000109
_cell_angle_beta   89.92635202
_cell_angle_gamma   120.00366391
_symmetry_Int_Tables_number   1
_chemical_formula_structural   Li8Ho6Er2Sn3Sb5
_chemical_formula_sum   'Li8 Ho6 Er2 Sn3 Sb5'
_cell_volume   540.09961105
_cell_formula_units_Z   1
loop_
 _symmetry_equiv_pos_site_id
 _symmetry_equiv_pos_as_xyz
  1  'x, y, z'
loop_
 _atom_site_type_symbol
 _atom_site_label
 _atom_site_symmetry_multiplicity
 _atom_site_fract_x
 _atom_site_fract_y
 _atom_site_fract_z
 _atom_site_occupancy
  Li  Li0  1  0.168474  0.334613  0.280831  1
  Li  Li1  1  0.168474  0.833862  0.280831  1
  Li  Li2  1  0.664557  0.832279  0.282394  1
  Li  Li3  1  0.832122  0.665043  0.781292  1
  Li  Li4  1  0.832122  0.167078  0.781292  1
  Li  Li5  1  0.335162  0.167580  0.780065  1
  Li  Li6  1  0.333846  0.666924  0.680096  1
  Li  Li7  1  0.665394  0.332697  0.181850  1
  Ho  Ho8  1  0.979840  0.489920  0.492487  1
  Ho  Ho9  1  0.488079  0.979642  0.994065  1
  Ho  Ho10  1  0.488079  0.508438  0.994065  1
  Ho  Ho11  1  0.020325  0.510163  0.993435  1
  Ho  Ho12  1  0.002236  0.001118  0.501421  1
  Ho  Ho13  1  0.002469  0.001235  0.003504  1
  Er  Er14  1  0.509613  0.022634  0.491908  1
  Er  Er15  1  0.509613  0.486979  0.491908  1
  Sn  Sn16  1  0.332811  0.166405  0.235051  1
  Sn  Sn17  1  0.332721  0.666361  0.258488  1
  Sn  Sn18  1  0.667707  0.333853  0.758261  1
  Sb  Sb19  1  0.166076  0.332972  0.735654  1
  Sb  Sb20  1  0.166076  0.833105  0.735654  1
  Sb  Sb21  1  0.666926  0.833463  0.734934  1
  Sb  Sb22  1  0.833639  0.667041  0.236243  1
  Sb  Sb23  1  0.833639  0.166597  0.236243  1
