# generated using pymatgen
data_Zr10SiNiBi6
_symmetry_space_group_name_H-M   'P 1'
_cell_length_a   8.83897700
_cell_length_b   8.83897707
_cell_length_c   5.91448200
_cell_angle_alpha   90.00000000
_cell_angle_beta   90.00000000
_cell_angle_gamma   119.99999598
_symmetry_Int_Tables_number   1
_chemical_formula_structural   Zr10SiNiBi6
_chemical_formula_sum   'Zr10 Si1 Ni1 Bi6'
_cell_volume   400.17630971
_cell_formula_units_Z   1
loop_
 _symmetry_equiv_pos_site_id
 _symmetry_equiv_pos_as_xyz
  1  'x, y, z'
loop_
 _atom_site_type_symbol
 _atom_site_label
 _atom_site_symmetry_multiplicity
 _atom_site_fract_x
 _atom_site_fract_y
 _atom_site_fract_z
 _atom_site_occupancy
  Zr  Zr0  1  0.745266  0.000000  0.251788  1
  Zr  Zr1  1  0.000000  0.745266  0.251788  1
  Zr  Zr2  1  0.254734  0.254734  0.251788  1
  Zr  Zr3  1  0.254734  0.000000  0.748212  1
  Zr  Zr4  1  0.000000  0.254734  0.748212  1
  Zr  Zr5  1  0.745266  0.745266  0.748212  1
  Zr  Zr6  1  0.333333  0.666667  0.500000  1
  Zr  Zr7  1  0.666667  0.333333  0.500000  1
  Zr  Zr8  1  0.666667  0.333333  0.000000  1
  Zr  Zr9  1  0.333333  0.666667  0.000000  1
  Si  Si10  1  0.000000  0.000000  0.500000  1
  Ni  Ni11  1  0.000000  0.000000  0.000000  1
  Bi  Bi12  1  0.390561  0.000000  0.248754  1
  Bi  Bi13  1  0.000000  0.390561  0.248754  1
  Bi  Bi14  1  0.609439  0.609439  0.248754  1
  Bi  Bi15  1  0.609439  0.000000  0.751246  1
  Bi  Bi16  1  0.000000  0.609439  0.751246  1
  Bi  Bi17  1  0.390561  0.390561  0.751246  1
