# generated using pymatgen
data_Zr13Al9FeRh7
_symmetry_space_group_name_H-M   'P 1'
_cell_length_a   9.16911309
_cell_length_b   9.16911279
_cell_length_c   9.16911300
_cell_angle_alpha   59.68348775
_cell_angle_beta   59.68348882
_cell_angle_gamma   59.68349519
_symmetry_Int_Tables_number   1
_chemical_formula_structural   Zr13Al9FeRh7
_chemical_formula_sum   'Zr13 Al9 Fe1 Rh7'
_cell_volume   541.16914008
_cell_formula_units_Z   1
loop_
 _symmetry_equiv_pos_site_id
 _symmetry_equiv_pos_as_xyz
  1  'x, y, z'
loop_
 _atom_site_type_symbol
 _atom_site_label
 _atom_site_symmetry_multiplicity
 _atom_site_fract_x
 _atom_site_fract_y
 _atom_site_fract_z
 _atom_site_occupancy
  Zr  Zr0  1  0.201370  0.201370  0.797532  1
  Zr  Zr1  1  0.797532  0.201370  0.201370  1
  Zr  Zr2  1  0.201370  0.797532  0.201370  1
  Zr  Zr3  1  0.807190  0.807190  0.174692  1
  Zr  Zr4  1  0.174692  0.807190  0.807190  1
  Zr  Zr5  1  0.807190  0.174692  0.807190  1
  Zr  Zr6  1  0.378750  0.378750  0.378750  1
  Zr  Zr7  1  0.379524  0.865330  0.379524  1
  Zr  Zr8  1  0.865330  0.379524  0.379524  1
  Zr  Zr9  1  0.379524  0.379524  0.865330  1
  Zr  Zr10  1  0.839834  0.485924  0.839834  1
  Zr  Zr11  1  0.485924  0.839834  0.839834  1
  Zr  Zr12  1  0.839834  0.839834  0.485924  1
  Al  Al13  1  0.157450  0.157450  0.157450  1
  Al  Al14  1  0.162250  0.517013  0.162250  1
  Al  Al15  1  0.517013  0.162250  0.162250  1
  Al  Al16  1  0.162250  0.162250  0.517013  1
  Al  Al17  1  0.617698  0.617698  0.617698  1
  Al  Al18  1  0.619845  0.147315  0.619845  1
  Al  Al19  1  0.147315  0.619845  0.619845  1
  Al  Al20  1  0.619845  0.619845  0.147315  1
  Al  Al21  1  0.827681  0.827681  0.827681  1
  Fe  Fe22  1  0.002763  0.002763  0.002763  1
  Rh  Rh23  1  0.005700  0.005700  0.500464  1
  Rh  Rh24  1  0.500464  0.005700  0.005700  1
  Rh  Rh25  1  0.005700  0.500464  0.005700  1
  Rh  Rh26  1  0.493827  0.493827  0.007520  1
  Rh  Rh27  1  0.007520  0.493827  0.493827  1
  Rh  Rh28  1  0.493827  0.007520  0.493827  1
  Rh  Rh29  1  0.500787  0.500787  0.500787  1
