# generated using pymatgen
data_Nd2Er14Cd4IrPt3
_symmetry_space_group_name_H-M   'P 1'
_cell_length_a   9.65449811
_cell_length_b   9.62214770
_cell_length_c   9.60606000
_cell_angle_alpha   60.05529898
_cell_angle_beta   60.16583468
_cell_angle_gamma   60.01676925
_symmetry_Int_Tables_number   1
_chemical_formula_structural   Nd2Er14Cd4IrPt3
_chemical_formula_sum   'Nd2 Er14 Cd4 Ir1 Pt3'
_cell_volume   632.13550751
_cell_formula_units_Z   1
loop_
 _symmetry_equiv_pos_site_id
 _symmetry_equiv_pos_as_xyz
  1  'x, y, z'
loop_
 _atom_site_type_symbol
 _atom_site_label
 _atom_site_symmetry_multiplicity
 _atom_site_fract_x
 _atom_site_fract_y
 _atom_site_fract_z
 _atom_site_occupancy
  Nd  Nd0  1  0.571880  0.569258  0.929431  1
  Nd  Nd1  1  0.933085  0.933043  0.566937  1
  Er  Er2  1  0.353982  0.349771  0.344658  1
  Er  Er3  1  0.353982  0.349771  0.951590  1
  Er  Er4  1  0.354365  0.944194  0.350720  1
  Er  Er5  1  0.936123  0.354811  0.354533  1
  Er  Er6  1  0.809406  0.188728  0.187640  1
  Er  Er7  1  0.190273  0.811347  0.810322  1
  Er  Er8  1  0.190273  0.811347  0.188058  1
  Er  Er9  1  0.809406  0.188728  0.814226  1
  Er  Er10  1  0.192285  0.188560  0.809578  1
  Er  Er11  1  0.809095  0.813932  0.188487  1
  Er  Er12  1  0.941304  0.559559  0.560274  1
  Er  Er13  1  0.562246  0.940853  0.940074  1
  Er  Er14  1  0.562246  0.940853  0.556827  1
  Er  Er15  1  0.941304  0.559559  0.938864  1
  Cd  Cd16  1  0.580608  0.582373  0.579209  1
  Cd  Cd17  1  0.580608  0.582373  0.257810  1
  Cd  Cd18  1  0.576396  0.254711  0.584446  1
  Cd  Cd19  1  0.257281  0.576131  0.583293  1
  Ir  Ir20  1  0.573227  0.136387  0.145193  1
  Pt  Pt21  1  0.142120  0.146129  0.142377  1
  Pt  Pt22  1  0.142120  0.146129  0.569374  1
  Pt  Pt23  1  0.136390  0.571454  0.146077  1
