# generated using pymatgen
data_TmMg3AlGa3Pt4
_symmetry_space_group_name_H-M   'P 1'
_cell_length_a   4.12235600
_cell_length_b   6.68420265
_cell_length_c   7.81101507
_cell_angle_alpha   93.02891226
_cell_angle_beta   90.00000000
_cell_angle_gamma   90.00000000
_symmetry_Int_Tables_number   1
_chemical_formula_structural   TmMg3AlGa3Pt4
_chemical_formula_sum   'Tm1 Mg3 Al1 Ga3 Pt4'
_cell_volume   214.92921044
_cell_formula_units_Z   1
loop_
 _symmetry_equiv_pos_site_id
 _symmetry_equiv_pos_as_xyz
  1  'x, y, z'
loop_
 _atom_site_type_symbol
 _atom_site_label
 _atom_site_symmetry_multiplicity
 _atom_site_fract_x
 _atom_site_fract_y
 _atom_site_fract_z
 _atom_site_occupancy
  Tm  Tm0  1  0.750000  0.476396  0.172986  1
  Mg  Mg1  1  0.250000  0.026034  0.667134  1
  Mg  Mg2  1  0.250000  0.534298  0.823291  1
  Mg  Mg3  1  0.750000  0.965066  0.337833  1
  Al  Al4  1  0.750000  0.351956  0.558793  1
  Ga  Ga5  1  0.250000  0.148594  0.051958  1
  Ga  Ga6  1  0.250000  0.646966  0.443120  1
  Ga  Ga7  1  0.750000  0.856499  0.942363  1
  Pt  Pt8  1  0.250000  0.256511  0.375582  1
  Pt  Pt9  1  0.250000  0.781336  0.137356  1
  Pt  Pt10  1  0.750000  0.727252  0.630112  1
  Pt  Pt11  1  0.750000  0.229092  0.859475  1
