# generated using pymatgen
data_PaSi3Ni
_symmetry_space_group_name_H-M   'P 1'
_cell_length_a   10.66795097
_cell_length_b   10.66795094
_cell_length_c   3.96309500
_cell_angle_alpha   90.00000000
_cell_angle_beta   90.00000000
_cell_angle_gamma   158.45209432
_symmetry_Int_Tables_number   1
_chemical_formula_structural   PaSi3Ni
_chemical_formula_sum   'Pa2 Si6 Ni2'
_cell_volume   165.65045702
_cell_formula_units_Z   2
loop_
 _symmetry_equiv_pos_site_id
 _symmetry_equiv_pos_as_xyz
  1  'x, y, z'
loop_
 _atom_site_type_symbol
 _atom_site_label
 _atom_site_symmetry_multiplicity
 _atom_site_fract_x
 _atom_site_fract_y
 _atom_site_fract_z
 _atom_site_occupancy
  Pa  Pa0  1  0.668602  0.331398  0.500000  1
  Pa  Pa1  1  0.331398  0.668602  0.500000  1
  Si  Si2  1  0.556095  0.443905  0.000000  1
  Si  Si3  1  0.443905  0.556095  0.000000  1
  Si  Si4  1  0.780057  0.219943  0.000000  1
  Si  Si5  1  0.219943  0.780057  0.000000  1
  Si  Si6  1  0.056156  0.943844  0.500000  1
  Si  Si7  1  0.943844  0.056156  0.500000  1
  Ni  Ni8  1  0.889181  0.110819  0.000000  1
  Ni  Ni9  1  0.110819  0.889181  0.000000  1
