# generated using pymatgen
data_Ac3Sm(RuO6)2
_symmetry_space_group_name_H-M   'P 1'
_cell_length_a   10.26084058
_cell_length_b   10.26084030
_cell_length_c   5.64107400
_cell_angle_alpha   75.17727857
_cell_angle_beta   75.17729054
_cell_angle_gamma   69.52614004
_symmetry_Int_Tables_number   1
_chemical_formula_structural   Ac3Sm(RuO6)2
_chemical_formula_sum   'Ac6 Sm2 Ru4 O24'
_cell_volume   528.73594501
_cell_formula_units_Z   2
loop_
 _symmetry_equiv_pos_site_id
 _symmetry_equiv_pos_as_xyz
  1  'x, y, z'
loop_
 _atom_site_type_symbol
 _atom_site_label
 _atom_site_symmetry_multiplicity
 _atom_site_fract_x
 _atom_site_fract_y
 _atom_site_fract_z
 _atom_site_occupancy
  Ac  Ac0  1  0.064977  0.291754  0.616509  1
  Ac  Ac1  1  0.708246  0.935023  0.883491  1
  Ac  Ac2  1  0.935023  0.708246  0.383491  1
  Ac  Ac3  1  0.291754  0.064977  0.116509  1
  Ac  Ac4  1  0.634557  0.365443  0.750000  1
  Ac  Ac5  1  0.365443  0.634557  0.250000  1
  Sm  Sm6  1  0.102116  0.897884  0.750000  1
  Sm  Sm7  1  0.897884  0.102116  0.250000  1
  Ru  Ru8  1  0.497756  0.800626  0.567502  1
  Ru  Ru9  1  0.199374  0.502244  0.932498  1
  Ru  Ru10  1  0.502244  0.199374  0.432498  1
  Ru  Ru11  1  0.800626  0.497756  0.067502  1
  O  O12  1  0.608755  0.165850  0.128036  1
  O  O13  1  0.834150  0.391245  0.371964  1
  O  O14  1  0.391245  0.834150  0.871964  1
  O  O15  1  0.165850  0.608755  0.628036  1
  O  O16  1  0.473089  0.072295  0.714141  1
  O  O17  1  0.927705  0.526911  0.785859  1
  O  O18  1  0.526911  0.927705  0.285859  1
  O  O19  1  0.072295  0.473089  0.214141  1
  O  O20  1  0.325828  0.219975  0.362696  1
  O  O21  1  0.780025  0.674172  0.137304  1
  O  O22  1  0.674172  0.780025  0.637304  1
  O  O23  1  0.219975  0.325828  0.862696  1
  O  O24  1  0.895806  0.927486  0.072435  1
  O  O25  1  0.072514  0.104194  0.427565  1
  O  O26  1  0.104194  0.072514  0.927565  1
  O  O27  1  0.927486  0.895806  0.572435  1
  O  O28  1  0.161836  0.690641  0.053426  1
  O  O29  1  0.309359  0.838164  0.446574  1
  O  O30  1  0.838164  0.309359  0.946574  1
  O  O31  1  0.690641  0.161836  0.553426  1
  O  O32  1  0.379704  0.460646  0.969314  1
  O  O33  1  0.539354  0.620296  0.530686  1
  O  O34  1  0.620296  0.539354  0.030686  1
  O  O35  1  0.460646  0.379704  0.469314  1
