# generated using pymatgen
data_KCr(PSe3)2
_symmetry_space_group_name_H-M   'P 1'
_cell_length_a   6.41319600
_cell_length_b   7.78506549
_cell_length_c   24.10619500
_cell_angle_alpha   72.68413436
_cell_angle_beta   90.00000000
_cell_angle_gamma   90.00000000
_symmetry_Int_Tables_number   1
_chemical_formula_structural   KCr(PSe3)2
_chemical_formula_sum   'K4 Cr4 P8 Se24'
_cell_volume   1149.00667877
_cell_formula_units_Z   4
loop_
 _symmetry_equiv_pos_site_id
 _symmetry_equiv_pos_as_xyz
  1  'x, y, z'
loop_
 _atom_site_type_symbol
 _atom_site_label
 _atom_site_symmetry_multiplicity
 _atom_site_fract_x
 _atom_site_fract_y
 _atom_site_fract_z
 _atom_site_occupancy
  K  K0  1  0.924396  0.667631  0.280773  1
  K  K1  1  0.075604  0.332369  0.719227  1
  K  K2  1  0.424396  0.332369  0.219227  1
  K  K3  1  0.575604  0.667631  0.780773  1
  Cr  Cr4  1  0.249096  0.942931  0.040002  1
  Cr  Cr5  1  0.750904  0.057069  0.959998  1
  Cr  Cr6  1  0.749096  0.057069  0.459998  1
  Cr  Cr7  1  0.250904  0.942931  0.540002  1
  P  P8  1  0.752739  0.957723  0.125745  1
  P  P9  1  0.247261  0.042277  0.874255  1
  P  P10  1  0.252739  0.042277  0.374255  1
  P  P11  1  0.747261  0.957723  0.625745  1
  P  P12  1  0.745264  0.693050  0.106770  1
  P  P13  1  0.254736  0.306950  0.893230  1
  P  P14  1  0.245264  0.306950  0.393230  1
  P  P15  1  0.754736  0.693050  0.606770  1
  Se  Se16  1  0.891567  0.477847  0.172539  1
  Se  Se17  1  0.108433  0.522153  0.827461  1
  Se  Se18  1  0.391567  0.522153  0.327461  1
  Se  Se19  1  0.608433  0.477847  0.672539  1
  Se  Se20  1  0.591511  0.987785  0.371416  1
  Se  Se21  1  0.408489  0.012215  0.628584  1
  Se  Se22  1  0.091511  0.012215  0.128584  1
  Se  Se23  1  0.908489  0.987785  0.871416  1
  Se  Se24  1  0.928758  0.768370  0.020647  1
  Se  Se25  1  0.071242  0.231630  0.979353  1
  Se  Se26  1  0.428758  0.231630  0.479353  1
  Se  Se27  1  0.571242  0.768370  0.520647  1
  Se  Se28  1  0.581990  0.944183  0.203616  1
  Se  Se29  1  0.418010  0.055817  0.796384  1
  Se  Se30  1  0.081990  0.055817  0.296384  1
  Se  Se31  1  0.918010  0.944183  0.703616  1
  Se  Se32  1  0.577184  0.131747  0.045491  1
  Se  Se33  1  0.422816  0.868253  0.954509  1
  Se  Se34  1  0.077184  0.868253  0.454509  1
  Se  Se35  1  0.922816  0.131747  0.545491  1
  Se  Se36  1  0.411285  0.641806  0.093690  1
  Se  Se37  1  0.588715  0.358194  0.906310  1
  Se  Se38  1  0.911285  0.358194  0.406310  1
  Se  Se39  1  0.088715  0.641806  0.593690  1
