# generated using pymatgen
data_Tb11YGaCo4Sn
_symmetry_space_group_name_H-M   'P 1'
_cell_length_a   8.37605367
_cell_length_b   8.36523192
_cell_length_c   8.36523239
_cell_angle_alpha   112.09651666
_cell_angle_beta   109.18685126
_cell_angle_gamma   107.12013278
_symmetry_Int_Tables_number   1
_chemical_formula_structural   Tb11YGaCo4Sn
_chemical_formula_sum   'Tb11 Y1 Ga1 Co4 Sn1'
_cell_volume   450.61454144
_cell_formula_units_Z   1
loop_
 _symmetry_equiv_pos_site_id
 _symmetry_equiv_pos_as_xyz
  1  'x, y, z'
loop_
 _atom_site_type_symbol
 _atom_site_label
 _atom_site_symmetry_multiplicity
 _atom_site_fract_x
 _atom_site_fract_y
 _atom_site_fract_z
 _atom_site_occupancy
  Tb  Tb0  1  0.967680  0.267310  0.700370  1
  Tb  Tb1  1  0.567481  0.267879  0.299602  1
  Tb  Tb2  1  0.432827  0.732361  0.700465  1
  Tb  Tb3  1  0.675600  0.861176  0.186189  1
  Tb  Tb4  1  0.324771  0.510858  0.186053  1
  Tb  Tb5  1  0.324771  0.138719  0.813913  1
  Tb  Tb6  1  0.675600  0.489412  0.814423  1
  Tb  Tb7  1  0.180314  0.218694  0.398654  1
  Tb  Tb8  1  0.819619  0.218374  0.038280  1
  Tb  Tb9  1  0.180314  0.781661  0.961620  1
  Tb  Tb10  1  0.819619  0.781338  0.601244  1
  Y  Y11  1  0.033556  0.733319  0.300238  1
  Ga  Ga12  1  0.000198  0.500271  0.499927  1
  Co  Co13  1  0.658285  0.499351  0.158935  1
  Co  Co14  1  0.339880  0.499881  0.839999  1
  Co  Co15  1  0.886726  0.886388  0.000339  1
  Co  Co16  1  0.113105  0.113178  0.999927  1
  Sn  Sn17  1  0.499655  0.999831  0.499824  1
