# generated using pymatgen
data_Nd2B2Pt4Rh3Au
_symmetry_space_group_name_H-M   'P 1'
_cell_length_a   5.49182865
_cell_length_b   5.51317574
_cell_length_c   7.60332760
_cell_angle_alpha   90.00451046
_cell_angle_beta   90.03700905
_cell_angle_gamma   119.72802021
_symmetry_Int_Tables_number   1
_chemical_formula_structural   Nd2B2Pt4Rh3Au
_chemical_formula_sum   'Nd2 B2 Pt4 Rh3 Au1'
_cell_volume   199.91102689
_cell_formula_units_Z   1
loop_
 _symmetry_equiv_pos_site_id
 _symmetry_equiv_pos_as_xyz
  1  'x, y, z'
loop_
 _atom_site_type_symbol
 _atom_site_label
 _atom_site_symmetry_multiplicity
 _atom_site_fract_x
 _atom_site_fract_y
 _atom_site_fract_z
 _atom_site_occupancy
  Nd  Nd0  1  0.000067  0.001283  0.497148  1
  Nd  Nd1  1  0.000177  0.999589  0.003485  1
  B  B2  1  0.334116  0.672690  0.002112  1
  B  B3  1  0.665592  0.328397  0.001994  1
  Pt  Pt4  1  0.667774  0.322378  0.498538  1
  Pt  Pt5  1  0.997748  0.498568  0.803997  1
  Pt  Pt6  1  0.500587  0.499286  0.199048  1
  Pt  Pt7  1  0.500520  0.499283  0.801608  1
  Rh  Rh8  1  0.501905  0.003117  0.191880  1
  Rh  Rh9  1  0.501631  0.002543  0.809526  1
  Rh  Rh10  1  0.997516  0.498210  0.192306  1
  Au  Au11  1  0.332367  0.674656  0.498357  1
