# generated using pymatgen
data_Ba6HoEr(NiO6)2
_symmetry_space_group_name_H-M   'P 1'
_cell_length_a   7.14267572
_cell_length_b   7.14267623
_cell_length_c   7.14267700
_cell_angle_alpha   93.68014298
_cell_angle_beta   93.68014466
_cell_angle_gamma   93.68013879
_symmetry_Int_Tables_number   1
_chemical_formula_structural   Ba6HoEr(NiO6)2
_chemical_formula_sum   'Ba6 Ho1 Er1 Ni2 O12'
_cell_volume   362.04787051
_cell_formula_units_Z   1
loop_
 _symmetry_equiv_pos_site_id
 _symmetry_equiv_pos_as_xyz
  1  'x, y, z'
loop_
 _atom_site_type_symbol
 _atom_site_label
 _atom_site_symmetry_multiplicity
 _atom_site_fract_x
 _atom_site_fract_y
 _atom_site_fract_z
 _atom_site_occupancy
  Ba  Ba0  1  0.380062  0.119937  0.750000  1
  Ba  Ba1  1  0.750000  0.380063  0.119938  1
  Ba  Ba2  1  0.249999  0.619892  0.880109  1
  Ba  Ba3  1  0.619891  0.880108  0.250001  1
  Ba  Ba4  1  0.119938  0.750000  0.380063  1
  Ba  Ba5  1  0.880108  0.250000  0.619892  1
  Ho  Ho6  1  0.750000  0.750001  0.750000  1
  Er  Er7  1  0.250001  0.250000  0.250000  1
  Ni  Ni8  1  0.499885  0.499885  0.499885  1
  Ni  Ni9  1  0.000115  0.000115  0.000115  1
  O  O10  1  0.782787  0.593428  0.467146  1
  O  O11  1  0.593429  0.467145  0.782787  1
  O  O12  1  0.467145  0.782787  0.593429  1
  O  O13  1  0.032854  0.906572  0.717214  1
  O  O14  1  0.906571  0.717213  0.032854  1
  O  O15  1  0.717214  0.032854  0.906571  1
  O  O16  1  0.217291  0.406080  0.531964  1
  O  O17  1  0.406080  0.531963  0.217291  1
  O  O18  1  0.531963  0.217291  0.406079  1
  O  O19  1  0.968037  0.093920  0.282710  1
  O  O20  1  0.282710  0.968036  0.093919  1
  O  O21  1  0.093919  0.282709  0.968036  1
