# generated using pymatgen
data_KMgAlFeH8
_symmetry_space_group_name_H-M   'P 1'
_cell_length_a   4.29633900
_cell_length_b   4.29634036
_cell_length_c   7.66889000
_cell_angle_alpha   90.00000000
_cell_angle_beta   90.00000000
_cell_angle_gamma   119.99999722
_symmetry_Int_Tables_number   1
_chemical_formula_structural   KMgAlFeH8
_chemical_formula_sum   'K1 Mg1 Al1 Fe1 H8'
_cell_volume   122.59150407
_cell_formula_units_Z   1
loop_
 _symmetry_equiv_pos_site_id
 _symmetry_equiv_pos_as_xyz
  1  'x, y, z'
loop_
 _atom_site_type_symbol
 _atom_site_label
 _atom_site_symmetry_multiplicity
 _atom_site_fract_x
 _atom_site_fract_y
 _atom_site_fract_z
 _atom_site_occupancy
  K  K0  1  0.000000  0.000000  0.486020  1
  Mg  Mg1  1  0.666667  0.333333  0.869652  1
  Al  Al2  1  0.333333  0.666667  0.108206  1
  Fe  Fe3  1  0.000000  0.000000  0.014898  1
  H  H4  1  0.329727  0.164863  0.136866  1
  H  H5  1  0.835137  0.670273  0.136866  1
  H  H6  1  0.835137  0.164863  0.136866  1
  H  H7  1  0.677340  0.838670  0.885606  1
  H  H8  1  0.161330  0.322660  0.885606  1
  H  H9  1  0.161330  0.838670  0.885606  1
  H  H10  1  0.666667  0.333333  0.630758  1
  H  H11  1  0.333333  0.666667  0.323051  1
