# generated using pymatgen
data_Tb16Cd3Co3NiAg
_symmetry_space_group_name_H-M   'P 1'
_cell_length_a   9.51376042
_cell_length_b   9.52214822
_cell_length_c   9.52214785
_cell_angle_alpha   60.15443097
_cell_angle_beta   60.16666255
_cell_angle_gamma   60.16666976
_symmetry_Int_Tables_number   1
_chemical_formula_structural   Tb16Cd3Co3NiAg
_chemical_formula_sum   'Tb16 Cd3 Co3 Ni1 Ag1'
_cell_volume   612.21419896
_cell_formula_units_Z   1
loop_
 _symmetry_equiv_pos_site_id
 _symmetry_equiv_pos_as_xyz
  1  'x, y, z'
loop_
 _atom_site_type_symbol
 _atom_site_label
 _atom_site_symmetry_multiplicity
 _atom_site_fract_x
 _atom_site_fract_y
 _atom_site_fract_z
 _atom_site_occupancy
  Tb  Tb0  1  0.343444  0.347725  0.347725  1
  Tb  Tb1  1  0.345640  0.349272  0.957474  1
  Tb  Tb2  1  0.345640  0.957474  0.349272  1
  Tb  Tb3  1  0.959860  0.346622  0.346622  1
  Tb  Tb4  1  0.814310  0.188794  0.188794  1
  Tb  Tb5  1  0.186436  0.812071  0.812071  1
  Tb  Tb6  1  0.188327  0.811382  0.188319  1
  Tb  Tb7  1  0.814789  0.187567  0.807908  1
  Tb  Tb8  1  0.188327  0.188319  0.811382  1
  Tb  Tb9  1  0.814789  0.807908  0.187567  1
  Tb  Tb10  1  0.934926  0.562249  0.562249  1
  Tb  Tb11  1  0.561305  0.937052  0.937052  1
  Tb  Tb12  1  0.560975  0.935570  0.563658  1
  Tb  Tb13  1  0.936976  0.562488  0.937054  1
  Tb  Tb14  1  0.560975  0.563658  0.935570  1
  Tb  Tb15  1  0.936976  0.937054  0.562488  1
  Cd  Cd16  1  0.580982  0.580923  0.259311  1
  Cd  Cd17  1  0.580982  0.259311  0.580923  1
  Cd  Cd18  1  0.259044  0.581122  0.581122  1
  Co  Co19  1  0.142465  0.141087  0.141087  1
  Co  Co20  1  0.142355  0.141527  0.576641  1
  Co  Co21  1  0.142355  0.576641  0.141527  1
  Ni  Ni22  1  0.575953  0.141634  0.141634  1
  Ag  Ag23  1  0.582167  0.582544  0.582544  1
