# generated using pymatgen
data_Pr3Gd(WN3)4
_symmetry_space_group_name_H-M   'P 1'
_cell_length_a   7.40782674
_cell_length_b   7.40782714
_cell_length_c   6.34348694
_cell_angle_alpha   75.65516748
_cell_angle_beta   75.65516749
_cell_angle_gamma   83.84066157
_symmetry_Int_Tables_number   1
_chemical_formula_structural   Pr3Gd(WN3)4
_chemical_formula_sum   'Pr3 Gd1 W4 N12'
_cell_volume   326.34555539
_cell_formula_units_Z   1
loop_
 _symmetry_equiv_pos_site_id
 _symmetry_equiv_pos_as_xyz
  1  'x, y, z'
loop_
 _atom_site_type_symbol
 _atom_site_label
 _atom_site_symmetry_multiplicity
 _atom_site_fract_x
 _atom_site_fract_y
 _atom_site_fract_z
 _atom_site_occupancy
  Pr  Pr0  1  0.695543  0.304457  0.750000  1
  Pr  Pr1  1  0.089747  0.910253  0.750000  1
  Pr  Pr2  1  0.305306  0.694694  0.250000  1
  Gd  Gd3  1  0.907330  0.092670  0.250000  1
  W  W4  1  0.380361  0.200837  0.244335  1
  W  W5  1  0.621169  0.798925  0.751409  1
  W  W6  1  0.799163  0.619639  0.255665  1
  W  W7  1  0.201075  0.378831  0.748591  1
  N  N8  1  0.617608  0.113547  0.157667  1
  N  N9  1  0.361194  0.336805  0.476846  1
  N  N10  1  0.001355  0.222882  0.856651  1
  N  N11  1  0.386125  0.885257  0.847600  1
  N  N12  1  0.777118  0.998645  0.643349  1
  N  N13  1  0.114743  0.613875  0.652400  1
  N  N14  1  0.886453  0.382392  0.342333  1
  N  N15  1  0.632888  0.654472  0.527901  1
  N  N16  1  0.663195  0.638806  0.023154  1
  N  N17  1  0.345528  0.367112  0.972099  1
  N  N18  1  0.994464  0.780367  0.158981  1
  N  N19  1  0.219633  0.005536  0.341019  1
