# generated using pymatgen
data_TaTi5Re6Si5B
_symmetry_space_group_name_H-M   'P 1'
_cell_length_a   7.46821153
_cell_length_b   7.46941661
_cell_length_c   7.46821284
_cell_angle_alpha   126.21200928
_cell_angle_beta   128.69439320
_cell_angle_gamma   77.52570539
_symmetry_Int_Tables_number   1
_chemical_formula_structural   TaTi5Re6Si5B
_chemical_formula_sum   'Ta1 Ti5 Re6 Si5 B1'
_cell_volume   254.45006058
_cell_formula_units_Z   1
loop_
 _symmetry_equiv_pos_site_id
 _symmetry_equiv_pos_as_xyz
  1  'x, y, z'
loop_
 _atom_site_type_symbol
 _atom_site_label
 _atom_site_symmetry_multiplicity
 _atom_site_fract_x
 _atom_site_fract_y
 _atom_site_fract_z
 _atom_site_occupancy
  Ta  Ta0  1  0.250002  0.900341  0.150339  1
  Ti  Ti1  1  0.552526  0.104618  0.052092  1
  Ti  Ti2  1  0.450197  0.489989  0.539792  1
  Ti  Ti3  1  0.947412  0.499664  0.052253  1
  Ti  Ti4  1  0.049806  0.089610  0.539804  1
  Ti  Ti5  1  0.750023  0.890670  0.640647  1
  Re  Re6  1  0.512537  0.243898  0.756457  1
  Re  Re7  1  0.987440  0.243898  0.231361  1
  Re  Re8  1  0.114591  0.750602  0.612322  1
  Re  Re9  1  0.861837  0.497681  0.612379  1
  Re  Re10  1  0.638281  0.750602  0.136011  1
  Re  Re11  1  0.385302  0.497681  0.135843  1
  Si  Si12  1  0.249987  0.494448  0.744461  1
  Si  Si13  1  0.337785  0.829118  0.503626  1
  Si  Si14  1  0.674501  0.165872  0.503563  1
  Si  Si15  1  0.825492  0.829118  0.991334  1
  Si  Si16  1  0.162308  0.165872  0.991371  1
  B  B17  1  0.749972  0.498517  0.248545  1
