# generated using pymatgen
data_Nd2Re8Si3P
_symmetry_space_group_name_H-M   'P 1'
_cell_length_a   4.14087400
_cell_length_b   7.37437146
_cell_length_c   15.49955759
_cell_angle_alpha   89.96167358
_cell_angle_beta   90.00000000
_cell_angle_gamma   90.00000000
_symmetry_Int_Tables_number   1
_chemical_formula_structural   Nd2Re8Si3P
_chemical_formula_sum   'Nd4 Re16 Si6 P2'
_cell_volume   473.29970152
_cell_formula_units_Z   2
loop_
 _symmetry_equiv_pos_site_id
 _symmetry_equiv_pos_as_xyz
  1  'x, y, z'
loop_
 _atom_site_type_symbol
 _atom_site_label
 _atom_site_symmetry_multiplicity
 _atom_site_fract_x
 _atom_site_fract_y
 _atom_site_fract_z
 _atom_site_occupancy
  Nd  Nd0  1  0.000000  0.581405  0.119168  1
  Nd  Nd1  1  0.000000  0.418595  0.880832  1
  Nd  Nd2  1  0.500000  0.079144  0.384654  1
  Nd  Nd3  1  0.500000  0.920856  0.615346  1
  Re  Re4  1  0.000000  0.137780  0.051957  1
  Re  Re5  1  0.000000  0.862220  0.948043  1
  Re  Re6  1  0.500000  0.640857  0.449232  1
  Re  Re7  1  0.500000  0.359143  0.550768  1
  Re  Re8  1  0.000000  0.737052  0.323724  1
  Re  Re9  1  0.000000  0.262948  0.676276  1
  Re  Re10  1  0.500000  0.234457  0.179257  1
  Re  Re11  1  0.500000  0.765543  0.820743  1
  Re  Re12  1  0.000000  0.425732  0.419237  1
  Re  Re13  1  0.000000  0.574268  0.580763  1
  Re  Re14  1  0.500000  0.933670  0.082063  1
  Re  Re15  1  0.500000  0.066330  0.917937  1
  Re  Re16  1  0.000000  0.994539  0.207573  1
  Re  Re17  1  0.000000  0.005461  0.792427  1
  Re  Re18  1  0.500000  0.492708  0.294427  1
  Re  Re19  1  0.500000  0.507292  0.705573  1
  Si  Si20  1  0.500000  0.329236  0.024058  1
  Si  Si21  1  0.500000  0.670764  0.975942  1
  Si  Si22  1  0.000000  0.294867  0.273766  1
  Si  Si23  1  0.000000  0.705133  0.726234  1
  Si  Si24  1  0.500000  0.795602  0.227931  1
  Si  Si25  1  0.500000  0.204398  0.772069  1
  P  P26  1  0.000000  0.816625  0.474143  1
  P  P27  1  0.000000  0.183375  0.525857  1
