# generated using pymatgen
data_Tb2Ho3AlSb2
_symmetry_space_group_name_H-M   'P 1'
_cell_length_a   8.89702747
_cell_length_b   8.89598021
_cell_length_c   6.40373000
_cell_angle_alpha   90.00000000
_cell_angle_beta   90.00000000
_cell_angle_gamma   119.99610045
_symmetry_Int_Tables_number   1
_chemical_formula_structural   Tb2Ho3AlSb2
_chemical_formula_sum   'Tb4 Ho6 Al2 Sb4'
_cell_volume   438.95444159
_cell_formula_units_Z   2
loop_
 _symmetry_equiv_pos_site_id
 _symmetry_equiv_pos_as_xyz
  1  'x, y, z'
loop_
 _atom_site_type_symbol
 _atom_site_label
 _atom_site_symmetry_multiplicity
 _atom_site_fract_x
 _atom_site_fract_y
 _atom_site_fract_z
 _atom_site_occupancy
  Tb  Tb0  1  0.755798  0.998961  0.750000  1
  Tb  Tb1  1  0.755798  0.756838  0.250000  1
  Tb  Tb2  1  0.008530  0.242765  0.250000  1
  Tb  Tb3  1  0.008530  0.765765  0.750000  1
  Ho  Ho4  1  0.335675  0.667838  0.000000  1
  Ho  Ho5  1  0.655679  0.327838  0.500000  1
  Ho  Ho6  1  0.655679  0.327838  0.000000  1
  Ho  Ho7  1  0.335675  0.667838  0.500000  1
  Ho  Ho8  1  0.241862  0.232420  0.750000  1
  Ho  Ho9  1  0.241862  0.009441  0.250000  1
  Al  Al10  1  0.398158  0.997247  0.750000  1
  Al  Al11  1  0.398158  0.400911  0.250000  1
  Sb  Sb12  1  0.999076  0.606638  0.250000  1
  Sb  Sb13  1  0.999076  0.392438  0.750000  1
  Sb  Sb14  1  0.605223  0.604319  0.750000  1
  Sb  Sb15  1  0.605223  0.000902  0.250000  1
