# generated using pymatgen
data_La13NdAu6
_symmetry_space_group_name_H-M   'P 1'
_cell_length_a   6.60921164
_cell_length_b   10.64695672
_cell_length_c   10.66981256
_cell_angle_alpha   119.92922873
_cell_angle_beta   90.04222584
_cell_angle_gamma   89.99950386
_symmetry_Int_Tables_number   1
_chemical_formula_structural   La13NdAu6
_chemical_formula_sum   'La13 Nd1 Au6'
_cell_volume   650.68633300
_cell_formula_units_Z   1
loop_
 _symmetry_equiv_pos_site_id
 _symmetry_equiv_pos_as_xyz
  1  'x, y, z'
loop_
 _atom_site_type_symbol
 _atom_site_label
 _atom_site_symmetry_multiplicity
 _atom_site_fract_x
 _atom_site_fract_y
 _atom_site_fract_z
 _atom_site_occupancy
  La  La0  1  0.440565  0.333909  0.667802  1
  La  La1  1  0.939089  0.666311  0.332623  1
  La  La2  1  0.245714  0.130029  0.870674  1
  La  La3  1  0.245697  0.740637  0.870692  1
  La  La4  1  0.247361  0.129020  0.258016  1
  La  La5  1  0.747434  0.869201  0.129285  1
  La  La6  1  0.747421  0.260086  0.129291  1
  La  La7  1  0.746683  0.871192  0.742361  1
  La  La8  1  0.448281  0.537005  0.463035  1
  La  La9  1  0.448315  0.926015  0.463059  1
  La  La10  1  0.448401  0.536785  0.073595  1
  La  La11  1  0.949133  0.462192  0.538875  1
  La  La12  1  0.949147  0.076699  0.538866  1
  Nd  Nd13  1  0.949347  0.461570  0.923133  1
  Au  Au14  1  0.189051  0.810725  0.186975  1
  Au  Au15  1  0.189040  0.376236  0.186962  1
  Au  Au16  1  0.186919  0.811877  0.623764  1
  Au  Au17  1  0.690126  0.188866  0.812653  1
  Au  Au18  1  0.690132  0.623798  0.812651  1
  Au  Au19  1  0.688144  0.187848  0.375689  1
