# generated using pymatgen
data_La4Pr4SiPd24
_symmetry_space_group_name_H-M   'P 1'
_cell_length_a   8.52732664
_cell_length_b   8.52724132
_cell_length_c   8.52724132
_cell_angle_alpha   89.99803370
_cell_angle_beta   89.96856772
_cell_angle_gamma   89.96856772
_symmetry_Int_Tables_number   1
_chemical_formula_structural   La4Pr4SiPd24
_chemical_formula_sum   'La4 Pr4 Si1 Pd24'
_cell_volume   620.05451700
_cell_formula_units_Z   1
loop_
 _symmetry_equiv_pos_site_id
 _symmetry_equiv_pos_as_xyz
  1  'x, y, z'
loop_
 _atom_site_type_symbol
 _atom_site_label
 _atom_site_symmetry_multiplicity
 _atom_site_fract_x
 _atom_site_fract_y
 _atom_site_fract_z
 _atom_site_occupancy
  La  La0  1  0.253892  0.253900  0.253900  1
  La  La1  1  0.746163  0.746240  0.746240  1
  La  La2  1  0.746094  0.746130  0.253786  1
  La  La3  1  0.746094  0.253786  0.746130  1
  Pr  Pr4  1  0.253352  0.253445  0.746706  1
  Pr  Pr5  1  0.253352  0.746706  0.253445  1
  Pr  Pr6  1  0.253404  0.746505  0.746505  1
  Pr  Pr7  1  0.746699  0.253320  0.253320  1
  Si  Si8  1  0.000151  0.999999  0.999999  1
  Pd  Pd9  1  0.256986  0.499984  0.000064  1
  Pd  Pd10  1  0.743023  0.500040  0.999926  1
  Pd  Pd11  1  0.000051  0.256972  0.500011  1
  Pd  Pd12  1  0.499992  0.256968  0.999996  1
  Pd  Pd13  1  0.999907  0.743026  0.500009  1
  Pd  Pd14  1  0.500051  0.743013  0.000003  1
  Pd  Pd15  1  0.499992  0.999996  0.256968  1
  Pd  Pd16  1  0.256986  0.000064  0.499984  1
  Pd  Pd17  1  0.500051  0.000003  0.743013  1
  Pd  Pd18  1  0.743023  0.999926  0.500040  1
  Pd  Pd19  1  0.000051  0.500011  0.256972  1
  Pd  Pd20  1  0.999907  0.500009  0.743026  1
  Pd  Pd21  1  0.252147  0.499916  0.499916  1
  Pd  Pd22  1  0.747860  0.500077  0.500077  1
  Pd  Pd23  1  0.499967  0.252139  0.500004  1
  Pd  Pd24  1  0.500132  0.747855  0.499995  1
  Pd  Pd25  1  0.499967  0.500004  0.252139  1
  Pd  Pd26  1  0.500132  0.499995  0.747855  1
  Pd  Pd27  1  0.280618  0.999869  0.999869  1
  Pd  Pd28  1  0.719272  0.000106  0.000106  1
  Pd  Pd29  1  0.000047  0.280681  0.999994  1
  Pd  Pd30  1  0.000294  0.719328  0.999994  1
  Pd  Pd31  1  0.000047  0.999994  0.280681  1
  Pd  Pd32  1  0.000294  0.999994  0.719328  1
