# generated using pymatgen
data_SrCa3(CdAs2)2
_symmetry_space_group_name_H-M   'P 1'
_cell_length_a   8.72917453
_cell_length_b   8.72917526
_cell_length_c   7.18283793
_cell_angle_alpha   89.10592701
_cell_angle_beta   90.89407510
_cell_angle_gamma   150.73885366
_symmetry_Int_Tables_number   1
_chemical_formula_structural   SrCa3(CdAs2)2
_chemical_formula_sum   'Sr1 Ca3 Cd2 As4'
_cell_volume   267.49098347
_cell_formula_units_Z   1
loop_
 _symmetry_equiv_pos_site_id
 _symmetry_equiv_pos_as_xyz
  1  'x, y, z'
loop_
 _atom_site_type_symbol
 _atom_site_label
 _atom_site_symmetry_multiplicity
 _atom_site_fract_x
 _atom_site_fract_y
 _atom_site_fract_z
 _atom_site_occupancy
  Sr  Sr0  1  0.298853  0.701147  0.937867  1
  Ca  Ca1  1  0.699893  0.300107  0.429737  1
  Ca  Ca2  1  0.470162  0.529838  0.273913  1
  Ca  Ca3  1  0.532433  0.467567  0.772920  1
  Cd  Cd4  1  0.097158  0.902842  0.111029  1
  Cd  Cd5  1  0.901627  0.098373  0.603567  1
  As  As6  1  0.063998  0.936002  0.488175  1
  As  As7  1  0.939605  0.060395  0.983156  1
  As  As8  1  0.319932  0.680068  0.483994  1
  As  As9  1  0.676339  0.323661  0.006741  1
