# generated using pymatgen
data_Yb6Si24HgRu7
_symmetry_space_group_name_H-M   'P 1'
_cell_length_a   10.21540460
_cell_length_b   10.21540466
_cell_length_c   8.21464901
_cell_angle_alpha   90.02290403
_cell_angle_beta   90.02290518
_cell_angle_gamma   132.46446225
_symmetry_Int_Tables_number   1
_chemical_formula_structural   Yb6Si24HgRu7
_chemical_formula_sum   'Yb6 Si24 Hg1 Ru7'
_cell_volume   632.37910230
_cell_formula_units_Z   1
loop_
 _symmetry_equiv_pos_site_id
 _symmetry_equiv_pos_as_xyz
  1  'x, y, z'
loop_
 _atom_site_type_symbol
 _atom_site_label
 _atom_site_symmetry_multiplicity
 _atom_site_fract_x
 _atom_site_fract_y
 _atom_site_fract_z
 _atom_site_occupancy
  Yb  Yb0  1  0.997421  0.002579  0.000000  1
  Yb  Yb1  1  0.500877  0.499123  0.500000  1
  Yb  Yb2  1  0.002689  0.505048  0.253874  1
  Yb  Yb3  1  0.999631  0.502093  0.749025  1
  Yb  Yb4  1  0.494952  0.997311  0.746126  1
  Yb  Yb5  1  0.497907  0.000369  0.250975  1
  Si  Si6  1  0.692574  0.307426  0.000000  1
  Si  Si7  1  0.292052  0.707948  0.000000  1
  Si  Si8  1  0.791580  0.208420  0.500000  1
  Si  Si9  1  0.204478  0.795522  0.500000  1
  Si  Si10  1  0.339877  0.327211  0.168567  1
  Si  Si11  1  0.672789  0.660123  0.831433  1
  Si  Si12  1  0.172024  0.162861  0.666599  1
  Si  Si13  1  0.837139  0.827976  0.333401  1
  Si  Si14  1  0.849852  0.621353  0.005960  1
  Si  Si15  1  0.184794  0.412026  0.002062  1
  Si  Si16  1  0.650101  0.881385  0.504613  1
  Si  Si17  1  0.118615  0.349899  0.495387  1
  Si  Si18  1  0.345672  0.111501  0.493947  1
  Si  Si19  1  0.888499  0.654328  0.506053  1
  Si  Si20  1  0.378647  0.150148  0.994040  1
  Si  Si21  1  0.587974  0.815206  0.997938  1
  Si  Si22  1  0.884970  0.111646  0.298526  1
  Si  Si23  1  0.107611  0.875603  0.730139  1
  Si  Si24  1  0.607672  0.377196  0.765258  1
  Si  Si25  1  0.622804  0.392328  0.234742  1
  Si  Si26  1  0.391815  0.623239  0.234247  1
  Si  Si27  1  0.376761  0.608185  0.765753  1
  Si  Si28  1  0.888354  0.115030  0.701474  1
  Si  Si29  1  0.124397  0.892389  0.269861  1
  Hg  Hg30  1  0.828681  0.171319  0.000000  1
  Ru  Ru31  1  0.168691  0.831309  0.000000  1
  Ru  Ru32  1  0.668314  0.331686  0.500000  1
  Ru  Ru33  1  0.330293  0.669707  0.500000  1
  Ru  Ru34  1  0.126245  0.126467  0.374677  1
  Ru  Ru35  1  0.873533  0.873755  0.625323  1
  Ru  Ru36  1  0.373644  0.373932  0.873647  1
  Ru  Ru37  1  0.626068  0.626356  0.126353  1
