# generated using pymatgen
data_Ca3YbAlSiIr4
_symmetry_space_group_name_H-M   'P 1'
_cell_length_a   5.72526484
_cell_length_b   5.75440863
_cell_length_c   7.41123945
_cell_angle_alpha   80.19294549
_cell_angle_beta   80.42400958
_cell_angle_gamma   60.48855838
_symmetry_Int_Tables_number   1
_chemical_formula_structural   Ca3YbAlSiIr4
_chemical_formula_sum   'Ca3 Yb1 Al1 Si1 Ir4'
_cell_volume   208.41303051
_cell_formula_units_Z   1
loop_
 _symmetry_equiv_pos_site_id
 _symmetry_equiv_pos_as_xyz
  1  'x, y, z'
loop_
 _atom_site_type_symbol
 _atom_site_label
 _atom_site_symmetry_multiplicity
 _atom_site_fract_x
 _atom_site_fract_y
 _atom_site_fract_z
 _atom_site_occupancy
  Ca  Ca0  1  0.277347  0.010418  0.360030  1
  Ca  Ca1  1  0.014079  0.278962  0.860291  1
  Ca  Ca2  1  0.720560  0.986622  0.641039  1
  Yb  Yb3  1  0.989140  0.720270  0.140400  1
  Al  Al4  1  0.421212  0.578488  0.749772  1
  Si  Si5  1  0.569051  0.431219  0.250096  1
  Ir  Ir6  1  0.496755  0.777951  0.999740  1
  Ir  Ir7  1  0.219803  0.505953  0.498898  1
  Ir  Ir8  1  0.512729  0.221388  0.020772  1
  Ir  Ir9  1  0.779322  0.488727  0.478962  1
