# generated using pymatgen
data_Nd3Sb2As4Rh9
_symmetry_space_group_name_H-M   'P 1'
_cell_length_a   4.09391800
_cell_length_b   8.63021684
_cell_length_c   10.11233553
_cell_angle_alpha   106.33041591
_cell_angle_beta   90.00000000
_cell_angle_gamma   103.72045626
_symmetry_Int_Tables_number   1
_chemical_formula_structural   Nd3Sb2As4Rh9
_chemical_formula_sum   'Nd3 Sb2 As4 Rh9'
_cell_volume   332.23152172
_cell_formula_units_Z   1
loop_
 _symmetry_equiv_pos_site_id
 _symmetry_equiv_pos_as_xyz
  1  'x, y, z'
loop_
 _atom_site_type_symbol
 _atom_site_label
 _atom_site_symmetry_multiplicity
 _atom_site_fract_x
 _atom_site_fract_y
 _atom_site_fract_z
 _atom_site_occupancy
  Nd  Nd0  1  0.853139  0.706278  0.314339  1
  Nd  Nd1  1  0.146861  0.293722  0.685661  1
  Nd  Nd2  1  0.000000  0.000000  0.000000  1
  Sb  Sb3  1  0.800626  0.601252  0.868373  1
  Sb  Sb4  1  0.199374  0.398748  0.131627  1
  As  As5  1  0.532641  0.065282  0.773543  1
  As  As6  1  0.467359  0.934718  0.226457  1
  As  As7  1  0.638850  0.277701  0.455823  1
  As  As8  1  0.361150  0.722299  0.544177  1
  Rh  Rh9  1  0.956236  0.912473  0.666663  1
  Rh  Rh10  1  0.043764  0.087527  0.333337  1
  Rh  Rh11  1  0.781104  0.562207  0.599227  1
  Rh  Rh12  1  0.218896  0.437793  0.400773  1
  Rh  Rh13  1  0.378627  0.757255  0.789387  1
  Rh  Rh14  1  0.621373  0.242745  0.210613  1
  Rh  Rh15  1  0.500000  0.000000  0.500000  1
  Rh  Rh16  1  0.666860  0.333720  0.950968  1
  Rh  Rh17  1  0.333140  0.666280  0.049032  1
