# generated using pymatgen
data_Ac3Cd2Pb3
_symmetry_space_group_name_H-M   'P 1'
_cell_length_a   6.99708883
_cell_length_b   6.99708762
_cell_length_c   11.14080800
_cell_angle_alpha   90.00000000
_cell_angle_beta   90.00000000
_cell_angle_gamma   102.97056335
_symmetry_Int_Tables_number   1
_chemical_formula_structural   Ac3Cd2Pb3
_chemical_formula_sum   'Ac6 Cd4 Pb6'
_cell_volume   531.52876756
_cell_formula_units_Z   2
loop_
 _symmetry_equiv_pos_site_id
 _symmetry_equiv_pos_as_xyz
  1  'x, y, z'
loop_
 _atom_site_type_symbol
 _atom_site_label
 _atom_site_symmetry_multiplicity
 _atom_site_fract_x
 _atom_site_fract_y
 _atom_site_fract_z
 _atom_site_occupancy
  Ac  Ac0  1  0.623131  0.623131  0.250000  1
  Ac  Ac1  1  0.376869  0.376869  0.750000  1
  Ac  Ac2  1  0.205287  0.794713  0.500000  1
  Ac  Ac3  1  0.205287  0.794713  0.000000  1
  Ac  Ac4  1  0.794713  0.205287  0.500000  1
  Ac  Ac5  1  0.794713  0.205287  0.000000  1
  Cd  Cd6  1  0.315290  0.315290  0.048664  1
  Cd  Cd7  1  0.684710  0.684710  0.951336  1
  Cd  Cd8  1  0.315290  0.315290  0.451336  1
  Cd  Cd9  1  0.684710  0.684710  0.548664  1
  Pb  Pb10  1  0.020025  0.020024  0.250000  1
  Pb  Pb11  1  0.979976  0.979975  0.750000  1
  Pb  Pb12  1  0.491232  0.070809  0.250000  1
  Pb  Pb13  1  0.929191  0.508768  0.750000  1
  Pb  Pb14  1  0.508768  0.929191  0.750000  1
  Pb  Pb15  1  0.070809  0.491232  0.250000  1
