# generated using pymatgen
data_CaSm3(TcO6)2
_symmetry_space_group_name_H-M   'P 1'
_cell_length_a   10.01886182
_cell_length_b   10.01886238
_cell_length_c   5.50826300
_cell_angle_alpha   75.47377638
_cell_angle_beta   75.47376964
_cell_angle_gamma   69.49897174
_symmetry_Int_Tables_number   1
_chemical_formula_structural   CaSm3(TcO6)2
_chemical_formula_sum   'Ca2 Sm6 Tc4 O24'
_cell_volume   493.16794585
_cell_formula_units_Z   2
loop_
 _symmetry_equiv_pos_site_id
 _symmetry_equiv_pos_as_xyz
  1  'x, y, z'
loop_
 _atom_site_type_symbol
 _atom_site_label
 _atom_site_symmetry_multiplicity
 _atom_site_fract_x
 _atom_site_fract_y
 _atom_site_fract_z
 _atom_site_occupancy
  Ca  Ca0  1  0.631830  0.368170  0.750000  1
  Ca  Ca1  1  0.368170  0.631830  0.250000  1
  Sm  Sm2  1  0.110020  0.889980  0.750000  1
  Sm  Sm3  1  0.889980  0.110020  0.250000  1
  Sm  Sm4  1  0.713876  0.943826  0.873284  1
  Sm  Sm5  1  0.286124  0.056174  0.126716  1
  Sm  Sm6  1  0.056174  0.286124  0.626716  1
  Sm  Sm7  1  0.943826  0.713876  0.373284  1
  Tc  Tc8  1  0.503056  0.798483  0.553723  1
  Tc  Tc9  1  0.496944  0.201517  0.446277  1
  Tc  Tc10  1  0.201517  0.496944  0.946277  1
  Tc  Tc11  1  0.798483  0.503056  0.053723  1
  O  O12  1  0.688942  0.159049  0.581971  1
  O  O13  1  0.311058  0.840951  0.418029  1
  O  O14  1  0.840951  0.311058  0.918029  1
  O  O15  1  0.159049  0.688942  0.081971  1
  O  O16  1  0.386433  0.825894  0.856360  1
  O  O17  1  0.613567  0.174106  0.143640  1
  O  O18  1  0.174106  0.613567  0.643640  1
  O  O19  1  0.825894  0.386433  0.356360  1
  O  O20  1  0.674625  0.790199  0.627253  1
  O  O21  1  0.325375  0.209801  0.372747  1
  O  O22  1  0.209801  0.325375  0.872747  1
  O  O23  1  0.790199  0.674625  0.127253  1
  O  O24  1  0.470735  0.072910  0.742813  1
  O  O25  1  0.529265  0.927090  0.257187  1
  O  O26  1  0.927090  0.529265  0.757187  1
  O  O27  1  0.072910  0.470735  0.242813  1
  O  O28  1  0.542300  0.617137  0.519011  1
  O  O29  1  0.457700  0.382863  0.480989  1
  O  O30  1  0.382863  0.457700  0.980989  1
  O  O31  1  0.617137  0.542300  0.019011  1
  O  O32  1  0.889141  0.925122  0.076417  1
  O  O33  1  0.110859  0.074878  0.923583  1
  O  O34  1  0.074878  0.110859  0.423583  1
  O  O35  1  0.925122  0.889141  0.576417  1
