# generated using pymatgen
data_Tb3Y4Pa(ReB6)4
_symmetry_space_group_name_H-M   'P 1'
_cell_length_a   3.70106500
_cell_length_b   9.19640344
_cell_length_c   11.57649906
_cell_angle_alpha   89.81214936
_cell_angle_beta   90.00000000
_cell_angle_gamma   90.00000000
_symmetry_Int_Tables_number   1
_chemical_formula_structural   Tb3Y4Pa(ReB6)4
_chemical_formula_sum   'Tb3 Y4 Pa1 Re4 B24'
_cell_volume   394.02124076
_cell_formula_units_Z   1
loop_
 _symmetry_equiv_pos_site_id
 _symmetry_equiv_pos_as_xyz
  1  'x, y, z'
loop_
 _atom_site_type_symbol
 _atom_site_label
 _atom_site_symmetry_multiplicity
 _atom_site_fract_x
 _atom_site_fract_y
 _atom_site_fract_z
 _atom_site_occupancy
  Tb  Tb0  1  0.000000  0.178964  0.913084  1
  Tb  Tb1  1  0.000000  0.323551  0.414427  1
  Tb  Tb2  1  0.000000  0.675884  0.586445  1
  Y  Y3  1  0.000000  0.442409  0.127986  1
  Y  Y4  1  0.000000  0.555261  0.871130  1
  Y  Y5  1  0.000000  0.943340  0.372401  1
  Y  Y6  1  0.000000  0.057316  0.629901  1
  Pa  Pa7  1  0.000000  0.823529  0.085898  1
  Re  Re8  1  0.000000  0.134660  0.177807  1
  Re  Re9  1  0.000000  0.862531  0.824453  1
  Re  Re10  1  0.000000  0.640871  0.317941  1
  Re  Re11  1  0.000000  0.362372  0.678695  1
  B  B12  1  0.500000  0.052073  0.068169  1
  B  B13  1  0.500000  0.945528  0.933209  1
  B  B14  1  0.500000  0.553921  0.431926  1
  B  B15  1  0.500000  0.447217  0.566608  1
  B  B16  1  0.500000  0.247564  0.081470  1
  B  B17  1  0.500000  0.751771  0.919332  1
  B  B18  1  0.500000  0.747995  0.418842  1
  B  B19  1  0.500000  0.251900  0.581222  1
  B  B20  1  0.500000  0.290621  0.233670  1
  B  B21  1  0.500000  0.708884  0.765926  1
  B  B22  1  0.500000  0.791498  0.265251  1
  B  B23  1  0.500000  0.208846  0.734128  1
  B  B24  1  0.500000  0.130900  0.314538  1
  B  B25  1  0.500000  0.869573  0.686711  1
  B  B26  1  0.500000  0.632305  0.185086  1
  B  B27  1  0.500000  0.368771  0.813577  1
  B  B28  1  0.500000  0.483031  0.287428  1
  B  B29  1  0.500000  0.517514  0.711891  1
  B  B30  1  0.500000  0.982446  0.212298  1
  B  B31  1  0.500000  0.017555  0.787678  1
  B  B32  1  0.500000  0.102473  0.471888  1
  B  B33  1  0.500000  0.897601  0.529533  1
  B  B34  1  0.500000  0.606973  0.029593  1
  B  B35  1  0.500000  0.392353  0.969864  1
