# generated using pymatgen
data_Dy5SnBi2Se
_symmetry_space_group_name_H-M   'P 1'
_cell_length_a   9.21931273
_cell_length_b   9.21931215
_cell_length_c   6.65859400
_cell_angle_alpha   90.00000000
_cell_angle_beta   90.00000000
_cell_angle_gamma   120.10314378
_symmetry_Int_Tables_number   1
_chemical_formula_structural   Dy5SnBi2Se
_chemical_formula_sum   'Dy10 Sn2 Bi4 Se2'
_cell_volume   489.61860597
_cell_formula_units_Z   2
loop_
 _symmetry_equiv_pos_site_id
 _symmetry_equiv_pos_as_xyz
  1  'x, y, z'
loop_
 _atom_site_type_symbol
 _atom_site_label
 _atom_site_symmetry_multiplicity
 _atom_site_fract_x
 _atom_site_fract_y
 _atom_site_fract_z
 _atom_site_occupancy
  Dy  Dy0  1  0.667651  0.330976  0.003574  1
  Dy  Dy1  1  0.330976  0.667651  0.003574  1
  Dy  Dy2  1  0.330976  0.667651  0.496426  1
  Dy  Dy3  1  0.667651  0.330976  0.496426  1
  Dy  Dy4  1  0.747271  0.747271  0.750000  1
  Dy  Dy5  1  0.253380  0.000072  0.750000  1
  Dy  Dy6  1  0.000072  0.253380  0.750000  1
  Dy  Dy7  1  0.251070  0.251070  0.250000  1
  Dy  Dy8  1  0.747811  0.005036  0.250000  1
  Dy  Dy9  1  0.005036  0.747811  0.250000  1
  Sn  Sn10  1  0.395588  0.000234  0.250000  1
  Sn  Sn11  1  0.000234  0.395588  0.250000  1
  Bi  Bi12  1  0.395174  0.395174  0.750000  1
  Bi  Bi13  1  0.603958  0.999513  0.750000  1
  Bi  Bi14  1  0.999513  0.603958  0.750000  1
  Bi  Bi15  1  0.605836  0.605836  0.250000  1
  Se  Se16  1  0.998901  0.998901  0.999692  1
  Se  Se17  1  0.998901  0.998901  0.500308  1
