# generated using pymatgen
data_Rb2CoGeO4
_symmetry_space_group_name_H-M   'P 1'
_cell_length_a   6.95070748
_cell_length_b   5.89638152
_cell_length_c   7.99763800
_cell_angle_alpha   90.00000000
_cell_angle_beta   90.00000000
_cell_angle_gamma   115.09030588
_symmetry_Int_Tables_number   1
_chemical_formula_structural   Rb2CoGeO4
_chemical_formula_sum   'Rb4 Co2 Ge2 O8'
_cell_volume   296.84667899
_cell_formula_units_Z   2
loop_
 _symmetry_equiv_pos_site_id
 _symmetry_equiv_pos_as_xyz
  1  'x, y, z'
loop_
 _atom_site_type_symbol
 _atom_site_label
 _atom_site_symmetry_multiplicity
 _atom_site_fract_x
 _atom_site_fract_y
 _atom_site_fract_z
 _atom_site_occupancy
  Rb  Rb0  1  0.173554  0.586737  0.079929  1
  Rb  Rb1  1  0.861157  0.930554  0.231659  1
  Rb  Rb2  1  0.826446  0.413262  0.579929  1
  Rb  Rb3  1  0.138843  0.069446  0.731658  1
  Co  Co4  1  0.399776  0.199932  0.305238  1
  Co  Co5  1  0.600224  0.800068  0.805239  1
  Ge  Ge6  1  0.623942  0.311934  0.017804  1
  Ge  Ge7  1  0.376059  0.688066  0.517805  1
  O  O8  1  0.341583  0.170855  0.051593  1
  O  O9  1  0.709474  0.354640  0.233147  1
  O  O10  1  0.268480  0.393599  0.413572  1
  O  O11  1  0.268498  0.874992  0.413556  1
  O  O12  1  0.658417  0.829145  0.551593  1
  O  O13  1  0.290525  0.645359  0.733148  1
  O  O14  1  0.731502  0.125007  0.913557  1
  O  O15  1  0.731520  0.606400  0.913573  1
