# generated using pymatgen
data_TbHo3Mg2Cu3Rh
_symmetry_space_group_name_H-M   'P 1'
_cell_length_a   7.55451087
_cell_length_b   7.55451048
_cell_length_c   3.75147000
_cell_angle_alpha   90.00000000
_cell_angle_beta   90.00000000
_cell_angle_gamma   90.02229031
_symmetry_Int_Tables_number   1
_chemical_formula_structural   TbHo3Mg2Cu3Rh
_chemical_formula_sum   'Tb1 Ho3 Mg2 Cu3 Rh1'
_cell_volume   214.09874577
_cell_formula_units_Z   1
loop_
 _symmetry_equiv_pos_site_id
 _symmetry_equiv_pos_as_xyz
  1  'x, y, z'
loop_
 _atom_site_type_symbol
 _atom_site_label
 _atom_site_symmetry_multiplicity
 _atom_site_fract_x
 _atom_site_fract_y
 _atom_site_fract_z
 _atom_site_occupancy
  Tb  Tb0  1  0.667746  0.167746  0.500000  1
  Ho  Ho1  1  0.320821  0.820821  0.500000  1
  Ho  Ho2  1  0.176347  0.339910  0.500000  1
  Ho  Ho3  1  0.839910  0.676347  0.500000  1
  Mg  Mg4  1  0.001414  0.003575  0.000000  1
  Mg  Mg5  1  0.503575  0.501414  0.000000  1
  Cu  Cu6  1  0.873680  0.373680  0.000000  1
  Cu  Cu7  1  0.619612  0.874287  0.000000  1
  Cu  Cu8  1  0.374287  0.119612  0.000000  1
  Rh  Rh9  1  0.122607  0.622607  0.000000  1
