# generated using pymatgen
data_RbSbSe2O7
_symmetry_space_group_name_H-M   'P 1'
_cell_length_a   7.38611500
_cell_length_b   7.38611599
_cell_length_c   7.46863800
_cell_angle_alpha   90.00000000
_cell_angle_beta   90.00000000
_cell_angle_gamma   110.60461413
_symmetry_Int_Tables_number   1
_chemical_formula_structural   RbSbSe2O7
_chemical_formula_sum   'Rb2 Sb2 Se4 O14'
_cell_volume   381.38527634
_cell_formula_units_Z   2
loop_
 _symmetry_equiv_pos_site_id
 _symmetry_equiv_pos_as_xyz
  1  'x, y, z'
loop_
 _atom_site_type_symbol
 _atom_site_label
 _atom_site_symmetry_multiplicity
 _atom_site_fract_x
 _atom_site_fract_y
 _atom_site_fract_z
 _atom_site_occupancy
  Rb  Rb0  1  0.979203  0.979203  0.357665  1
  Rb  Rb1  1  0.020797  0.020797  0.857665  1
  Sb  Sb2  1  0.504286  0.504286  0.882149  1
  Sb  Sb3  1  0.495714  0.495714  0.382149  1
  Se  Se4  1  0.526916  0.917372  0.630263  1
  Se  Se5  1  0.917372  0.526916  0.630263  1
  Se  Se6  1  0.473084  0.082628  0.130263  1
  Se  Se7  1  0.082628  0.473084  0.130263  1
  O  O8  1  0.559240  0.787557  0.824800  1
  O  O9  1  0.787557  0.559240  0.824800  1
  O  O10  1  0.440760  0.212443  0.324800  1
  O  O11  1  0.212443  0.440760  0.324800  1
  O  O12  1  0.546913  0.778986  0.437511  1
  O  O13  1  0.778986  0.546913  0.437511  1
  O  O14  1  0.453087  0.221014  0.937511  1
  O  O15  1  0.221014  0.453087  0.937511  1
  O  O16  1  0.744924  0.087200  0.622181  1
  O  O17  1  0.087200  0.744924  0.622181  1
  O  O18  1  0.255076  0.912800  0.122181  1
  O  O19  1  0.912800  0.255076  0.122181  1
  O  O20  1  0.413534  0.413534  0.633618  1
  O  O21  1  0.586466  0.586466  0.133618  1
