# generated using pymatgen
data_LiLa16Cd(HgIr2)2
_symmetry_space_group_name_H-M   'P 1'
_cell_length_a   10.13214897
_cell_length_b   10.13663965
_cell_length_c   10.13663969
_cell_angle_alpha   59.87259226
_cell_angle_beta   59.81990282
_cell_angle_gamma   59.81989394
_symmetry_Int_Tables_number   1
_chemical_formula_structural   LiLa16Cd(HgIr2)2
_chemical_formula_sum   'Li1 La16 Cd1 Hg2 Ir4'
_cell_volume   733.44798822
_cell_formula_units_Z   1
loop_
 _symmetry_equiv_pos_site_id
 _symmetry_equiv_pos_as_xyz
  1  'x, y, z'
loop_
 _atom_site_type_symbol
 _atom_site_label
 _atom_site_symmetry_multiplicity
 _atom_site_fract_x
 _atom_site_fract_y
 _atom_site_fract_z
 _atom_site_occupancy
  Li  Li0  1  0.819922  0.817846  0.817846  1
  La  La1  1  0.597741  0.597647  0.597647  1
  La  La2  1  0.596950  0.597109  0.209272  1
  La  La3  1  0.596950  0.209272  0.597109  1
  La  La4  1  0.207838  0.597326  0.597326  1
  La  La5  1  0.058366  0.442386  0.442386  1
  La  La6  1  0.437064  0.062377  0.062377  1
  La  La7  1  0.441349  0.059144  0.441689  1
  La  La8  1  0.061449  0.438238  0.061827  1
  La  La9  1  0.441349  0.441689  0.059144  1
  La  La10  1  0.061449  0.061827  0.438238  1
  La  La11  1  0.189462  0.811503  0.811503  1
  La  La12  1  0.808961  0.190596  0.190596  1
  La  La13  1  0.810998  0.190770  0.811180  1
  La  La14  1  0.189309  0.809387  0.190854  1
  La  La15  1  0.810998  0.811180  0.190770  1
  La  La16  1  0.189309  0.190854  0.809387  1
  Cd  Cd17  1  0.510020  0.831057  0.831057  1
  Hg  Hg18  1  0.834320  0.836788  0.500593  1
  Hg  Hg19  1  0.834320  0.500593  0.836788  1
  Ir  Ir20  1  0.391385  0.391202  0.391202  1
  Ir  Ir21  1  0.391333  0.391699  0.827966  1
  Ir  Ir22  1  0.391333  0.827966  0.391699  1
  Ir  Ir23  1  0.827826  0.391543  0.391543  1
