# generated using pymatgen
data_Pr2Dy3Co16(MoP4)3
_symmetry_space_group_name_H-M   'P 1'
_cell_length_a   12.13147600
_cell_length_b   12.13147602
_cell_length_c   3.72530800
_cell_angle_alpha   90.00000000
_cell_angle_beta   90.00000000
_cell_angle_gamma   119.99999450
_symmetry_Int_Tables_number   1
_chemical_formula_structural   Pr2Dy3Co16(MoP4)3
_chemical_formula_sum   'Pr2 Dy3 Co16 Mo3 P12'
_cell_volume   474.81029646
_cell_formula_units_Z   1
loop_
 _symmetry_equiv_pos_site_id
 _symmetry_equiv_pos_as_xyz
  1  'x, y, z'
loop_
 _atom_site_type_symbol
 _atom_site_label
 _atom_site_symmetry_multiplicity
 _atom_site_fract_x
 _atom_site_fract_y
 _atom_site_fract_z
 _atom_site_occupancy
  Pr  Pr0  1  0.666667  0.333333  0.000000  1
  Pr  Pr1  1  0.333333  0.666667  0.000000  1
  Dy  Dy2  1  0.185168  0.185168  0.500000  1
  Dy  Dy3  1  0.814832  0.000000  0.500000  1
  Dy  Dy4  1  0.000000  0.814832  0.500000  1
  Co  Co5  1  0.824043  0.196563  0.000000  1
  Co  Co6  1  0.803437  0.627482  0.000000  1
  Co  Co7  1  0.372518  0.175957  0.000000  1
  Co  Co8  1  0.196563  0.824043  0.000000  1
  Co  Co9  1  0.627482  0.803437  0.000000  1
  Co  Co10  1  0.175957  0.372518  0.000000  1
  Co  Co11  1  0.645222  0.124263  0.500000  1
  Co  Co12  1  0.875737  0.520960  0.500000  1
  Co  Co13  1  0.479040  0.354778  0.500000  1
  Co  Co14  1  0.124263  0.645222  0.500000  1
  Co  Co15  1  0.520960  0.875737  0.500000  1
  Co  Co16  1  0.354778  0.479040  0.500000  1
  Co  Co17  1  0.721642  0.721642  0.500000  1
  Co  Co18  1  0.278358  0.000000  0.500000  1
  Co  Co19  1  0.000000  0.278358  0.500000  1
  Co  Co20  1  0.000000  0.000000  0.000000  1
  Mo  Mo21  1  0.554327  0.554327  0.000000  1
  Mo  Mo22  1  0.445673  0.000000  0.000000  1
  Mo  Mo23  1  0.000000  0.445673  0.000000  1
  P  P24  1  0.360965  0.360965  0.000000  1
  P  P25  1  0.639035  0.000000  0.000000  1
  P  P26  1  0.000000  0.639035  0.000000  1
  P  P27  1  0.837791  0.312869  0.500000  1
  P  P28  1  0.687131  0.524922  0.500000  1
  P  P29  1  0.475078  0.162209  0.500000  1
  P  P30  1  0.312869  0.837791  0.500000  1
  P  P31  1  0.524922  0.687131  0.500000  1
  P  P32  1  0.162209  0.475078  0.500000  1
  P  P33  1  0.822678  0.822678  0.000000  1
  P  P34  1  0.177322  0.000000  0.000000  1
  P  P35  1  0.000000  0.177322  0.000000  1
