# generated using pymatgen
data_HfZr9ZnSn6As
_symmetry_space_group_name_H-M   'P 1'
_cell_length_a   8.70454700
_cell_length_b   8.70454826
_cell_length_c   5.90977100
_cell_angle_alpha   90.00000000
_cell_angle_beta   90.00000000
_cell_angle_gamma   119.99999900
_symmetry_Int_Tables_number   1
_chemical_formula_structural   HfZr9ZnSn6As
_chemical_formula_sum   'Hf1 Zr9 Zn1 Sn6 As1'
_cell_volume   387.78740621
_cell_formula_units_Z   1
loop_
 _symmetry_equiv_pos_site_id
 _symmetry_equiv_pos_as_xyz
  1  'x, y, z'
loop_
 _atom_site_type_symbol
 _atom_site_label
 _atom_site_symmetry_multiplicity
 _atom_site_fract_x
 _atom_site_fract_y
 _atom_site_fract_z
 _atom_site_occupancy
  Hf  Hf0  1  0.666667  0.333333  0.000000  1
  Zr  Zr1  1  0.333333  0.666667  0.000000  1
  Zr  Zr2  1  0.333333  0.666667  0.500000  1
  Zr  Zr3  1  0.666667  0.333333  0.500000  1
  Zr  Zr4  1  0.735308  0.735052  0.747265  1
  Zr  Zr5  1  0.264948  0.000256  0.747265  1
  Zr  Zr6  1  0.999744  0.264692  0.747265  1
  Zr  Zr7  1  0.264948  0.264692  0.252735  1
  Zr  Zr8  1  0.735308  0.000256  0.252735  1
  Zr  Zr9  1  0.999744  0.735052  0.252735  1
  Zn  Zn10  1  0.000000  0.000000  0.000000  1
  Sn  Sn11  1  0.390361  0.389898  0.753888  1
  Sn  Sn12  1  0.610102  0.000463  0.753888  1
  Sn  Sn13  1  0.999537  0.609639  0.753888  1
  Sn  Sn14  1  0.610102  0.609639  0.246112  1
  Sn  Sn15  1  0.390361  0.000463  0.246112  1
  Sn  Sn16  1  0.999537  0.389898  0.246112  1
  As  As17  1  0.000000  0.000000  0.500000  1
