# generated using pymatgen
data_Tm5Lu3Re2(B12Rh)2
_symmetry_space_group_name_H-M   'P 1'
_cell_length_a   3.62967900
_cell_length_b   9.06058671
_cell_length_c   11.44678000
_cell_angle_alpha   90.38560018
_cell_angle_beta   90.00000000
_cell_angle_gamma   90.00000000
_symmetry_Int_Tables_number   1
_chemical_formula_structural   Tm5Lu3Re2(B12Rh)2
_chemical_formula_sum   'Tm5 Lu3 Re2 B24 Rh2'
_cell_volume   376.44197241
_cell_formula_units_Z   1
loop_
 _symmetry_equiv_pos_site_id
 _symmetry_equiv_pos_as_xyz
  1  'x, y, z'
loop_
 _atom_site_type_symbol
 _atom_site_label
 _atom_site_symmetry_multiplicity
 _atom_site_fract_x
 _atom_site_fract_y
 _atom_site_fract_z
 _atom_site_occupancy
  Tm  Tm0  1  0.000000  0.317548  0.410969  1
  Tm  Tm1  1  0.000000  0.682590  0.589228  1
  Tm  Tm2  1  0.000000  0.825532  0.082524  1
  Tm  Tm3  1  0.000000  0.174563  0.917252  1
  Tm  Tm4  1  0.000000  0.945415  0.372058  1
  Lu  Lu5  1  0.000000  0.054545  0.628360  1
  Lu  Lu6  1  0.000000  0.442403  0.126266  1
  Lu  Lu7  1  0.000000  0.557695  0.873560  1
  Re  Re8  1  0.000000  0.139470  0.179682  1
  Re  Re9  1  0.000000  0.860959  0.820077  1
  B  B10  1  0.500000  0.554227  0.434720  1
  B  B11  1  0.500000  0.445464  0.565441  1
  B  B12  1  0.500000  0.053081  0.066843  1
  B  B13  1  0.500000  0.947098  0.932895  1
  B  B14  1  0.500000  0.749408  0.421670  1
  B  B15  1  0.500000  0.250070  0.578613  1
  B  B16  1  0.500000  0.250010  0.080803  1
  B  B17  1  0.500000  0.750162  0.919065  1
  B  B18  1  0.500000  0.791534  0.264566  1
  B  B19  1  0.500000  0.207990  0.735296  1
  B  B20  1  0.500000  0.294117  0.235183  1
  B  B21  1  0.500000  0.706127  0.764734  1
  B  B22  1  0.500000  0.631646  0.182515  1
  B  B23  1  0.500000  0.368248  0.817372  1
  B  B24  1  0.500000  0.131900  0.315462  1
  B  B25  1  0.500000  0.868586  0.684434  1
  B  B26  1  0.500000  0.982203  0.212977  1
  B  B27  1  0.500000  0.018135  0.786634  1
  B  B28  1  0.500000  0.482489  0.287441  1
  B  B29  1  0.500000  0.517383  0.712482  1
  B  B30  1  0.500000  0.603618  0.028723  1
  B  B31  1  0.500000  0.396423  0.971127  1
  B  B32  1  0.500000  0.105863  0.471966  1
  B  B33  1  0.500000  0.894433  0.528880  1
  Rh  Rh34  1  0.000000  0.637190  0.320597  1
  Rh  Rh35  1  0.000000  0.361871  0.679585  1
