# generated using pymatgen
data_Hf4Pd10PtRh
_symmetry_space_group_name_H-M   'P 1'
_cell_length_a   5.65116147
_cell_length_b   5.68584327
_cell_length_c   9.27862989
_cell_angle_alpha   89.56963438
_cell_angle_beta   89.78449742
_cell_angle_gamma   119.87754189
_symmetry_Int_Tables_number   1
_chemical_formula_structural   Hf4Pd10PtRh
_chemical_formula_sum   'Hf4 Pd10 Pt1 Rh1'
_cell_volume   258.49560082
_cell_formula_units_Z   1
loop_
 _symmetry_equiv_pos_site_id
 _symmetry_equiv_pos_as_xyz
  1  'x, y, z'
loop_
 _atom_site_type_symbol
 _atom_site_label
 _atom_site_symmetry_multiplicity
 _atom_site_fract_x
 _atom_site_fract_y
 _atom_site_fract_z
 _atom_site_occupancy
  Hf  Hf0  1  0.662578  0.326364  0.755405  1
  Hf  Hf1  1  0.337422  0.673636  0.244595  1
  Hf  Hf2  1  0.000000  0.000000  0.500000  1
  Hf  Hf3  1  0.000000  0.000000  0.000000  1
  Pd  Pd4  1  0.167436  0.335787  0.748781  1
  Pd  Pd5  1  0.832448  0.170956  0.251276  1
  Pd  Pd6  1  0.339142  0.170781  0.251063  1
  Pd  Pd7  1  0.660858  0.829219  0.748937  1
  Pd  Pd8  1  0.500000  0.500000  0.500000  1
  Pd  Pd9  1  0.000000  0.500000  0.500000  1
  Pd  Pd10  1  0.000000  0.500000  0.000000  1
  Pd  Pd11  1  0.500000  0.000000  0.500000  1
  Pd  Pd12  1  0.832564  0.664213  0.251219  1
  Pd  Pd13  1  0.167552  0.829044  0.748724  1
  Pt  Pt14  1  0.500000  0.500000  0.000000  1
  Rh  Rh15  1  0.500000  0.000000  0.000000  1
