# generated using pymatgen
data_K4MoRuO8
_symmetry_space_group_name_H-M   'P 1'
_cell_length_a   7.01363481
_cell_length_b   7.01361134
_cell_length_c   7.65505861
_cell_angle_alpha   67.22869062
_cell_angle_beta   67.22853676
_cell_angle_gamma   52.56873566
_symmetry_Int_Tables_number   1
_chemical_formula_structural   K4MoRuO8
_chemical_formula_sum   'K4 Mo1 Ru1 O8'
_cell_volume   269.72224777
_cell_formula_units_Z   1
loop_
 _symmetry_equiv_pos_site_id
 _symmetry_equiv_pos_as_xyz
  1  'x, y, z'
loop_
 _atom_site_type_symbol
 _atom_site_label
 _atom_site_symmetry_multiplicity
 _atom_site_fract_x
 _atom_site_fract_y
 _atom_site_fract_z
 _atom_site_occupancy
  K  K0  1  0.841610  0.841609  0.749576  1
  K  K1  1  0.157853  0.157855  0.244502  1
  K  K2  1  0.510319  0.510314  0.765645  1
  K  K3  1  0.489534  0.489537  0.236041  1
  Mo  Mo4  1  0.824100  0.824099  0.229306  1
  Ru  Ru5  1  0.175733  0.175732  0.769832  1
  O  O6  1  0.907484  0.380129  0.921033  1
  O  O7  1  0.380129  0.907485  0.921031  1
  O  O8  1  0.093793  0.620410  0.079564  1
  O  O9  1  0.620410  0.093790  0.079564  1
  O  O10  1  0.332157  0.332159  0.617104  1
  O  O11  1  0.667854  0.667852  0.384860  1
  O  O12  1  0.086965  0.086964  0.638760  1
  O  O13  1  0.912056  0.912063  0.363184  1
