# generated using pymatgen
data_Er2Ga5Rh3
_symmetry_space_group_name_H-M   'P 1'
_cell_length_a   5.63581030
_cell_length_b   8.58490503
_cell_length_c   8.59589055
_cell_angle_alpha   97.26483808
_cell_angle_beta   109.19084920
_cell_angle_gamma   109.24055136
_symmetry_Int_Tables_number   1
_chemical_formula_structural   Er2Ga5Rh3
_chemical_formula_sum   'Er4 Ga10 Rh6'
_cell_volume   357.75722663
_cell_formula_units_Z   2
loop_
 _symmetry_equiv_pos_site_id
 _symmetry_equiv_pos_as_xyz
  1  'x, y, z'
loop_
 _atom_site_type_symbol
 _atom_site_label
 _atom_site_symmetry_multiplicity
 _atom_site_fract_x
 _atom_site_fract_y
 _atom_site_fract_z
 _atom_site_occupancy
  Er  Er0  1  0.775889  0.418654  0.131055  1
  Er  Er1  1  0.275810  0.130848  0.418650  1
  Er  Er2  1  0.724191  0.869040  0.581375  1
  Er  Er3  1  0.224108  0.581256  0.869052  1
  Ga  Ga4  1  0.181688  0.265301  0.096990  1
  Ga  Ga5  1  0.249924  0.799791  0.200011  1
  Ga  Ga6  1  0.750188  0.799033  0.201000  1
  Ga  Ga7  1  0.681376  0.096862  0.265026  1
  Ga  Ga8  1  0.750203  0.500416  0.499570  1
  Ga  Ga9  1  0.249958  0.499538  0.500378  1
  Ga  Ga10  1  0.318571  0.903116  0.735040  1
  Ga  Ga11  1  0.249949  0.201027  0.798953  1
  Ga  Ga12  1  0.750013  0.200171  0.799784  1
  Ga  Ga13  1  0.818356  0.734808  0.903114  1
  Rh  Rh14  1  0.249658  0.000496  0.999455  1
  Rh  Rh15  1  0.413231  0.566302  0.262676  1
  Rh  Rh16  1  0.087113  0.737562  0.433917  1
  Rh  Rh17  1  0.912784  0.262291  0.565953  1
  Rh  Rh18  1  0.586864  0.433764  0.737212  1
  Rh  Rh19  1  0.750130  0.999724  0.000792  1
