# generated using pymatgen
data_Sr2Pa2O7
_symmetry_space_group_name_H-M   'P 1'
_cell_length_a   8.04961943
_cell_length_b   8.04961933
_cell_length_c   8.04961842
_cell_angle_alpha   119.24381288
_cell_angle_beta   119.69714290
_cell_angle_gamma   90.92007756
_symmetry_Int_Tables_number   1
_chemical_formula_structural   Sr2Pa2O7
_chemical_formula_sum   'Sr4 Pa4 O14'
_cell_volume   371.70993002
_cell_formula_units_Z   2
loop_
 _symmetry_equiv_pos_site_id
 _symmetry_equiv_pos_as_xyz
  1  'x, y, z'
loop_
 _atom_site_type_symbol
 _atom_site_label
 _atom_site_symmetry_multiplicity
 _atom_site_fract_x
 _atom_site_fract_y
 _atom_site_fract_z
 _atom_site_occupancy
  Sr  Sr0  1  0.500000  0.500000  0.500000  1
  Sr  Sr1  1  0.500000  0.000000  0.000000  1
  Sr  Sr2  1  0.500000  0.500000  0.000000  1
  Sr  Sr3  1  0.000000  0.000000  0.000000  1
  Pa  Pa4  1  0.000000  0.500000  0.000000  1
  Pa  Pa5  1  0.000000  0.000000  0.500000  1
  Pa  Pa6  1  0.000000  0.500000  0.500000  1
  Pa  Pa7  1  0.500000  0.000000  0.500000  1
  O  O8  1  0.938820  0.593226  0.769291  1
  O  O9  1  0.061180  0.830471  0.654406  1
  O  O10  1  0.676065  0.906774  0.345594  1
  O  O11  1  0.323935  0.669529  0.230709  1
  O  O12  1  0.061180  0.406774  0.230709  1
  O  O13  1  0.938820  0.169529  0.345594  1
  O  O14  1  0.323935  0.093226  0.654406  1
  O  O15  1  0.676065  0.330471  0.769291  1
  O  O16  1  0.086906  0.250000  0.836906  1
  O  O17  1  0.913094  0.750000  0.163094  1
  O  O18  1  0.676023  0.404008  0.272016  1
  O  O19  1  0.323977  0.595992  0.727984  1
  O  O20  1  0.368008  0.095992  0.272016  1
  O  O21  1  0.631992  0.904008  0.727984  1
