# generated using pymatgen
data_DyScFe12P7
_symmetry_space_group_name_H-M   'P 1'
_cell_length_a   8.88917400
_cell_length_b   8.88917443
_cell_length_c   3.62126600
_cell_angle_alpha   90.00000000
_cell_angle_beta   90.00000000
_cell_angle_gamma   119.99999840
_symmetry_Int_Tables_number   1
_chemical_formula_structural   DyScFe12P7
_chemical_formula_sum   'Dy1 Sc1 Fe12 P7'
_cell_volume   247.80718910
_cell_formula_units_Z   1
loop_
 _symmetry_equiv_pos_site_id
 _symmetry_equiv_pos_as_xyz
  1  'x, y, z'
loop_
 _atom_site_type_symbol
 _atom_site_label
 _atom_site_symmetry_multiplicity
 _atom_site_fract_x
 _atom_site_fract_y
 _atom_site_fract_z
 _atom_site_occupancy
  Dy  Dy0  1  0.000000  0.000000  0.500000  1
  Sc  Sc1  1  0.333333  0.666667  0.000000  1
  Fe  Fe2  1  0.720118  0.759579  0.000000  1
  Fe  Fe3  1  0.240421  0.960539  0.000000  1
  Fe  Fe4  1  0.039461  0.279882  0.000000  1
  Fe  Fe5  1  0.941188  0.487535  0.000000  1
  Fe  Fe6  1  0.512465  0.453653  0.000000  1
  Fe  Fe7  1  0.546347  0.058812  0.000000  1
  Fe  Fe8  1  0.101243  0.715293  0.500000  1
  Fe  Fe9  1  0.284707  0.385950  0.500000  1
  Fe  Fe10  1  0.614050  0.898757  0.500000  1
  Fe  Fe11  1  0.761989  0.547504  0.500000  1
  Fe  Fe12  1  0.452496  0.214486  0.500000  1
  Fe  Fe13  1  0.785514  0.238011  0.500000  1
  P  P14  1  0.962379  0.742371  0.000000  1
  P  P15  1  0.257629  0.220008  0.000000  1
  P  P16  1  0.779992  0.037621  0.000000  1
  P  P17  1  0.072612  0.448842  0.500000  1
  P  P18  1  0.551158  0.623769  0.500000  1
  P  P19  1  0.376231  0.927388  0.500000  1
  P  P20  1  0.666667  0.333333  0.000000  1
