# generated using pymatgen
data_Tb2Si3Pt
_symmetry_space_group_name_H-M   'P 1'
_cell_length_a   8.18284330
_cell_length_b   8.16527046
_cell_length_c   5.78737458
_cell_angle_alpha   69.43009310
_cell_angle_beta   69.10466898
_cell_angle_gamma   41.46524047
_symmetry_Int_Tables_number   1
_chemical_formula_structural   Tb2Si3Pt
_chemical_formula_sum   'Tb4 Si6 Pt2'
_cell_volume   236.98959144
_cell_formula_units_Z   2
loop_
 _symmetry_equiv_pos_site_id
 _symmetry_equiv_pos_as_xyz
  1  'x, y, z'
loop_
 _atom_site_type_symbol
 _atom_site_label
 _atom_site_symmetry_multiplicity
 _atom_site_fract_x
 _atom_site_fract_y
 _atom_site_fract_z
 _atom_site_occupancy
  Tb  Tb0  1  0.249999  0.250001  0.250000  1
  Tb  Tb1  1  0.245856  0.754143  0.245856  1
  Tb  Tb2  1  0.754145  0.245855  0.754145  1
  Tb  Tb3  1  0.750000  0.750000  0.750000  1
  Si  Si4  1  0.834420  0.331796  0.165580  1
  Si  Si5  1  0.833922  0.833921  0.166079  1
  Si  Si6  1  0.668204  0.165580  0.331796  1
  Si  Si7  1  0.331797  0.834419  0.668204  1
  Si  Si8  1  0.166079  0.166078  0.833922  1
  Si  Si9  1  0.165581  0.668203  0.834420  1
  Pt  Pt10  1  0.666724  0.666723  0.333277  1
  Pt  Pt11  1  0.333278  0.333276  0.666723  1
