# generated using pymatgen
data_La2Yb(SnPt)3
_symmetry_space_group_name_H-M   'P 1'
_cell_length_a   7.63629700
_cell_length_b   7.63629689
_cell_length_c   4.18397000
_cell_angle_alpha   90.00000000
_cell_angle_beta   90.00000000
_cell_angle_gamma   120.08290705
_symmetry_Int_Tables_number   1
_chemical_formula_structural   La2Yb(SnPt)3
_chemical_formula_sum   'La2 Yb1 Sn3 Pt3'
_cell_volume   211.11611326
_cell_formula_units_Z   1
loop_
 _symmetry_equiv_pos_site_id
 _symmetry_equiv_pos_as_xyz
  1  'x, y, z'
loop_
 _atom_site_type_symbol
 _atom_site_label
 _atom_site_symmetry_multiplicity
 _atom_site_fract_x
 _atom_site_fract_y
 _atom_site_fract_z
 _atom_site_occupancy
  La  La0  1  0.584444  0.999033  0.000000  1
  La  La1  1  0.999033  0.584444  0.000000  1
  Yb  Yb2  1  0.410094  0.410094  0.000000  1
  Sn  Sn3  1  0.007371  0.253234  0.500000  1
  Sn  Sn4  1  0.743214  0.743214  0.500000  1
  Sn  Sn5  1  0.253234  0.007371  0.500000  1
  Pt  Pt6  1  0.334922  0.666396  0.500000  1
  Pt  Pt7  1  0.001293  0.001293  0.000000  1
  Pt  Pt8  1  0.666396  0.334922  0.500000  1
