# generated using pymatgen
data_Tm3Zn3Cu2Ru
_symmetry_space_group_name_H-M   'P 1'
_cell_length_a   7.00400700
_cell_length_b   7.00400676
_cell_length_c   3.89336500
_cell_angle_alpha   90.00000000
_cell_angle_beta   90.00000000
_cell_angle_gamma   119.99999642
_symmetry_Int_Tables_number   1
_chemical_formula_structural   Tm3Zn3Cu2Ru
_chemical_formula_sum   'Tm3 Zn3 Cu2 Ru1'
_cell_volume   165.40509982
_cell_formula_units_Z   1
loop_
 _symmetry_equiv_pos_site_id
 _symmetry_equiv_pos_as_xyz
  1  'x, y, z'
loop_
 _atom_site_type_symbol
 _atom_site_label
 _atom_site_symmetry_multiplicity
 _atom_site_fract_x
 _atom_site_fract_y
 _atom_site_fract_z
 _atom_site_occupancy
  Tm  Tm0  1  0.595410  0.013276  0.000000  1
  Tm  Tm1  1  0.417867  0.404589  0.000000  1
  Tm  Tm2  1  0.986724  0.582133  0.000000  1
  Zn  Zn3  1  0.245290  0.000294  0.500000  1
  Zn  Zn4  1  0.999706  0.244997  0.500000  1
  Zn  Zn5  1  0.755003  0.754710  0.500000  1
  Cu  Cu6  1  0.000000  0.000000  0.000000  1
  Cu  Cu7  1  0.333333  0.666667  0.500000  1
  Ru  Ru8  1  0.666667  0.333333  0.500000  1
