# generated using pymatgen
data_Pr2MgCo8TcP6
_symmetry_space_group_name_H-M   'P 1'
_cell_length_a   3.74696300
_cell_length_b   10.62378200
_cell_length_c   12.01681200
_cell_angle_alpha   90.00000000
_cell_angle_beta   90.00000000
_cell_angle_gamma   90.00000000
_symmetry_Int_Tables_number   1
_chemical_formula_structural   Pr2MgCo8TcP6
_chemical_formula_sum   'Pr4 Mg2 Co16 Tc2 P12'
_cell_volume   478.35225080
_cell_formula_units_Z   2
loop_
 _symmetry_equiv_pos_site_id
 _symmetry_equiv_pos_as_xyz
  1  'x, y, z'
loop_
 _atom_site_type_symbol
 _atom_site_label
 _atom_site_symmetry_multiplicity
 _atom_site_fract_x
 _atom_site_fract_y
 _atom_site_fract_z
 _atom_site_occupancy
  Pr  Pr0  1  0.250000  0.584914  0.704766  1
  Pr  Pr1  1  0.250000  0.915086  0.204766  1
  Pr  Pr2  1  0.750000  0.417146  0.299565  1
  Pr  Pr3  1  0.750000  0.082854  0.799565  1
  Mg  Mg4  1  0.750000  0.297986  0.008623  1
  Mg  Mg5  1  0.750000  0.202014  0.508623  1
  Co  Co6  1  0.250000  0.418831  0.493749  1
  Co  Co7  1  0.250000  0.081169  0.993749  1
  Co  Co8  1  0.750000  0.600528  0.508693  1
  Co  Co9  1  0.750000  0.899472  0.008693  1
  Co  Co10  1  0.250000  0.219725  0.170432  1
  Co  Co11  1  0.250000  0.280275  0.670432  1
  Co  Co12  1  0.750000  0.776980  0.824639  1
  Co  Co13  1  0.750000  0.723020  0.324639  1
  Co  Co14  1  0.250000  0.883381  0.701599  1
  Co  Co15  1  0.250000  0.616619  0.201599  1
  Co  Co16  1  0.750000  0.112134  0.300125  1
  Co  Co17  1  0.750000  0.387866  0.800125  1
  Co  Co18  1  0.250000  0.467448  0.935543  1
  Co  Co19  1  0.250000  0.032552  0.435543  1
  Co  Co20  1  0.750000  0.536298  0.069420  1
  Co  Co21  1  0.750000  0.963702  0.569420  1
  Tc  Tc22  1  0.250000  0.706046  0.990465  1
  Tc  Tc23  1  0.250000  0.793954  0.490465  1
  P  P24  1  0.250000  0.423321  0.115673  1
  P  P25  1  0.250000  0.076679  0.615673  1
  P  P26  1  0.750000  0.580225  0.891201  1
  P  P27  1  0.750000  0.919775  0.391201  1
  P  P28  1  0.250000  0.283288  0.852882  1
  P  P29  1  0.250000  0.216712  0.352882  1
  P  P30  1  0.750000  0.726022  0.133794  1
  P  P31  1  0.750000  0.773978  0.633794  1
  P  P32  1  0.250000  0.604322  0.393746  1
  P  P33  1  0.250000  0.895678  0.893746  1
  P  P34  1  0.750000  0.405609  0.605083  1
  P  P35  1  0.750000  0.094391  0.105083  1
