# generated using pymatgen
data_Zr6VCo16Si5Os
_symmetry_space_group_name_H-M   'P 1'
_cell_length_a   8.15819317
_cell_length_b   8.10554790
_cell_length_c   8.15819273
_cell_angle_alpha   60.21323946
_cell_angle_beta   59.15998203
_cell_angle_gamma   60.21324332
_symmetry_Int_Tables_number   1
_chemical_formula_structural   Zr6VCo16Si5Os
_chemical_formula_sum   'Zr6 V1 Co16 Si5 Os1'
_cell_volume   380.18690533
_cell_formula_units_Z   1
loop_
 _symmetry_equiv_pos_site_id
 _symmetry_equiv_pos_as_xyz
  1  'x, y, z'
loop_
 _atom_site_type_symbol
 _atom_site_label
 _atom_site_symmetry_multiplicity
 _atom_site_fract_x
 _atom_site_fract_y
 _atom_site_fract_z
 _atom_site_occupancy
  Zr  Zr0  1  0.711334  0.290198  0.288666  1
  Zr  Zr1  1  0.288666  0.290198  0.711334  1
  Zr  Zr2  1  0.288666  0.709802  0.711334  1
  Zr  Zr3  1  0.711334  0.709802  0.288666  1
  Zr  Zr4  1  0.293119  0.706881  0.293119  1
  Zr  Zr5  1  0.706881  0.293119  0.706881  1
  V  V6  1  0.000000  0.000000  0.000000  1
  Co  Co7  1  0.118994  0.118742  0.643522  1
  Co  Co8  1  0.672317  0.981709  0.672317  1
  Co  Co9  1  0.356478  0.881258  0.881006  1
  Co  Co10  1  0.023651  0.321510  0.333332  1
  Co  Co11  1  0.976349  0.678490  0.666668  1
  Co  Co12  1  0.333332  0.321510  0.023651  1
  Co  Co13  1  0.666668  0.678490  0.976349  1
  Co  Co14  1  0.643522  0.118742  0.118994  1
  Co  Co15  1  0.672317  0.673656  0.672317  1
  Co  Co16  1  0.881006  0.881258  0.356478  1
  Co  Co17  1  0.122756  0.117459  0.122756  1
  Co  Co18  1  0.877244  0.362971  0.877244  1
  Co  Co19  1  0.877244  0.882541  0.877244  1
  Co  Co20  1  0.327683  0.326344  0.327683  1
  Co  Co21  1  0.122756  0.637029  0.122756  1
  Co  Co22  1  0.327683  0.018291  0.327683  1
  Si  Si23  1  0.000000  0.000000  0.500000  1
  Si  Si24  1  0.500000  0.500000  0.000000  1
  Si  Si25  1  0.500000  0.000000  0.500000  1
  Si  Si26  1  0.500000  0.000000  0.000000  1
  Si  Si27  1  0.000000  0.500000  0.500000  1
  Os  Os28  1  0.000000  0.500000  0.000000  1
