# generated using pymatgen
data_DyY6Er(CdPt)2
_symmetry_space_group_name_H-M   'P 1'
_cell_length_a   9.69738069
_cell_length_b   9.69738140
_cell_length_c   9.68791200
_cell_angle_alpha   60.03229680
_cell_angle_beta   60.03229438
_cell_angle_gamma   60.05765780
_symmetry_Int_Tables_number   1
_chemical_formula_structural   DyY6Er(CdPt)2
_chemical_formula_sum   'Dy2 Y12 Er2 Cd4 Pt4'
_cell_volume   644.79996854
_cell_formula_units_Z   2
loop_
 _symmetry_equiv_pos_site_id
 _symmetry_equiv_pos_as_xyz
  1  'x, y, z'
loop_
 _atom_site_type_symbol
 _atom_site_label
 _atom_site_symmetry_multiplicity
 _atom_site_fract_x
 _atom_site_fract_y
 _atom_site_fract_z
 _atom_site_occupancy
  Dy  Dy0  1  0.352130  0.352130  0.350813  1
  Dy  Dy1  1  0.352130  0.352130  0.944927  1
  Y  Y2  1  0.810422  0.190058  0.190425  1
  Y  Y3  1  0.190058  0.810422  0.809095  1
  Y  Y4  1  0.190058  0.810422  0.190425  1
  Y  Y5  1  0.810422  0.190058  0.809095  1
  Y  Y6  1  0.190533  0.190533  0.809467  1
  Y  Y7  1  0.810095  0.810095  0.189905  1
  Y  Y8  1  0.936261  0.563412  0.564232  1
  Y  Y9  1  0.563412  0.936261  0.936094  1
  Y  Y10  1  0.563412  0.936261  0.564232  1
  Y  Y11  1  0.936261  0.563412  0.936094  1
  Y  Y12  1  0.564513  0.564513  0.935487  1
  Y  Y13  1  0.936872  0.936872  0.563128  1
  Er  Er14  1  0.353487  0.942529  0.351992  1
  Er  Er15  1  0.942529  0.353487  0.351992  1
  Cd  Cd16  1  0.581591  0.581591  0.581605  1
  Cd  Cd17  1  0.581591  0.581591  0.255213  1
  Cd  Cd18  1  0.581808  0.254520  0.581836  1
  Cd  Cd19  1  0.254520  0.581808  0.581836  1
  Pt  Pt20  1  0.143653  0.143653  0.146178  1
  Pt  Pt21  1  0.143653  0.143653  0.566517  1
  Pt  Pt22  1  0.142194  0.568395  0.144706  1
  Pt  Pt23  1  0.568395  0.142194  0.144706  1
