# generated using pymatgen
data_TbDy4(Cd2Pd)2
_symmetry_space_group_name_H-M   'P 1'
_cell_length_a   3.63236300
_cell_length_b   7.93750700
_cell_length_c   18.33972100
_cell_angle_alpha   90.00000000
_cell_angle_beta   90.00000000
_cell_angle_gamma   90.00000000
_symmetry_Int_Tables_number   1
_chemical_formula_structural   TbDy4(Cd2Pd)2
_chemical_formula_sum   'Tb2 Dy8 Cd8 Pd4'
_cell_volume   528.76912549
_cell_formula_units_Z   2
loop_
 _symmetry_equiv_pos_site_id
 _symmetry_equiv_pos_as_xyz
  1  'x, y, z'
loop_
 _atom_site_type_symbol
 _atom_site_label
 _atom_site_symmetry_multiplicity
 _atom_site_fract_x
 _atom_site_fract_y
 _atom_site_fract_z
 _atom_site_occupancy
  Tb  Tb0  1  0.000000  0.500000  0.500000  1
  Tb  Tb1  1  0.000000  0.000000  0.000000  1
  Dy  Dy2  1  0.000000  0.739201  0.281441  1
  Dy  Dy3  1  0.000000  0.260799  0.718559  1
  Dy  Dy4  1  0.000000  0.760799  0.781441  1
  Dy  Dy5  1  0.000000  0.239201  0.218559  1
  Dy  Dy6  1  0.000000  0.614980  0.083783  1
  Dy  Dy7  1  0.000000  0.385020  0.916217  1
  Dy  Dy8  1  0.000000  0.885020  0.583783  1
  Dy  Dy9  1  0.000000  0.114980  0.416217  1
  Cd  Cd10  1  0.500000  0.713409  0.932119  1
  Cd  Cd11  1  0.500000  0.286591  0.067881  1
  Cd  Cd12  1  0.500000  0.786591  0.432119  1
  Cd  Cd13  1  0.500000  0.213409  0.567881  1
  Cd  Cd14  1  0.500000  0.576724  0.648761  1
  Cd  Cd15  1  0.500000  0.423276  0.351239  1
  Cd  Cd16  1  0.500000  0.923276  0.148761  1
  Cd  Cd17  1  0.500000  0.076724  0.851239  1
  Pd  Pd18  1  0.500000  0.525183  0.195567  1
  Pd  Pd19  1  0.500000  0.474817  0.804433  1
  Pd  Pd20  1  0.500000  0.974817  0.695567  1
  Pd  Pd21  1  0.500000  0.025183  0.304433  1
