# generated using pymatgen
data_Sr4Ga2Ir3Pt
_symmetry_space_group_name_H-M   'P 1'
_cell_length_a   5.92234163
_cell_length_b   5.92466822
_cell_length_c   7.85181909
_cell_angle_alpha   99.77300710
_cell_angle_beta   99.99907191
_cell_angle_gamma   61.87733859
_symmetry_Int_Tables_number   1
_chemical_formula_structural   Sr4Ga2Ir3Pt
_chemical_formula_sum   'Sr4 Ga2 Ir3 Pt1'
_cell_volume   238.05874166
_cell_formula_units_Z   1
loop_
 _symmetry_equiv_pos_site_id
 _symmetry_equiv_pos_as_xyz
  1  'x, y, z'
loop_
 _atom_site_type_symbol
 _atom_site_label
 _atom_site_symmetry_multiplicity
 _atom_site_fract_x
 _atom_site_fract_y
 _atom_site_fract_z
 _atom_site_occupancy
  Sr  Sr0  1  0.509941  0.783975  0.142091  1
  Sr  Sr1  1  0.216478  0.492204  0.359317  1
  Sr  Sr2  1  0.785629  0.509229  0.641457  1
  Sr  Sr3  1  0.488736  0.215661  0.857129  1
  Ga  Ga4  1  0.922369  0.070936  0.255319  1
  Ga  Ga5  1  0.080545  0.912907  0.742836  1
  Ir  Ir6  1  0.710963  0.008104  0.491352  1
  Ir  Ir7  1  0.286105  0.994017  0.510084  1
  Ir  Ir8  1  0.005819  0.727885  0.990428  1
  Pt  Pt9  1  0.993412  0.285083  0.009984  1
