# generated using pymatgen
data_Li(TaSe2)4
_symmetry_space_group_name_H-M   'P 1'
_cell_length_a   6.97335900
_cell_length_b   6.97335958
_cell_length_c   13.99731000
_cell_angle_alpha   90.00000000
_cell_angle_beta   90.00000000
_cell_angle_gamma   119.99999251
_symmetry_Int_Tables_number   1
_chemical_formula_structural   Li(TaSe2)4
_chemical_formula_sum   'Li2 Ta8 Se16'
_cell_volume   589.46677251
_cell_formula_units_Z   2
loop_
 _symmetry_equiv_pos_site_id
 _symmetry_equiv_pos_as_xyz
  1  'x, y, z'
loop_
 _atom_site_type_symbol
 _atom_site_label
 _atom_site_symmetry_multiplicity
 _atom_site_fract_x
 _atom_site_fract_y
 _atom_site_fract_z
 _atom_site_occupancy
  Li  Li0  1  0.000000  0.000000  0.000000  1
  Li  Li1  1  0.000000  0.000000  0.500000  1
  Ta  Ta2  1  0.000000  0.000000  0.250000  1
  Ta  Ta3  1  0.000000  0.000000  0.750000  1
  Ta  Ta4  1  0.509738  0.019477  0.250000  1
  Ta  Ta5  1  0.490262  0.980523  0.750000  1
  Ta  Ta6  1  0.980523  0.490262  0.250000  1
  Ta  Ta7  1  0.019477  0.509738  0.750000  1
  Ta  Ta8  1  0.509738  0.490262  0.250000  1
  Ta  Ta9  1  0.490262  0.509738  0.750000  1
  Se  Se10  1  0.333333  0.666667  0.624382  1
  Se  Se11  1  0.666667  0.333333  0.375618  1
  Se  Se12  1  0.666667  0.333333  0.124382  1
  Se  Se13  1  0.333333  0.666667  0.875618  1
  Se  Se14  1  0.168566  0.337132  0.132716  1
  Se  Se15  1  0.831434  0.662868  0.867284  1
  Se  Se16  1  0.662868  0.831434  0.132716  1
  Se  Se17  1  0.831434  0.662868  0.632716  1
  Se  Se18  1  0.337132  0.168566  0.867284  1
  Se  Se19  1  0.168566  0.337132  0.367284  1
  Se  Se20  1  0.168566  0.831434  0.132716  1
  Se  Se21  1  0.337132  0.168566  0.632716  1
  Se  Se22  1  0.831434  0.168566  0.867284  1
  Se  Se23  1  0.662868  0.831434  0.367284  1
  Se  Se24  1  0.831434  0.168566  0.632716  1
  Se  Se25  1  0.168566  0.831434  0.367284  1
