# generated using pymatgen
data_Yb6Ga3Co11C4
_symmetry_space_group_name_H-M   'P 1'
_cell_length_a   5.18829110
_cell_length_b   5.11460957
_cell_length_c   13.68247744
_cell_angle_alpha   89.09785610
_cell_angle_beta   90.00383003
_cell_angle_gamma   120.45617829
_symmetry_Int_Tables_number   1
_chemical_formula_structural   Yb6Ga3Co11C4
_chemical_formula_sum   'Yb6 Ga3 Co11 C4'
_cell_volume   312.92862734
_cell_formula_units_Z   1
loop_
 _symmetry_equiv_pos_site_id
 _symmetry_equiv_pos_as_xyz
  1  'x, y, z'
loop_
 _atom_site_type_symbol
 _atom_site_label
 _atom_site_symmetry_multiplicity
 _atom_site_fract_x
 _atom_site_fract_y
 _atom_site_fract_z
 _atom_site_occupancy
  Yb  Yb0  1  0.656031  0.312015  0.528755  1
  Yb  Yb1  1  0.332640  0.665271  0.454383  1
  Yb  Yb2  1  0.333783  0.667529  0.037568  1
  Yb  Yb3  1  0.668001  0.335960  0.755146  1
  Yb  Yb4  1  0.667227  0.334343  0.967911  1
  Yb  Yb5  1  0.332571  0.665114  0.246526  1
  Ga  Ga6  1  0.173836  0.347682  0.642571  1
  Ga  Ga7  1  0.998693  0.997519  0.003219  1
  Ga  Ga8  1  0.985577  0.971146  0.492226  1
  Co  Co9  1  0.330492  0.162943  0.341081  1
  Co  Co10  1  0.333322  0.167829  0.156026  1
  Co  Co11  1  0.166567  0.839531  0.849411  1
  Co  Co12  1  0.831624  0.663218  0.340327  1
  Co  Co13  1  0.834510  0.167845  0.155917  1
  Co  Co14  1  0.669704  0.835794  0.663297  1
  Co  Co15  1  0.672895  0.839522  0.849503  1
  Co  Co16  1  0.166094  0.835801  0.663258  1
  Co  Co17  1  0.835808  0.671612  0.156509  1
  Co  Co18  1  0.168903  0.337829  0.839284  1
  Co  Co19  1  0.832433  0.162973  0.341111  1
  C  C20  1  0.665058  0.330201  0.248367  1
  C  C21  1  0.990259  0.980379  0.757409  1
  C  C22  1  0.352506  0.705067  0.761589  1
  C  C23  1  0.001467  0.002877  0.248604  1
