# generated using pymatgen
data_Tb4DySi10P2Ir19
_symmetry_space_group_name_H-M   'P 1'
_cell_length_a   12.84428604
_cell_length_b   12.82704090
_cell_length_c   3.96394400
_cell_angle_alpha   90.00000000
_cell_angle_beta   90.00000000
_cell_angle_gamma   119.95456940
_symmetry_Int_Tables_number   1
_chemical_formula_structural   Tb4DySi10P2Ir19
_chemical_formula_sum   'Tb4 Dy1 Si10 P2 Ir19'
_cell_volume   565.83945089
_cell_formula_units_Z   1
loop_
 _symmetry_equiv_pos_site_id
 _symmetry_equiv_pos_as_xyz
  1  'x, y, z'
loop_
 _atom_site_type_symbol
 _atom_site_label
 _atom_site_symmetry_multiplicity
 _atom_site_fract_x
 _atom_site_fract_y
 _atom_site_fract_z
 _atom_site_occupancy
  Tb  Tb0  1  0.333063  0.666551  0.500000  1
  Tb  Tb1  1  0.999996  0.812792  0.000000  1
  Tb  Tb2  1  0.185352  0.186515  0.000000  1
  Tb  Tb3  1  0.814651  0.001168  0.000000  1
  Dy  Dy4  1  0.666943  0.333495  0.500000  1
  Si  Si5  1  0.000002  0.632648  0.500000  1
  Si  Si6  1  0.367291  0.367606  0.500000  1
  Si  Si7  1  0.632705  0.000309  0.500000  1
  Si  Si8  1  0.519013  0.686674  0.000000  1
  Si  Si9  1  0.313512  0.832141  0.000000  1
  Si  Si10  1  0.168172  0.480735  0.000000  1
  Si  Si11  1  0.481195  0.167870  0.000000  1
  Si  Si12  1  0.686490  0.518417  0.000000  1
  Si  Si13  1  0.831618  0.312564  0.000000  1
  Si  Si14  1  0.999966  0.179000  0.500000  1
  P  P15  1  0.819789  0.820138  0.500000  1
  P  P16  1  0.180247  0.000423  0.500000  1
  Ir  Ir17  1  0.512883  0.872762  0.000000  1
  Ir  Ir18  1  0.127081  0.640120  0.000000  1
  Ir  Ir19  1  0.361222  0.487429  0.000000  1
  Ir  Ir20  1  0.487390  0.359869  0.000000  1
  Ir  Ir21  1  0.872638  0.512766  0.000000  1
  Ir  Ir22  1  0.638793  0.126486  0.000000  1
  Ir  Ir23  1  0.000018  0.447723  0.500000  1
  Ir  Ir24  1  0.553736  0.552704  0.500000  1
  Ir  Ir25  1  0.446257  0.998954  0.500000  1
  Ir  Ir26  1  0.999928  0.282070  0.000000  1
  Ir  Ir27  1  0.720549  0.720603  0.000000  1
  Ir  Ir28  1  0.279513  0.000179  0.000000  1
  Ir  Ir29  1  0.626475  0.806387  0.500000  1
  Ir  Ir30  1  0.193677  0.820291  0.500000  1
  Ir  Ir31  1  0.181790  0.375932  0.500000  1
  Ir  Ir32  1  0.373680  0.179993  0.500000  1
  Ir  Ir33  1  0.806247  0.626454  0.500000  1
  Ir  Ir34  1  0.818119  0.194226  0.500000  1
  Ir  Ir35  1  0.999999  0.996007  0.500000  1
