# generated using pymatgen
data_Tb2Ga10OsRu2
_symmetry_space_group_name_H-M   'P 1'
_cell_length_a   8.91026700
_cell_length_b   8.91026700
_cell_length_c   6.46705500
_cell_angle_alpha   90.00000000
_cell_angle_beta   90.00000000
_cell_angle_gamma   90.00000000
_symmetry_Int_Tables_number   1
_chemical_formula_structural   Tb2Ga10OsRu2
_chemical_formula_sum   'Tb4 Ga20 Os2 Ru4'
_cell_volume   513.43797937
_cell_formula_units_Z   2
loop_
 _symmetry_equiv_pos_site_id
 _symmetry_equiv_pos_as_xyz
  1  'x, y, z'
loop_
 _atom_site_type_symbol
 _atom_site_label
 _atom_site_symmetry_multiplicity
 _atom_site_fract_x
 _atom_site_fract_y
 _atom_site_fract_z
 _atom_site_occupancy
  Tb  Tb0  1  0.683158  0.183158  0.000000  1
  Tb  Tb1  1  0.316842  0.816842  0.000000  1
  Tb  Tb2  1  0.816842  0.683158  0.000000  1
  Tb  Tb3  1  0.183158  0.316842  0.000000  1
  Ga  Ga4  1  0.938944  0.206426  0.294933  1
  Ga  Ga5  1  0.706426  0.438944  0.294933  1
  Ga  Ga6  1  0.500000  0.000000  0.289417  1
  Ga  Ga7  1  0.561056  0.706426  0.705067  1
  Ga  Ga8  1  0.293574  0.561056  0.705067  1
  Ga  Ga9  1  0.793574  0.938944  0.294933  1
  Ga  Ga10  1  0.938944  0.206426  0.705067  1
  Ga  Ga11  1  0.293574  0.561056  0.294933  1
  Ga  Ga12  1  0.061056  0.793574  0.294933  1
  Ga  Ga13  1  0.706426  0.438944  0.705067  1
  Ga  Ga14  1  0.438944  0.293574  0.705067  1
  Ga  Ga15  1  0.061056  0.793574  0.705067  1
  Ga  Ga16  1  0.206426  0.061056  0.705067  1
  Ga  Ga17  1  0.793574  0.938944  0.705067  1
  Ga  Ga18  1  0.206426  0.061056  0.294933  1
  Ga  Ga19  1  0.000000  0.500000  0.710583  1
  Ga  Ga20  1  0.000000  0.500000  0.289417  1
  Ga  Ga21  1  0.561056  0.706426  0.294933  1
  Ga  Ga22  1  0.438944  0.293574  0.294933  1
  Ga  Ga23  1  0.500000  0.000000  0.710583  1
  Os  Os24  1  0.000000  0.000000  0.000000  1
  Os  Os25  1  0.500000  0.500000  0.000000  1
  Ru  Ru26  1  0.678431  0.178431  0.500000  1
  Ru  Ru27  1  0.821569  0.678431  0.500000  1
  Ru  Ru28  1  0.178431  0.321569  0.500000  1
  Ru  Ru29  1  0.321569  0.821569  0.500000  1
