# generated using pymatgen
data_Dy8CoCu2Si12Rh
_symmetry_space_group_name_H-M   'P 1'
_cell_length_a   8.03760800
_cell_length_b   8.03760861
_cell_length_c   8.07326900
_cell_angle_alpha   90.00000000
_cell_angle_beta   90.00000000
_cell_angle_gamma   119.99998924
_symmetry_Int_Tables_number   1
_chemical_formula_structural   Dy8CoCu2Si12Rh
_chemical_formula_sum   'Dy8 Co1 Cu2 Si12 Rh1'
_cell_volume   451.68303433
_cell_formula_units_Z   1
loop_
 _symmetry_equiv_pos_site_id
 _symmetry_equiv_pos_as_xyz
  1  'x, y, z'
loop_
 _atom_site_type_symbol
 _atom_site_label
 _atom_site_symmetry_multiplicity
 _atom_site_fract_x
 _atom_site_fract_y
 _atom_site_fract_z
 _atom_site_occupancy
  Dy  Dy0  1  0.000000  0.000000  0.250008  1
  Dy  Dy1  1  0.000000  0.000000  0.749770  1
  Dy  Dy2  1  0.003922  0.501961  0.256256  1
  Dy  Dy3  1  0.498039  0.501961  0.256256  1
  Dy  Dy4  1  0.499540  0.999079  0.743618  1
  Dy  Dy5  1  0.498039  0.996078  0.256256  1
  Dy  Dy6  1  0.499540  0.500460  0.743618  1
  Dy  Dy7  1  0.000921  0.500460  0.743618  1
  Co  Co8  1  0.333333  0.666667  0.502767  1
  Cu  Cu9  1  0.333333  0.666667  0.996597  1
  Cu  Cu10  1  0.666667  0.333333  0.003399  1
  Si  Si11  1  0.168211  0.336420  0.000080  1
  Si  Si12  1  0.663580  0.831789  0.000080  1
  Si  Si13  1  0.172430  0.344859  0.500855  1
  Si  Si14  1  0.336905  0.168453  0.999950  1
  Si  Si15  1  0.168211  0.831789  0.000080  1
  Si  Si16  1  0.655141  0.827570  0.500855  1
  Si  Si17  1  0.831547  0.663095  0.999950  1
  Si  Si18  1  0.331942  0.165972  0.499119  1
  Si  Si19  1  0.172430  0.827570  0.500855  1
  Si  Si20  1  0.834028  0.668058  0.499119  1
  Si  Si21  1  0.831547  0.168453  0.999950  1
  Si  Si22  1  0.834028  0.165972  0.499119  1
  Rh  Rh23  1  0.666667  0.333333  0.497819  1
