# generated using pymatgen
data_TmNb8SbS16
_symmetry_space_group_name_H-M   'P 1'
_cell_length_a   6.66541100
_cell_length_b   6.66541140
_cell_length_c   13.52406200
_cell_angle_alpha   90.00000000
_cell_angle_beta   90.00000000
_cell_angle_gamma   119.99999307
_symmetry_Int_Tables_number   1
_chemical_formula_structural   TmNb8SbS16
_chemical_formula_sum   'Tm1 Nb8 Sb1 S16'
_cell_volume   520.34538698
_cell_formula_units_Z   1
loop_
 _symmetry_equiv_pos_site_id
 _symmetry_equiv_pos_as_xyz
  1  'x, y, z'
loop_
 _atom_site_type_symbol
 _atom_site_label
 _atom_site_symmetry_multiplicity
 _atom_site_fract_x
 _atom_site_fract_y
 _atom_site_fract_z
 _atom_site_occupancy
  Tm  Tm0  1  0.000000  0.000000  0.500000  1
  Nb  Nb1  1  0.000000  0.000000  0.251397  1
  Nb  Nb2  1  0.000000  0.000000  0.748603  1
  Nb  Nb3  1  0.505343  0.010688  0.250977  1
  Nb  Nb4  1  0.989312  0.494657  0.250977  1
  Nb  Nb5  1  0.505343  0.494657  0.250977  1
  Nb  Nb6  1  0.494657  0.989312  0.749023  1
  Nb  Nb7  1  0.010688  0.505343  0.749023  1
  Nb  Nb8  1  0.494657  0.505343  0.749023  1
  Sb  Sb9  1  0.000000  0.000000  0.000000  1
  S  S10  1  0.333333  0.666667  0.867907  1
  S  S11  1  0.666667  0.333333  0.132093  1
  S  S12  1  0.666667  0.333333  0.370460  1
  S  S13  1  0.333333  0.666667  0.629540  1
  S  S14  1  0.168950  0.831050  0.367078  1
  S  S15  1  0.168950  0.337901  0.367078  1
  S  S16  1  0.662099  0.831050  0.367078  1
  S  S17  1  0.831050  0.168950  0.632922  1
  S  S18  1  0.831050  0.662099  0.632922  1
  S  S19  1  0.337901  0.168950  0.632922  1
  S  S20  1  0.829587  0.170413  0.864382  1
  S  S21  1  0.829587  0.659175  0.864382  1
  S  S22  1  0.340825  0.170413  0.864382  1
  S  S23  1  0.170413  0.829587  0.135618  1
  S  S24  1  0.170413  0.340825  0.135618  1
  S  S25  1  0.659175  0.829587  0.135618  1
