# generated using pymatgen
data_PuTh(CBr)2
_symmetry_space_group_name_H-M   'P 1'
_cell_length_a   4.13078891
_cell_length_b   4.13079025
_cell_length_c   10.69070553
_cell_angle_alpha   80.48515984
_cell_angle_beta   80.48515564
_cell_angle_gamma   55.82673310
_symmetry_Int_Tables_number   1
_chemical_formula_structural   PuTh(CBr)2
_chemical_formula_sum   'Pu1 Th1 C2 Br2'
_cell_volume   148.25964432
_cell_formula_units_Z   1
loop_
 _symmetry_equiv_pos_site_id
 _symmetry_equiv_pos_as_xyz
  1  'x, y, z'
loop_
 _atom_site_type_symbol
 _atom_site_label
 _atom_site_symmetry_multiplicity
 _atom_site_fract_x
 _atom_site_fract_y
 _atom_site_fract_z
 _atom_site_occupancy
  Pu  Pu0  1  0.594710  0.594710  0.135135  1
  Th  Th1  1  0.406182  0.406182  0.868208  1
  C  C2  1  0.906285  0.906285  0.033868  1
  C  C3  1  0.088562  0.088562  0.970269  1
  Br  Br4  1  0.795552  0.795552  0.675537  1
  Br  Br5  1  0.208712  0.208712  0.316983  1
