# generated using pymatgen
data_Lu3MnB7
_symmetry_space_group_name_H-M   'P 1'
_cell_length_a   7.87634132
_cell_length_b   7.87634076
_cell_length_c   9.14482900
_cell_angle_alpha   90.00000000
_cell_angle_beta   90.00000000
_cell_angle_gamma   155.24625264
_symmetry_Int_Tables_number   1
_chemical_formula_structural   Lu3MnB7
_chemical_formula_sum   'Lu6 Mn2 B14'
_cell_volume   237.54583470
_cell_formula_units_Z   2
loop_
 _symmetry_equiv_pos_site_id
 _symmetry_equiv_pos_as_xyz
  1  'x, y, z'
loop_
 _atom_site_type_symbol
 _atom_site_label
 _atom_site_symmetry_multiplicity
 _atom_site_fract_x
 _atom_site_fract_y
 _atom_site_fract_z
 _atom_site_occupancy
  Lu  Lu0  1  0.895550  0.104450  0.440269  1
  Lu  Lu1  1  0.104450  0.895550  0.559731  1
  Lu  Lu2  1  0.895550  0.104450  0.059731  1
  Lu  Lu3  1  0.104450  0.895550  0.940269  1
  Lu  Lu4  1  0.241177  0.758823  0.250000  1
  Lu  Lu5  1  0.758823  0.241177  0.750000  1
  Mn  Mn6  1  0.052461  0.947539  0.250000  1
  Mn  Mn7  1  0.947539  0.052461  0.750000  1
  B  B8  1  0.727871  0.272129  0.467049  1
  B  B9  1  0.272129  0.727871  0.532951  1
  B  B10  1  0.727871  0.272129  0.032951  1
  B  B11  1  0.272129  0.727871  0.967049  1
  B  B12  1  0.630469  0.369531  0.152234  1
  B  B13  1  0.369531  0.630469  0.847766  1
  B  B14  1  0.630469  0.369531  0.347766  1
  B  B15  1  0.369531  0.630469  0.652234  1
  B  B16  1  0.520472  0.479528  0.096706  1
  B  B17  1  0.479528  0.520472  0.903294  1
  B  B18  1  0.520472  0.479528  0.403294  1
  B  B19  1  0.479528  0.520472  0.596706  1
  B  B20  1  0.456103  0.543897  0.250000  1
  B  B21  1  0.543897  0.456103  0.750000  1
