# generated using pymatgen
data_Tm10GaBi2Au3
_symmetry_space_group_name_H-M   'P 1'
_cell_length_a   8.60873511
_cell_length_b   8.60873671
_cell_length_c   8.61724210
_cell_angle_alpha   124.17918366
_cell_angle_beta   124.17918985
_cell_angle_gamma   82.83796176
_symmetry_Int_Tables_number   1
_chemical_formula_structural   Tm10GaBi2Au3
_chemical_formula_sum   'Tm10 Ga1 Bi2 Au3'
_cell_volume   419.72463216
_cell_formula_units_Z   1
loop_
 _symmetry_equiv_pos_site_id
 _symmetry_equiv_pos_as_xyz
  1  'x, y, z'
loop_
 _atom_site_type_symbol
 _atom_site_label
 _atom_site_symmetry_multiplicity
 _atom_site_fract_x
 _atom_site_fract_y
 _atom_site_fract_z
 _atom_site_occupancy
  Tm  Tm0  1  0.499826  0.500991  0.000817  1
  Tm  Tm1  1  0.000991  0.999826  0.000817  1
  Tm  Tm2  1  0.514169  0.014169  0.807069  1
  Tm  Tm3  1  0.207582  0.707582  0.197873  1
  Tm  Tm4  1  0.013223  0.204764  0.497665  1
  Tm  Tm5  1  0.704764  0.513223  0.497665  1
  Tm  Tm6  1  0.490290  0.990290  0.197873  1
  Tm  Tm7  1  0.792902  0.292902  0.807069  1
  Tm  Tm8  1  0.984442  0.792901  0.497665  1
  Tm  Tm9  1  0.292901  0.484442  0.497665  1
  Ga  Ga10  1  0.142267  0.642267  0.784534  1
  Bi  Bi11  1  0.248125  0.248125  0.996249  1
  Bi  Bi12  1  0.748125  0.748125  0.996249  1
  Au  Au13  1  0.862104  0.362104  0.224208  1
  Au  Au14  1  0.637960  0.860331  0.498291  1
  Au  Au15  1  0.360331  0.137960  0.498291  1
