# generated using pymatgen
data_Sr12SnGe11Au12
_symmetry_space_group_name_H-M   'P 1'
_cell_length_a   4.70304900
_cell_length_b   8.04696116
_cell_length_c   23.20775117
_cell_angle_alpha   89.87182967
_cell_angle_beta   90.00000000
_cell_angle_gamma   90.00000000
_symmetry_Int_Tables_number   1
_chemical_formula_structural   Sr12SnGe11Au12
_chemical_formula_sum   'Sr12 Sn1 Ge11 Au12'
_cell_volume   878.30100806
_cell_formula_units_Z   1
loop_
 _symmetry_equiv_pos_site_id
 _symmetry_equiv_pos_as_xyz
  1  'x, y, z'
loop_
 _atom_site_type_symbol
 _atom_site_label
 _atom_site_symmetry_multiplicity
 _atom_site_fract_x
 _atom_site_fract_y
 _atom_site_fract_z
 _atom_site_occupancy
  Sr  Sr0  1  0.750000  0.215114  0.498236  1
  Sr  Sr1  1  0.250000  0.791687  0.166186  1
  Sr  Sr2  1  0.250000  0.785239  0.500341  1
  Sr  Sr3  1  0.250000  0.791251  0.834472  1
  Sr  Sr4  1  0.250000  0.706829  0.332939  1
  Sr  Sr5  1  0.750000  0.212252  0.836137  1
  Sr  Sr6  1  0.750000  0.285088  0.999406  1
  Sr  Sr7  1  0.750000  0.297094  0.665372  1
  Sr  Sr8  1  0.750000  0.291870  0.333865  1
  Sr  Sr9  1  0.250000  0.700340  0.663112  1
  Sr  Sr10  1  0.250000  0.715260  0.001646  1
  Sr  Sr11  1  0.750000  0.207122  0.167172  1
  Sn  Sn12  1  0.750000  0.917570  0.727781  1
  Ge  Ge13  1  0.250000  0.410500  0.565782  1
  Ge  Ge14  1  0.250000  0.081754  0.393690  1
  Ge  Ge15  1  0.250000  0.087992  0.066574  1
  Ge  Ge16  1  0.250000  0.418732  0.894650  1
  Ge  Ge17  1  0.750000  0.581817  0.106105  1
  Ge  Ge18  1  0.250000  0.419961  0.774308  1
  Ge  Ge19  1  0.750000  0.580458  0.226262  1
  Ge  Ge20  1  0.750000  0.588074  0.433284  1
  Ge  Ge21  1  0.750000  0.912083  0.933613  1
  Ge  Ge22  1  0.250000  0.080362  0.273792  1
  Ge  Ge23  1  0.750000  0.917093  0.602848  1
  Au  Au24  1  0.250000  0.085786  0.594349  1
  Au  Au25  1  0.250000  0.100209  0.739882  1
  Au  Au26  1  0.750000  0.586382  0.905720  1
  Au  Au27  1  0.750000  0.913718  0.404810  1
  Au  Au28  1  0.750000  0.581418  0.566558  1
  Au  Au29  1  0.750000  0.576740  0.763168  1
  Au  Au30  1  0.250000  0.418270  0.431841  1
  Au  Au31  1  0.250000  0.414112  0.238094  1
  Au  Au32  1  0.750000  0.918599  0.068141  1
  Au  Au33  1  0.250000  0.413711  0.095065  1
  Au  Au34  1  0.250000  0.081409  0.932870  1
  Au  Au35  1  0.750000  0.914103  0.261928  1
