# generated using pymatgen
data_Dy16Ho4CoBi8Os3
_symmetry_space_group_name_H-M   'P 1'
_cell_length_a   7.96852639
_cell_length_b   9.00354709
_cell_length_c   12.45312711
_cell_angle_alpha   90.01354118
_cell_angle_beta   89.75432275
_cell_angle_gamma   90.00836937
_symmetry_Int_Tables_number   1
_chemical_formula_structural   Dy16Ho4CoBi8Os3
_chemical_formula_sum   'Dy16 Ho4 Co1 Bi8 Os3'
_cell_volume   893.44138844
_cell_formula_units_Z   1
loop_
 _symmetry_equiv_pos_site_id
 _symmetry_equiv_pos_as_xyz
  1  'x, y, z'
loop_
 _atom_site_type_symbol
 _atom_site_label
 _atom_site_symmetry_multiplicity
 _atom_site_fract_x
 _atom_site_fract_y
 _atom_site_fract_z
 _atom_site_occupancy
  Dy  Dy0  1  0.344544  0.750105  0.701641  1
  Dy  Dy1  1  0.658111  0.249967  0.292354  1
  Dy  Dy2  1  0.842598  0.249913  0.791389  1
  Dy  Dy3  1  0.156111  0.750036  0.206672  1
  Dy  Dy4  1  0.879223  0.750085  0.805894  1
  Dy  Dy5  1  0.119893  0.249890  0.193747  1
  Dy  Dy6  1  0.378614  0.249915  0.693244  1
  Dy  Dy7  1  0.616892  0.750118  0.312188  1
  Dy  Dy8  1  0.675856  0.542189  0.563745  1
  Dy  Dy9  1  0.324677  0.460816  0.436821  1
  Dy  Dy10  1  0.175121  0.457972  0.936056  1
  Dy  Dy11  1  0.324885  0.039218  0.436887  1
  Dy  Dy12  1  0.055031  0.750053  0.496896  1
  Dy  Dy13  1  0.945063  0.249903  0.503070  1
  Dy  Dy14  1  0.557814  0.249948  0.003596  1
  Dy  Dy15  1  0.442697  0.750088  0.995819  1
  Ho  Ho16  1  0.824549  0.543027  0.064221  1
  Ho  Ho17  1  0.675475  0.957823  0.563690  1
  Ho  Ho18  1  0.824802  0.957029  0.064149  1
  Ho  Ho19  1  0.174647  0.042018  0.936100  1
  Co  Co20  1  0.429724  0.750105  0.491150  1
  Bi  Bi21  1  0.570304  0.508798  0.827156  1
  Bi  Bi22  1  0.429558  0.492216  0.173043  1
  Bi  Bi23  1  0.071693  0.491979  0.671930  1
  Bi  Bi24  1  0.429561  0.007774  0.173034  1
  Bi  Bi25  1  0.929046  0.509002  0.328368  1
  Bi  Bi26  1  0.570214  0.991212  0.827158  1
  Bi  Bi27  1  0.929088  0.990986  0.328376  1
  Bi  Bi28  1  0.071575  0.008006  0.671938  1
  Os  Os29  1  0.074911  0.750196  0.989264  1
  Os  Os30  1  0.923897  0.249791  0.010277  1
  Os  Os31  1  0.573826  0.249822  0.510130  1
