# generated using pymatgen
data_TbTaNbB2Ru5
_symmetry_space_group_name_H-M   'P 1'
_cell_length_a   9.58613907
_cell_length_b   9.58614082
_cell_length_c   3.08520100
_cell_angle_alpha   90.00000000
_cell_angle_beta   90.00000000
_cell_angle_gamma   90.74415168
_symmetry_Int_Tables_number   1
_chemical_formula_structural   TbTaNbB2Ru5
_chemical_formula_sum   'Tb2 Ta2 Nb2 B4 Ru10'
_cell_volume   283.48779294
_cell_formula_units_Z   2
loop_
 _symmetry_equiv_pos_site_id
 _symmetry_equiv_pos_as_xyz
  1  'x, y, z'
loop_
 _atom_site_type_symbol
 _atom_site_label
 _atom_site_symmetry_multiplicity
 _atom_site_fract_x
 _atom_site_fract_y
 _atom_site_fract_z
 _atom_site_occupancy
  Tb  Tb0  1  0.823648  0.676352  0.000000  1
  Tb  Tb1  1  0.176352  0.323648  0.000000  1
  Ta  Ta2  1  0.500000  0.500000  0.000000  1
  Ta  Ta3  1  0.000000  0.000000  0.000000  1
  Nb  Nb4  1  0.324973  0.824973  0.000000  1
  Nb  Nb5  1  0.675027  0.175027  0.000000  1
  B  B6  1  0.620169  0.879831  0.000000  1
  B  B7  1  0.379831  0.120169  0.000000  1
  B  B8  1  0.121453  0.621453  0.000000  1
  B  B9  1  0.878547  0.378547  0.000000  1
  Ru  Ru10  1  0.559203  0.722897  0.500000  1
  Ru  Ru11  1  0.440797  0.277103  0.500000  1
  Ru  Ru12  1  0.081627  0.785463  0.500000  1
  Ru  Ru13  1  0.918373  0.214537  0.500000  1
  Ru  Ru14  1  0.285463  0.581627  0.500000  1
  Ru  Ru15  1  0.714537  0.418373  0.500000  1
  Ru  Ru16  1  0.222897  0.059203  0.500000  1
  Ru  Ru17  1  0.777103  0.940797  0.500000  1
  Ru  Ru18  1  0.500000  0.000000  0.500000  1
  Ru  Ru19  1  0.000000  0.500000  0.500000  1
