# generated using pymatgen
data_PrDy2MnZnCo9B4
_symmetry_space_group_name_H-M   'P 1'
_cell_length_a   5.13041700
_cell_length_b   5.13041772
_cell_length_c   9.73829100
_cell_angle_alpha   90.00000000
_cell_angle_beta   90.00000000
_cell_angle_gamma   120.00000179
_symmetry_Int_Tables_number   1
_chemical_formula_structural   PrDy2MnZnCo9B4
_chemical_formula_sum   'Pr1 Dy2 Mn1 Zn1 Co9 B4'
_cell_volume   221.98251372
_cell_formula_units_Z   1
loop_
 _symmetry_equiv_pos_site_id
 _symmetry_equiv_pos_as_xyz
  1  'x, y, z'
loop_
 _atom_site_type_symbol
 _atom_site_label
 _atom_site_symmetry_multiplicity
 _atom_site_fract_x
 _atom_site_fract_y
 _atom_site_fract_z
 _atom_site_occupancy
  Pr  Pr0  1  0.000000  0.000000  0.000000  1
  Dy  Dy1  1  0.000000  0.000000  0.656671  1
  Dy  Dy2  1  0.000000  0.000000  0.343329  1
  Mn  Mn3  1  0.333333  0.666667  0.000000  1
  Zn  Zn4  1  0.666667  0.333333  0.000000  1
  Co  Co5  1  0.499860  0.500140  0.500000  1
  Co  Co6  1  0.000280  0.500140  0.500000  1
  Co  Co7  1  0.499145  0.998290  0.211265  1
  Co  Co8  1  0.499145  0.500855  0.211265  1
  Co  Co9  1  0.001710  0.500855  0.211265  1
  Co  Co10  1  0.499145  0.998290  0.788735  1
  Co  Co11  1  0.499145  0.500855  0.788735  1
  Co  Co12  1  0.001710  0.500855  0.788735  1
  Co  Co13  1  0.499860  0.999720  0.500000  1
  B  B14  1  0.333333  0.666667  0.648469  1
  B  B15  1  0.666667  0.333333  0.648383  1
  B  B16  1  0.666667  0.333333  0.351617  1
  B  B17  1  0.333333  0.666667  0.351531  1
