# generated using pymatgen
data_Ba3YTm2LuO9
_symmetry_space_group_name_H-M   'P 1'
_cell_length_a   9.11565906
_cell_length_b   9.11565984
_cell_length_c   9.11566076
_cell_angle_alpha   39.03692791
_cell_angle_beta   39.03691771
_cell_angle_gamma   39.03692037
_symmetry_Int_Tables_number   1
_chemical_formula_structural   Ba3YTm2LuO9
_chemical_formula_sum   'Ba3 Y1 Tm2 Lu1 O9'
_cell_volume   270.23464659
_cell_formula_units_Z   1
loop_
 _symmetry_equiv_pos_site_id
 _symmetry_equiv_pos_as_xyz
  1  'x, y, z'
loop_
 _atom_site_type_symbol
 _atom_site_label
 _atom_site_symmetry_multiplicity
 _atom_site_fract_x
 _atom_site_fract_y
 _atom_site_fract_z
 _atom_site_occupancy
  Ba  Ba0  1  0.413653  0.413653  0.413653  1
  Ba  Ba1  1  0.835744  0.835744  0.835744  1
  Ba  Ba2  1  0.000846  0.000846  0.000846  1
  Y  Y3  1  0.574878  0.574878  0.574878  1
  Tm  Tm4  1  0.700958  0.700958  0.700958  1
  Tm  Tm5  1  0.261615  0.261615  0.261615  1
  Lu  Lu6  1  0.136510  0.136510  0.136510  1
  O  O7  1  0.437195  0.967209  0.524792  1
  O  O8  1  0.967209  0.524792  0.437195  1
  O  O9  1  0.524792  0.437195  0.967209  1
  O  O10  1  0.296047  0.883093  0.408317  1
  O  O11  1  0.883093  0.408317  0.296047  1
  O  O12  1  0.408317  0.296047  0.883093  1
  O  O13  1  0.416408  0.870031  0.969702  1
  O  O14  1  0.969702  0.416408  0.870031  1
  O  O15  1  0.870031  0.969702  0.416408  1
