# generated using pymatgen
data_Tb5Dy5TlSb5
_symmetry_space_group_name_H-M   'P 1'
_cell_length_a   6.40060500
_cell_length_b   9.02382070
_cell_length_c   9.00648700
_cell_angle_alpha   119.90251970
_cell_angle_beta   90.00001790
_cell_angle_gamma   89.99997203
_symmetry_Int_Tables_number   1
_chemical_formula_structural   Tb5Dy5TlSb5
_chemical_formula_sum   'Tb5 Dy5 Tl1 Sb5'
_cell_volume   450.94471526
_cell_formula_units_Z   1
loop_
 _symmetry_equiv_pos_site_id
 _symmetry_equiv_pos_as_xyz
  1  'x, y, z'
loop_
 _atom_site_type_symbol
 _atom_site_label
 _atom_site_symmetry_multiplicity
 _atom_site_fract_x
 _atom_site_fract_y
 _atom_site_fract_z
 _atom_site_occupancy
  Tb  Tb0  1  0.750001  0.243777  0.999583  1
  Tb  Tb1  1  0.750001  0.752385  0.755484  1
  Tb  Tb2  1  0.249999  0.757612  0.000914  1
  Tb  Tb3  1  0.250001  0.247313  0.245339  1
  Tb  Tb4  1  0.250001  0.002233  0.754682  1
  Dy  Dy5  1  0.498011  0.334819  0.668586  1
  Dy  Dy6  1  0.498534  0.666266  0.331869  1
  Dy  Dy7  1  0.001465  0.666267  0.331869  1
  Dy  Dy8  1  0.001988  0.334820  0.668586  1
  Dy  Dy9  1  0.750001  0.996175  0.241930  1
  Tl  Tl10  1  0.749999  0.607839  0.001349  1
  Sb  Sb11  1  0.750001  0.386844  0.388365  1
  Sb  Sb12  1  0.750001  0.999341  0.609165  1
  Sb  Sb13  1  0.250000  0.390622  0.000397  1
  Sb  Sb14  1  0.250000  0.612003  0.611593  1
  Sb  Sb15  1  0.250000  0.001680  0.390289  1
