# generated using pymatgen
data_Pr2BeOsI
_symmetry_space_group_name_H-M   'P 1'
_cell_length_a   4.09403900
_cell_length_b   4.09403894
_cell_length_c   17.92740800
_cell_angle_alpha   90.00000000
_cell_angle_beta   90.00000000
_cell_angle_gamma   119.99999239
_symmetry_Int_Tables_number   1
_chemical_formula_structural   Pr2BeOsI
_chemical_formula_sum   'Pr4 Be2 Os2 I2'
_cell_volume   260.22685453
_cell_formula_units_Z   2
loop_
 _symmetry_equiv_pos_site_id
 _symmetry_equiv_pos_as_xyz
  1  'x, y, z'
loop_
 _atom_site_type_symbol
 _atom_site_label
 _atom_site_symmetry_multiplicity
 _atom_site_fract_x
 _atom_site_fract_y
 _atom_site_fract_z
 _atom_site_occupancy
  Pr  Pr0  1  0.000000  0.000000  0.605685  1
  Pr  Pr1  1  0.000000  0.000000  0.394258  1
  Pr  Pr2  1  0.000000  0.000000  0.105685  1
  Pr  Pr3  1  0.000000  0.000000  0.894258  1
  Be  Be4  1  0.666667  0.333333  0.500204  1
  Be  Be5  1  0.333333  0.666667  0.000204  1
  Os  Os6  1  0.666667  0.333333  0.000044  1
  Os  Os7  1  0.333333  0.666667  0.500044  1
  I  I8  1  0.666667  0.333333  0.249810  1
  I  I9  1  0.333333  0.666667  0.749810  1
