# generated using pymatgen
data_PrDy4(Cd2Pt)2
_symmetry_space_group_name_H-M   'P 1'
_cell_length_a   3.68428000
_cell_length_b   7.99109800
_cell_length_c   18.57182700
_cell_angle_alpha   90.00000000
_cell_angle_beta   90.00000000
_cell_angle_gamma   90.00000000
_symmetry_Int_Tables_number   1
_chemical_formula_structural   PrDy4(Cd2Pt)2
_chemical_formula_sum   'Pr2 Dy8 Cd8 Pt4'
_cell_volume   546.78137747
_cell_formula_units_Z   2
loop_
 _symmetry_equiv_pos_site_id
 _symmetry_equiv_pos_as_xyz
  1  'x, y, z'
loop_
 _atom_site_type_symbol
 _atom_site_label
 _atom_site_symmetry_multiplicity
 _atom_site_fract_x
 _atom_site_fract_y
 _atom_site_fract_z
 _atom_site_occupancy
  Pr  Pr0  1  0.000000  0.000000  0.000000  1
  Pr  Pr1  1  0.000000  0.500000  0.500000  1
  Dy  Dy2  1  0.000000  0.116597  0.413110  1
  Dy  Dy3  1  0.000000  0.883403  0.586890  1
  Dy  Dy4  1  0.000000  0.383403  0.913110  1
  Dy  Dy5  1  0.000000  0.616597  0.086890  1
  Dy  Dy6  1  0.000000  0.242960  0.219468  1
  Dy  Dy7  1  0.000000  0.757040  0.780532  1
  Dy  Dy8  1  0.000000  0.257040  0.719468  1
  Dy  Dy9  1  0.000000  0.742960  0.280532  1
  Cd  Cd10  1  0.500000  0.426390  0.349674  1
  Cd  Cd11  1  0.500000  0.573610  0.650326  1
  Cd  Cd12  1  0.500000  0.073610  0.849674  1
  Cd  Cd13  1  0.500000  0.926390  0.150326  1
  Cd  Cd14  1  0.500000  0.294499  0.068145  1
  Cd  Cd15  1  0.500000  0.705501  0.931855  1
  Cd  Cd16  1  0.500000  0.205501  0.568145  1
  Cd  Cd17  1  0.500000  0.794499  0.431855  1
  Pt  Pt18  1  0.500000  0.028295  0.303933  1
  Pt  Pt19  1  0.500000  0.971705  0.696067  1
  Pt  Pt20  1  0.500000  0.471705  0.803933  1
  Pt  Pt21  1  0.500000  0.528295  0.196067  1
