# generated using pymatgen
data_ZrSc2Al3Zn2Ni
_symmetry_space_group_name_H-M   'P 1'
_cell_length_a   6.62157500
_cell_length_b   6.67621237
_cell_length_c   4.04096500
_cell_angle_alpha   90.00000000
_cell_angle_beta   90.00000000
_cell_angle_gamma   119.72963162
_symmetry_Int_Tables_number   1
_chemical_formula_structural   ZrSc2Al3Zn2Ni
_chemical_formula_sum   'Zr1 Sc2 Al3 Zn2 Ni1'
_cell_volume   155.12576190
_cell_formula_units_Z   1
loop_
 _symmetry_equiv_pos_site_id
 _symmetry_equiv_pos_as_xyz
  1  'x, y, z'
loop_
 _atom_site_type_symbol
 _atom_site_label
 _atom_site_symmetry_multiplicity
 _atom_site_fract_x
 _atom_site_fract_y
 _atom_site_fract_z
 _atom_site_occupancy
  Zr  Zr0  1  0.407445  0.000000  0.500000  1
  Sc  Sc1  1  0.000317  0.405793  0.500000  1
  Sc  Sc2  1  0.594524  0.594207  0.500000  1
  Al  Al3  1  0.003402  0.766007  0.000000  1
  Al  Al4  1  0.237395  0.233993  0.000000  1
  Al  Al5  1  0.760776  0.000000  0.000000  1
  Zn  Zn6  1  0.331988  0.664647  0.000000  1
  Zn  Zn7  1  0.667342  0.335353  0.000000  1
  Ni  Ni8  1  0.996811  0.000000  0.500000  1
