# generated using pymatgen
data_Tb4Dy2InCoSi
_symmetry_space_group_name_H-M   'P 1'
_cell_length_a   8.49398653
_cell_length_b   8.49398760
_cell_length_c   8.49398658
_cell_angle_alpha   113.54286842
_cell_angle_beta   110.64186645
_cell_angle_gamma   104.36151809
_symmetry_Int_Tables_number   1
_chemical_formula_structural   Tb4Dy2InCoSi
_chemical_formula_sum   'Tb8 Dy4 In2 Co2 Si2'
_cell_volume   468.63921541
_cell_formula_units_Z   2
loop_
 _symmetry_equiv_pos_site_id
 _symmetry_equiv_pos_as_xyz
  1  'x, y, z'
loop_
 _atom_site_type_symbol
 _atom_site_label
 _atom_site_symmetry_multiplicity
 _atom_site_fract_x
 _atom_site_fract_y
 _atom_site_fract_z
 _atom_site_occupancy
  Tb  Tb0  1  0.441666  0.240566  0.201100  1
  Tb  Tb1  1  0.558334  0.759434  0.798900  1
  Tb  Tb2  1  0.039466  0.240566  0.798900  1
  Tb  Tb3  1  0.960534  0.759434  0.201100  1
  Tb  Tb4  1  0.188041  0.288038  0.476078  1
  Tb  Tb5  1  0.811959  0.711962  0.523922  1
  Tb  Tb6  1  0.188041  0.711962  0.900003  1
  Tb  Tb7  1  0.811959  0.288038  0.099997  1
  Dy  Dy8  1  0.305394  0.616165  0.310770  1
  Dy  Dy9  1  0.694606  0.383835  0.689230  1
  Dy  Dy10  1  0.305394  0.994624  0.689230  1
  Dy  Dy11  1  0.694606  0.005376  0.310770  1
  In  In12  1  0.500000  0.500000  0.000000  1
  In  In13  1  0.000000  0.000000  0.000000  1
  Co  Co14  1  0.107617  0.607617  0.500000  1
  Co  Co15  1  0.892383  0.392383  0.500000  1
  Si  Si16  1  0.364462  0.000000  0.364462  1
  Si  Si17  1  0.635538  0.000000  0.635538  1
