# generated using pymatgen
data_Ta9CrN12
_symmetry_space_group_name_H-M   'P 1'
_cell_length_a   5.21508900
_cell_length_b   5.21508827
_cell_length_c   10.35064700
_cell_angle_alpha   90.00000000
_cell_angle_beta   90.00000000
_cell_angle_gamma   119.99999830
_symmetry_Int_Tables_number   1
_chemical_formula_structural   Ta9CrN12
_chemical_formula_sum   'Ta9 Cr1 N12'
_cell_volume   243.79316447
_cell_formula_units_Z   1
loop_
 _symmetry_equiv_pos_site_id
 _symmetry_equiv_pos_as_xyz
  1  'x, y, z'
loop_
 _atom_site_type_symbol
 _atom_site_label
 _atom_site_symmetry_multiplicity
 _atom_site_fract_x
 _atom_site_fract_y
 _atom_site_fract_z
 _atom_site_occupancy
  Ta  Ta0  1  0.677916  0.675661  0.750617  1
  Ta  Ta1  1  0.324339  0.002255  0.750617  1
  Ta  Ta2  1  0.997745  0.322084  0.750617  1
  Ta  Ta3  1  0.324339  0.322084  0.249383  1
  Ta  Ta4  1  0.677916  0.002255  0.249383  1
  Ta  Ta5  1  0.997745  0.675661  0.249383  1
  Ta  Ta6  1  0.333333  0.666667  0.000000  1
  Ta  Ta7  1  0.333333  0.666667  0.500000  1
  Ta  Ta8  1  0.666667  0.333333  0.500000  1
  Cr  Cr9  1  0.666667  0.333333  0.000000  1
  N  N10  1  0.661142  0.661685  0.379179  1
  N  N11  1  0.338315  0.999457  0.379179  1
  N  N12  1  0.000543  0.338858  0.379179  1
  N  N13  1  0.338315  0.338858  0.620821  1
  N  N14  1  0.661142  0.999457  0.620821  1
  N  N15  1  0.000543  0.661685  0.620821  1
  N  N16  1  0.349248  0.346864  0.878967  1
  N  N17  1  0.653136  0.002384  0.878967  1
  N  N18  1  0.997616  0.650752  0.878967  1
  N  N19  1  0.653136  0.650752  0.121033  1
  N  N20  1  0.349248  0.002384  0.121033  1
  N  N21  1  0.997616  0.346864  0.121033  1
