# generated using pymatgen
data_Tb2Dy5Ho(ReB6)4
_symmetry_space_group_name_H-M   'P 1'
_cell_length_a   3.68907600
_cell_length_b   9.18466509
_cell_length_c   11.57515701
_cell_angle_alpha   89.99435098
_cell_angle_beta   90.00000000
_cell_angle_gamma   90.00000000
_symmetry_Int_Tables_number   1
_chemical_formula_structural   Tb2Dy5Ho(ReB6)4
_chemical_formula_sum   'Tb2 Dy5 Ho1 Re4 B24'
_cell_volume   392.20020430
_cell_formula_units_Z   1
loop_
 _symmetry_equiv_pos_site_id
 _symmetry_equiv_pos_as_xyz
  1  'x, y, z'
loop_
 _atom_site_type_symbol
 _atom_site_label
 _atom_site_symmetry_multiplicity
 _atom_site_fract_x
 _atom_site_fract_y
 _atom_site_fract_z
 _atom_site_occupancy
  Tb  Tb0  1  0.000000  0.323490  0.413876  1
  Tb  Tb1  1  0.000000  0.676491  0.586233  1
  Dy  Dy2  1  0.000000  0.823628  0.085938  1
  Dy  Dy3  1  0.000000  0.176403  0.913983  1
  Dy  Dy4  1  0.000000  0.943030  0.369723  1
  Dy  Dy5  1  0.000000  0.056999  0.630332  1
  Dy  Dy6  1  0.000000  0.442985  0.129701  1
  Ho  Ho7  1  0.000000  0.557047  0.870046  1
  Re  Re8  1  0.000000  0.638786  0.320284  1
  Re  Re9  1  0.000000  0.361378  0.679807  1
  Re  Re10  1  0.000000  0.138397  0.178912  1
  Re  Re11  1  0.000000  0.861407  0.821124  1
  B  B12  1  0.500000  0.553569  0.432402  1
  B  B13  1  0.500000  0.446433  0.567663  1
  B  B14  1  0.500000  0.053283  0.067036  1
  B  B15  1  0.500000  0.946664  0.932939  1
  B  B16  1  0.500000  0.749077  0.417921  1
  B  B17  1  0.500000  0.250947  0.582115  1
  B  B18  1  0.500000  0.248822  0.081351  1
  B  B19  1  0.500000  0.750913  0.918643  1
  B  B20  1  0.500000  0.791944  0.265131  1
  B  B21  1  0.500000  0.208140  0.734904  1
  B  B22  1  0.500000  0.291594  0.234032  1
  B  B23  1  0.500000  0.708181  0.766018  1
  B  B24  1  0.500000  0.631004  0.185441  1
  B  B25  1  0.500000  0.369183  0.814674  1
  B  B26  1  0.500000  0.130639  0.313786  1
  B  B27  1  0.500000  0.869323  0.686225  1
  B  B28  1  0.500000  0.982431  0.211582  1
  B  B29  1  0.500000  0.017549  0.788422  1
  B  B30  1  0.500000  0.482762  0.287689  1
  B  B31  1  0.500000  0.517322  0.712489  1
  B  B32  1  0.500000  0.600131  0.027719  1
  B  B33  1  0.500000  0.400055  0.971836  1
  B  B34  1  0.500000  0.099447  0.472188  1
  B  B35  1  0.500000  0.900547  0.527832  1
