# generated using pymatgen
data_DyErTm3CoSb2
_symmetry_space_group_name_H-M   'P 1'
_cell_length_a   7.77906800
_cell_length_b   8.72758700
_cell_length_c   12.04222300
_cell_angle_alpha   90.00000000
_cell_angle_beta   90.00000000
_cell_angle_gamma   90.00000000
_symmetry_Int_Tables_number   1
_chemical_formula_structural   DyErTm3CoSb2
_chemical_formula_sum   'Dy4 Er4 Tm12 Co4 Sb8'
_cell_volume   817.57653771
_cell_formula_units_Z   4
loop_
 _symmetry_equiv_pos_site_id
 _symmetry_equiv_pos_as_xyz
  1  'x, y, z'
loop_
 _atom_site_type_symbol
 _atom_site_label
 _atom_site_symmetry_multiplicity
 _atom_site_fract_x
 _atom_site_fract_y
 _atom_site_fract_z
 _atom_site_occupancy
  Dy  Dy0  1  0.621413  0.750000  0.307243  1
  Dy  Dy1  1  0.878587  0.750000  0.807243  1
  Dy  Dy2  1  0.378587  0.250000  0.692757  1
  Dy  Dy3  1  0.121413  0.250000  0.192757  1
  Er  Er4  1  0.155137  0.750000  0.203454  1
  Er  Er5  1  0.344863  0.750000  0.703454  1
  Er  Er6  1  0.844863  0.250000  0.796546  1
  Er  Er7  1  0.655137  0.250000  0.296546  1
  Tm  Tm8  1  0.450539  0.750000  0.998068  1
  Tm  Tm9  1  0.049461  0.750000  0.498068  1
  Tm  Tm10  1  0.549461  0.250000  0.001932  1
  Tm  Tm11  1  0.950539  0.250000  0.501932  1
  Tm  Tm12  1  0.823173  0.536341  0.065152  1
  Tm  Tm13  1  0.676827  0.963659  0.565152  1
  Tm  Tm14  1  0.176827  0.036341  0.934848  1
  Tm  Tm15  1  0.323173  0.463659  0.434848  1
  Tm  Tm16  1  0.176827  0.463659  0.934848  1
  Tm  Tm17  1  0.323173  0.036341  0.434848  1
  Tm  Tm18  1  0.823173  0.963659  0.065152  1
  Tm  Tm19  1  0.676827  0.536341  0.565152  1
  Co  Co20  1  0.432912  0.750000  0.491330  1
  Co  Co21  1  0.067088  0.750000  0.991330  1
  Co  Co22  1  0.567088  0.250000  0.508670  1
  Co  Co23  1  0.932912  0.250000  0.008670  1
  Sb  Sb24  1  0.929944  0.508897  0.328196  1
  Sb  Sb25  1  0.570056  0.991103  0.828196  1
  Sb  Sb26  1  0.070056  0.008897  0.671804  1
  Sb  Sb27  1  0.429944  0.491103  0.171804  1
  Sb  Sb28  1  0.070056  0.491103  0.671804  1
  Sb  Sb29  1  0.429944  0.008897  0.171804  1
  Sb  Sb30  1  0.929944  0.991103  0.328196  1
  Sb  Sb31  1  0.570056  0.508897  0.828196  1
