# generated using pymatgen
data_Cs12Na8Ti(SnSb4)3
_symmetry_space_group_name_H-M   'P 1'
_cell_length_a   11.78308012
_cell_length_b   11.78307915
_cell_length_c   17.68650422
_cell_angle_alpha   90.11783374
_cell_angle_beta   90.11783610
_cell_angle_gamma   142.94032506
_symmetry_Int_Tables_number   1
_chemical_formula_structural   Cs12Na8Ti(SnSb4)3
_chemical_formula_sum   'Cs12 Na8 Ti1 Sn3 Sb12'
_cell_volume   1479.83456988
_cell_formula_units_Z   1
loop_
 _symmetry_equiv_pos_site_id
 _symmetry_equiv_pos_as_xyz
  1  'x, y, z'
loop_
 _atom_site_type_symbol
 _atom_site_label
 _atom_site_symmetry_multiplicity
 _atom_site_fract_x
 _atom_site_fract_y
 _atom_site_fract_z
 _atom_site_occupancy
  Cs  Cs0  1  0.943535  0.607822  0.829962  1
  Cs  Cs1  1  0.563009  0.895982  0.329607  1
  Cs  Cs2  1  0.392178  0.056465  0.170038  1
  Cs  Cs3  1  0.065732  0.398451  0.169710  1
  Cs  Cs4  1  0.896875  0.563578  0.327949  1
  Cs  Cs5  1  0.436422  0.103125  0.672051  1
  Cs  Cs6  1  0.601549  0.934268  0.830290  1
  Cs  Cs7  1  0.268058  0.268121  0.323366  1
  Cs  Cs8  1  0.772037  0.774082  0.176356  1
  Cs  Cs9  1  0.225918  0.227963  0.823644  1
  Cs  Cs10  1  0.731879  0.731942  0.676634  1
  Cs  Cs11  1  0.104018  0.436991  0.670393  1
  Na  Na12  1  0.918886  0.081114  0.000000  1
  Na  Na13  1  0.581773  0.418227  0.500000  1
  Na  Na14  1  0.081378  0.918622  0.000000  1
  Na  Na15  1  0.418277  0.581723  0.500000  1
  Na  Na16  1  0.753764  0.246236  0.000000  1
  Na  Na17  1  0.745820  0.254180  0.500000  1
  Na  Na18  1  0.245710  0.754290  0.000000  1
  Na  Na19  1  0.254098  0.745902  0.500000  1
  Ti  Ti20  1  0.583848  0.416152  0.000000  1
  Sn  Sn21  1  0.910614  0.089386  0.500000  1
  Sn  Sn22  1  0.415917  0.584083  0.000000  1
  Sn  Sn23  1  0.089308  0.910692  0.500000  1
  Sb  Sb24  1  0.862774  0.554120  0.090067  1
  Sb  Sb25  1  0.445880  0.137226  0.909933  1
  Sb  Sb26  1  0.616104  0.936551  0.598543  1
  Sb  Sb27  1  0.936582  0.616267  0.598476  1
  Sb  Sb28  1  0.118464  0.435573  0.902965  1
  Sb  Sb29  1  0.564427  0.881536  0.097035  1
  Sb  Sb30  1  0.383733  0.063418  0.401524  1
  Sb  Sb31  1  0.204769  0.204711  0.588195  1
  Sb  Sb32  1  0.708311  0.700386  0.912021  1
  Sb  Sb33  1  0.299614  0.291689  0.087979  1
  Sb  Sb34  1  0.063449  0.383896  0.401457  1
  Sb  Sb35  1  0.795289  0.795231  0.411805  1
