# generated using pymatgen
data_Ce3GaCuS7
_symmetry_space_group_name_H-M   'P 1'
_cell_length_a   10.07472007
_cell_length_b   10.08230806
_cell_length_c   5.87542805
_cell_angle_alpha   89.98520672
_cell_angle_beta   90.00488174
_cell_angle_gamma   119.98709740
_symmetry_Int_Tables_number   1
_chemical_formula_structural   Ce3GaCuS7
_chemical_formula_sum   'Ce6 Ga2 Cu2 S14'
_cell_volume   516.91547049
_cell_formula_units_Z   2
loop_
 _symmetry_equiv_pos_site_id
 _symmetry_equiv_pos_as_xyz
  1  'x, y, z'
loop_
 _atom_site_type_symbol
 _atom_site_label
 _atom_site_symmetry_multiplicity
 _atom_site_fract_x
 _atom_site_fract_y
 _atom_site_fract_z
 _atom_site_occupancy
  Ce  Ce0  1  0.130990  0.363654  0.255111  1
  Ce  Ce1  1  0.233840  0.869787  0.255379  1
  Ce  Ce2  1  0.636378  0.767775  0.255156  1
  Ce  Ce3  1  0.766333  0.130236  0.755301  1
  Ce  Ce4  1  0.363432  0.232314  0.754871  1
  Ce  Ce5  1  0.868907  0.636039  0.755182  1
  Ga  Ga6  1  0.667432  0.332886  0.173230  1
  Ga  Ga7  1  0.332396  0.666558  0.673285  1
  Cu  Cu8  1  0.000397  0.000709  0.283743  1
  Cu  Cu9  1  0.000215  0.000743  0.783658  1
  S  S10  1  0.515439  0.095730  0.014202  1
  S  S11  1  0.904522  0.418343  0.013289  1
  S  S12  1  0.581180  0.484289  0.014789  1
  S  S13  1  0.333272  0.667023  0.054308  1
  S  S14  1  0.252585  0.160491  0.271604  1
  S  S15  1  0.839192  0.091490  0.271414  1
  S  S16  1  0.908883  0.747938  0.271093  1
  S  S17  1  0.418463  0.515259  0.514548  1
  S  S18  1  0.484538  0.903985  0.514423  1
  S  S19  1  0.095406  0.581020  0.512994  1
  S  S20  1  0.666462  0.332346  0.554343  1
  S  S21  1  0.747673  0.839986  0.771556  1
  S  S22  1  0.091225  0.252618  0.771146  1
  S  S23  1  0.160837  0.908775  0.771371  1
