# generated using pymatgen
data_Hf4Ga3Mo4P
_symmetry_space_group_name_H-M   'P 1'
_cell_length_a   3.50195100
_cell_length_b   7.02131853
_cell_length_c   8.37283037
_cell_angle_alpha   89.36591553
_cell_angle_beta   90.00000000
_cell_angle_gamma   90.00000000
_symmetry_Int_Tables_number   1
_chemical_formula_structural   Hf4Ga3Mo4P
_chemical_formula_sum   'Hf4 Ga3 Mo4 P1'
_cell_volume   205.86117049
_cell_formula_units_Z   1
loop_
 _symmetry_equiv_pos_site_id
 _symmetry_equiv_pos_as_xyz
  1  'x, y, z'
loop_
 _atom_site_type_symbol
 _atom_site_label
 _atom_site_symmetry_multiplicity
 _atom_site_fract_x
 _atom_site_fract_y
 _atom_site_fract_z
 _atom_site_occupancy
  Hf  Hf0  1  0.250000  0.556464  0.174356  1
  Hf  Hf1  1  0.250000  0.041146  0.334957  1
  Hf  Hf2  1  0.750000  0.444489  0.836534  1
  Hf  Hf3  1  0.750000  0.948813  0.663003  1
  Ga  Ga4  1  0.250000  0.746757  0.860912  1
  Ga  Ga5  1  0.250000  0.252822  0.637006  1
  Ga  Ga6  1  0.750000  0.251271  0.139537  1
  Mo  Mo7  1  0.250000  0.635192  0.552461  1
  Mo  Mo8  1  0.250000  0.123665  0.939030  1
  Mo  Mo9  1  0.750000  0.378184  0.435240  1
  Mo  Mo10  1  0.750000  0.871133  0.066830  1
  P  P11  1  0.750000  0.750061  0.360135  1
