# generated using pymatgen
data_Nd2Tm(InIr6)3
_symmetry_space_group_name_H-M   'P 1'
_cell_length_a   5.21511200
_cell_length_b   8.94647081
_cell_length_c   8.94647081
_cell_angle_alpha   89.79152749
_cell_angle_beta   90.00000000
_cell_angle_gamma   90.00000000
_symmetry_Int_Tables_number   1
_chemical_formula_structural   Nd2Tm(InIr6)3
_chemical_formula_sum   'Nd2 Tm1 In3 Ir18'
_cell_volume   417.41135877
_cell_formula_units_Z   1
loop_
 _symmetry_equiv_pos_site_id
 _symmetry_equiv_pos_as_xyz
  1  'x, y, z'
loop_
 _atom_site_type_symbol
 _atom_site_label
 _atom_site_symmetry_multiplicity
 _atom_site_fract_x
 _atom_site_fract_y
 _atom_site_fract_z
 _atom_site_occupancy
  Nd  Nd0  1  0.000000  0.499310  0.504259  1
  Nd  Nd1  1  0.000000  0.004259  0.999310  1
  Tm  Tm2  1  0.000000  0.618176  0.118176  1
  In  In3  1  0.000000  0.378013  0.878013  1
  In  In4  1  0.000000  0.878977  0.620659  1
  In  In5  1  0.000000  0.120659  0.378977  1
  Ir  Ir6  1  0.756994  0.180562  0.680562  1
  Ir  Ir7  1  0.756008  0.821577  0.321577  1
  Ir  Ir8  1  0.755569  0.318756  0.180708  1
  Ir  Ir9  1  0.755569  0.680708  0.818756  1
  Ir  Ir10  1  0.243992  0.821577  0.321577  1
  Ir  Ir11  1  0.243006  0.180562  0.680562  1
  Ir  Ir12  1  0.244431  0.680708  0.818756  1
  Ir  Ir13  1  0.244431  0.318756  0.180708  1
  Ir  Ir14  1  0.500000  0.703456  0.555496  1
  Ir  Ir15  1  0.500000  0.296805  0.442082  1
  Ir  Ir16  1  0.500000  0.793803  0.059066  1
  Ir  Ir17  1  0.500000  0.203226  0.943101  1
  Ir  Ir18  1  0.500000  0.559066  0.293803  1
  Ir  Ir19  1  0.500000  0.443101  0.703226  1
  Ir  Ir20  1  0.500000  0.055496  0.203456  1
  Ir  Ir21  1  0.500000  0.942082  0.796805  1
  Ir  Ir22  1  0.500000  0.001770  0.501770  1
  Ir  Ir23  1  0.500000  0.498595  0.998595  1
