# generated using pymatgen
data_Dy16Cd2Co3Hg2Os
_symmetry_space_group_name_H-M   'P 1'
_cell_length_a   9.50084038
_cell_length_b   9.50560044
_cell_length_c   9.56445047
_cell_angle_alpha   60.20333607
_cell_angle_beta   60.18275041
_cell_angle_gamma   59.98342742
_symmetry_Int_Tables_number   1
_chemical_formula_structural   Dy16Cd2Co3Hg2Os
_chemical_formula_sum   'Dy16 Cd2 Co3 Hg2 Os1'
_cell_volume   612.48138904
_cell_formula_units_Z   1
loop_
 _symmetry_equiv_pos_site_id
 _symmetry_equiv_pos_as_xyz
  1  'x, y, z'
loop_
 _atom_site_type_symbol
 _atom_site_label
 _atom_site_symmetry_multiplicity
 _atom_site_fract_x
 _atom_site_fract_y
 _atom_site_fract_z
 _atom_site_occupancy
  Dy  Dy0  1  0.149625  0.539733  0.159067  1
  Dy  Dy1  1  0.693591  0.310432  0.685544  1
  Dy  Dy2  1  0.690287  0.310956  0.310605  1
  Dy  Dy3  1  0.938010  0.562098  0.562651  1
  Dy  Dy4  1  0.543679  0.149375  0.157570  1
  Dy  Dy5  1  0.151866  0.153965  0.540201  1
  Dy  Dy6  1  0.938010  0.937241  0.562651  1
  Dy  Dy7  1  0.312867  0.688105  0.310924  1
  Dy  Dy8  1  0.559234  0.944986  0.937177  1
  Dy  Dy9  1  0.562788  0.937537  0.562138  1
  Dy  Dy10  1  0.690287  0.688151  0.310605  1
  Dy  Dy11  1  0.559234  0.558603  0.937177  1
  Dy  Dy12  1  0.945344  0.559505  0.935648  1
  Dy  Dy13  1  0.312741  0.692144  0.685430  1
  Dy  Dy14  1  0.149625  0.151574  0.159067  1
  Dy  Dy15  1  0.312741  0.309685  0.685430  1
  Cd  Cd16  1  0.919957  0.919242  0.241560  1
  Cd  Cd17  1  0.240219  0.920186  0.919410  1
  Co  Co18  1  0.358606  0.920483  0.360789  1
  Co  Co19  1  0.920521  0.359189  0.361102  1
  Co  Co20  1  0.358606  0.360123  0.360789  1
  Hg  Hg21  1  0.916845  0.252229  0.915768  1
  Hg  Hg22  1  0.916845  0.915159  0.915768  1
  Os  Os23  1  0.358471  0.359297  0.922935  1
