# generated using pymatgen
data_Ho3Sb(AuCl6)4
_symmetry_space_group_name_H-M   'P 1'
_cell_length_a   8.05824954
_cell_length_b   10.01016601
_cell_length_c   14.01632800
_cell_angle_alpha   102.84960179
_cell_angle_beta   97.33939642
_cell_angle_gamma   113.18990192
_symmetry_Int_Tables_number   1
_chemical_formula_structural   Ho3Sb(AuCl6)4
_chemical_formula_sum   'Ho3 Sb1 Au4 Cl24'
_cell_volume   983.56386185
_cell_formula_units_Z   1
loop_
 _symmetry_equiv_pos_site_id
 _symmetry_equiv_pos_as_xyz
  1  'x, y, z'
loop_
 _atom_site_type_symbol
 _atom_site_label
 _atom_site_symmetry_multiplicity
 _atom_site_fract_x
 _atom_site_fract_y
 _atom_site_fract_z
 _atom_site_occupancy
  Ho  Ho0  1  0.031532  0.686387  0.128434  1
  Ho  Ho1  1  0.418032  0.076751  0.375855  1
  Ho  Ho2  1  0.975558  0.319598  0.873867  1
  Sb  Sb3  1  0.587993  0.946624  0.622507  1
  Au  Au4  1  0.288498  0.631052  0.766888  1
  Au  Au5  1  0.497375  0.496096  0.497788  1
  Au  Au6  1  0.711445  0.366944  0.236514  1
  Au  Au7  1  0.999452  0.999187  0.999032  1
  Cl  Cl8  1  0.792458  0.104635  0.972816  1
  Cl  Cl9  1  0.715848  0.149826  0.267872  1
  Cl  Cl10  1  0.277559  0.847279  0.740611  1
  Cl  Cl11  1  0.780792  0.788846  0.030342  1
  Cl  Cl12  1  0.623947  0.196733  0.739924  1
  Cl  Cl13  1  0.291464  0.408943  0.791601  1
  Cl  Cl14  1  0.707953  0.587135  0.209587  1
  Cl  Cl15  1  0.303353  0.614342  0.492861  1
  Cl  Cl16  1  0.219415  0.209631  0.968355  1
  Cl  Cl17  1  0.751385  0.726841  0.525725  1
  Cl  Cl18  1  0.208181  0.895686  0.026022  1
  Cl  Cl19  1  0.722672  0.056174  0.488252  1
  Cl  Cl20  1  0.593896  0.722185  0.755725  1
  Cl  Cl21  1  0.934816  0.064822  0.730550  1
  Cl  Cl22  1  0.245983  0.260091  0.467516  1
  Cl  Cl23  1  0.373875  0.811389  0.257003  1
  Cl  Cl24  1  0.978395  0.533936  0.776730  1
  Cl  Cl25  1  0.777475  0.435962  0.976279  1
  Cl  Cl26  1  0.226455  0.564630  0.024701  1
  Cl  Cl27  1  0.019040  0.464079  0.224539  1
  Cl  Cl28  1  0.403976  0.267811  0.249396  1
  Cl  Cl29  1  0.289614  0.956339  0.515670  1
  Cl  Cl30  1  0.685886  0.368990  0.499358  1
  Cl  Cl31  1  0.065677  0.941057  0.267685  1
