# generated using pymatgen
data_Sm8Er12Si15Ru
_symmetry_space_group_name_H-M   'P 1'
_cell_length_a   7.38593855
_cell_length_b   7.78929176
_cell_length_c   14.59950600
_cell_angle_alpha   90.00000000
_cell_angle_beta   90.00000000
_cell_angle_gamma   90.04014357
_symmetry_Int_Tables_number   1
_chemical_formula_structural   Sm8Er12Si15Ru
_chemical_formula_sum   'Sm8 Er12 Si15 Ru1'
_cell_volume   839.92733539
_cell_formula_units_Z   1
loop_
 _symmetry_equiv_pos_site_id
 _symmetry_equiv_pos_as_xyz
  1  'x, y, z'
loop_
 _atom_site_type_symbol
 _atom_site_label
 _atom_site_symmetry_multiplicity
 _atom_site_fract_x
 _atom_site_fract_y
 _atom_site_fract_z
 _atom_site_occupancy
  Sm  Sm0  1  0.019781  0.183526  0.097090  1
  Sm  Sm1  1  0.983504  0.826078  0.904135  1
  Sm  Sm2  1  0.482127  0.678402  0.904179  1
  Sm  Sm3  1  0.983504  0.826078  0.595865  1
  Sm  Sm4  1  0.518363  0.320463  0.096402  1
  Sm  Sm5  1  0.019781  0.183526  0.402910  1
  Sm  Sm6  1  0.518363  0.320463  0.403598  1
  Sm  Sm7  1  0.482127  0.678402  0.595821  1
  Er  Er8  1  0.152644  0.512316  0.750000  1
  Er  Er9  1  0.843456  0.488413  0.250000  1
  Er  Er10  1  0.343133  0.014288  0.250000  1
  Er  Er11  1  0.665633  0.989311  0.750000  1
  Er  Er12  1  0.310525  0.173161  0.627476  1
  Er  Er13  1  0.678505  0.824814  0.375500  1
  Er  Er14  1  0.177936  0.679846  0.375733  1
  Er  Er15  1  0.678505  0.824814  0.124500  1
  Er  Er16  1  0.833175  0.314573  0.626326  1
  Er  Er17  1  0.310525  0.173161  0.872524  1
  Er  Er18  1  0.833175  0.314573  0.873674  1
  Er  Er19  1  0.177936  0.679846  0.124267  1
  Si  Si20  1  0.972874  0.890303  0.250000  1
  Si  Si21  1  0.474569  0.611102  0.250000  1
  Si  Si22  1  0.525874  0.392435  0.750000  1
  Si  Si23  1  0.275983  0.868439  0.750000  1
  Si  Si24  1  0.722644  0.128048  0.250000  1
  Si  Si25  1  0.224886  0.374191  0.250000  1
  Si  Si26  1  0.767354  0.620894  0.750000  1
  Si  Si27  1  0.153764  0.472337  0.537993  1
  Si  Si28  1  0.850076  0.532815  0.461977  1
  Si  Si29  1  0.349353  0.968832  0.460957  1
  Si  Si30  1  0.850076  0.532815  0.038023  1
  Si  Si31  1  0.646877  0.031383  0.538588  1
  Si  Si32  1  0.153764  0.472337  0.962007  1
  Si  Si33  1  0.646877  0.031383  0.961412  1
  Si  Si34  1  0.349353  0.968832  0.039043  1
  Ru  Ru35  1  0.022976  0.097796  0.750000  1
