# generated using pymatgen
data_Hf4Ga3Sb
_symmetry_space_group_name_H-M   'P 1'
_cell_length_a   5.66996800
_cell_length_b   8.72344357
_cell_length_c   9.32550035
_cell_angle_alpha   89.82138527
_cell_angle_beta   90.00000000
_cell_angle_gamma   90.00000000
_symmetry_Int_Tables_number   1
_chemical_formula_structural   Hf4Ga3Sb
_chemical_formula_sum   'Hf12 Ga9 Sb3'
_cell_volume   461.25235515
_cell_formula_units_Z   3
loop_
 _symmetry_equiv_pos_site_id
 _symmetry_equiv_pos_as_xyz
  1  'x, y, z'
loop_
 _atom_site_type_symbol
 _atom_site_label
 _atom_site_symmetry_multiplicity
 _atom_site_fract_x
 _atom_site_fract_y
 _atom_site_fract_z
 _atom_site_occupancy
  Hf  Hf0  1  0.002123  0.745176  0.118812  1
  Hf  Hf1  1  0.496972  0.253462  0.884085  1
  Hf  Hf2  1  0.003028  0.253462  0.884085  1
  Hf  Hf3  1  0.497877  0.745176  0.118812  1
  Hf  Hf4  1  0.750000  0.469870  0.611657  1
  Hf  Hf5  1  0.250000  0.528470  0.377944  1
  Hf  Hf6  1  0.750000  0.969256  0.390690  1
  Hf  Hf7  1  0.250000  0.030532  0.610882  1
  Hf  Hf8  1  0.750000  0.378951  0.196779  1
  Hf  Hf9  1  0.250000  0.616739  0.808653  1
  Hf  Hf10  1  0.750000  0.875869  0.803173  1
  Hf  Hf11  1  0.250000  0.133409  0.192822  1
  Ga  Ga12  1  0.003777  0.748085  0.572053  1
  Ga  Ga13  1  0.500190  0.250237  0.428358  1
  Ga  Ga14  1  0.999810  0.250237  0.428358  1
  Ga  Ga15  1  0.496223  0.748085  0.572053  1
  Ga  Ga16  1  0.250000  0.448632  0.084305  1
  Ga  Ga17  1  0.750000  0.140795  0.647223  1
  Ga  Ga18  1  0.250000  0.864966  0.352750  1
  Ga  Ga19  1  0.750000  0.638854  0.355753  1
  Ga  Ga20  1  0.250000  0.362180  0.643010  1
  Sb  Sb21  1  0.750000  0.051542  0.087550  1
  Sb  Sb22  1  0.250000  0.947080  0.913486  1
  Sb  Sb23  1  0.750000  0.548934  0.916705  1
