# generated using pymatgen
data_ThFe8P5
_symmetry_space_group_name_H-M   'P 1'
_cell_length_a   3.59523800
_cell_length_b   9.11829700
_cell_length_c   10.55672900
_cell_angle_alpha   90.00000000
_cell_angle_beta   90.00000000
_cell_angle_gamma   90.00000000
_symmetry_Int_Tables_number   1
_chemical_formula_structural   ThFe8P5
_chemical_formula_sum   'Th2 Fe16 P10'
_cell_volume   346.07541812
_cell_formula_units_Z   2
loop_
 _symmetry_equiv_pos_site_id
 _symmetry_equiv_pos_as_xyz
  1  'x, y, z'
loop_
 _atom_site_type_symbol
 _atom_site_label
 _atom_site_symmetry_multiplicity
 _atom_site_fract_x
 _atom_site_fract_y
 _atom_site_fract_z
 _atom_site_occupancy
  Th  Th0  1  0.750000  0.816512  0.750000  1
  Th  Th1  1  0.250000  0.183488  0.250000  1
  Fe  Fe2  1  0.750000  0.519912  0.919704  1
  Fe  Fe3  1  0.750000  0.519912  0.580296  1
  Fe  Fe4  1  0.250000  0.480088  0.080296  1
  Fe  Fe5  1  0.250000  0.480088  0.419704  1
  Fe  Fe6  1  0.750000  0.109631  0.991944  1
  Fe  Fe7  1  0.750000  0.109631  0.508056  1
  Fe  Fe8  1  0.250000  0.890369  0.008056  1
  Fe  Fe9  1  0.250000  0.890369  0.491944  1
  Fe  Fe10  1  0.750000  0.693335  0.107856  1
  Fe  Fe11  1  0.750000  0.693335  0.392144  1
  Fe  Fe12  1  0.250000  0.306665  0.892144  1
  Fe  Fe13  1  0.250000  0.306665  0.607856  1
  Fe  Fe14  1  0.750000  0.149673  0.750000  1
  Fe  Fe15  1  0.250000  0.850327  0.250000  1
  Fe  Fe16  1  0.250000  0.549128  0.750000  1
  Fe  Fe17  1  0.750000  0.450872  0.250000  1
  P  P18  1  0.750000  0.934431  0.130725  1
  P  P19  1  0.750000  0.934431  0.369275  1
  P  P20  1  0.250000  0.065569  0.869275  1
  P  P21  1  0.250000  0.065569  0.630725  1
  P  P22  1  0.750000  0.339029  0.059557  1
  P  P23  1  0.750000  0.339029  0.440443  1
  P  P24  1  0.250000  0.660971  0.940443  1
  P  P25  1  0.250000  0.660971  0.559557  1
  P  P26  1  0.750000  0.389881  0.750000  1
  P  P27  1  0.250000  0.610119  0.250000  1
