# generated using pymatgen
data_Dy20Ir7Ru4Au
_symmetry_space_group_name_H-M   'P 1'
_cell_length_a   10.86748532
_cell_length_b   10.86748532
_cell_length_c   6.46561873
_cell_angle_alpha   90.08709020
_cell_angle_beta   90.08709020
_cell_angle_gamma   89.64479821
_symmetry_Int_Tables_number   1
_chemical_formula_structural   Dy20Ir7Ru4Au
_chemical_formula_sum   'Dy20 Ir7 Ru4 Au1'
_cell_volume   763.58760995
_cell_formula_units_Z   1
loop_
 _symmetry_equiv_pos_site_id
 _symmetry_equiv_pos_as_xyz
  1  'x, y, z'
loop_
 _atom_site_type_symbol
 _atom_site_label
 _atom_site_symmetry_multiplicity
 _atom_site_fract_x
 _atom_site_fract_y
 _atom_site_fract_z
 _atom_site_occupancy
  Dy  Dy0  1  0.292016  0.085938  0.378495  1
  Dy  Dy1  1  0.295109  0.912896  0.878782  1
  Dy  Dy2  1  0.701599  0.083348  0.865474  1
  Dy  Dy3  1  0.703559  0.906335  0.382389  1
  Dy  Dy4  1  0.586654  0.792713  0.880081  1
  Dy  Dy5  1  0.578049  0.207144  0.379406  1
  Dy  Dy6  1  0.411872  0.792823  0.379297  1
  Dy  Dy7  1  0.412109  0.206532  0.880425  1
  Dy  Dy8  1  0.207287  0.413346  0.619919  1
  Dy  Dy9  1  0.207177  0.588128  0.120703  1
  Dy  Dy10  1  0.792856  0.421951  0.120594  1
  Dy  Dy11  1  0.793468  0.587891  0.619575  1
  Dy  Dy12  1  0.914062  0.707984  0.121505  1
  Dy  Dy13  1  0.916652  0.298401  0.634526  1
  Dy  Dy14  1  0.087104  0.704891  0.621218  1
  Dy  Dy15  1  0.093665  0.296441  0.117611  1
  Dy  Dy16  1  0.003396  0.995972  0.503041  1
  Dy  Dy17  1  0.004028  0.996604  0.996959  1
  Dy  Dy18  1  0.499337  0.500247  0.999131  1
  Dy  Dy19  1  0.499753  0.500663  0.500869  1
  Ir  Ir20  1  0.848760  0.848805  0.750040  1
  Ir  Ir21  1  0.151195  0.151240  0.749960  1
  Ir  Ir22  1  0.153231  0.846769  0.250000  1
  Ir  Ir23  1  0.653415  0.346585  0.750000  1
  Ir  Ir24  1  0.652013  0.651934  0.249924  1
  Ir  Ir25  1  0.348066  0.347987  0.250076  1
  Ir  Ir26  1  0.347399  0.652601  0.750000  1
  Ru  Ru27  1  0.500643  0.999690  0.125662  1
  Ru  Ru28  1  0.499845  0.999531  0.623016  1
  Ru  Ru29  1  0.000469  0.500155  0.876984  1
  Ru  Ru30  1  0.000310  0.499357  0.374338  1
  Au  Au31  1  0.844903  0.155097  0.250000  1
