# generated using pymatgen
data_Cs3Na2TiBi3
_symmetry_space_group_name_H-M   'P 1'
_cell_length_a   11.90271020
_cell_length_b   11.90270921
_cell_length_c   17.78906000
_cell_angle_alpha   90.00000000
_cell_angle_beta   90.00000000
_cell_angle_gamma   142.91809208
_symmetry_Int_Tables_number   1
_chemical_formula_structural   Cs3Na2TiBi3
_chemical_formula_sum   'Cs12 Na8 Ti4 Bi12'
_cell_volume   1519.60383875
_cell_formula_units_Z   4
loop_
 _symmetry_equiv_pos_site_id
 _symmetry_equiv_pos_as_xyz
  1  'x, y, z'
loop_
 _atom_site_type_symbol
 _atom_site_label
 _atom_site_symmetry_multiplicity
 _atom_site_fract_x
 _atom_site_fract_y
 _atom_site_fract_z
 _atom_site_occupancy
  Cs  Cs0  1  0.944054  0.607795  0.827903  1
  Cs  Cs1  1  0.555946  0.892205  0.327903  1
  Cs  Cs2  1  0.392205  0.055946  0.172097  1
  Cs  Cs3  1  0.055946  0.392205  0.172097  1
  Cs  Cs4  1  0.892205  0.555946  0.327903  1
  Cs  Cs5  1  0.444054  0.107795  0.672097  1
  Cs  Cs6  1  0.607795  0.944054  0.827903  1
  Cs  Cs7  1  0.276245  0.276245  0.319188  1
  Cs  Cs8  1  0.776245  0.776245  0.180812  1
  Cs  Cs9  1  0.223755  0.223755  0.819188  1
  Cs  Cs10  1  0.723755  0.723755  0.680812  1
  Cs  Cs11  1  0.107795  0.444054  0.672097  1
  Na  Na12  1  0.920199  0.079801  0.000000  1
  Na  Na13  1  0.579801  0.420199  0.500000  1
  Na  Na14  1  0.079801  0.920199  0.000000  1
  Na  Na15  1  0.420199  0.579801  0.500000  1
  Na  Na16  1  0.754424  0.245576  0.000000  1
  Na  Na17  1  0.745576  0.254424  0.500000  1
  Na  Na18  1  0.245576  0.754424  0.000000  1
  Na  Na19  1  0.254424  0.745576  0.500000  1
  Ti  Ti20  1  0.584938  0.415062  0.000000  1
  Ti  Ti21  1  0.915062  0.084938  0.500000  1
  Ti  Ti22  1  0.415062  0.584938  0.000000  1
  Ti  Ti23  1  0.084938  0.915062  0.500000  1
  Bi  Bi24  1  0.867729  0.557029  0.092428  1
  Bi  Bi25  1  0.442971  0.132271  0.907572  1
  Bi  Bi26  1  0.632271  0.942971  0.592428  1
  Bi  Bi27  1  0.942971  0.632271  0.592428  1
  Bi  Bi28  1  0.132271  0.442971  0.907572  1
  Bi  Bi29  1  0.557029  0.867729  0.092428  1
  Bi  Bi30  1  0.367729  0.057029  0.407572  1
  Bi  Bi31  1  0.195922  0.195922  0.584696  1
  Bi  Bi32  1  0.695922  0.695922  0.915304  1
  Bi  Bi33  1  0.304078  0.304078  0.084696  1
  Bi  Bi34  1  0.057029  0.367729  0.407572  1
  Bi  Bi35  1  0.804078  0.804078  0.415304  1
