# generated using pymatgen
data_Th2Sc2BCl6
_symmetry_space_group_name_H-M   'P 1'
_cell_length_a   3.67299500
_cell_length_b   12.82637300
_cell_length_c   13.22195800
_cell_angle_alpha   90.00000000
_cell_angle_beta   90.00000000
_cell_angle_gamma   90.00000000
_symmetry_Int_Tables_number   1
_chemical_formula_structural   Th2Sc2BCl6
_chemical_formula_sum   'Th4 Sc4 B2 Cl12'
_cell_volume   622.90235926
_cell_formula_units_Z   2
loop_
 _symmetry_equiv_pos_site_id
 _symmetry_equiv_pos_as_xyz
  1  'x, y, z'
loop_
 _atom_site_type_symbol
 _atom_site_label
 _atom_site_symmetry_multiplicity
 _atom_site_fract_x
 _atom_site_fract_y
 _atom_site_fract_z
 _atom_site_occupancy
  Th  Th0  1  0.000000  0.111266  0.088648  1
  Th  Th1  1  0.000000  0.888734  0.911352  1
  Th  Th2  1  0.000000  0.611266  0.411352  1
  Th  Th3  1  0.000000  0.388734  0.588648  1
  Sc  Sc4  1  0.500000  0.117567  0.861022  1
  Sc  Sc5  1  0.500000  0.882433  0.138978  1
  Sc  Sc6  1  0.500000  0.617567  0.638978  1
  Sc  Sc7  1  0.500000  0.382433  0.361022  1
  B  B8  1  0.500000  0.000000  0.000000  1
  B  B9  1  0.500000  0.500000  0.500000  1
  Cl  Cl10  1  0.500000  0.250692  0.696467  1
  Cl  Cl11  1  0.500000  0.749308  0.303533  1
  Cl  Cl12  1  0.500000  0.750692  0.803533  1
  Cl  Cl13  1  0.500000  0.249308  0.196467  1
  Cl  Cl14  1  0.000000  0.249305  0.921433  1
  Cl  Cl15  1  0.000000  0.750695  0.078567  1
  Cl  Cl16  1  0.000000  0.469638  0.247754  1
  Cl  Cl17  1  0.000000  0.530362  0.752246  1
  Cl  Cl18  1  0.000000  0.969638  0.252246  1
  Cl  Cl19  1  0.000000  0.030362  0.747754  1
  Cl  Cl20  1  0.000000  0.250695  0.421433  1
  Cl  Cl21  1  0.000000  0.749305  0.578567  1
