# generated using pymatgen
data_K4Cd7Ag
_symmetry_space_group_name_H-M   'P 1'
_cell_length_a   6.45373200
_cell_length_b   6.45373212
_cell_length_c   9.98817600
_cell_angle_alpha   90.00000000
_cell_angle_beta   90.00000000
_cell_angle_gamma   119.99999938
_symmetry_Int_Tables_number   1
_chemical_formula_structural   K4Cd7Ag
_chemical_formula_sum   'K4 Cd7 Ag1'
_cell_volume   360.27877914
_cell_formula_units_Z   1
loop_
 _symmetry_equiv_pos_site_id
 _symmetry_equiv_pos_as_xyz
  1  'x, y, z'
loop_
 _atom_site_type_symbol
 _atom_site_label
 _atom_site_symmetry_multiplicity
 _atom_site_fract_x
 _atom_site_fract_y
 _atom_site_fract_z
 _atom_site_occupancy
  K  K0  1  0.333333  0.666667  0.060071  1
  K  K1  1  0.666667  0.333333  0.560331  1
  K  K2  1  0.666667  0.333333  0.939929  1
  K  K3  1  0.333333  0.666667  0.439669  1
  Cd  Cd4  1  0.000000  0.000000  0.000000  1
  Cd  Cd5  1  0.834602  0.669204  0.254616  1
  Cd  Cd6  1  0.165398  0.834602  0.745384  1
  Cd  Cd7  1  0.669204  0.834602  0.745384  1
  Cd  Cd8  1  0.330796  0.165398  0.254616  1
  Cd  Cd9  1  0.834602  0.165398  0.254616  1
  Cd  Cd10  1  0.165398  0.330796  0.745384  1
  Ag  Ag11  1  0.000000  0.000000  0.500000  1
