# generated using pymatgen
data_Rb4(PtO2)3
_symmetry_space_group_name_H-M   'P 1'
_cell_length_a   5.83509769
_cell_length_b   5.83509722
_cell_length_c   9.01201687
_cell_angle_alpha   89.16130116
_cell_angle_beta   89.16129083
_cell_angle_gamma   66.10095584
_symmetry_Int_Tables_number   1
_chemical_formula_structural   Rb4(PtO2)3
_chemical_formula_sum   'Rb4 Pt3 O6'
_cell_volume   280.49301359
_cell_formula_units_Z   1
loop_
 _symmetry_equiv_pos_site_id
 _symmetry_equiv_pos_as_xyz
  1  'x, y, z'
loop_
 _atom_site_type_symbol
 _atom_site_label
 _atom_site_symmetry_multiplicity
 _atom_site_fract_x
 _atom_site_fract_y
 _atom_site_fract_z
 _atom_site_occupancy
  Rb  Rb0  1  0.676969  0.676969  0.625570  1
  Rb  Rb1  1  0.323031  0.323031  0.374430  1
  Rb  Rb2  1  0.653817  0.653817  0.109073  1
  Rb  Rb3  1  0.346183  0.346183  0.890927  1
  Pt  Pt4  1  0.000000  0.000000  0.000000  1
  Pt  Pt5  1  0.965047  0.965047  0.330358  1
  Pt  Pt6  1  0.034953  0.034953  0.669642  1
  O  O7  1  0.128209  0.733016  0.159512  1
  O  O8  1  0.733016  0.128209  0.159512  1
  O  O9  1  0.871791  0.266984  0.840488  1
  O  O10  1  0.266984  0.871791  0.840488  1
  O  O11  1  0.197070  0.802930  0.500000  1
  O  O12  1  0.802930  0.197070  0.500000  1
