# generated using pymatgen
data_DyHo15CdNi4Ag3
_symmetry_space_group_name_H-M   'P 1'
_cell_length_a   9.40792026
_cell_length_b   9.42267279
_cell_length_c   9.42277072
_cell_angle_alpha   60.08809022
_cell_angle_beta   60.02477821
_cell_angle_gamma   60.02468392
_symmetry_Int_Tables_number   1
_chemical_formula_structural   DyHo15CdNi4Ag3
_chemical_formula_sum   'Dy1 Ho15 Cd1 Ni4 Ag3'
_cell_volume   591.26492470
_cell_formula_units_Z   1
loop_
 _symmetry_equiv_pos_site_id
 _symmetry_equiv_pos_as_xyz
  1  'x, y, z'
loop_
 _atom_site_type_symbol
 _atom_site_label
 _atom_site_symmetry_multiplicity
 _atom_site_fract_x
 _atom_site_fract_y
 _atom_site_fract_z
 _atom_site_occupancy
  Dy  Dy0  1  0.347950  0.348263  0.348222  1
  Ho  Ho1  1  0.350838  0.350350  0.950483  1
  Ho  Ho2  1  0.350873  0.950441  0.350313  1
  Ho  Ho3  1  0.948322  0.351628  0.351563  1
  Ho  Ho4  1  0.811559  0.189116  0.189105  1
  Ho  Ho5  1  0.187533  0.811359  0.811430  1
  Ho  Ho6  1  0.188633  0.810796  0.189573  1
  Ho  Ho7  1  0.810896  0.187490  0.811140  1
  Ho  Ho8  1  0.188635  0.189584  0.810833  1
  Ho  Ho9  1  0.810940  0.811109  0.187480  1
  Ho  Ho10  1  0.932797  0.564797  0.564798  1
  Ho  Ho11  1  0.564547  0.935742  0.935742  1
  Ho  Ho12  1  0.563814  0.935581  0.564827  1
  Ho  Ho13  1  0.933801  0.564350  0.938013  1
  Ho  Ho14  1  0.563816  0.564827  0.935585  1
  Ho  Ho15  1  0.933803  0.938014  0.564346  1
  Cd  Cd16  1  0.262067  0.579295  0.579296  1
  Ni  Ni17  1  0.142535  0.144165  0.144162  1
  Ni  Ni18  1  0.142304  0.142512  0.571874  1
  Ni  Ni19  1  0.142312  0.571889  0.142510  1
  Ni  Ni20  1  0.572059  0.142104  0.142106  1
  Ag  Ag21  1  0.583123  0.581825  0.581828  1
  Ag  Ag22  1  0.583423  0.583197  0.251566  1
  Ag  Ag23  1  0.583424  0.251564  0.583202  1
