# generated using pymatgen
data_Sm5Y(ZnAu5)2
_symmetry_space_group_name_H-M   'P 1'
_cell_length_a   8.55009533
_cell_length_b   8.55009676
_cell_length_c   13.52693482
_cell_angle_alpha   90.05294652
_cell_angle_beta   89.94705493
_cell_angle_gamma   127.13142701
_symmetry_Int_Tables_number   1
_chemical_formula_structural   Sm5Y(ZnAu5)2
_chemical_formula_sum   'Sm10 Y2 Zn4 Au20'
_cell_volume   788.38306365
_cell_formula_units_Z   2
loop_
 _symmetry_equiv_pos_site_id
 _symmetry_equiv_pos_as_xyz
  1  'x, y, z'
loop_
 _atom_site_type_symbol
 _atom_site_label
 _atom_site_symmetry_multiplicity
 _atom_site_fract_x
 _atom_site_fract_y
 _atom_site_fract_z
 _atom_site_occupancy
  Sm  Sm0  1  0.928409  0.071591  0.250877  1
  Sm  Sm1  1  0.071591  0.928409  0.749123  1
  Sm  Sm2  1  0.319878  0.680122  0.250924  1
  Sm  Sm3  1  0.680122  0.319878  0.749076  1
  Sm  Sm4  1  0.630074  0.369926  0.038082  1
  Sm  Sm5  1  0.369926  0.630074  0.961918  1
  Sm  Sm6  1  0.882471  0.117529  0.950803  1
  Sm  Sm7  1  0.117529  0.882471  0.049197  1
  Sm  Sm8  1  0.882218  0.117782  0.548950  1
  Sm  Sm9  1  0.117782  0.882218  0.451050  1
  Y  Y10  1  0.629941  0.370059  0.462564  1
  Y  Y11  1  0.370059  0.629941  0.537436  1
  Zn  Zn12  1  0.720567  0.279433  0.251304  1
  Zn  Zn13  1  0.279433  0.720567  0.748696  1
  Zn  Zn14  1  0.532572  0.467428  0.250796  1
  Zn  Zn15  1  0.467428  0.532572  0.749204  1
  Au  Au16  1  0.320950  0.067093  0.250194  1
  Au  Au17  1  0.067093  0.320950  0.749806  1
  Au  Au18  1  0.679050  0.932907  0.749806  1
  Au  Au19  1  0.932907  0.679050  0.250194  1
  Au  Au20  1  0.568955  0.003610  0.397112  1
  Au  Au21  1  0.003610  0.568955  0.602888  1
  Au  Au22  1  0.568949  0.002538  0.104378  1
  Au  Au23  1  0.002538  0.568949  0.895622  1
  Au  Au24  1  0.431045  0.996390  0.602888  1
  Au  Au25  1  0.996390  0.431045  0.397112  1
  Au  Au26  1  0.431051  0.997462  0.895622  1
  Au  Au27  1  0.997462  0.431051  0.104378  1
  Au  Au28  1  0.684304  0.739736  0.395141  1
  Au  Au29  1  0.739736  0.684304  0.604859  1
  Au  Au30  1  0.687081  0.742428  0.106309  1
  Au  Au31  1  0.742428  0.687081  0.893691  1
  Au  Au32  1  0.315696  0.260264  0.604859  1
  Au  Au33  1  0.260264  0.315696  0.395141  1
  Au  Au34  1  0.312919  0.257572  0.893691  1
  Au  Au35  1  0.257572  0.312919  0.106309  1
