# generated using pymatgen
data_KCeH6Os
_symmetry_space_group_name_H-M   'P 1'
_cell_length_a   5.33461300
_cell_length_b   5.33461348
_cell_length_c   5.33461300
_cell_angle_alpha   120.00000322
_cell_angle_beta   90.00000000
_cell_angle_gamma   120.00000322
_symmetry_Int_Tables_number   1
_chemical_formula_structural   KCeH6Os
_chemical_formula_sum   'K1 Ce1 H6 Os1'
_cell_volume   107.34795017
_cell_formula_units_Z   1
loop_
 _symmetry_equiv_pos_site_id
 _symmetry_equiv_pos_as_xyz
  1  'x, y, z'
loop_
 _atom_site_type_symbol
 _atom_site_label
 _atom_site_symmetry_multiplicity
 _atom_site_fract_x
 _atom_site_fract_y
 _atom_site_fract_z
 _atom_site_occupancy
  K  K0  1  0.249999  0.499999  0.750001  1
  Ce  Ce1  1  0.749998  0.499999  0.250000  1
  H  H2  1  0.229533  0.000000  0.229533  1
  H  H3  1  0.770466  0.000000  0.229534  1
  H  H4  1  0.229535  0.459070  0.229535  1
  H  H5  1  0.229534  0.000000  0.770466  1
  H  H6  1  0.770466  0.540931  0.770466  1
  H  H7  1  0.770467  0.000000  0.770467  1
  Os  Os8  1  0.000000  0.000000  0.000000  1
