# generated using pymatgen
data_GaS8Br3
_symmetry_space_group_name_H-M   'P 1'
_cell_length_a   8.36653806
_cell_length_b   10.47214184
_cell_length_c   12.10786049
_cell_angle_alpha   97.37300500
_cell_angle_beta   114.26015850
_cell_angle_gamma   102.74745451
_symmetry_Int_Tables_number   1
_chemical_formula_structural   GaS8Br3
_chemical_formula_sum   'Ga2 S16 Br6'
_cell_volume   914.26172224
_cell_formula_units_Z   2
loop_
 _symmetry_equiv_pos_site_id
 _symmetry_equiv_pos_as_xyz
  1  'x, y, z'
loop_
 _atom_site_type_symbol
 _atom_site_label
 _atom_site_symmetry_multiplicity
 _atom_site_fract_x
 _atom_site_fract_y
 _atom_site_fract_z
 _atom_site_occupancy
  Ga  Ga0  1  0.816307  0.980171  0.855488  1
  Ga  Ga1  1  0.183693  0.019829  0.144512  1
  S  S2  1  0.848414  0.495664  0.802968  1
  S  S3  1  0.151586  0.504336  0.197032  1
  S  S4  1  0.700203  0.410818  0.613234  1
  S  S5  1  0.299797  0.589182  0.386766  1
  S  S6  1  0.737408  0.225279  0.572742  1
  S  S7  1  0.262592  0.774721  0.427258  1
  S  S8  1  0.938951  0.246157  0.514585  1
  S  S9  1  0.061049  0.753843  0.485415  1
  S  S10  1  0.904538  0.370780  0.160970  1
  S  S11  1  0.095462  0.629220  0.839030  1
  S  S12  1  0.703618  0.466065  0.106049  1
  S  S13  1  0.296382  0.533935  0.893951  1
  S  S14  1  0.664223  0.536633  0.257287  1
  S  S15  1  0.335777  0.463367  0.742713  1
  S  S16  1  0.814436  0.737870  0.336119  1
  S  S17  1  0.185564  0.262130  0.663881  1
  Br  Br18  1  0.596597  0.084437  0.837509  1
  Br  Br19  1  0.403403  0.915563  0.162491  1
  Br  Br20  1  0.865222  0.859613  0.027024  1
  Br  Br21  1  0.134778  0.140387  0.972976  1
  Br  Br22  1  0.793976  0.844089  0.682532  1
  Br  Br23  1  0.206024  0.155911  0.317468  1
