# generated using pymatgen
data_YThMgNi2
_symmetry_space_group_name_H-M   'P 1'
_cell_length_a   7.61176400
_cell_length_b   7.53019000
_cell_length_c   3.66736800
_cell_angle_alpha   90.00000000
_cell_angle_beta   90.00000000
_cell_angle_gamma   90.00000000
_symmetry_Int_Tables_number   1
_chemical_formula_structural   YThMgNi2
_chemical_formula_sum   'Y2 Th2 Mg2 Ni4'
_cell_volume   210.20630595
_cell_formula_units_Z   2
loop_
 _symmetry_equiv_pos_site_id
 _symmetry_equiv_pos_as_xyz
  1  'x, y, z'
loop_
 _atom_site_type_symbol
 _atom_site_label
 _atom_site_symmetry_multiplicity
 _atom_site_fract_x
 _atom_site_fract_y
 _atom_site_fract_z
 _atom_site_occupancy
  Y  Y0  1  0.327719  0.172146  0.500000  1
  Y  Y1  1  0.827719  0.327854  0.500000  1
  Th  Th2  1  0.171165  0.667609  0.500000  1
  Th  Th3  1  0.671165  0.832391  0.500000  1
  Mg  Mg4  1  0.502732  0.490621  0.000000  1
  Mg  Mg5  1  0.002732  0.009379  0.000000  1
  Ni  Ni6  1  0.875552  0.632351  0.000000  1
  Ni  Ni7  1  0.375552  0.867649  0.000000  1
  Ni  Ni8  1  0.622832  0.112186  0.000000  1
  Ni  Ni9  1  0.122832  0.387814  0.000000  1
