# generated using pymatgen
data_Ho3Al3ZnSiNi
_symmetry_space_group_name_H-M   'P 1'
_cell_length_a   6.88706400
_cell_length_b   6.88706317
_cell_length_c   4.16125000
_cell_angle_alpha   90.00000000
_cell_angle_beta   90.00000000
_cell_angle_gamma   119.99999438
_symmetry_Int_Tables_number   1
_chemical_formula_structural   Ho3Al3ZnSiNi
_chemical_formula_sum   'Ho3 Al3 Zn1 Si1 Ni1'
_cell_volume   170.93171487
_cell_formula_units_Z   1
loop_
 _symmetry_equiv_pos_site_id
 _symmetry_equiv_pos_as_xyz
  1  'x, y, z'
loop_
 _atom_site_type_symbol
 _atom_site_label
 _atom_site_symmetry_multiplicity
 _atom_site_fract_x
 _atom_site_fract_y
 _atom_site_fract_z
 _atom_site_occupancy
  Ho  Ho0  1  0.002475  0.592754  0.500000  1
  Ho  Ho1  1  0.590279  0.997525  0.500000  1
  Ho  Ho2  1  0.407246  0.409721  0.500000  1
  Al  Al3  1  0.234221  0.001775  0.000000  1
  Al  Al4  1  0.767554  0.765779  0.000000  1
  Al  Al5  1  0.998225  0.232446  0.000000  1
  Zn  Zn6  1  0.666667  0.333333  0.000000  1
  Si  Si7  1  0.333333  0.666667  0.000000  1
  Ni  Ni8  1  0.000000  0.000000  0.500000  1
