# generated using pymatgen
data_C(SN4)2
_symmetry_space_group_name_H-M   'P 1'
_cell_length_a   6.66827558
_cell_length_b   7.06469015
_cell_length_c   7.30646042
_cell_angle_alpha   102.20818687
_cell_angle_beta   89.71634395
_cell_angle_gamma   118.54201885
_symmetry_Int_Tables_number   1
_chemical_formula_structural   C(SN4)2
_chemical_formula_sum   'C1 S2 N8'
_cell_volume   293.67590050
_cell_formula_units_Z   1
loop_
 _symmetry_equiv_pos_site_id
 _symmetry_equiv_pos_as_xyz
  1  'x, y, z'
loop_
 _atom_site_type_symbol
 _atom_site_label
 _atom_site_symmetry_multiplicity
 _atom_site_fract_x
 _atom_site_fract_y
 _atom_site_fract_z
 _atom_site_occupancy
  C  C0  1  0.714388  0.557055  0.062967  1
  S  S1  1  0.616441  0.599806  0.251660  1
  S  S2  1  0.813912  0.515403  0.875018  1
  N  N3  1  0.924497  0.332056  0.384503  1
  N  N4  1  0.198204  0.241700  0.716605  1
  N  N5  1  0.319891  0.910558  0.308072  1
  N  N6  1  0.588229  0.914339  0.844503  1
  N  N7  1  0.441047  0.813902  0.731749  1
  N  N8  1  0.301260  0.984171  0.192954  1
  N  N9  1  0.090276  0.057673  0.677016  1
  N  N10  1  0.989023  0.278951  0.253454  1
