# generated using pymatgen
data_Sc4GaSi3
_symmetry_space_group_name_H-M   'P 1'
_cell_length_a   6.57106558
_cell_length_b   4.00130731
_cell_length_c   7.46608759
_cell_angle_alpha   89.99922836
_cell_angle_beta   124.81821196
_cell_angle_gamma   72.14839719
_symmetry_Int_Tables_number   1
_chemical_formula_structural   Sc4GaSi3
_chemical_formula_sum   'Sc4 Ga1 Si3'
_cell_volume   149.50236990
_cell_formula_units_Z   1
loop_
 _symmetry_equiv_pos_site_id
 _symmetry_equiv_pos_as_xyz
  1  'x, y, z'
loop_
 _atom_site_type_symbol
 _atom_site_label
 _atom_site_symmetry_multiplicity
 _atom_site_fract_x
 _atom_site_fract_y
 _atom_site_fract_z
 _atom_site_occupancy
  Sc  Sc0  1  0.533646  0.751693  0.016858  1
  Sc  Sc1  1  0.087225  0.471614  0.051647  1
  Sc  Sc2  1  0.085716  0.471994  0.537536  1
  Sc  Sc3  1  0.523171  0.756087  0.509141  1
  Ga  Ga4  1  0.975388  0.028775  0.739549  1
  Si  Si5  1  0.643466  0.194324  0.821270  1
  Si  Si6  1  0.963727  0.035554  0.231372  1
  Si  Si7  1  0.648674  0.191909  0.323520  1
