# generated using pymatgen
data_CeTmB6Os
_symmetry_space_group_name_H-M   'P 1'
_cell_length_a   3.67819700
_cell_length_b   9.16505900
_cell_length_c   11.54968600
_cell_angle_alpha   90.00000000
_cell_angle_beta   90.00000000
_cell_angle_gamma   90.00000000
_symmetry_Int_Tables_number   1
_chemical_formula_structural   CeTmB6Os
_chemical_formula_sum   'Ce4 Tm4 B24 Os4'
_cell_volume   389.35022337
_cell_formula_units_Z   4
loop_
 _symmetry_equiv_pos_site_id
 _symmetry_equiv_pos_as_xyz
  1  'x, y, z'
loop_
 _atom_site_type_symbol
 _atom_site_label
 _atom_site_symmetry_multiplicity
 _atom_site_fract_x
 _atom_site_fract_y
 _atom_site_fract_z
 _atom_site_occupancy
  Ce  Ce0  1  0.000000  0.322578  0.413408  1
  Ce  Ce1  1  0.000000  0.677422  0.586592  1
  Ce  Ce2  1  0.000000  0.822578  0.086592  1
  Ce  Ce3  1  0.000000  0.177422  0.913408  1
  Tm  Tm4  1  0.000000  0.944727  0.374420  1
  Tm  Tm5  1  0.000000  0.055273  0.625581  1
  Tm  Tm6  1  0.000000  0.444727  0.125580  1
  Tm  Tm7  1  0.000000  0.555273  0.874419  1
  B  B8  1  0.500000  0.554260  0.432125  1
  B  B9  1  0.500000  0.445740  0.567875  1
  B  B10  1  0.500000  0.054260  0.067875  1
  B  B11  1  0.500000  0.945740  0.932125  1
  B  B12  1  0.500000  0.749821  0.419358  1
  B  B13  1  0.500000  0.250179  0.580642  1
  B  B14  1  0.500000  0.249821  0.080642  1
  B  B15  1  0.500000  0.750179  0.919358  1
  B  B16  1  0.500000  0.792464  0.266965  1
  B  B17  1  0.500000  0.207536  0.733035  1
  B  B18  1  0.500000  0.292463  0.233035  1
  B  B19  1  0.500000  0.707536  0.766965  1
  B  B20  1  0.500000  0.631766  0.184804  1
  B  B21  1  0.500000  0.368234  0.815196  1
  B  B22  1  0.500000  0.131766  0.315196  1
  B  B23  1  0.500000  0.868234  0.684804  1
  B  B24  1  0.500000  0.983911  0.214265  1
  B  B25  1  0.500000  0.016089  0.785735  1
  B  B26  1  0.500000  0.483911  0.285735  1
  B  B27  1  0.500000  0.516089  0.714265  1
  B  B28  1  0.500000  0.606537  0.029298  1
  B  B29  1  0.500000  0.393463  0.970702  1
  B  B30  1  0.500000  0.106537  0.470702  1
  B  B31  1  0.500000  0.893463  0.529298  1
  Os  Os32  1  0.000000  0.639151  0.320251  1
  Os  Os33  1  0.000000  0.360849  0.679749  1
  Os  Os34  1  0.000000  0.139151  0.179749  1
  Os  Os35  1  0.000000  0.860849  0.820251  1
