# generated using pymatgen
data_Tb2NdTh(Al3Ir)6
_symmetry_space_group_name_H-M   'P 1'
_cell_length_a   7.60582837
_cell_length_b   7.60918768
_cell_length_c   9.52735300
_cell_angle_alpha   90.00000000
_cell_angle_beta   90.00000000
_cell_angle_gamma   119.49027528
_symmetry_Int_Tables_number   1
_chemical_formula_structural   Tb2NdTh(Al3Ir)6
_chemical_formula_sum   'Tb2 Nd1 Th1 Al18 Ir6'
_cell_volume   479.94950222
_cell_formula_units_Z   1
loop_
 _symmetry_equiv_pos_site_id
 _symmetry_equiv_pos_as_xyz
  1  'x, y, z'
loop_
 _atom_site_type_symbol
 _atom_site_label
 _atom_site_symmetry_multiplicity
 _atom_site_fract_x
 _atom_site_fract_y
 _atom_site_fract_z
 _atom_site_occupancy
  Tb  Tb0  1  0.004082  0.329007  0.750000  1
  Tb  Tb1  1  0.328219  0.004330  0.750000  1
  Nd  Nd2  1  0.671329  0.994462  0.250000  1
  Th  Th3  1  0.995040  0.670906  0.250000  1
  Al  Al4  1  0.132955  0.133140  0.250000  1
  Al  Al5  1  0.871885  0.873267  0.750000  1
  Al  Al6  1  0.003007  0.332577  0.070828  1
  Al  Al7  1  0.998959  0.664476  0.919661  1
  Al  Al8  1  0.998959  0.664476  0.580339  1
  Al  Al9  1  0.338214  0.005211  0.429267  1
  Al  Al10  1  0.003007  0.332577  0.429172  1
  Al  Al11  1  0.664815  0.999949  0.576943  1
  Al  Al12  1  0.664815  0.999949  0.923057  1
  Al  Al13  1  0.338214  0.005211  0.070733  1
  Al  Al14  1  0.332568  0.332542  0.554402  1
  Al  Al15  1  0.663224  0.665298  0.456027  1
  Al  Al16  1  0.663224  0.665298  0.043973  1
  Al  Al17  1  0.332568  0.332542  0.945598  1
  Al  Al18  1  0.341538  0.546098  0.250000  1
  Al  Al19  1  0.658439  0.449856  0.750000  1
  Al  Al20  1  0.544337  0.338965  0.250000  1
  Al  Al21  1  0.450021  0.660328  0.750000  1
  Ir  Ir22  1  0.672926  0.329784  0.000040  1
  Ir  Ir23  1  0.326606  0.671157  0.999994  1
  Ir  Ir24  1  0.326606  0.671157  0.500006  1
  Ir  Ir25  1  0.672926  0.329784  0.499960  1
  Ir  Ir26  1  0.000759  0.998827  0.000120  1
  Ir  Ir27  1  0.000759  0.998827  0.499880  1
