# generated using pymatgen
data_Dy8Ti2Si16Tc9Ru
_symmetry_space_group_name_H-M   'P 1'
_cell_length_a   6.76129877
_cell_length_b   6.76129892
_cell_length_c   12.95634480
_cell_angle_alpha   89.99124844
_cell_angle_beta   90.00875411
_cell_angle_gamma   89.14355170
_symmetry_Int_Tables_number   1
_chemical_formula_structural   Dy8Ti2Si16Tc9Ru
_chemical_formula_sum   'Dy8 Ti2 Si16 Tc9 Ru1'
_cell_volume   592.23521815
_cell_formula_units_Z   1
loop_
 _symmetry_equiv_pos_site_id
 _symmetry_equiv_pos_as_xyz
  1  'x, y, z'
loop_
 _atom_site_type_symbol
 _atom_site_label
 _atom_site_symmetry_multiplicity
 _atom_site_fract_x
 _atom_site_fract_y
 _atom_site_fract_z
 _atom_site_occupancy
  Dy  Dy0  1  0.997742  0.662763  0.029790  1
  Dy  Dy1  1  0.002132  0.336969  0.528064  1
  Dy  Dy2  1  0.662763  0.997742  0.970210  1
  Dy  Dy3  1  0.178526  0.489391  0.783060  1
  Dy  Dy4  1  0.820552  0.511934  0.283548  1
  Dy  Dy5  1  0.489391  0.178526  0.216940  1
  Dy  Dy6  1  0.511934  0.820552  0.716452  1
  Dy  Dy7  1  0.336969  0.002132  0.471936  1
  Ti  Ti8  1  0.842673  0.157031  0.749916  1
  Ti  Ti9  1  0.157031  0.842673  0.250084  1
  Si  Si10  1  0.015011  0.737147  0.444566  1
  Si  Si11  1  0.983994  0.262702  0.944454  1
  Si  Si12  1  0.737147  0.015011  0.555434  1
  Si  Si13  1  0.195018  0.470175  0.183987  1
  Si  Si14  1  0.804309  0.529730  0.682849  1
  Si  Si15  1  0.470175  0.195018  0.816013  1
  Si  Si16  1  0.529730  0.804309  0.317151  1
  Si  Si17  1  0.262702  0.983994  0.055546  1
  Si  Si18  1  0.788791  0.883610  0.181334  1
  Si  Si19  1  0.318968  0.601548  0.558571  1
  Si  Si20  1  0.681205  0.399297  0.057767  1
  Si  Si21  1  0.601548  0.318968  0.441429  1
  Si  Si22  1  0.399297  0.681205  0.942233  1
  Si  Si23  1  0.116980  0.211843  0.317669  1
  Si  Si24  1  0.211843  0.116980  0.682331  1
  Si  Si25  1  0.883610  0.788791  0.818666  1
  Tc  Tc26  1  0.308552  0.527821  0.365298  1
  Tc  Tc27  1  0.817279  0.018782  0.364728  1
  Tc  Tc28  1  0.982311  0.185547  0.133699  1
  Tc  Tc29  1  0.018782  0.817279  0.635272  1
  Tc  Tc30  1  0.527821  0.308552  0.634702  1
  Tc  Tc31  1  0.185547  0.982311  0.866301  1
  Tc  Tc32  1  0.666516  0.666516  0.500000  1
  Tc  Tc33  1  0.469067  0.690106  0.134662  1
  Tc  Tc34  1  0.690106  0.469067  0.865338  1
  Ru  Ru35  1  0.333978  0.333978  0.000000  1
