# generated using pymatgen
data_Ba2TbY(FeO4)2
_symmetry_space_group_name_H-M   'P 1'
_cell_length_a   5.76506900
_cell_length_b   10.39221600
_cell_length_c   13.37033000
_cell_angle_alpha   90.00000000
_cell_angle_beta   90.00000000
_cell_angle_gamma   90.00000000
_symmetry_Int_Tables_number   1
_chemical_formula_structural   Ba2TbY(FeO4)2
_chemical_formula_sum   'Ba8 Tb4 Y4 Fe8 O32'
_cell_volume   801.04110250
_cell_formula_units_Z   4
loop_
 _symmetry_equiv_pos_site_id
 _symmetry_equiv_pos_as_xyz
  1  'x, y, z'
loop_
 _atom_site_type_symbol
 _atom_site_label
 _atom_site_symmetry_multiplicity
 _atom_site_fract_x
 _atom_site_fract_y
 _atom_site_fract_z
 _atom_site_occupancy
  Ba  Ba0  1  0.250000  0.826350  0.712539  1
  Ba  Ba1  1  0.250000  0.673650  0.212539  1
  Ba  Ba2  1  0.750000  0.173650  0.287461  1
  Ba  Ba3  1  0.750000  0.326350  0.787461  1
  Ba  Ba4  1  0.250000  0.102946  0.915756  1
  Ba  Ba5  1  0.250000  0.397054  0.415756  1
  Ba  Ba6  1  0.750000  0.897054  0.084244  1
  Ba  Ba7  1  0.750000  0.602946  0.584244  1
  Tb  Tb8  1  0.250000  0.485532  0.915467  1
  Tb  Tb9  1  0.250000  0.014468  0.415467  1
  Tb  Tb10  1  0.750000  0.514468  0.084533  1
  Tb  Tb11  1  0.750000  0.985532  0.584533  1
  Y  Y12  1  0.250000  0.190451  0.643224  1
  Y  Y13  1  0.250000  0.309549  0.143224  1
  Y  Y14  1  0.750000  0.809549  0.356776  1
  Y  Y15  1  0.750000  0.690451  0.856776  1
  Fe  Fe16  1  0.250000  0.783113  0.969106  1
  Fe  Fe17  1  0.250000  0.716887  0.469106  1
  Fe  Fe18  1  0.750000  0.216887  0.030894  1
  Fe  Fe19  1  0.750000  0.283113  0.530894  1
  Fe  Fe20  1  0.250000  0.476852  0.692451  1
  Fe  Fe21  1  0.250000  0.023148  0.192451  1
  Fe  Fe22  1  0.750000  0.523148  0.307549  1
  Fe  Fe23  1  0.750000  0.976852  0.807549  1
  O  O24  1  0.250000  0.881487  0.088469  1
  O  O25  1  0.250000  0.618513  0.588469  1
  O  O26  1  0.750000  0.118513  0.911531  1
  O  O27  1  0.750000  0.381487  0.411531  1
  O  O28  1  0.250000  0.318891  0.790345  1
  O  O29  1  0.250000  0.181109  0.290345  1
  O  O30  1  0.750000  0.681109  0.209655  1
  O  O31  1  0.750000  0.818891  0.709655  1
  O  O32  1  0.509696  0.139730  0.507070  1
  O  O33  1  0.990304  0.360270  0.007070  1
  O  O34  1  0.009696  0.860270  0.492930  1
  O  O35  1  0.490304  0.639730  0.992930  1
  O  O36  1  0.490304  0.860270  0.492930  1
  O  O37  1  0.009696  0.639730  0.992930  1
  O  O38  1  0.990304  0.139730  0.507070  1
  O  O39  1  0.509696  0.360270  0.007070  1
  O  O40  1  0.509916  0.057935  0.717283  1
  O  O41  1  0.990084  0.442065  0.217283  1
  O  O42  1  0.009916  0.942065  0.282717  1
  O  O43  1  0.490084  0.557935  0.782717  1
  O  O44  1  0.490084  0.942065  0.282717  1
  O  O45  1  0.009916  0.557935  0.782717  1
  O  O46  1  0.990084  0.057935  0.717283  1
  O  O47  1  0.509916  0.442065  0.217283  1
  O  O48  1  0.999158  0.367833  0.611185  1
  O  O49  1  0.500842  0.132167  0.111185  1
  O  O50  1  0.499158  0.632167  0.388815  1
  O  O51  1  0.000842  0.867833  0.888815  1
  O  O52  1  0.000842  0.632167  0.388815  1
  O  O53  1  0.499158  0.867833  0.888815  1
  O  O54  1  0.500842  0.367833  0.611185  1
  O  O55  1  0.999158  0.132167  0.111185  1
