# generated using pymatgen
data_BaGaSn5Ir4
_symmetry_space_group_name_H-M   'P 1'
_cell_length_a   7.06327982
_cell_length_b   6.99622753
_cell_length_c   6.92774433
_cell_angle_alpha   118.64052378
_cell_angle_beta   118.97287102
_cell_angle_gamma   92.88183949
_symmetry_Int_Tables_number   1
_chemical_formula_structural   BaGaSn5Ir4
_chemical_formula_sum   'Ba1 Ga1 Sn5 Ir4'
_cell_volume   244.42148161
_cell_formula_units_Z   1
loop_
 _symmetry_equiv_pos_site_id
 _symmetry_equiv_pos_as_xyz
  1  'x, y, z'
loop_
 _atom_site_type_symbol
 _atom_site_label
 _atom_site_symmetry_multiplicity
 _atom_site_fract_x
 _atom_site_fract_y
 _atom_site_fract_z
 _atom_site_occupancy
  Ba  Ba0  1  0.012290  0.005541  0.000000  1
  Ga  Ga1  1  0.477519  0.120965  0.000000  1
  Sn  Sn2  1  0.119408  0.480437  0.000000  1
  Sn  Sn3  1  0.871021  0.877062  0.346407  1
  Sn  Sn4  1  0.501059  0.998033  0.502971  1
  Sn  Sn5  1  0.998088  0.495062  0.497029  1
  Sn  Sn6  1  0.524613  0.530654  0.653592  1
  Ir  Ir7  1  0.754378  0.403371  0.000000  1
  Ir  Ir8  1  0.407351  0.766639  0.000000  1
  Ir  Ir9  1  0.578451  0.572433  0.322631  1
  Ir  Ir10  1  0.255820  0.249801  0.677368  1
