# generated using pymatgen
data_Pr3ErTmSn3
_symmetry_space_group_name_H-M   'P 1'
_cell_length_a   6.68771400
_cell_length_b   9.19306366
_cell_length_c   9.19340700
_cell_angle_alpha   119.99875560
_cell_angle_beta   89.99974684
_cell_angle_gamma   90.00049904
_symmetry_Int_Tables_number   1
_chemical_formula_structural   Pr3ErTmSn3
_chemical_formula_sum   'Pr6 Er2 Tm2 Sn6'
_cell_volume   489.49755220
_cell_formula_units_Z   2
loop_
 _symmetry_equiv_pos_site_id
 _symmetry_equiv_pos_as_xyz
  1  'x, y, z'
loop_
 _atom_site_type_symbol
 _atom_site_label
 _atom_site_symmetry_multiplicity
 _atom_site_fract_x
 _atom_site_fract_y
 _atom_site_fract_z
 _atom_site_occupancy
  Pr  Pr0  1  0.750046  0.241825  0.000000  1
  Pr  Pr1  1  0.750046  0.758105  0.758137  1
  Pr  Pr2  1  0.750046  0.999967  0.241863  1
  Pr  Pr3  1  0.249959  0.758173  0.000000  1
  Pr  Pr4  1  0.249958  0.241894  0.241864  1
  Pr  Pr5  1  0.249958  0.000031  0.758136  1
  Er  Er6  1  0.499986  0.333345  0.666692  1
  Er  Er7  1  0.499986  0.666653  0.333308  1
  Tm  Tm8  1  0.000001  0.666661  0.333305  1
  Tm  Tm9  1  0.000001  0.333356  0.666695  1
  Sn  Sn10  1  0.750120  0.600408  0.000000  1
  Sn  Sn11  1  0.750122  0.399538  0.399536  1
  Sn  Sn12  1  0.750122  0.000002  0.600464  1
  Sn  Sn13  1  0.249883  0.399588  0.000000  1
  Sn  Sn14  1  0.249882  0.600460  0.600465  1
  Sn  Sn15  1  0.249882  0.999995  0.399535  1
