# generated using pymatgen
data_Mn3Si4Ir4Rh
_symmetry_space_group_name_H-M   'P 1'
_cell_length_a   3.87727900
_cell_length_b   6.06712902
_cell_length_c   7.24307949
_cell_angle_alpha   89.72079467
_cell_angle_beta   90.00000000
_cell_angle_gamma   90.00000000
_symmetry_Int_Tables_number   1
_chemical_formula_structural   Mn3Si4Ir4Rh
_chemical_formula_sum   'Mn3 Si4 Ir4 Rh1'
_cell_volume   170.38383070
_cell_formula_units_Z   1
loop_
 _symmetry_equiv_pos_site_id
 _symmetry_equiv_pos_as_xyz
  1  'x, y, z'
loop_
 _atom_site_type_symbol
 _atom_site_label
 _atom_site_symmetry_multiplicity
 _atom_site_fract_x
 _atom_site_fract_y
 _atom_site_fract_z
 _atom_site_occupancy
  Mn  Mn0  1  0.250000  0.029166  0.823677  1
  Mn  Mn1  1  0.750000  0.469586  0.314907  1
  Mn  Mn2  1  0.250000  0.535530  0.682713  1
  Si  Si3  1  0.250000  0.252964  0.120694  1
  Si  Si4  1  0.750000  0.738977  0.885504  1
  Si  Si5  1  0.250000  0.778804  0.371396  1
  Si  Si6  1  0.750000  0.232651  0.622324  1
  Ir  Ir7  1  0.250000  0.648468  0.066412  1
  Ir  Ir8  1  0.750000  0.341912  0.930914  1
  Ir  Ir9  1  0.250000  0.168838  0.440693  1
  Ir  Ir10  1  0.750000  0.835119  0.564425  1
  Rh  Rh11  1  0.750000  0.967985  0.176342  1
