# generated using pymatgen
data_Ti8Al15Fe3(PtRh)2
_symmetry_space_group_name_H-M   'P 1'
_cell_length_a   8.55978938
_cell_length_b   8.56283691
_cell_length_c   8.55969180
_cell_angle_alpha   120.02168443
_cell_angle_beta   119.71832303
_cell_angle_gamma   90.21371969
_symmetry_Int_Tables_number   1
_chemical_formula_structural   Ti8Al15Fe3(PtRh)2
_chemical_formula_sum   'Ti8 Al15 Fe3 Pt2 Rh2'
_cell_volume   444.54301075
_cell_formula_units_Z   1
loop_
 _symmetry_equiv_pos_site_id
 _symmetry_equiv_pos_as_xyz
  1  'x, y, z'
loop_
 _atom_site_type_symbol
 _atom_site_label
 _atom_site_symmetry_multiplicity
 _atom_site_fract_x
 _atom_site_fract_y
 _atom_site_fract_z
 _atom_site_occupancy
  Ti  Ti0  1  0.782234  0.286351  0.070748  1
  Ti  Ti1  1  0.215592  0.286321  0.504108  1
  Ti  Ti2  1  0.211152  0.720523  0.509348  1
  Ti  Ti3  1  0.223163  0.720551  0.928347  1
  Ti  Ti4  1  0.792215  0.720593  0.497392  1
  Ti  Ti5  1  0.780836  0.272475  0.491680  1
  Ti  Ti6  1  0.376848  0.123537  0.746694  1
  Ti  Ti7  1  0.386330  0.634496  0.248171  1
  Al  Al8  1  0.996485  0.495597  0.499101  1
  Al  Al9  1  0.150170  0.345821  0.195651  1
  Al  Al10  1  0.159731  0.973978  0.814241  1
  Al  Al11  1  0.155338  0.340463  0.802823  1
  Al  Al12  1  0.537665  0.340474  0.185154  1
  Al  Al13  1  0.850077  0.652883  0.802788  1
  Al  Al14  1  0.840665  0.030350  0.189685  1
  Al  Al15  1  0.837852  0.659647  0.189139  1
  Al  Al16  1  0.470487  0.659619  0.821764  1
  Al  Al17  1  0.378741  0.116972  0.251912  1
  Al  Al18  1  0.865073  0.116986  0.738258  1
  Al  Al19  1  0.622929  0.875852  0.252899  1
  Al  Al20  1  0.616626  0.365819  0.749184  1
  Al  Al21  1  0.618834  0.882936  0.747806  1
  Al  Al22  1  0.135114  0.882934  0.264083  1
  Fe  Fe23  1  0.003676  0.999786  0.503333  1
  Fe  Fe24  1  0.496475  0.999791  0.996127  1
  Fe  Fe25  1  0.495736  0.498319  0.002602  1
  Pt  Pt26  1  0.499643  0.499114  0.499561  1
  Pt  Pt27  1  0.999553  0.499121  0.999469  1
  Rh  Rh28  1  0.999460  0.999334  0.999863  1
  Rh  Rh29  1  0.501293  0.999355  0.498071  1
