# generated using pymatgen
data_Nd7TmLu12Si15Rh
_symmetry_space_group_name_H-M   'P 1'
_cell_length_a   7.41289070
_cell_length_b   7.67258903
_cell_length_c   14.54097529
_cell_angle_alpha   89.70039728
_cell_angle_beta   89.94635253
_cell_angle_gamma   90.44853463
_symmetry_Int_Tables_number   1
_chemical_formula_structural   Nd7TmLu12Si15Rh
_chemical_formula_sum   'Nd7 Tm1 Lu12 Si15 Rh1'
_cell_volume   826.99639567
_cell_formula_units_Z   1
loop_
 _symmetry_equiv_pos_site_id
 _symmetry_equiv_pos_as_xyz
  1  'x, y, z'
loop_
 _atom_site_type_symbol
 _atom_site_label
 _atom_site_symmetry_multiplicity
 _atom_site_fract_x
 _atom_site_fract_y
 _atom_site_fract_z
 _atom_site_occupancy
  Nd  Nd0  1  0.019549  0.176005  0.098984  1
  Nd  Nd1  1  0.980670  0.822990  0.899948  1
  Nd  Nd2  1  0.480136  0.676783  0.902287  1
  Nd  Nd3  1  0.983009  0.822376  0.596827  1
  Nd  Nd4  1  0.518352  0.324166  0.096914  1
  Nd  Nd5  1  0.018669  0.178624  0.403244  1
  Nd  Nd6  1  0.518611  0.321199  0.401944  1
  Tm  Tm7  1  0.476779  0.674207  0.600436  1
  Lu  Lu8  1  0.157895  0.508832  0.741610  1
  Lu  Lu9  1  0.844755  0.492714  0.252768  1
  Lu  Lu10  1  0.344614  0.001046  0.251152  1
  Lu  Lu11  1  0.656064  0.993968  0.747612  1
  Lu  Lu12  1  0.323067  0.191559  0.618579  1
  Lu  Lu13  1  0.673870  0.820456  0.376790  1
  Lu  Lu14  1  0.178717  0.661660  0.381747  1
  Lu  Lu15  1  0.679288  0.824163  0.125124  1
  Lu  Lu16  1  0.825944  0.327795  0.621330  1
  Lu  Lu17  1  0.322754  0.179778  0.875658  1
  Lu  Lu18  1  0.825811  0.321564  0.875704  1
  Lu  Lu19  1  0.176354  0.677558  0.123653  1
  Si  Si20  1  0.030089  0.116839  0.749575  1
  Si  Si21  1  0.975538  0.878857  0.252734  1
  Si  Si22  1  0.471526  0.614290  0.248791  1
  Si  Si23  1  0.533184  0.388038  0.751714  1
  Si  Si24  1  0.280491  0.881728  0.748278  1
  Si  Si25  1  0.720954  0.123260  0.249635  1
  Si  Si26  1  0.223727  0.373304  0.249007  1
  Si  Si27  1  0.771547  0.624056  0.750281  1
  Si  Si28  1  0.843955  0.532513  0.459696  1
  Si  Si29  1  0.351340  0.961428  0.462613  1
  Si  Si30  1  0.850662  0.533771  0.038806  1
  Si  Si31  1  0.645898  0.028415  0.540415  1
  Si  Si32  1  0.147507  0.467476  0.961060  1
  Si  Si33  1  0.649483  0.032719  0.960798  1
  Si  Si34  1  0.352346  0.967123  0.038727  1
  Rh  Rh35  1  0.146846  0.478740  0.545556  1
