# generated using pymatgen
data_Nb3Al4GeRu8
_symmetry_space_group_name_H-M   'P 1'
_cell_length_a   6.15997603
_cell_length_b   4.36450600
_cell_length_c   8.70657204
_cell_angle_alpha   90.00000000
_cell_angle_beta   89.98863930
_cell_angle_gamma   90.00000000
_symmetry_Int_Tables_number   1
_chemical_formula_structural   Nb3Al4GeRu8
_chemical_formula_sum   'Nb3 Al4 Ge1 Ru8'
_cell_volume   234.07838182
_cell_formula_units_Z   1
loop_
 _symmetry_equiv_pos_site_id
 _symmetry_equiv_pos_as_xyz
  1  'x, y, z'
loop_
 _atom_site_type_symbol
 _atom_site_label
 _atom_site_symmetry_multiplicity
 _atom_site_fract_x
 _atom_site_fract_y
 _atom_site_fract_z
 _atom_site_occupancy
  Nb  Nb0  1  0.250219  0.250000  0.119612  1
  Nb  Nb1  1  0.750167  0.750001  0.375001  1
  Nb  Nb2  1  0.249792  0.250000  0.630367  1
  Al  Al3  1  0.750267  0.250000  0.129459  1
  Al  Al4  1  0.250242  0.750001  0.374982  1
  Al  Al5  1  0.749763  0.250000  0.620509  1
  Al  Al6  1  0.249754  0.750001  0.875007  1
  Ge  Ge7  1  0.749827  0.750001  0.874986  1
  Ru  Ru8  1  0.505237  0.750001  0.119627  1
  Ru  Ru9  1  0.995341  0.750001  0.119772  1
  Ru  Ru10  1  0.497924  0.250000  0.374955  1
  Ru  Ru11  1  0.002372  0.250000  0.374984  1
  Ru  Ru12  1  0.994836  0.750001  0.630368  1
  Ru  Ru13  1  0.504605  0.750001  0.630286  1
  Ru  Ru14  1  0.989990  0.250000  0.875078  1
  Ru  Ru15  1  0.509662  0.250000  0.875007  1
