# generated using pymatgen
data_KInSb4
_symmetry_space_group_name_H-M   'P 1'
_cell_length_a   4.37259600
_cell_length_b   10.84441500
_cell_length_c   18.74609600
_cell_angle_alpha   90.00000000
_cell_angle_beta   90.00000000
_cell_angle_gamma   90.00000000
_symmetry_Int_Tables_number   1
_chemical_formula_structural   KInSb4
_chemical_formula_sum   'K4 In4 Sb16'
_cell_volume   888.90698513
_cell_formula_units_Z   4
loop_
 _symmetry_equiv_pos_site_id
 _symmetry_equiv_pos_as_xyz
  1  'x, y, z'
loop_
 _atom_site_type_symbol
 _atom_site_label
 _atom_site_symmetry_multiplicity
 _atom_site_fract_x
 _atom_site_fract_y
 _atom_site_fract_z
 _atom_site_occupancy
  K  K0  1  0.250000  0.323005  0.934995  1
  K  K1  1  0.750000  0.676995  0.065005  1
  K  K2  1  0.250000  0.823005  0.565005  1
  K  K3  1  0.750000  0.176995  0.434995  1
  In  In4  1  0.250000  0.181716  0.132568  1
  In  In5  1  0.750000  0.818284  0.867432  1
  In  In6  1  0.250000  0.681716  0.367432  1
  In  In7  1  0.750000  0.318284  0.632568  1
  Sb  Sb8  1  0.750000  0.840748  0.402464  1
  Sb  Sb9  1  0.250000  0.159252  0.597536  1
  Sb  Sb10  1  0.750000  0.340748  0.097536  1
  Sb  Sb11  1  0.250000  0.659252  0.902464  1
  Sb  Sb12  1  0.750000  0.391707  0.780039  1
  Sb  Sb13  1  0.250000  0.608293  0.219961  1
  Sb  Sb14  1  0.750000  0.891707  0.719961  1
  Sb  Sb15  1  0.250000  0.108293  0.280039  1
  Sb  Sb16  1  0.750000  0.539185  0.545961  1
  Sb  Sb17  1  0.250000  0.460815  0.454039  1
  Sb  Sb18  1  0.750000  0.039185  0.954039  1
  Sb  Sb19  1  0.250000  0.960815  0.045961  1
  Sb  Sb20  1  0.750000  0.932624  0.259249  1
  Sb  Sb21  1  0.250000  0.067376  0.740751  1
  Sb  Sb22  1  0.750000  0.432624  0.240751  1
  Sb  Sb23  1  0.250000  0.567376  0.759249  1
