# generated using pymatgen
data_TbTm3Si4(NiOs)2
_symmetry_space_group_name_H-M   'P 1'
_cell_length_a   4.21026800
_cell_length_b   6.83219172
_cell_length_c   7.16159600
_cell_angle_alpha   91.81125692
_cell_angle_beta   90.00000000
_cell_angle_gamma   90.00000000
_symmetry_Int_Tables_number   1
_chemical_formula_structural   TbTm3Si4(NiOs)2
_chemical_formula_sum   'Tb1 Tm3 Si4 Ni2 Os2'
_cell_volume   205.90294738
_cell_formula_units_Z   1
loop_
 _symmetry_equiv_pos_site_id
 _symmetry_equiv_pos_as_xyz
  1  'x, y, z'
loop_
 _atom_site_type_symbol
 _atom_site_label
 _atom_site_symmetry_multiplicity
 _atom_site_fract_x
 _atom_site_fract_y
 _atom_site_fract_z
 _atom_site_occupancy
  Tb  Tb0  1  0.250000  0.991675  0.300190  1
  Tm  Tm1  1  0.250000  0.489238  0.182135  1
  Tm  Tm2  1  0.750000  0.511604  0.817707  1
  Tm  Tm3  1  0.750000  0.009259  0.701431  1
  Si  Si4  1  0.250000  0.802981  0.894820  1
  Si  Si5  1  0.750000  0.199792  0.101972  1
  Si  Si6  1  0.750000  0.699245  0.401172  1
  Si  Si7  1  0.250000  0.298719  0.602968  1
  Ni  Ni8  1  0.750000  0.835965  0.070968  1
  Ni  Ni9  1  0.250000  0.164341  0.923791  1
  Os  Os10  1  0.250000  0.656085  0.571312  1
  Os  Os11  1  0.750000  0.341096  0.431534  1
