# generated using pymatgen
data_Er2Th2(Ga8Pt3)3
_symmetry_space_group_name_H-M   'P 1'
_cell_length_a   7.61901372
_cell_length_b   7.63169167
_cell_length_c   13.35397360
_cell_angle_alpha   84.41438211
_cell_angle_beta   78.86725562
_cell_angle_gamma   60.00887631
_symmetry_Int_Tables_number   1
_chemical_formula_structural   Er2Th2(Ga8Pt3)3
_chemical_formula_sum   'Er2 Th2 Ga24 Pt9'
_cell_volume   659.85595067
_cell_formula_units_Z   1
loop_
 _symmetry_equiv_pos_site_id
 _symmetry_equiv_pos_as_xyz
  1  'x, y, z'
loop_
 _atom_site_type_symbol
 _atom_site_label
 _atom_site_symmetry_multiplicity
 _atom_site_fract_x
 _atom_site_fract_y
 _atom_site_fract_z
 _atom_site_occupancy
  Er  Er0  1  0.733419  0.498450  0.807538  1
  Er  Er1  1  0.266581  0.501550  0.192462  1
  Th  Th2  1  0.395221  0.167894  0.808594  1
  Th  Th3  1  0.604779  0.832106  0.191406  1
  Ga  Ga4  1  0.688530  0.829162  0.938020  1
  Ga  Ga5  1  0.311470  0.170838  0.061980  1
  Ga  Ga6  1  0.145743  0.833499  0.560071  1
  Ga  Ga7  1  0.854257  0.166501  0.439929  1
  Ga  Ga8  1  0.480857  0.167390  0.555891  1
  Ga  Ga9  1  0.519143  0.832610  0.444109  1
  Ga  Ga10  1  0.215142  0.169831  0.329099  1
  Ga  Ga11  1  0.784858  0.830169  0.670901  1
  Ga  Ga12  1  0.438498  0.508088  0.671795  1
  Ga  Ga13  1  0.561502  0.491912  0.328205  1
  Ga  Ga14  1  0.105209  0.162035  0.669995  1
  Ga  Ga15  1  0.894791  0.837965  0.330005  1
  Ga  Ga16  1  0.357639  0.500708  0.941046  1
  Ga  Ga17  1  0.642361  0.499292  0.058954  1
  Ga  Ga18  1  0.014001  0.170219  0.945353  1
  Ga  Ga19  1  0.985999  0.829781  0.054647  1
  Ga  Ga20  1  0.185436  0.500098  0.442485  1
  Ga  Ga21  1  0.814564  0.499902  0.557515  1
  Ga  Ga22  1  0.734738  0.168118  0.182219  1
  Ga  Ga23  1  0.265262  0.831882  0.817781  1
  Ga  Ga24  1  0.057853  0.635081  0.816438  1
  Ga  Ga25  1  0.942147  0.364919  0.183562  1
  Ga  Ga26  1  0.861685  0.041714  0.816694  1
  Ga  Ga27  1  0.138315  0.958286  0.183306  1
  Pt  Pt28  1  0.121255  0.492555  0.638856  1
  Pt  Pt29  1  0.878745  0.507445  0.361144  1
  Pt  Pt30  1  0.658649  0.167564  0.999552  1
  Pt  Pt31  1  0.341351  0.832436  0.000448  1
  Pt  Pt32  1  0.539663  0.165574  0.360581  1
  Pt  Pt33  1  0.460337  0.834426  0.639419  1
  Pt  Pt34  1  0.779345  0.173371  0.637612  1
  Pt  Pt35  1  0.220655  0.826629  0.362388  1
  Pt  Pt36  1  0.000000  0.500000  0.000000  1
