# generated using pymatgen
data_LiEr5(Si3Ru)8
_symmetry_space_group_name_H-M   'P 1'
_cell_length_a   10.09524614
_cell_length_b   10.09524701
_cell_length_c   8.07081100
_cell_angle_alpha   89.99454275
_cell_angle_beta   89.99454742
_cell_angle_gamma   132.78096308
_symmetry_Int_Tables_number   1
_chemical_formula_structural   LiEr5(Si3Ru)8
_chemical_formula_sum   'Li1 Er5 Si24 Ru8'
_cell_volume   603.69947704
_cell_formula_units_Z   1
loop_
 _symmetry_equiv_pos_site_id
 _symmetry_equiv_pos_as_xyz
  1  'x, y, z'
loop_
 _atom_site_type_symbol
 _atom_site_label
 _atom_site_symmetry_multiplicity
 _atom_site_fract_x
 _atom_site_fract_y
 _atom_site_fract_z
 _atom_site_occupancy
  Li  Li0  1  0.500000  0.500000  0.500000  1
  Er  Er1  1  0.000000  0.000000  0.000000  1
  Er  Er2  1  0.501888  0.001874  0.749300  1
  Er  Er3  1  0.998126  0.498112  0.250700  1
  Er  Er4  1  0.498112  0.998126  0.250700  1
  Er  Er5  1  0.001874  0.501888  0.749300  1
  Si  Si6  1  0.796744  0.203256  0.500000  1
  Si  Si7  1  0.296471  0.703529  0.000000  1
  Si  Si8  1  0.203256  0.796744  0.500000  1
  Si  Si9  1  0.703529  0.296471  0.000000  1
  Si  Si10  1  0.336633  0.336633  0.827242  1
  Si  Si11  1  0.663367  0.663367  0.172758  1
  Si  Si12  1  0.172191  0.172191  0.336311  1
  Si  Si13  1  0.827809  0.827809  0.663689  1
  Si  Si14  1  0.123588  0.890267  0.728707  1
  Si  Si15  1  0.109733  0.876412  0.271293  1
  Si  Si16  1  0.607426  0.378044  0.234365  1
  Si  Si17  1  0.621956  0.392574  0.765635  1
  Si  Si18  1  0.876412  0.109733  0.271293  1
  Si  Si19  1  0.890267  0.123588  0.728707  1
  Si  Si20  1  0.392574  0.621956  0.765635  1
  Si  Si21  1  0.378044  0.607426  0.234365  1
  Si  Si22  1  0.349710  0.120594  0.507480  1
  Si  Si23  1  0.879406  0.650290  0.492520  1
  Si  Si24  1  0.387821  0.154509  0.006318  1
  Si  Si25  1  0.845491  0.612179  0.993682  1
  Si  Si26  1  0.650290  0.879406  0.492520  1
  Si  Si27  1  0.120594  0.349710  0.507480  1
  Si  Si28  1  0.612179  0.845491  0.993682  1
  Si  Si29  1  0.154509  0.387821  0.006318  1
  Ru  Ru30  1  0.672133  0.327867  0.500000  1
  Ru  Ru31  1  0.171022  0.828978  0.000000  1
  Ru  Ru32  1  0.327867  0.672133  0.500000  1
  Ru  Ru33  1  0.828978  0.171022  0.000000  1
  Ru  Ru34  1  0.124155  0.124155  0.628882  1
  Ru  Ru35  1  0.875845  0.875845  0.371118  1
  Ru  Ru36  1  0.370753  0.370753  0.124108  1
  Ru  Ru37  1  0.629247  0.629247  0.875892  1
