# generated using pymatgen
data_Tb3Yb2ZnSn3
_symmetry_space_group_name_H-M   'P 1'
_cell_length_a   9.17872200
_cell_length_b   9.17872250
_cell_length_c   6.77033100
_cell_angle_alpha   90.00000000
_cell_angle_beta   90.00000000
_cell_angle_gamma   119.99999821
_symmetry_Int_Tables_number   1
_chemical_formula_structural   Tb3Yb2ZnSn3
_chemical_formula_sum   'Tb6 Yb4 Zn2 Sn6'
_cell_volume   493.97503149
_cell_formula_units_Z   2
loop_
 _symmetry_equiv_pos_site_id
 _symmetry_equiv_pos_as_xyz
  1  'x, y, z'
loop_
 _atom_site_type_symbol
 _atom_site_label
 _atom_site_symmetry_multiplicity
 _atom_site_fract_x
 _atom_site_fract_y
 _atom_site_fract_z
 _atom_site_occupancy
  Tb  Tb0  1  0.269527  0.000000  0.250000  1
  Tb  Tb1  1  0.730473  0.000000  0.750000  1
  Tb  Tb2  1  0.000000  0.269527  0.250000  1
  Tb  Tb3  1  0.000000  0.730473  0.750000  1
  Tb  Tb4  1  0.730473  0.730473  0.250000  1
  Tb  Tb5  1  0.269527  0.269527  0.750000  1
  Yb  Yb6  1  0.333333  0.666667  0.000000  1
  Yb  Yb7  1  0.666667  0.333333  0.000000  1
  Yb  Yb8  1  0.666667  0.333333  0.500000  1
  Yb  Yb9  1  0.333333  0.666667  0.500000  1
  Zn  Zn10  1  0.000000  0.000000  0.000000  1
  Zn  Zn11  1  0.000000  0.000000  0.500000  1
  Sn  Sn12  1  0.619146  0.000000  0.250000  1
  Sn  Sn13  1  0.380854  0.000000  0.750000  1
  Sn  Sn14  1  0.000000  0.619146  0.250000  1
  Sn  Sn15  1  0.000000  0.380854  0.750000  1
  Sn  Sn16  1  0.380854  0.380854  0.250000  1
  Sn  Sn17  1  0.619146  0.619146  0.750000  1
