# generated using pymatgen
data_LaPr6Ru4C9
_symmetry_space_group_name_H-M   'P 1'
_cell_length_a   6.54920384
_cell_length_b   6.54920551
_cell_length_c   11.93301420
_cell_angle_alpha   71.11572956
_cell_angle_beta   71.11572364
_cell_angle_gamma   48.33222138
_symmetry_Int_Tables_number   1
_chemical_formula_structural   LaPr6Ru4C9
_chemical_formula_sum   'La1 Pr6 Ru4 C9'
_cell_volume   357.47781606
_cell_formula_units_Z   1
loop_
 _symmetry_equiv_pos_site_id
 _symmetry_equiv_pos_as_xyz
  1  'x, y, z'
loop_
 _atom_site_type_symbol
 _atom_site_label
 _atom_site_symmetry_multiplicity
 _atom_site_fract_x
 _atom_site_fract_y
 _atom_site_fract_z
 _atom_site_occupancy
  La  La0  1  0.627146  0.627146  0.156495  1
  Pr  Pr1  1  0.375920  0.375920  0.841056  1
  Pr  Pr2  1  0.145309  0.145309  0.681038  1
  Pr  Pr3  1  0.854577  0.854577  0.319657  1
  Pr  Pr4  1  0.139005  0.139005  0.381351  1
  Pr  Pr5  1  0.860943  0.860943  0.619360  1
  Pr  Pr6  1  0.999841  0.999841  0.999780  1
  Ru  Ru7  1  0.357044  0.357044  0.141149  1
  Ru  Ru8  1  0.566274  0.566274  0.570188  1
  Ru  Ru9  1  0.433021  0.433021  0.430220  1
  Ru  Ru10  1  0.642593  0.642593  0.858545  1
  C  C11  1  0.382546  0.382546  0.291184  1
  C  C12  1  0.922876  0.922876  0.820650  1
  C  C13  1  0.391404  0.391404  0.614160  1
  C  C14  1  0.194859  0.194859  0.142952  1
  C  C15  1  0.804753  0.804753  0.857510  1
  C  C16  1  0.499469  0.499469  0.999640  1
  C  C17  1  0.076770  0.076770  0.179970  1
  C  C18  1  0.617558  0.617558  0.708426  1
  C  C19  1  0.608093  0.608093  0.386670  1
