# generated using pymatgen
data_Tm2AlFe3
_symmetry_space_group_name_H-M   'P 1'
_cell_length_a   5.18595012
_cell_length_b   5.18627656
_cell_length_c   8.35570400
_cell_angle_alpha   90.00000000
_cell_angle_beta   90.00000000
_cell_angle_gamma   59.99791043
_symmetry_Int_Tables_number   1
_chemical_formula_structural   Tm2AlFe3
_chemical_formula_sum   'Tm4 Al2 Fe6'
_cell_volume   194.62048089
_cell_formula_units_Z   2
loop_
 _symmetry_equiv_pos_site_id
 _symmetry_equiv_pos_as_xyz
  1  'x, y, z'
loop_
 _atom_site_type_symbol
 _atom_site_label
 _atom_site_symmetry_multiplicity
 _atom_site_fract_x
 _atom_site_fract_y
 _atom_site_fract_z
 _atom_site_occupancy
  Tm  Tm0  1  0.333333  0.333334  0.565766  1
  Tm  Tm1  1  0.666667  0.666666  0.434234  1
  Tm  Tm2  1  0.666667  0.666666  0.065766  1
  Tm  Tm3  1  0.333333  0.333334  0.934234  1
  Al  Al4  1  0.000000  0.000000  0.500000  1
  Al  Al5  1  0.000000  0.000000  0.000000  1
  Fe  Fe6  1  0.827021  0.345994  0.750000  1
  Fe  Fe7  1  0.346003  0.826999  0.750000  1
  Fe  Fe8  1  0.827021  0.826985  0.750000  1
  Fe  Fe9  1  0.172979  0.654006  0.250000  1
  Fe  Fe10  1  0.653997  0.173001  0.250000  1
  Fe  Fe11  1  0.172979  0.173015  0.250000  1
