# generated using pymatgen
data_Li4Tb2YbCeSi8
_symmetry_space_group_name_H-M   'P 1'
_cell_length_a   3.80846600
_cell_length_b   7.70012881
_cell_length_c   10.32745201
_cell_angle_alpha   90.30899300
_cell_angle_beta   90.00000000
_cell_angle_gamma   90.00000000
_symmetry_Int_Tables_number   1
_chemical_formula_structural   Li4Tb2YbCeSi8
_chemical_formula_sum   'Li4 Tb2 Yb1 Ce1 Si8'
_cell_volume   302.85513609
_cell_formula_units_Z   1
loop_
 _symmetry_equiv_pos_site_id
 _symmetry_equiv_pos_as_xyz
  1  'x, y, z'
loop_
 _atom_site_type_symbol
 _atom_site_label
 _atom_site_symmetry_multiplicity
 _atom_site_fract_x
 _atom_site_fract_y
 _atom_site_fract_z
 _atom_site_occupancy
  Li  Li0  1  0.250000  0.989429  0.390552  1
  Li  Li1  1  0.250000  0.497807  0.105562  1
  Li  Li2  1  0.750000  0.006902  0.608738  1
  Li  Li3  1  0.750000  0.508555  0.890934  1
  Tb  Tb4  1  0.250000  0.134839  0.865570  1
  Tb  Tb5  1  0.250000  0.632062  0.635496  1
  Yb  Yb6  1  0.750000  0.864179  0.134271  1
  Ce  Ce7  1  0.750000  0.360812  0.364988  1
  Si  Si8  1  0.250000  0.232750  0.569306  1
  Si  Si9  1  0.250000  0.736193  0.929454  1
  Si  Si10  1  0.750000  0.766391  0.433859  1
  Si  Si11  1  0.750000  0.270311  0.067527  1
  Si  Si12  1  0.250000  0.656892  0.324409  1
  Si  Si13  1  0.250000  0.166005  0.178740  1
  Si  Si14  1  0.750000  0.336581  0.683432  1
  Si  Si15  1  0.750000  0.840293  0.817162  1
