# generated using pymatgen
data_K3OsO5
_symmetry_space_group_name_H-M   'P 1'
_cell_length_a   6.29113500
_cell_length_b   6.29113500
_cell_length_c   8.15644100
_cell_angle_alpha   89.99958890
_cell_angle_beta   89.99958890
_cell_angle_gamma   90.00027322
_symmetry_Int_Tables_number   1
_chemical_formula_structural   K3OsO5
_chemical_formula_sum   'K6 Os2 O10'
_cell_volume   322.81871798
_cell_formula_units_Z   2
loop_
 _symmetry_equiv_pos_site_id
 _symmetry_equiv_pos_as_xyz
  1  'x, y, z'
loop_
 _atom_site_type_symbol
 _atom_site_label
 _atom_site_symmetry_multiplicity
 _atom_site_fract_x
 _atom_site_fract_y
 _atom_site_fract_z
 _atom_site_occupancy
  K  K0  1  0.000001  0.999999  0.500000  1
  K  K1  1  0.499999  0.500001  0.500000  1
  K  K2  1  0.999998  0.000002  0.000000  1
  K  K3  1  0.500002  0.499998  0.000000  1
  K  K4  1  0.999998  0.499998  0.184244  1
  K  K5  1  0.500002  0.000002  0.815756  1
  Os  Os6  1  0.000000  0.500000  0.721588  1
  Os  Os7  1  0.500000  0.000000  0.278412  1
  O  O8  1  0.799034  0.299034  0.787793  1
  O  O9  1  0.200965  0.700965  0.787792  1
  O  O10  1  0.299034  0.200966  0.212211  1
  O  O11  1  0.700966  0.799034  0.212211  1
  O  O12  1  0.700966  0.200966  0.212207  1
  O  O13  1  0.299035  0.799035  0.212208  1
  O  O14  1  0.799034  0.700966  0.787789  1
  O  O15  1  0.200966  0.299034  0.787789  1
  O  O16  1  0.000001  0.500001  0.504870  1
  O  O17  1  0.499999  0.999999  0.495130  1
