# generated using pymatgen
data_V2Ga2Bi2O9
_symmetry_space_group_name_H-M   'P 1'
_cell_length_a   6.06511900
_cell_length_b   8.18908700
_cell_length_c   8.50644700
_cell_angle_alpha   90.00000000
_cell_angle_beta   90.00000000
_cell_angle_gamma   90.00000000
_symmetry_Int_Tables_number   1
_chemical_formula_structural   V2Ga2Bi2O9
_chemical_formula_sum   'V4 Ga4 Bi4 O18'
_cell_volume   422.49639905
_cell_formula_units_Z   2
loop_
 _symmetry_equiv_pos_site_id
 _symmetry_equiv_pos_as_xyz
  1  'x, y, z'
loop_
 _atom_site_type_symbol
 _atom_site_label
 _atom_site_symmetry_multiplicity
 _atom_site_fract_x
 _atom_site_fract_y
 _atom_site_fract_z
 _atom_site_occupancy
  V  V0  1  0.260295  0.500000  0.500000  1
  V  V1  1  0.739705  0.000000  0.000000  1
  V  V2  1  0.739705  0.500000  0.500000  1
  V  V3  1  0.260295  0.000000  0.000000  1
  Ga  Ga4  1  0.500000  0.146584  0.659611  1
  Ga  Ga5  1  0.500000  0.853416  0.340389  1
  Ga  Ga6  1  0.500000  0.646584  0.840389  1
  Ga  Ga7  1  0.500000  0.353416  0.159611  1
  Bi  Bi8  1  0.000000  0.314681  0.821932  1
  Bi  Bi9  1  0.000000  0.685319  0.178068  1
  Bi  Bi10  1  0.000000  0.814681  0.678068  1
  Bi  Bi11  1  0.000000  0.185319  0.321932  1
  O  O12  1  0.500000  0.500000  0.000000  1
  O  O13  1  0.500000  0.000000  0.500000  1
  O  O14  1  0.246464  0.874667  0.211515  1
  O  O15  1  0.246464  0.125333  0.788485  1
  O  O16  1  0.753536  0.374667  0.288485  1
  O  O17  1  0.753536  0.625333  0.711515  1
  O  O18  1  0.753536  0.125333  0.788485  1
  O  O19  1  0.753536  0.874667  0.211515  1
  O  O20  1  0.246464  0.625333  0.711515  1
  O  O21  1  0.246464  0.374667  0.288485  1
  O  O22  1  0.500000  0.363352  0.595214  1
  O  O23  1  0.500000  0.636648  0.404786  1
  O  O24  1  0.000000  0.151472  0.063469  1
  O  O25  1  0.000000  0.848528  0.936531  1
  O  O26  1  0.000000  0.651472  0.436531  1
  O  O27  1  0.000000  0.348528  0.563469  1
  O  O28  1  0.500000  0.136648  0.095214  1
  O  O29  1  0.500000  0.863352  0.904786  1
