# generated using pymatgen
data_Lu10GaSi4Sb
_symmetry_space_group_name_H-M   'P 1'
_cell_length_a   8.33990404
_cell_length_b   8.34935657
_cell_length_c   6.21584800
_cell_angle_alpha   90.00000000
_cell_angle_beta   90.00000000
_cell_angle_gamma   119.95117305
_symmetry_Int_Tables_number   1
_chemical_formula_structural   Lu10GaSi4Sb
_chemical_formula_sum   'Lu10 Ga1 Si4 Sb1'
_cell_volume   375.02355645
_cell_formula_units_Z   1
loop_
 _symmetry_equiv_pos_site_id
 _symmetry_equiv_pos_as_xyz
  1  'x, y, z'
loop_
 _atom_site_type_symbol
 _atom_site_label
 _atom_site_symmetry_multiplicity
 _atom_site_fract_x
 _atom_site_fract_y
 _atom_site_fract_z
 _atom_site_occupancy
  Lu  Lu0  1  0.674227  0.343660  0.004286  1
  Lu  Lu1  1  0.332213  0.656678  0.495786  1
  Lu  Lu2  1  0.332213  0.656678  0.004214  1
  Lu  Lu3  1  0.674227  0.343660  0.495714  1
  Lu  Lu4  1  0.766340  0.999413  0.750000  1
  Lu  Lu5  1  0.757435  0.757586  0.250000  1
  Lu  Lu6  1  0.999524  0.241132  0.250000  1
  Lu  Lu7  1  0.986780  0.750356  0.750000  1
  Lu  Lu8  1  0.239004  0.251673  0.750000  1
  Lu  Lu9  1  0.239871  0.999377  0.250000  1
  Ga  Ga10  1  0.998054  0.396789  0.750000  1
  Si  Si11  1  0.394415  0.391022  0.250000  1
  Si  Si12  1  0.002494  0.607927  0.250000  1
  Si  Si13  1  0.603707  0.605062  0.750000  1
  Si  Si14  1  0.606033  0.999211  0.250000  1
  Sb  Sb15  1  0.393462  0.999777  0.750000  1
