# generated using pymatgen
data_Er20(Ru3Au)3
_symmetry_space_group_name_H-M   'P 1'
_cell_length_a   10.85401043
_cell_length_b   10.85401004
_cell_length_c   6.37022609
_cell_angle_alpha   89.97965275
_cell_angle_beta   89.97965331
_cell_angle_gamma   90.30923399
_symmetry_Int_Tables_number   1
_chemical_formula_structural   Er20(Ru3Au)3
_chemical_formula_sum   'Er20 Ru9 Au3'
_cell_volume   750.46236869
_cell_formula_units_Z   1
loop_
 _symmetry_equiv_pos_site_id
 _symmetry_equiv_pos_as_xyz
  1  'x, y, z'
loop_
 _atom_site_type_symbol
 _atom_site_label
 _atom_site_symmetry_multiplicity
 _atom_site_fract_x
 _atom_site_fract_y
 _atom_site_fract_z
 _atom_site_occupancy
  Er  Er0  1  0.297651  0.082757  0.360627  1
  Er  Er1  1  0.296063  0.905837  0.876366  1
  Er  Er2  1  0.699020  0.090125  0.864488  1
  Er  Er3  1  0.695839  0.908202  0.364639  1
  Er  Er4  1  0.578136  0.789732  0.876037  1
  Er  Er5  1  0.578966  0.209660  0.375967  1
  Er  Er6  1  0.410630  0.790837  0.378041  1
  Er  Er7  1  0.419503  0.210199  0.876343  1
  Er  Er8  1  0.210268  0.421864  0.623963  1
  Er  Er9  1  0.209163  0.589370  0.121959  1
  Er  Er10  1  0.790340  0.421034  0.124033  1
  Er  Er11  1  0.789801  0.580497  0.623657  1
  Er  Er12  1  0.917243  0.702349  0.139373  1
  Er  Er13  1  0.909875  0.300980  0.635512  1
  Er  Er14  1  0.094163  0.703937  0.623634  1
  Er  Er15  1  0.091798  0.304161  0.135361  1
  Er  Er16  1  0.004419  0.993114  0.497572  1
  Er  Er17  1  0.006886  0.995581  0.002428  1
  Er  Er18  1  0.498986  0.499472  0.000751  1
  Er  Er19  1  0.500528  0.501014  0.499249  1
  Ru  Ru20  1  0.149644  0.850356  0.250000  1
  Ru  Ru21  1  0.653851  0.346149  0.750000  1
  Ru  Ru22  1  0.655341  0.653647  0.248334  1
  Ru  Ru23  1  0.346353  0.344659  0.251666  1
  Ru  Ru24  1  0.347971  0.652029  0.750000  1
  Ru  Ru25  1  0.500016  0.999716  0.118028  1
  Ru  Ru26  1  0.500108  0.999603  0.621019  1
  Ru  Ru27  1  0.000397  0.499892  0.878981  1
  Ru  Ru28  1  0.000284  0.499984  0.381972  1
  Au  Au29  1  0.846683  0.153317  0.250000  1
  Au  Au30  1  0.843413  0.843341  0.751635  1
  Au  Au31  1  0.156659  0.156587  0.748365  1
