# generated using pymatgen
data_YSnGeRh4
_symmetry_space_group_name_H-M   'P 1'
_cell_length_a   4.26380800
_cell_length_b   9.43608200
_cell_length_c   11.85113500
_cell_angle_alpha   90.00000000
_cell_angle_beta   90.00000000
_cell_angle_gamma   90.00000000
_symmetry_Int_Tables_number   1
_chemical_formula_structural   YSnGeRh4
_chemical_formula_sum   'Y4 Sn4 Ge4 Rh16'
_cell_volume   476.81432194
_cell_formula_units_Z   4
loop_
 _symmetry_equiv_pos_site_id
 _symmetry_equiv_pos_as_xyz
  1  'x, y, z'
loop_
 _atom_site_type_symbol
 _atom_site_label
 _atom_site_symmetry_multiplicity
 _atom_site_fract_x
 _atom_site_fract_y
 _atom_site_fract_z
 _atom_site_occupancy
  Y  Y0  1  0.250000  0.145486  0.823873  1
  Y  Y1  1  0.250000  0.354514  0.323873  1
  Y  Y2  1  0.750000  0.854514  0.176127  1
  Y  Y3  1  0.750000  0.645486  0.676127  1
  Sn  Sn4  1  0.250000  0.618776  0.060763  1
  Sn  Sn5  1  0.250000  0.881224  0.560763  1
  Sn  Sn6  1  0.750000  0.381224  0.939237  1
  Sn  Sn7  1  0.750000  0.118776  0.439237  1
  Ge  Ge8  1  0.250000  0.415817  0.637250  1
  Ge  Ge9  1  0.250000  0.084183  0.137250  1
  Ge  Ge10  1  0.750000  0.584183  0.362750  1
  Ge  Ge11  1  0.750000  0.915817  0.862750  1
  Rh  Rh12  1  0.250000  0.605814  0.495500  1
  Rh  Rh13  1  0.250000  0.894186  0.995500  1
  Rh  Rh14  1  0.750000  0.394186  0.504500  1
  Rh  Rh15  1  0.750000  0.105814  0.004500  1
  Rh  Rh16  1  0.250000  0.694777  0.278365  1
  Rh  Rh17  1  0.250000  0.805223  0.778365  1
  Rh  Rh18  1  0.750000  0.305223  0.721635  1
  Rh  Rh19  1  0.750000  0.194777  0.221635  1
  Rh  Rh20  1  0.250000  0.178033  0.568831  1
  Rh  Rh21  1  0.250000  0.321967  0.068831  1
  Rh  Rh22  1  0.750000  0.821967  0.431169  1
  Rh  Rh23  1  0.750000  0.678033  0.931169  1
  Rh  Rh24  1  0.250000  0.999473  0.334196  1
  Rh  Rh25  1  0.250000  0.500527  0.834196  1
  Rh  Rh26  1  0.750000  0.000527  0.665804  1
  Rh  Rh27  1  0.750000  0.499473  0.165804  1
