# generated using pymatgen
data_La3Nd2Pb3I
_symmetry_space_group_name_H-M   'P 1'
_cell_length_a   9.83740200
_cell_length_b   9.83740247
_cell_length_c   7.08424200
_cell_angle_alpha   90.00000000
_cell_angle_beta   90.00000000
_cell_angle_gamma   120.00000516
_symmetry_Int_Tables_number   1
_chemical_formula_structural   La3Nd2Pb3I
_chemical_formula_sum   'La6 Nd4 Pb6 I2'
_cell_volume   593.72434359
_cell_formula_units_Z   2
loop_
 _symmetry_equiv_pos_site_id
 _symmetry_equiv_pos_as_xyz
  1  'x, y, z'
loop_
 _atom_site_type_symbol
 _atom_site_label
 _atom_site_symmetry_multiplicity
 _atom_site_fract_x
 _atom_site_fract_y
 _atom_site_fract_z
 _atom_site_occupancy
  La  La0  1  0.723535  0.000000  0.750000  1
  La  La1  1  0.000000  0.276465  0.250000  1
  La  La2  1  0.723535  0.723535  0.250000  1
  La  La3  1  0.276465  0.000000  0.250000  1
  La  La4  1  0.276465  0.276465  0.750000  1
  La  La5  1  0.000000  0.723535  0.750000  1
  Nd  Nd6  1  0.333333  0.666667  0.500000  1
  Nd  Nd7  1  0.333333  0.666667  0.000000  1
  Nd  Nd8  1  0.666667  0.333333  0.500000  1
  Nd  Nd9  1  0.666667  0.333333  0.000000  1
  Pb  Pb10  1  0.384892  0.000000  0.750000  1
  Pb  Pb11  1  0.615108  0.000000  0.250000  1
  Pb  Pb12  1  0.000000  0.615108  0.250000  1
  Pb  Pb13  1  0.615108  0.615108  0.750000  1
  Pb  Pb14  1  0.000000  0.384892  0.750000  1
  Pb  Pb15  1  0.384892  0.384892  0.250000  1
  I  I16  1  0.000000  0.000000  0.500000  1
  I  I17  1  0.000000  0.000000  0.000000  1
