# generated using pymatgen
data_PrNd(GaCo)2
_symmetry_space_group_name_H-M   'P 1'
_cell_length_a   6.05979204
_cell_length_b   6.05979200
_cell_length_c   5.15087055
_cell_angle_alpha   78.29874969
_cell_angle_beta   78.29875101
_cell_angle_gamma   40.94269016
_symmetry_Int_Tables_number   1
_chemical_formula_structural   PrNd(GaCo)2
_chemical_formula_sum   'Pr1 Nd1 Ga2 Co2'
_cell_volume   121.00861690
_cell_formula_units_Z   1
loop_
 _symmetry_equiv_pos_site_id
 _symmetry_equiv_pos_as_xyz
  1  'x, y, z'
loop_
 _atom_site_type_symbol
 _atom_site_label
 _atom_site_symmetry_multiplicity
 _atom_site_fract_x
 _atom_site_fract_y
 _atom_site_fract_z
 _atom_site_occupancy
  Pr  Pr0  1  0.121600  0.121600  0.682020  1
  Nd  Nd1  1  0.878929  0.878929  0.316604  1
  Ga  Ga2  1  0.401871  0.401871  0.810608  1
  Ga  Ga3  1  0.597496  0.597496  0.189182  1
  Co  Co4  1  0.204966  0.204966  0.129726  1
  Co  Co5  1  0.795137  0.795137  0.871860  1
