# generated using pymatgen
data_YbSm3(Rh2O7)2
_symmetry_space_group_name_H-M   'P 1'
_cell_length_a   7.27426672
_cell_length_b   7.30597460
_cell_length_c   7.30597400
_cell_angle_alpha   59.99999365
_cell_angle_beta   59.85569695
_cell_angle_gamma   59.85569200
_symmetry_Int_Tables_number   1
_chemical_formula_structural   YbSm3(Rh2O7)2
_chemical_formula_sum   'Yb1 Sm3 Rh4 O14'
_cell_volume   273.95533205
_cell_formula_units_Z   1
loop_
 _symmetry_equiv_pos_site_id
 _symmetry_equiv_pos_as_xyz
  1  'x, y, z'
loop_
 _atom_site_type_symbol
 _atom_site_label
 _atom_site_symmetry_multiplicity
 _atom_site_fract_x
 _atom_site_fract_y
 _atom_site_fract_z
 _atom_site_occupancy
  Yb  Yb0  1  0.625000  0.125000  0.125000  1
  Sm  Sm1  1  0.125000  0.125000  0.125000  1
  Sm  Sm2  1  0.125000  0.625000  0.125000  1
  Sm  Sm3  1  0.125000  0.125000  0.625000  1
  Rh  Rh4  1  0.625000  0.625000  0.125000  1
  Rh  Rh5  1  0.625000  0.625000  0.625000  1
  Rh  Rh6  1  0.625000  0.125000  0.625000  1
  Rh  Rh7  1  0.125000  0.625000  0.625000  1
  O  O8  1  0.705798  0.295300  0.295300  1
  O  O9  1  0.705798  0.295300  0.703602  1
  O  O10  1  0.999082  0.000306  0.000306  1
  O  O11  1  0.291566  0.707805  0.292825  1
  O  O12  1  0.705798  0.703602  0.295300  1
  O  O13  1  0.958434  0.542195  0.542195  1
  O  O14  1  0.291566  0.707805  0.707805  1
  O  O15  1  0.250918  0.249694  0.249694  1
  O  O16  1  0.958434  0.542195  0.957175  1
  O  O17  1  0.544202  0.954700  0.546398  1
  O  O18  1  0.544202  0.546398  0.954700  1
  O  O19  1  0.958434  0.957175  0.542195  1
  O  O20  1  0.544202  0.954700  0.954700  1
  O  O21  1  0.291566  0.292825  0.707805  1
