# generated using pymatgen
data_DyTm3(Tc3Ge4)2
_symmetry_space_group_name_H-M   'P 1'
_cell_length_a   6.96984400
_cell_length_b   6.92160447
_cell_length_c   12.83946456
_cell_angle_alpha   90.09525536
_cell_angle_beta   90.00000000
_cell_angle_gamma   90.00000000
_symmetry_Int_Tables_number   1
_chemical_formula_structural   DyTm3(Tc3Ge4)2
_chemical_formula_sum   'Dy2 Tm6 Tc12 Ge16'
_cell_volume   619.40705629
_cell_formula_units_Z   2
loop_
 _symmetry_equiv_pos_site_id
 _symmetry_equiv_pos_as_xyz
  1  'x, y, z'
loop_
 _atom_site_type_symbol
 _atom_site_label
 _atom_site_symmetry_multiplicity
 _atom_site_fract_x
 _atom_site_fract_y
 _atom_site_fract_z
 _atom_site_occupancy
  Dy  Dy0  1  0.485648  0.334445  0.408277  1
  Dy  Dy1  1  0.985648  0.165555  0.091723  1
  Tm  Tm2  1  0.484090  0.333661  0.092540  1
  Tm  Tm3  1  0.984090  0.166339  0.407460  1
  Tm  Tm4  1  0.516207  0.667365  0.592644  1
  Tm  Tm5  1  0.016207  0.832635  0.907356  1
  Tm  Tm6  1  0.516512  0.665506  0.907095  1
  Tm  Tm7  1  0.016512  0.834494  0.592905  1
  Tc  Tc8  1  0.678038  0.987504  0.749685  1
  Tc  Tc9  1  0.178038  0.512496  0.750315  1
  Tc  Tc10  1  0.321679  0.011475  0.249950  1
  Tc  Tc11  1  0.821679  0.488525  0.250050  1
  Tc  Tc12  1  0.827789  0.354631  0.624028  1
  Tc  Tc13  1  0.327789  0.145369  0.875972  1
  Tc  Tc14  1  0.174372  0.644973  0.122642  1
  Tc  Tc15  1  0.674372  0.855027  0.377358  1
  Tc  Tc16  1  0.172846  0.646178  0.377129  1
  Tc  Tc17  1  0.672846  0.853822  0.122871  1
  Tc  Tc18  1  0.822866  0.356116  0.875813  1
  Tc  Tc19  1  0.322866  0.143884  0.624187  1
  Ge  Ge20  1  0.819822  0.643202  0.749696  1
  Ge  Ge21  1  0.319822  0.856798  0.750304  1
  Ge  Ge22  1  0.180192  0.358319  0.250381  1
  Ge  Ge23  1  0.680192  0.141681  0.249619  1
  Ge  Ge24  1  0.526948  0.351192  0.748523  1
  Ge  Ge25  1  0.026948  0.148808  0.751477  1
  Ge  Ge26  1  0.471809  0.649946  0.249933  1
  Ge  Ge27  1  0.971809  0.850054  0.250067  1
  Ge  Ge28  1  0.667855  0.052945  0.551121  1
  Ge  Ge29  1  0.167855  0.447055  0.948879  1
  Ge  Ge30  1  0.333608  0.946255  0.049876  1
  Ge  Ge31  1  0.833608  0.553745  0.450124  1
  Ge  Ge32  1  0.331901  0.946466  0.449721  1
  Ge  Ge33  1  0.831901  0.553534  0.050279  1
  Ge  Ge34  1  0.667820  0.052091  0.949077  1
  Ge  Ge35  1  0.167820  0.447909  0.550923  1
