# generated using pymatgen
data_Sc3Cd13Hg2
_symmetry_space_group_name_H-M   'P 1'
_cell_length_a   15.89989716
_cell_length_b   15.89989749
_cell_length_c   6.78393131
_cell_angle_alpha   95.61221160
_cell_angle_beta   95.61221239
_cell_angle_gamma   13.53924284
_symmetry_Int_Tables_number   1
_chemical_formula_structural   Sc3Cd13Hg2
_chemical_formula_sum   'Sc3 Cd13 Hg2'
_cell_volume   399.55461453
_cell_formula_units_Z   1
loop_
 _symmetry_equiv_pos_site_id
 _symmetry_equiv_pos_as_xyz
  1  'x, y, z'
loop_
 _atom_site_type_symbol
 _atom_site_label
 _atom_site_symmetry_multiplicity
 _atom_site_fract_x
 _atom_site_fract_y
 _atom_site_fract_z
 _atom_site_occupancy
  Sc  Sc0  1  0.000332  0.000332  0.995872  1
  Sc  Sc1  1  0.666094  0.666094  0.354375  1
  Sc  Sc2  1  0.886942  0.886942  0.437741  1
  Cd  Cd3  1  0.110485  0.110485  0.059692  1
  Cd  Cd4  1  0.222926  0.222926  0.128883  1
  Cd  Cd5  1  0.333264  0.333264  0.150139  1
  Cd  Cd6  1  0.443348  0.443348  0.217163  1
  Cd  Cd7  1  0.553637  0.553637  0.278089  1
  Cd  Cd8  1  0.777066  0.777066  0.384016  1
  Cd  Cd9  1  0.997304  0.997304  0.491112  1
  Cd  Cd10  1  0.223220  0.223220  0.627027  1
  Cd  Cd11  1  0.445411  0.445411  0.715921  1
  Cd  Cd12  1  0.556277  0.556277  0.773991  1
  Cd  Cd13  1  0.668026  0.668026  0.856755  1
  Cd  Cd14  1  0.778807  0.778807  0.886685  1
  Cd  Cd15  1  0.891221  0.891221  0.939773  1
  Hg  Hg16  1  0.110992  0.110992  0.554802  1
  Hg  Hg17  1  0.334646  0.334646  0.647964  1
