# generated using pymatgen
data_CeEr3Ga6Ir7
_symmetry_space_group_name_H-M   'P 1'
_cell_length_a   7.26672868
_cell_length_b   7.26198746
_cell_length_c   7.26672900
_cell_angle_alpha   109.45799501
_cell_angle_beta   109.48442717
_cell_angle_gamma   109.45801002
_symmetry_Int_Tables_number   1
_chemical_formula_structural   CeEr3Ga6Ir7
_chemical_formula_sum   'Ce1 Er3 Ga6 Ir7'
_cell_volume   295.24488195
_cell_formula_units_Z   1
loop_
 _symmetry_equiv_pos_site_id
 _symmetry_equiv_pos_as_xyz
  1  'x, y, z'
loop_
 _atom_site_type_symbol
 _atom_site_label
 _atom_site_symmetry_multiplicity
 _atom_site_fract_x
 _atom_site_fract_y
 _atom_site_fract_z
 _atom_site_occupancy
  Ce  Ce0  1  0.000000  0.500000  0.000000  1
  Er  Er1  1  0.000000  0.000000  0.500000  1
  Er  Er2  1  0.500000  0.000000  0.000000  1
  Er  Er3  1  0.500000  0.500000  0.500000  1
  Ga  Ga4  1  0.685778  0.688743  0.000000  1
  Ga  Ga5  1  0.314222  0.002964  0.314222  1
  Ga  Ga6  1  0.000000  0.311257  0.314222  1
  Ga  Ga7  1  0.314222  0.311257  0.000000  1
  Ga  Ga8  1  0.685778  0.997036  0.685778  1
  Ga  Ga9  1  0.000000  0.688743  0.685778  1
  Ir  Ir10  1  0.750863  0.250863  0.501726  1
  Ir  Ir11  1  0.750863  0.500000  0.249137  1
  Ir  Ir12  1  0.501726  0.250863  0.750863  1
  Ir  Ir13  1  0.249137  0.500000  0.750863  1
  Ir  Ir14  1  0.249137  0.749137  0.498274  1
  Ir  Ir15  1  0.498274  0.749137  0.249137  1
  Ir  Ir16  1  0.000000  0.000000  0.000000  1
