# generated using pymatgen
data_Y2GaSi4Ir2Rh
_symmetry_space_group_name_H-M   'P 1'
_cell_length_a   8.17930008
_cell_length_b   8.17930111
_cell_length_c   5.72418732
_cell_angle_alpha   71.66092139
_cell_angle_beta   71.66091564
_cell_angle_gamma   94.21898034
_symmetry_Int_Tables_number   1
_chemical_formula_structural   Y2GaSi4Ir2Rh
_chemical_formula_sum   'Y4 Ga2 Si8 Ir4 Rh2'
_cell_volume   338.65415551
_cell_formula_units_Z   2
loop_
 _symmetry_equiv_pos_site_id
 _symmetry_equiv_pos_as_xyz
  1  'x, y, z'
loop_
 _atom_site_type_symbol
 _atom_site_label
 _atom_site_symmetry_multiplicity
 _atom_site_fract_x
 _atom_site_fract_y
 _atom_site_fract_z
 _atom_site_occupancy
  Y  Y0  1  0.866391  0.597933  0.756481  1
  Y  Y1  1  0.133609  0.402067  0.243519  1
  Y  Y2  1  0.402067  0.133609  0.743519  1
  Y  Y3  1  0.597933  0.866391  0.256481  1
  Ga  Ga4  1  0.776098  0.223902  0.750000  1
  Ga  Ga5  1  0.223902  0.776098  0.250000  1
  Si  Si6  1  0.516768  0.483232  0.750000  1
  Si  Si7  1  0.483232  0.516768  0.250000  1
  Si  Si8  1  0.211494  0.788506  0.750000  1
  Si  Si9  1  0.788506  0.211494  0.250000  1
  Si  Si10  1  0.263795  0.062088  0.339278  1
  Si  Si11  1  0.736205  0.937912  0.660722  1
  Si  Si12  1  0.937912  0.736205  0.160722  1
  Si  Si13  1  0.062088  0.263795  0.839278  1
  Ir  Ir14  1  0.534012  0.260387  0.139335  1
  Ir  Ir15  1  0.739613  0.465988  0.360665  1
  Ir  Ir16  1  0.465988  0.739613  0.860665  1
  Ir  Ir17  1  0.260387  0.534012  0.639335  1
  Rh  Rh18  1  0.992515  0.007485  0.250000  1
  Rh  Rh19  1  0.007485  0.992515  0.750000  1
