# generated using pymatgen
data_CdAg3Ir2(RuO7)2
_symmetry_space_group_name_H-M   'P 1'
_cell_length_a   7.25652762
_cell_length_b   7.23971449
_cell_length_c   7.23971529
_cell_angle_alpha   59.63889054
_cell_angle_beta   59.78616589
_cell_angle_gamma   59.78617231
_symmetry_Int_Tables_number   1
_chemical_formula_structural   CdAg3Ir2(RuO7)2
_chemical_formula_sum   'Cd1 Ag3 Ir2 Ru2 O14'
_cell_volume   267.33384518
_cell_formula_units_Z   1
loop_
 _symmetry_equiv_pos_site_id
 _symmetry_equiv_pos_as_xyz
  1  'x, y, z'
loop_
 _atom_site_type_symbol
 _atom_site_label
 _atom_site_symmetry_multiplicity
 _atom_site_fract_x
 _atom_site_fract_y
 _atom_site_fract_z
 _atom_site_occupancy
  Cd  Cd0  1  0.125000  0.125000  0.125000  1
  Ag  Ag1  1  0.125000  0.625000  0.125000  1
  Ag  Ag2  1  0.125000  0.125000  0.625000  1
  Ag  Ag3  1  0.625000  0.125000  0.125000  1
  Ir  Ir4  1  0.625000  0.125000  0.625000  1
  Ir  Ir5  1  0.625000  0.625000  0.125000  1
  Ru  Ru6  1  0.125000  0.625000  0.625000  1
  Ru  Ru7  1  0.625000  0.625000  0.625000  1
  O  O8  1  0.695863  0.692034  0.305146  1
  O  O9  1  0.937729  0.562350  0.562350  1
  O  O10  1  0.543347  0.953289  0.953289  1
  O  O11  1  0.947310  0.946676  0.555053  1
  O  O12  1  0.947310  0.555053  0.946676  1
  O  O13  1  0.554137  0.944854  0.557966  1
  O  O14  1  0.302690  0.694947  0.303324  1
  O  O15  1  0.312271  0.687650  0.687650  1
  O  O16  1  0.706653  0.296711  0.296711  1
  O  O17  1  0.695863  0.305146  0.692034  1
  O  O18  1  0.554137  0.557966  0.944854  1
  O  O19  1  0.302690  0.303324  0.694947  1
  O  O20  1  0.253725  0.254653  0.254653  1
  O  O21  1  0.996275  0.995347  0.995347  1
