# generated using pymatgen
data_Ho16MgIn3IrRh3
_symmetry_space_group_name_H-M   'P 1'
_cell_length_a   9.61221855
_cell_length_b   9.62733934
_cell_length_c   9.61221943
_cell_angle_alpha   60.10330141
_cell_angle_beta   60.05197227
_cell_angle_gamma   60.10330406
_symmetry_Int_Tables_number   1
_chemical_formula_structural   Ho16MgIn3IrRh3
_chemical_formula_sum   'Ho16 Mg1 In3 Ir1 Rh3'
_cell_volume   630.21070031
_cell_formula_units_Z   1
loop_
 _symmetry_equiv_pos_site_id
 _symmetry_equiv_pos_as_xyz
  1  'x, y, z'
loop_
 _atom_site_type_symbol
 _atom_site_label
 _atom_site_symmetry_multiplicity
 _atom_site_fract_x
 _atom_site_fract_y
 _atom_site_fract_z
 _atom_site_occupancy
  Ho  Ho0  1  0.188508  0.188661  0.811926  1
  Ho  Ho1  1  0.600022  0.600300  0.202602  1
  Ho  Ho2  1  0.440412  0.058615  0.440412  1
  Ho  Ho3  1  0.439990  0.440515  0.059068  1
  Ho  Ho4  1  0.814460  0.186118  0.814460  1
  Ho  Ho5  1  0.189454  0.811984  0.189454  1
  Ho  Ho6  1  0.436785  0.061891  0.062399  1
  Ho  Ho7  1  0.186821  0.814551  0.812835  1
  Ho  Ho8  1  0.062389  0.436849  0.062389  1
  Ho  Ho9  1  0.812835  0.814551  0.186821  1
  Ho  Ho10  1  0.202602  0.600300  0.600022  1
  Ho  Ho11  1  0.059068  0.440515  0.439990  1
  Ho  Ho12  1  0.062399  0.061891  0.436785  1
  Ho  Ho13  1  0.811926  0.188661  0.188508  1
  Ho  Ho14  1  0.600374  0.201880  0.600374  1
  Ho  Ho15  1  0.597820  0.598669  0.597820  1
  Mg  Mg16  1  0.827196  0.827378  0.827196  1
  In  In17  1  0.832273  0.832226  0.502250  1
  In  In18  1  0.502250  0.832226  0.832273  1
  In  In19  1  0.832090  0.502494  0.832090  1
  Ir  Ir20  1  0.391448  0.824462  0.391448  1
  Rh  Rh21  1  0.392942  0.392666  0.392942  1
  Rh  Rh22  1  0.824327  0.391300  0.391610  1
  Rh  Rh23  1  0.391610  0.391300  0.824327  1
