# generated using pymatgen
data_Y6FeCo22
_symmetry_space_group_name_H-M   'P 1'
_cell_length_a   8.36086300
_cell_length_b   8.36086426
_cell_length_c   8.36086300
_cell_angle_alpha   119.99999897
_cell_angle_beta   90.00000000
_cell_angle_gamma   119.99999897
_symmetry_Int_Tables_number   1
_chemical_formula_structural   Y6FeCo22
_chemical_formula_sum   'Y6 Fe1 Co22'
_cell_volume   413.27430368
_cell_formula_units_Z   1
loop_
 _symmetry_equiv_pos_site_id
 _symmetry_equiv_pos_as_xyz
  1  'x, y, z'
loop_
 _atom_site_type_symbol
 _atom_site_label
 _atom_site_symmetry_multiplicity
 _atom_site_fract_x
 _atom_site_fract_y
 _atom_site_fract_z
 _atom_site_occupancy
  Y  Y0  1  0.713653  0.000000  0.286346  1
  Y  Y1  1  0.286347  0.000000  0.286347  1
  Y  Y2  1  0.286347  0.572693  0.286347  1
  Y  Y3  1  0.286346  0.000000  0.713653  1
  Y  Y4  1  0.713653  0.000000  0.713653  1
  Y  Y5  1  0.713653  0.427308  0.713653  1
  Fe  Fe6  1  0.000000  0.000000  0.000000  1
  Co  Co7  1  0.500001  0.000000  0.000000  1
  Co  Co8  1  0.000000  0.500001  0.000000  1
  Co  Co9  1  0.500001  0.500001  0.000000  1
  Co  Co10  1  0.677340  0.354681  0.032022  1
  Co  Co11  1  0.875885  0.751770  0.124115  1
  Co  Co12  1  0.372344  0.248229  0.124115  1
  Co  Co13  1  0.875885  0.248229  0.124115  1
  Co  Co14  1  0.677340  0.354681  0.322659  1
  Co  Co15  1  0.677340  0.645319  0.322659  1
  Co  Co16  1  0.967978  0.645319  0.322659  1
  Co  Co17  1  0.124115  0.248229  0.372344  1
  Co  Co18  1  0.000000  0.000000  0.500001  1
  Co  Co19  1  0.000000  0.500001  0.500001  1
  Co  Co20  1  0.500001  0.500001  0.500001  1
  Co  Co21  1  0.875885  0.751770  0.627655  1
  Co  Co22  1  0.032022  0.354681  0.677340  1
  Co  Co23  1  0.322659  0.354681  0.677340  1
  Co  Co24  1  0.322659  0.645319  0.677340  1
  Co  Co25  1  0.124115  0.248229  0.875885  1
  Co  Co26  1  0.124115  0.751770  0.875885  1
  Co  Co27  1  0.627655  0.751770  0.875885  1
  Co  Co28  1  0.322659  0.645319  0.967978  1
