# generated using pymatgen
data_V11CrB8
_symmetry_space_group_name_H-M   'P 1'
_cell_length_a   3.01175700
_cell_length_b   5.70569302
_cell_length_c   11.41447448
_cell_angle_alpha   90.04007500
_cell_angle_beta   90.00000000
_cell_angle_gamma   90.00000000
_symmetry_Int_Tables_number   1
_chemical_formula_structural   V11CrB8
_chemical_formula_sum   'V11 Cr1 B8'
_cell_volume   196.14811803
_cell_formula_units_Z   1
loop_
 _symmetry_equiv_pos_site_id
 _symmetry_equiv_pos_as_xyz
  1  'x, y, z'
loop_
 _atom_site_type_symbol
 _atom_site_label
 _atom_site_symmetry_multiplicity
 _atom_site_fract_x
 _atom_site_fract_y
 _atom_site_fract_z
 _atom_site_occupancy
  V  V0  1  0.500000  0.819546  0.411638  1
  V  V1  1  0.500000  0.820766  0.910158  1
  V  V2  1  0.500000  0.180454  0.588362  1
  V  V3  1  0.500000  0.179234  0.089842  1
  V  V4  1  0.500000  0.677038  0.658634  1
  V  V5  1  0.500000  0.679265  0.161455  1
  V  V6  1  0.500000  0.322962  0.341366  1
  V  V7  1  0.500000  0.320735  0.838545  1
  V  V8  1  0.000000  0.500000  0.000000  1
  V  V9  1  0.000000  0.999952  0.749470  1
  V  V10  1  0.000000  0.000048  0.250530  1
  Cr  Cr11  1  0.000000  0.500000  0.500000  1
  B  B12  1  0.000000  0.389216  0.692778  1
  B  B13  1  0.000000  0.389097  0.195499  1
  B  B14  1  0.000000  0.610784  0.307222  1
  B  B15  1  0.000000  0.610903  0.804501  1
  B  B16  1  0.000000  0.112539  0.444741  1
  B  B17  1  0.000000  0.110893  0.944392  1
  B  B18  1  0.000000  0.887461  0.555259  1
  B  B19  1  0.000000  0.889107  0.055608  1
