# generated using pymatgen
data_Nd2Ho4(Ir5Rh)3
_symmetry_space_group_name_H-M   'P 1'
_cell_length_a   5.33036500
_cell_length_b   5.33037231
_cell_length_c   17.45455700
_cell_angle_alpha   90.00000000
_cell_angle_beta   90.00000000
_cell_angle_gamma   119.99978134
_symmetry_Int_Tables_number   1
_chemical_formula_structural   Nd2Ho4(Ir5Rh)3
_chemical_formula_sum   'Nd2 Ho4 Ir15 Rh3'
_cell_volume   429.49183499
_cell_formula_units_Z   1
loop_
 _symmetry_equiv_pos_site_id
 _symmetry_equiv_pos_as_xyz
  1  'x, y, z'
loop_
 _atom_site_type_symbol
 _atom_site_label
 _atom_site_symmetry_multiplicity
 _atom_site_fract_x
 _atom_site_fract_y
 _atom_site_fract_z
 _atom_site_occupancy
  Nd  Nd0  1  0.333328  0.666667  0.750000  1
  Nd  Nd1  1  0.666675  0.333329  0.250000  1
  Ho  Ho2  1  0.333333  0.666669  0.540844  1
  Ho  Ho3  1  0.666667  0.333334  0.040827  1
  Ho  Ho4  1  0.666667  0.333334  0.459173  1
  Ho  Ho5  1  0.333333  0.666669  0.959156  1
  Ir  Ir6  1  0.167649  0.335292  0.125423  1
  Ir  Ir7  1  0.832309  0.664620  0.625025  1
  Ir  Ir8  1  0.664709  0.832353  0.125426  1
  Ir  Ir9  1  0.167649  0.832352  0.125422  1
  Ir  Ir10  1  0.832309  0.167689  0.625021  1
  Ir  Ir11  1  0.335377  0.167692  0.625025  1
  Ir  Ir12  1  0.832309  0.664620  0.874975  1
  Ir  Ir13  1  0.832309  0.167689  0.874979  1
  Ir  Ir14  1  0.335377  0.167692  0.874975  1
  Ir  Ir15  1  0.664709  0.832353  0.374574  1
  Ir  Ir16  1  0.167649  0.832352  0.374578  1
  Ir  Ir17  1  0.167649  0.335292  0.374577  1
  Ir  Ir18  1  0.000022  0.000002  0.250000  1
  Ir  Ir19  1  0.999997  0.000004  0.999980  1
  Ir  Ir20  1  0.999997  0.000004  0.500020  1
  Rh  Rh21  1  0.999989  0.000021  0.750000  1
  Rh  Rh22  1  0.333316  0.666658  0.250000  1
  Rh  Rh23  1  0.666673  0.333315  0.750000  1
