# generated using pymatgen
data_Ba6YErSc2O12
_symmetry_space_group_name_H-M   'P 1'
_cell_length_a   7.26116625
_cell_length_b   7.26116585
_cell_length_c   7.26116664
_cell_angle_alpha   93.13014127
_cell_angle_beta   93.13013969
_cell_angle_gamma   93.13014697
_symmetry_Int_Tables_number   1
_chemical_formula_structural   Ba6YErSc2O12
_chemical_formula_sum   'Ba6 Y1 Er1 Sc2 O12'
_cell_volume   381.06292721
_cell_formula_units_Z   1
loop_
 _symmetry_equiv_pos_site_id
 _symmetry_equiv_pos_as_xyz
  1  'x, y, z'
loop_
 _atom_site_type_symbol
 _atom_site_label
 _atom_site_symmetry_multiplicity
 _atom_site_fract_x
 _atom_site_fract_y
 _atom_site_fract_z
 _atom_site_occupancy
  Ba  Ba0  1  0.250000  0.888597  0.611403  1
  Ba  Ba1  1  0.888597  0.611403  0.250000  1
  Ba  Ba2  1  0.750000  0.110857  0.389143  1
  Ba  Ba3  1  0.389143  0.750000  0.110857  1
  Ba  Ba4  1  0.110857  0.389143  0.750000  1
  Ba  Ba5  1  0.611403  0.250000  0.888597  1
  Y  Y6  1  0.250000  0.250000  0.250000  1
  Er  Er7  1  0.750000  0.750000  0.750000  1
  Sc  Sc8  1  0.500750  0.500750  0.500750  1
  Sc  Sc9  1  0.999250  0.999250  0.999250  1
  O  O10  1  0.597267  0.782505  0.469262  1
  O  O11  1  0.469262  0.597267  0.782505  1
  O  O12  1  0.782505  0.469262  0.597267  1
  O  O13  1  0.902733  0.030738  0.717495  1
  O  O14  1  0.717495  0.902733  0.030738  1
  O  O15  1  0.030738  0.717495  0.902733  1
  O  O16  1  0.404713  0.218127  0.533519  1
  O  O17  1  0.533519  0.404713  0.218127  1
  O  O18  1  0.218127  0.533519  0.404713  1
  O  O19  1  0.095287  0.966481  0.281873  1
  O  O20  1  0.966481  0.281873  0.095287  1
  O  O21  1  0.281873  0.095287  0.966481  1
