# generated using pymatgen
data_Y3Co6Cu7C2
_symmetry_space_group_name_H-M   'P 1'
_cell_length_a   4.98517300
_cell_length_b   4.98711151
_cell_length_c   10.66879500
_cell_angle_alpha   89.99887410
_cell_angle_beta   90.00221819
_cell_angle_gamma   119.98713601
_symmetry_Int_Tables_number   1
_chemical_formula_structural   Y3Co6Cu7C2
_chemical_formula_sum   'Y3 Co6 Cu7 C2'
_cell_volume   229.73734426
_cell_formula_units_Z   1
loop_
 _symmetry_equiv_pos_site_id
 _symmetry_equiv_pos_as_xyz
  1  'x, y, z'
loop_
 _atom_site_type_symbol
 _atom_site_label
 _atom_site_symmetry_multiplicity
 _atom_site_fract_x
 _atom_site_fract_y
 _atom_site_fract_z
 _atom_site_occupancy
  Y  Y0  1  0.000049  0.999923  0.999834  1
  Y  Y1  1  0.000014  0.000075  0.305439  1
  Y  Y2  1  0.999905  0.999992  0.694552  1
  Co  Co3  1  0.500044  0.999932  0.122301  1
  Co  Co4  1  0.500043  0.499950  0.122259  1
  Co  Co5  1  0.000060  0.499954  0.122255  1
  Co  Co6  1  0.500025  0.999933  0.877688  1
  Co  Co7  1  0.500023  0.499928  0.877723  1
  Co  Co8  1  0.000016  0.499930  0.877733  1
  Cu  Cu9  1  0.499741  0.999978  0.500046  1
  Cu  Cu10  1  0.500076  0.500160  0.500073  1
  Cu  Cu11  1  0.999961  0.500144  0.500028  1
  Cu  Cu12  1  0.333310  0.666675  0.311642  1
  Cu  Cu13  1  0.666732  0.333507  0.311641  1
  Cu  Cu14  1  0.666681  0.333480  0.688419  1
  Cu  Cu15  1  0.333118  0.666605  0.688434  1
  C  C16  1  0.333457  0.666715  0.999962  1
  C  C17  1  0.666645  0.333120  0.999966  1
