# generated using pymatgen
data_Tb3ErFe4(Co4P3)4
_symmetry_space_group_name_H-M   'P 1'
_cell_length_a   3.65964400
_cell_length_b   10.27045348
_cell_length_c   11.77203755
_cell_angle_alpha   89.96488402
_cell_angle_beta   90.00000000
_cell_angle_gamma   90.00000000
_symmetry_Int_Tables_number   1
_chemical_formula_structural   Tb3ErFe4(Co4P3)4
_chemical_formula_sum   'Tb3 Er1 Fe4 Co16 P12'
_cell_volume   442.46611554
_cell_formula_units_Z   1
loop_
 _symmetry_equiv_pos_site_id
 _symmetry_equiv_pos_as_xyz
  1  'x, y, z'
loop_
 _atom_site_type_symbol
 _atom_site_label
 _atom_site_symmetry_multiplicity
 _atom_site_fract_x
 _atom_site_fract_y
 _atom_site_fract_z
 _atom_site_occupancy
  Tb  Tb0  1  0.250000  0.918890  0.203102  1
  Tb  Tb1  1  0.750000  0.419100  0.296869  1
  Tb  Tb2  1  0.750000  0.081093  0.796979  1
  Er  Er3  1  0.250000  0.580698  0.702951  1
  Fe  Fe4  1  0.250000  0.709495  0.987435  1
  Fe  Fe5  1  0.250000  0.790179  0.487927  1
  Fe  Fe6  1  0.750000  0.290946  0.012173  1
  Fe  Fe7  1  0.750000  0.209881  0.513095  1
  Co  Co8  1  0.250000  0.406270  0.488151  1
  Co  Co9  1  0.250000  0.094357  0.987748  1
  Co  Co10  1  0.750000  0.594316  0.513555  1
  Co  Co11  1  0.750000  0.905746  0.012167  1
  Co  Co12  1  0.250000  0.221996  0.176353  1
  Co  Co13  1  0.250000  0.278467  0.676453  1
  Co  Co14  1  0.750000  0.777488  0.823387  1
  Co  Co15  1  0.750000  0.721450  0.323848  1
  Co  Co16  1  0.250000  0.880759  0.698347  1
  Co  Co17  1  0.250000  0.618291  0.197815  1
  Co  Co18  1  0.750000  0.118475  0.302077  1
  Co  Co19  1  0.750000  0.382605  0.801032  1
  Co  Co20  1  0.250000  0.466957  0.932057  1
  Co  Co21  1  0.250000  0.033397  0.433364  1
  Co  Co22  1  0.750000  0.533664  0.066057  1
  Co  Co23  1  0.750000  0.965761  0.567275  1
  P  P24  1  0.250000  0.419537  0.112245  1
  P  P25  1  0.250000  0.080355  0.613067  1
  P  P26  1  0.750000  0.580441  0.885770  1
  P  P27  1  0.750000  0.919255  0.387388  1
  P  P28  1  0.250000  0.270104  0.868235  1
  P  P29  1  0.250000  0.230149  0.368591  1
  P  P30  1  0.750000  0.729869  0.131595  1
  P  P31  1  0.750000  0.768587  0.632353  1
  P  P32  1  0.250000  0.603039  0.392683  1
  P  P33  1  0.250000  0.896999  0.892718  1
  P  P34  1  0.750000  0.398116  0.607771  1
  P  P35  1  0.750000  0.103267  0.107366  1
