# generated using pymatgen
data_Ho14Tm2Ga6FeCo
_symmetry_space_group_name_H-M   'P 1'
_cell_length_a   9.94954100
_cell_length_b   9.93682830
_cell_length_c   6.91771345
_cell_angle_alpha   89.96473005
_cell_angle_beta   90.00001992
_cell_angle_gamma   120.04158964
_symmetry_Int_Tables_number   1
_chemical_formula_structural   Ho14Tm2Ga6FeCo
_chemical_formula_sum   'Ho14 Tm2 Ga6 Fe1 Co1'
_cell_volume   592.05460523
_cell_formula_units_Z   1
loop_
 _symmetry_equiv_pos_site_id
 _symmetry_equiv_pos_as_xyz
  1  'x, y, z'
loop_
 _atom_site_type_symbol
 _atom_site_label
 _atom_site_symmetry_multiplicity
 _atom_site_fract_x
 _atom_site_fract_y
 _atom_site_fract_z
 _atom_site_occupancy
  Ho  Ho0  1  0.172980  0.345955  0.510243  1
  Ho  Ho1  1  0.826894  0.173113  0.011658  1
  Ho  Ho2  1  0.346204  0.173109  0.011632  1
  Ho  Ho3  1  0.826758  0.653540  0.011467  1
  Ho  Ho4  1  0.333575  0.667107  0.829796  1
  Ho  Ho5  1  0.666688  0.333349  0.329726  1
  Ho  Ho6  1  0.463200  0.537819  0.208088  1
  Ho  Ho7  1  0.074616  0.537828  0.208086  1
  Ho  Ho8  1  0.462399  0.924824  0.208828  1
  Ho  Ho9  1  0.536191  0.464158  0.706855  1
  Ho  Ho10  1  0.927973  0.464159  0.706877  1
  Ho  Ho11  1  0.536028  0.072063  0.706744  1
  Ho  Ho12  1  0.999881  0.999774  0.232444  1
  Ho  Ho13  1  0.999894  0.999761  0.732186  1
  Tm  Tm14  1  0.173014  0.826928  0.510485  1
  Tm  Tm15  1  0.653924  0.826932  0.510490  1
  Ga  Ga16  1  0.163397  0.836666  0.957520  1
  Ga  Ga17  1  0.673289  0.836686  0.957544  1
  Ga  Ga18  1  0.163294  0.326631  0.958099  1
  Ga  Ga19  1  0.835561  0.162926  0.458260  1
  Ga  Ga20  1  0.327364  0.162919  0.458276  1
  Ga  Ga21  1  0.836640  0.673264  0.458521  1
  Fe  Fe22  1  0.333444  0.666887  0.446571  1
  Co  Co23  1  0.666793  0.333601  0.943651  1
