# generated using pymatgen
data_V(Sb4Pd)3
_symmetry_space_group_name_H-M   'P 1'
_cell_length_a   8.25952964
_cell_length_b   8.25952971
_cell_length_c   8.25952971
_cell_angle_alpha   109.50318759
_cell_angle_beta   109.50319013
_cell_angle_gamma   109.50318267
_symmetry_Int_Tables_number   1
_chemical_formula_structural   V(Sb4Pd)3
_chemical_formula_sum   'V1 Sb12 Pd3'
_cell_volume   433.24045508
_cell_formula_units_Z   1
loop_
 _symmetry_equiv_pos_site_id
 _symmetry_equiv_pos_as_xyz
  1  'x, y, z'
loop_
 _atom_site_type_symbol
 _atom_site_label
 _atom_site_symmetry_multiplicity
 _atom_site_fract_x
 _atom_site_fract_y
 _atom_site_fract_z
 _atom_site_occupancy
  V  V0  1  0.500000  0.500000  0.500000  1
  Sb  Sb1  1  0.843446  0.654781  0.503249  1
  Sb  Sb2  1  0.845788  0.345638  0.191690  1
  Sb  Sb3  1  0.154212  0.654362  0.808310  1
  Sb  Sb4  1  0.345219  0.496751  0.156554  1
  Sb  Sb5  1  0.156554  0.345219  0.496751  1
  Sb  Sb6  1  0.654362  0.808310  0.154212  1
  Sb  Sb7  1  0.191690  0.845788  0.345638  1
  Sb  Sb8  1  0.654781  0.503249  0.843446  1
  Sb  Sb9  1  0.808310  0.154212  0.654362  1
  Sb  Sb10  1  0.345638  0.191690  0.845788  1
  Sb  Sb11  1  0.503249  0.843446  0.654781  1
  Sb  Sb12  1  0.496751  0.156554  0.345219  1
  Pd  Pd13  1  0.000000  0.000000  0.500000  1
  Pd  Pd14  1  0.000000  0.500000  0.000000  1
  Pd  Pd15  1  0.500000  0.000000  0.000000  1
