# generated using pymatgen
data_Na2Sn2PdAu
_symmetry_space_group_name_H-M   'P 1'
_cell_length_a   4.53039900
_cell_length_b   7.55932206
_cell_length_c   8.19968882
_cell_angle_alpha   88.56034298
_cell_angle_beta   90.00000000
_cell_angle_gamma   90.00000000
_symmetry_Int_Tables_number   1
_chemical_formula_structural   Na2Sn2PdAu
_chemical_formula_sum   'Na4 Sn4 Pd2 Au2'
_cell_volume   280.72401139
_cell_formula_units_Z   2
loop_
 _symmetry_equiv_pos_site_id
 _symmetry_equiv_pos_as_xyz
  1  'x, y, z'
loop_
 _atom_site_type_symbol
 _atom_site_label
 _atom_site_symmetry_multiplicity
 _atom_site_fract_x
 _atom_site_fract_y
 _atom_site_fract_z
 _atom_site_occupancy
  Na  Na0  1  0.250000  0.017976  0.829622  1
  Na  Na1  1  0.250000  0.515507  0.673830  1
  Na  Na2  1  0.750000  0.484493  0.326170  1
  Na  Na3  1  0.750000  0.982024  0.170378  1
  Sn  Sn4  1  0.250000  0.650053  0.055328  1
  Sn  Sn5  1  0.250000  0.159719  0.430964  1
  Sn  Sn6  1  0.750000  0.840281  0.569036  1
  Sn  Sn7  1  0.750000  0.349947  0.944672  1
  Pd  Pd8  1  0.750000  0.706561  0.877196  1
  Pd  Pd9  1  0.250000  0.293439  0.122804  1
  Au  Au10  1  0.250000  0.788287  0.369057  1
  Au  Au11  1  0.750000  0.211713  0.630943  1
