# generated using pymatgen
data_Y3AlGaNi6
_symmetry_space_group_name_H-M   'P 1'
_cell_length_a   7.72419818
_cell_length_b   7.71926261
_cell_length_c   7.71926333
_cell_angle_alpha   109.55115756
_cell_angle_beta   109.41835403
_cell_angle_gamma   109.41835676
_symmetry_Int_Tables_number   1
_chemical_formula_structural   Y3AlGaNi6
_chemical_formula_sum   'Y6 Al2 Ga2 Ni12'
_cell_volume   354.42208569
_cell_formula_units_Z   2
loop_
 _symmetry_equiv_pos_site_id
 _symmetry_equiv_pos_as_xyz
  1  'x, y, z'
loop_
 _atom_site_type_symbol
 _atom_site_label
 _atom_site_symmetry_multiplicity
 _atom_site_fract_x
 _atom_site_fract_y
 _atom_site_fract_z
 _atom_site_occupancy
  Y  Y0  1  0.710004  0.707895  0.002109  1
  Y  Y1  1  0.289996  0.997891  0.292105  1
  Y  Y2  1  0.000000  0.292313  0.292313  1
  Y  Y3  1  0.289996  0.292105  0.997891  1
  Y  Y4  1  0.710004  0.002109  0.707895  1
  Y  Y5  1  0.000000  0.707687  0.707687  1
  Al  Al6  1  0.500000  0.000000  0.000000  1
  Al  Al7  1  0.500000  0.500000  0.500000  1
  Ga  Ga8  1  0.000000  0.000000  0.500000  1
  Ga  Ga9  1  0.000000  0.500000  0.000000  1
  Ni  Ni10  1  0.336804  0.336776  0.670064  1
  Ni  Ni11  1  0.663196  0.999971  0.333259  1
  Ni  Ni12  1  0.000000  0.663962  0.336038  1
  Ni  Ni13  1  0.663196  0.333259  0.999971  1
  Ni  Ni14  1  0.336804  0.670064  0.336776  1
  Ni  Ni15  1  0.000000  0.336038  0.663962  1
  Ni  Ni16  1  0.336804  0.666741  0.000029  1
  Ni  Ni17  1  0.336804  0.000029  0.666741  1
  Ni  Ni18  1  0.668567  0.334284  0.334284  1
  Ni  Ni19  1  0.663196  0.663224  0.329936  1
  Ni  Ni20  1  0.663196  0.329936  0.663224  1
  Ni  Ni21  1  0.331433  0.665716  0.665716  1
