# generated using pymatgen
data_Ho4Al13Ga4SiIr6
_symmetry_space_group_name_H-M   'P 1'
_cell_length_a   7.52814523
_cell_length_b   7.53308521
_cell_length_c   9.46449600
_cell_angle_alpha   90.00000000
_cell_angle_beta   90.00000000
_cell_angle_gamma   119.74409304
_symmetry_Int_Tables_number   1
_chemical_formula_structural   Ho4Al13Ga4SiIr6
_chemical_formula_sum   'Ho4 Al13 Ga4 Si1 Ir6'
_cell_volume   466.01847773
_cell_formula_units_Z   1
loop_
 _symmetry_equiv_pos_site_id
 _symmetry_equiv_pos_as_xyz
  1  'x, y, z'
loop_
 _atom_site_type_symbol
 _atom_site_label
 _atom_site_symmetry_multiplicity
 _atom_site_fract_x
 _atom_site_fract_y
 _atom_site_fract_z
 _atom_site_occupancy
  Ho  Ho0  1  0.999419  0.676295  0.250000  1
  Ho  Ho1  1  0.003492  0.332017  0.750000  1
  Ho  Ho2  1  0.672693  0.994614  0.250000  1
  Ho  Ho3  1  0.331858  0.001857  0.750000  1
  Al  Al4  1  0.000041  0.336178  0.077140  1
  Al  Al5  1  0.997009  0.666142  0.926603  1
  Al  Al6  1  0.997009  0.666142  0.573397  1
  Al  Al7  1  0.337153  0.001351  0.423183  1
  Al  Al8  1  0.000041  0.336178  0.422860  1
  Al  Al9  1  0.666555  0.997835  0.572977  1
  Al  Al10  1  0.666555  0.997835  0.927023  1
  Al  Al11  1  0.337153  0.001351  0.076817  1
  Al  Al12  1  0.332548  0.332450  0.555153  1
  Al  Al13  1  0.663591  0.663055  0.440473  1
  Al  Al14  1  0.663591  0.663055  0.059527  1
  Al  Al15  1  0.332548  0.332450  0.944847  1
  Al  Al16  1  0.549387  0.336569  0.250000  1
  Ga  Ga17  1  0.877202  0.877180  0.750000  1
  Ga  Ga18  1  0.337231  0.548930  0.250000  1
  Ga  Ga19  1  0.661123  0.452731  0.750000  1
  Ga  Ga20  1  0.453048  0.660745  0.750000  1
  Si  Si21  1  0.128687  0.129194  0.250000  1
  Ir  Ir22  1  0.669736  0.326792  0.002203  1
  Ir  Ir23  1  0.325939  0.670828  0.999743  1
  Ir  Ir24  1  0.325939  0.670828  0.500257  1
  Ir  Ir25  1  0.669736  0.326792  0.497797  1
  Ir  Ir26  1  0.000358  0.000301  0.010536  1
  Ir  Ir27  1  0.000358  0.000301  0.489464  1
