# generated using pymatgen
data_Mn2Zn2P7N12
_symmetry_space_group_name_H-M   'P 1'
_cell_length_a   7.19397037
_cell_length_b   7.15543379
_cell_length_c   7.19397053
_cell_angle_alpha   109.84862241
_cell_angle_beta   108.93922464
_cell_angle_gamma   109.84862717
_symmetry_Int_Tables_number   1
_chemical_formula_structural   Mn2Zn2P7N12
_chemical_formula_sum   'Mn2 Zn2 P7 N12'
_cell_volume   284.26547689
_cell_formula_units_Z   1
loop_
 _symmetry_equiv_pos_site_id
 _symmetry_equiv_pos_as_xyz
  1  'x, y, z'
loop_
 _atom_site_type_symbol
 _atom_site_label
 _atom_site_symmetry_multiplicity
 _atom_site_fract_x
 _atom_site_fract_y
 _atom_site_fract_z
 _atom_site_occupancy
  Mn  Mn0  1  0.993080  0.325798  0.993080  1
  Mn  Mn1  1  0.667282  0.674202  0.667282  1
  Zn  Zn2  1  0.327329  0.000000  0.001596  1
  Zn  Zn3  1  0.001596  0.000000  0.327329  1
  P  P4  1  0.750968  0.250008  0.498936  1
  P  P5  1  0.248928  0.749992  0.500960  1
  P  P6  1  0.500960  0.749992  0.248928  1
  P  P7  1  0.498936  0.250008  0.750968  1
  P  P8  1  0.750052  0.500000  0.250052  1
  P  P9  1  0.250052  0.500000  0.750052  1
  P  P10  1  0.004209  0.000000  0.004209  1
  N  N11  1  0.556007  0.270829  0.999960  1
  N  N12  1  0.448414  0.448834  0.721339  1
  N  N13  1  0.999960  0.270829  0.556007  1
  N  N14  1  0.270488  0.000000  0.555299  1
  N  N15  1  0.721339  0.448834  0.448414  1
  N  N16  1  0.999579  0.551166  0.272505  1
  N  N17  1  0.555299  0.000000  0.270488  1
  N  N18  1  0.442714  0.716723  0.442714  1
  N  N19  1  0.272505  0.551166  0.999579  1
  N  N20  1  0.725991  0.283277  0.725991  1
  N  N21  1  0.729131  0.729171  0.285178  1
  N  N22  1  0.285178  0.729171  0.729131  1
