# generated using pymatgen
data_Ti6SnBiP
_symmetry_space_group_name_H-M   'P 1'
_cell_length_a   7.29047800
_cell_length_b   7.29047737
_cell_length_c   3.52669300
_cell_angle_alpha   90.00000000
_cell_angle_beta   90.00000000
_cell_angle_gamma   119.99999380
_symmetry_Int_Tables_number   1
_chemical_formula_structural   Ti6SnBiP
_chemical_formula_sum   'Ti6 Sn1 Bi1 P1'
_cell_volume   162.33429694
_cell_formula_units_Z   1
loop_
 _symmetry_equiv_pos_site_id
 _symmetry_equiv_pos_as_xyz
  1  'x, y, z'
loop_
 _atom_site_type_symbol
 _atom_site_label
 _atom_site_symmetry_multiplicity
 _atom_site_fract_x
 _atom_site_fract_y
 _atom_site_fract_z
 _atom_site_occupancy
  Ti  Ti0  1  0.003592  0.237701  0.500000  1
  Ti  Ti1  1  0.234109  0.996408  0.500000  1
  Ti  Ti2  1  0.762299  0.765891  0.500000  1
  Ti  Ti3  1  0.635795  0.994827  0.000000  1
  Ti  Ti4  1  0.359032  0.364205  0.000000  1
  Ti  Ti5  1  0.005173  0.640968  0.000000  1
  Sn  Sn6  1  0.333333  0.666667  0.500000  1
  Bi  Bi7  1  0.666667  0.333333  0.500000  1
  P  P8  1  0.000000  0.000000  0.000000  1
