# generated using pymatgen
data_Y4Tm8TcRu3
_symmetry_space_group_name_H-M   'P 1'
_cell_length_a   6.26269002
_cell_length_b   7.33817222
_cell_length_c   9.00219100
_cell_angle_alpha   90.00000000
_cell_angle_beta   90.00000000
_cell_angle_gamma   89.99028022
_symmetry_Int_Tables_number   1
_chemical_formula_structural   Y4Tm8TcRu3
_chemical_formula_sum   'Y4 Tm8 Tc1 Ru3'
_cell_volume   413.71096603
_cell_formula_units_Z   1
loop_
 _symmetry_equiv_pos_site_id
 _symmetry_equiv_pos_as_xyz
  1  'x, y, z'
loop_
 _atom_site_type_symbol
 _atom_site_label
 _atom_site_symmetry_multiplicity
 _atom_site_fract_x
 _atom_site_fract_y
 _atom_site_fract_z
 _atom_site_occupancy
  Y  Y0  1  0.627781  0.039553  0.250000  1
  Y  Y1  1  0.369673  0.958531  0.750000  1
  Y  Y2  1  0.130129  0.458506  0.750000  1
  Y  Y3  1  0.876077  0.540656  0.250000  1
  Tm  Tm4  1  0.164278  0.175617  0.064340  1
  Tm  Tm5  1  0.834618  0.824113  0.935915  1
  Tm  Tm6  1  0.662609  0.325527  0.937148  1
  Tm  Tm7  1  0.834618  0.824113  0.564085  1
  Tm  Tm8  1  0.334911  0.675818  0.063951  1
  Tm  Tm9  1  0.164278  0.175617  0.435660  1
  Tm  Tm10  1  0.334911  0.675818  0.436049  1
  Tm  Tm11  1  0.662609  0.325527  0.562852  1
  Tc  Tc12  1  0.457338  0.385099  0.250000  1
  Ru  Ru13  1  0.546553  0.616174  0.750000  1
  Ru  Ru14  1  0.954380  0.114237  0.750000  1
  Ru  Ru15  1  0.045237  0.885093  0.250000  1
