# generated using pymatgen
data_Na2PtPb4Au
_symmetry_space_group_name_H-M   'P 1'
_cell_length_a   6.04264490
_cell_length_b   6.04264584
_cell_length_c   8.45622600
_cell_angle_alpha   90.00000000
_cell_angle_beta   90.00000000
_cell_angle_gamma   135.78985017
_symmetry_Int_Tables_number   1
_chemical_formula_structural   Na2PtPb4Au
_chemical_formula_sum   'Na2 Pt1 Pb4 Au1'
_cell_volume   215.30074616
_cell_formula_units_Z   1
loop_
 _symmetry_equiv_pos_site_id
 _symmetry_equiv_pos_as_xyz
  1  'x, y, z'
loop_
 _atom_site_type_symbol
 _atom_site_label
 _atom_site_symmetry_multiplicity
 _atom_site_fract_x
 _atom_site_fract_y
 _atom_site_fract_z
 _atom_site_occupancy
  Na  Na0  1  0.432734  0.567266  0.250000  1
  Na  Na1  1  0.568346  0.431654  0.750000  1
  Pt  Pt2  1  0.715591  0.284409  0.250000  1
  Pb  Pb3  1  0.855109  0.144891  0.958287  1
  Pb  Pb4  1  0.144316  0.855684  0.057887  1
  Pb  Pb5  1  0.144316  0.855684  0.442113  1
  Pb  Pb6  1  0.855109  0.144891  0.541713  1
  Au  Au7  1  0.284478  0.715522  0.750000  1
