# generated using pymatgen
data_Nd2DyY(B6Os)2
_symmetry_space_group_name_H-M   'P 1'
_cell_length_a   3.70572600
_cell_length_b   9.24891800
_cell_length_c   11.66819200
_cell_angle_alpha   90.00211997
_cell_angle_beta   90.00000000
_cell_angle_gamma   90.00000000
_symmetry_Int_Tables_number   1
_chemical_formula_structural   Nd2DyY(B6Os)2
_chemical_formula_sum   'Nd4 Dy2 Y2 B24 Os4'
_cell_volume   399.91509796
_cell_formula_units_Z   2
loop_
 _symmetry_equiv_pos_site_id
 _symmetry_equiv_pos_as_xyz
  1  'x, y, z'
loop_
 _atom_site_type_symbol
 _atom_site_label
 _atom_site_symmetry_multiplicity
 _atom_site_fract_x
 _atom_site_fract_y
 _atom_site_fract_z
 _atom_site_occupancy
  Nd  Nd0  1  0.000000  0.322866  0.414001  1
  Nd  Nd1  1  0.000000  0.677134  0.585999  1
  Nd  Nd2  1  0.000000  0.822786  0.085947  1
  Nd  Nd3  1  0.000000  0.177214  0.914053  1
  Dy  Dy4  1  0.000000  0.444280  0.127700  1
  Dy  Dy5  1  0.000000  0.555720  0.872300  1
  Y  Y6  1  0.000000  0.944344  0.372480  1
  Y  Y7  1  0.000000  0.055656  0.627520  1
  B  B8  1  0.500000  0.556107  0.430483  1
  B  B9  1  0.500000  0.443893  0.569517  1
  B  B10  1  0.500000  0.056095  0.069506  1
  B  B11  1  0.500000  0.943905  0.930494  1
  B  B12  1  0.500000  0.748830  0.417639  1
  B  B13  1  0.500000  0.251170  0.582361  1
  B  B14  1  0.500000  0.248980  0.082379  1
  B  B15  1  0.500000  0.751020  0.917621  1
  B  B16  1  0.500000  0.790221  0.267134  1
  B  B17  1  0.500000  0.209779  0.732866  1
  B  B18  1  0.500000  0.290294  0.232770  1
  B  B19  1  0.500000  0.709706  0.767230  1
  B  B20  1  0.500000  0.631164  0.185691  1
  B  B21  1  0.500000  0.368836  0.814309  1
  B  B22  1  0.500000  0.131310  0.314224  1
  B  B23  1  0.500000  0.868690  0.685776  1
  B  B24  1  0.500000  0.986005  0.213839  1
  B  B25  1  0.500000  0.013995  0.786161  1
  B  B26  1  0.500000  0.485993  0.286035  1
  B  B27  1  0.500000  0.514007  0.713965  1
  B  B28  1  0.500000  0.604198  0.028617  1
  B  B29  1  0.500000  0.395802  0.971383  1
  B  B30  1  0.500000  0.104411  0.471336  1
  B  B31  1  0.500000  0.895588  0.528664  1
  Os  Os32  1  0.000000  0.638896  0.319873  1
  Os  Os33  1  0.000000  0.361104  0.680127  1
  Os  Os34  1  0.000000  0.139116  0.180020  1
  Os  Os35  1  0.000000  0.860884  0.819980  1
