# generated using pymatgen
data_Ba3CaZrSe6
_symmetry_space_group_name_H-M   'P 1'
_cell_length_a   8.82113342
_cell_length_b   8.82113319
_cell_length_c   8.82113370
_cell_angle_alpha   91.99785778
_cell_angle_beta   91.99786647
_cell_angle_gamma   91.99786143
_symmetry_Int_Tables_number   1
_chemical_formula_structural   Ba3CaZrSe6
_chemical_formula_sum   'Ba6 Ca2 Zr2 Se12'
_cell_volume   685.11190471
_cell_formula_units_Z   2
loop_
 _symmetry_equiv_pos_site_id
 _symmetry_equiv_pos_as_xyz
  1  'x, y, z'
loop_
 _atom_site_type_symbol
 _atom_site_label
 _atom_site_symmetry_multiplicity
 _atom_site_fract_x
 _atom_site_fract_y
 _atom_site_fract_z
 _atom_site_occupancy
  Ba  Ba0  1  0.874006  0.625994  0.250000  1
  Ba  Ba1  1  0.250000  0.874006  0.625994  1
  Ba  Ba2  1  0.625994  0.250000  0.874006  1
  Ba  Ba3  1  0.750000  0.125994  0.374006  1
  Ba  Ba4  1  0.374006  0.750000  0.125994  1
  Ba  Ba5  1  0.125994  0.374006  0.750000  1
  Ca  Ca6  1  0.250000  0.250000  0.250000  1
  Ca  Ca7  1  0.750000  0.750000  0.750000  1
  Zr  Zr8  1  0.500000  0.500000  0.500000  1
  Zr  Zr9  1  0.000000  0.000000  0.000000  1
  Se  Se10  1  0.205277  0.546781  0.415815  1
  Se  Se11  1  0.415815  0.205277  0.546781  1
  Se  Se12  1  0.546781  0.415815  0.205277  1
  Se  Se13  1  0.915815  0.046781  0.705277  1
  Se  Se14  1  0.705277  0.915815  0.046781  1
  Se  Se15  1  0.046781  0.705277  0.915815  1
  Se  Se16  1  0.794723  0.453219  0.584185  1
  Se  Se17  1  0.584185  0.794723  0.453219  1
  Se  Se18  1  0.453219  0.584185  0.794723  1
  Se  Se19  1  0.084185  0.953219  0.294723  1
  Se  Se20  1  0.294723  0.084185  0.953219  1
  Se  Se21  1  0.953219  0.294723  0.084185  1
