# generated using pymatgen
data_Cs4Bi3AsPt2
_symmetry_space_group_name_H-M   'P 1'
_cell_length_a   8.28021670
_cell_length_b   8.55683182
_cell_length_c   7.20271600
_cell_angle_alpha   90.00000000
_cell_angle_beta   90.00000000
_cell_angle_gamma   123.39697294
_symmetry_Int_Tables_number   1
_chemical_formula_structural   Cs4Bi3AsPt2
_chemical_formula_sum   'Cs4 Bi3 As1 Pt2'
_cell_volume   426.06264435
_cell_formula_units_Z   1
loop_
 _symmetry_equiv_pos_site_id
 _symmetry_equiv_pos_as_xyz
  1  'x, y, z'
loop_
 _atom_site_type_symbol
 _atom_site_label
 _atom_site_symmetry_multiplicity
 _atom_site_fract_x
 _atom_site_fract_y
 _atom_site_fract_z
 _atom_site_occupancy
  Cs  Cs0  1  0.808295  0.196736  0.250000  1
  Cs  Cs1  1  0.235788  0.836975  0.750000  1
  Cs  Cs2  1  0.423657  0.640909  0.250000  1
  Cs  Cs3  1  0.642154  0.443486  0.750000  1
  Bi  Bi4  1  0.927686  0.704995  0.250000  1
  Bi  Bi5  1  0.074365  0.258143  0.750000  1
  Bi  Bi6  1  0.265884  0.106969  0.250000  1
  As  As7  1  0.722925  0.909099  0.750000  1
  Pt  Pt8  1  0.949623  0.951345  0.993403  1
  Pt  Pt9  1  0.949623  0.951345  0.506597  1
