# generated using pymatgen
data_Mg2Ni3P7Ru9
_symmetry_space_group_name_H-M   'P 1'
_cell_length_a   9.36908900
_cell_length_b   9.36908868
_cell_length_c   3.72366400
_cell_angle_alpha   90.00000000
_cell_angle_beta   90.00000000
_cell_angle_gamma   119.99999761
_symmetry_Int_Tables_number   1
_chemical_formula_structural   Mg2Ni3P7Ru9
_chemical_formula_sum   'Mg2 Ni3 P7 Ru9'
_cell_volume   283.07130183
_cell_formula_units_Z   1
loop_
 _symmetry_equiv_pos_site_id
 _symmetry_equiv_pos_as_xyz
  1  'x, y, z'
loop_
 _atom_site_type_symbol
 _atom_site_label
 _atom_site_symmetry_multiplicity
 _atom_site_fract_x
 _atom_site_fract_y
 _atom_site_fract_z
 _atom_site_occupancy
  Mg  Mg0  1  0.666667  0.333333  0.500000  1
  Mg  Mg1  1  0.333333  0.666667  0.000000  1
  Ni  Ni2  1  0.726835  0.885791  0.000000  1
  Ni  Ni3  1  0.114209  0.841043  0.000000  1
  Ni  Ni4  1  0.158957  0.273165  0.000000  1
  P  P5  1  0.595485  0.710962  0.500000  1
  P  P6  1  0.000000  0.000000  0.000000  1
  P  P7  1  0.289038  0.884522  0.500000  1
  P  P8  1  0.115478  0.404515  0.500000  1
  P  P9  1  0.887841  0.589426  0.000000  1
  P  P10  1  0.410574  0.298416  0.000000  1
  P  P11  1  0.701584  0.112159  0.000000  1
  Ru  Ru12  1  0.560845  0.942511  0.500000  1
  Ru  Ru13  1  0.381668  0.439155  0.500000  1
  Ru  Ru14  1  0.916233  0.120489  0.500000  1
  Ru  Ru15  1  0.204256  0.083767  0.500000  1
  Ru  Ru16  1  0.879511  0.795744  0.500000  1
  Ru  Ru17  1  0.432900  0.067531  0.000000  1
  Ru  Ru18  1  0.932469  0.365371  0.000000  1
  Ru  Ru19  1  0.634629  0.567100  0.000000  1
  Ru  Ru20  1  0.057489  0.618332  0.500000  1
