# generated using pymatgen
data_CsRb2SbTe3
_symmetry_space_group_name_H-M   'P 1'
_cell_length_a   11.14734200
_cell_length_b   11.14734200
_cell_length_c   11.14734200
_cell_angle_alpha   90.00000000
_cell_angle_beta   90.00000000
_cell_angle_gamma   90.00000000
_symmetry_Int_Tables_number   1
_chemical_formula_structural   CsRb2SbTe3
_chemical_formula_sum   'Cs4 Rb8 Sb4 Te12'
_cell_volume   1385.20476369
_cell_formula_units_Z   4
loop_
 _symmetry_equiv_pos_site_id
 _symmetry_equiv_pos_as_xyz
  1  'x, y, z'
loop_
 _atom_site_type_symbol
 _atom_site_label
 _atom_site_symmetry_multiplicity
 _atom_site_fract_x
 _atom_site_fract_y
 _atom_site_fract_z
 _atom_site_occupancy
  Cs  Cs0  1  0.927370  0.427370  0.072630  1
  Cs  Cs1  1  0.427370  0.072630  0.927370  1
  Cs  Cs2  1  0.072630  0.927370  0.427370  1
  Cs  Cs3  1  0.572630  0.572630  0.572630  1
  Rb  Rb4  1  0.183270  0.683270  0.816730  1
  Rb  Rb5  1  0.683270  0.816730  0.183270  1
  Rb  Rb6  1  0.816730  0.183270  0.683270  1
  Rb  Rb7  1  0.316730  0.316730  0.316730  1
  Rb  Rb8  1  0.688310  0.188310  0.311690  1
  Rb  Rb9  1  0.188310  0.311690  0.688310  1
  Rb  Rb10  1  0.311690  0.688310  0.188310  1
  Rb  Rb11  1  0.811690  0.811690  0.811690  1
  Sb  Sb12  1  0.476467  0.976467  0.523533  1
  Sb  Sb13  1  0.976467  0.523533  0.476467  1
  Sb  Sb14  1  0.523533  0.476467  0.976467  1
  Sb  Sb15  1  0.023533  0.023533  0.023533  1
  Te  Te16  1  0.003945  0.782054  0.096206  1
  Te  Te17  1  0.903794  0.503945  0.717946  1
  Te  Te18  1  0.282054  0.403794  0.996055  1
  Te  Te19  1  0.503945  0.717946  0.903794  1
  Te  Te20  1  0.403794  0.996055  0.282054  1
  Te  Te21  1  0.782054  0.096206  0.003945  1
  Te  Te22  1  0.996055  0.282054  0.403794  1
  Te  Te23  1  0.096206  0.003945  0.782054  1
  Te  Te24  1  0.717946  0.903794  0.503945  1
  Te  Te25  1  0.496055  0.217946  0.596206  1
  Te  Te26  1  0.596206  0.496055  0.217946  1
  Te  Te27  1  0.217946  0.596206  0.496055  1
