# generated using pymatgen
data_Dy4Ga6IrPt6
_symmetry_space_group_name_H-M   'P 1'
_cell_length_a   7.36601027
_cell_length_b   7.36601075
_cell_length_c   7.36601000
_cell_angle_alpha   109.47122133
_cell_angle_beta   109.47122263
_cell_angle_gamma   109.47121344
_symmetry_Int_Tables_number   1
_chemical_formula_structural   Dy4Ga6IrPt6
_chemical_formula_sum   'Dy4 Ga6 Ir1 Pt6'
_cell_volume   307.66288344
_cell_formula_units_Z   1
loop_
 _symmetry_equiv_pos_site_id
 _symmetry_equiv_pos_as_xyz
  1  'x, y, z'
loop_
 _atom_site_type_symbol
 _atom_site_label
 _atom_site_symmetry_multiplicity
 _atom_site_fract_x
 _atom_site_fract_y
 _atom_site_fract_z
 _atom_site_occupancy
  Dy  Dy0  1  0.000000  0.000000  0.500000  1
  Dy  Dy1  1  0.000000  0.500000  0.000000  1
  Dy  Dy2  1  0.500000  0.000000  0.000000  1
  Dy  Dy3  1  0.500000  0.500000  0.500000  1
  Ga  Ga4  1  0.685804  0.685804  0.000000  1
  Ga  Ga5  1  0.314196  0.000000  0.314196  1
  Ga  Ga6  1  0.000000  0.314196  0.314196  1
  Ga  Ga7  1  0.314196  0.314196  0.000000  1
  Ga  Ga8  1  0.685804  0.000000  0.685804  1
  Ga  Ga9  1  0.000000  0.685804  0.685804  1
  Ir  Ir10  1  0.000000  0.000000  0.000000  1
  Pt  Pt11  1  0.750000  0.250000  0.500000  1
  Pt  Pt12  1  0.750000  0.500000  0.250000  1
  Pt  Pt13  1  0.500000  0.250000  0.750000  1
  Pt  Pt14  1  0.250000  0.500000  0.750000  1
  Pt  Pt15  1  0.250000  0.750000  0.500000  1
  Pt  Pt16  1  0.500000  0.750000  0.250000  1
