# generated using pymatgen
data_TaNb2Co2Re(NiB2)2
_symmetry_space_group_name_H-M   'P 1'
_cell_length_a   3.30111000
_cell_length_b   5.80162658
_cell_length_c   6.74997400
_cell_angle_alpha   89.24059687
_cell_angle_beta   90.00000000
_cell_angle_gamma   90.00000000
_symmetry_Int_Tables_number   1
_chemical_formula_structural   TaNb2Co2Re(NiB2)2
_chemical_formula_sum   'Ta1 Nb2 Co2 Re1 Ni2 B4'
_cell_volume   129.26284814
_cell_formula_units_Z   1
loop_
 _symmetry_equiv_pos_site_id
 _symmetry_equiv_pos_as_xyz
  1  'x, y, z'
loop_
 _atom_site_type_symbol
 _atom_site_label
 _atom_site_symmetry_multiplicity
 _atom_site_fract_x
 _atom_site_fract_y
 _atom_site_fract_z
 _atom_site_occupancy
  Ta  Ta0  1  0.250000  0.026788  0.829132  1
  Nb  Nb1  1  0.250000  0.527520  0.679450  1
  Nb  Nb2  1  0.750000  0.472929  0.317683  1
  Co  Co3  1  0.750000  0.353812  0.943050  1
  Co  Co4  1  0.250000  0.641782  0.057431  1
  Re  Re5  1  0.750000  0.969929  0.172296  1
  Ni  Ni6  1  0.750000  0.861507  0.556967  1
  Ni  Ni7  1  0.250000  0.144263  0.442602  1
  B  B8  1  0.250000  0.265115  0.121745  1
  B  B9  1  0.750000  0.725736  0.891747  1
  B  B10  1  0.250000  0.776054  0.361044  1
  B  B11  1  0.750000  0.234567  0.626853  1
