# generated using pymatgen
data_ErZr2PdF15
_symmetry_space_group_name_H-M   'P 1'
_cell_length_a   8.11904960
_cell_length_b   8.11904907
_cell_length_c   8.13332170
_cell_angle_alpha   79.50595380
_cell_angle_beta   79.50596096
_cell_angle_gamma   99.47936487
_symmetry_Int_Tables_number   1
_chemical_formula_structural   ErZr2PdF15
_chemical_formula_sum   'Er2 Zr4 Pd2 F30'
_cell_volume   507.38371322
_cell_formula_units_Z   2
loop_
 _symmetry_equiv_pos_site_id
 _symmetry_equiv_pos_as_xyz
  1  'x, y, z'
loop_
 _atom_site_type_symbol
 _atom_site_label
 _atom_site_symmetry_multiplicity
 _atom_site_fract_x
 _atom_site_fract_y
 _atom_site_fract_z
 _atom_site_occupancy
  Er  Er0  1  0.178289  0.821711  0.250000  1
  Er  Er1  1  0.821711  0.178289  0.750000  1
  Zr  Zr2  1  0.745118  0.679179  0.671079  1
  Zr  Zr3  1  0.320821  0.254882  0.828921  1
  Zr  Zr4  1  0.254882  0.320821  0.328921  1
  Zr  Zr5  1  0.679179  0.745118  0.171079  1
  Pd  Pd6  1  0.749988  0.250012  0.250000  1
  Pd  Pd7  1  0.250012  0.749988  0.750000  1
  F  F8  1  0.313093  0.350978  0.056797  1
  F  F9  1  0.937283  0.810505  0.154383  1
  F  F10  1  0.841030  0.459054  0.688026  1
  F  F11  1  0.459054  0.841030  0.188026  1
  F  F12  1  0.810505  0.937283  0.654383  1
  F  F13  1  0.350978  0.313093  0.556796  1
  F  F14  1  0.686907  0.649022  0.943203  1
  F  F15  1  0.062717  0.189495  0.845617  1
  F  F16  1  0.158970  0.540946  0.311974  1
  F  F17  1  0.540946  0.158970  0.811974  1
  F  F18  1  0.189495  0.062717  0.345617  1
  F  F19  1  0.649022  0.686907  0.443203  1
  F  F20  1  0.770277  0.284440  0.002248  1
  F  F21  1  0.998408  0.272556  0.209173  1
  F  F22  1  0.789138  0.502205  0.222226  1
  F  F23  1  0.502205  0.789138  0.722226  1
  F  F24  1  0.272556  0.998408  0.709173  1
  F  F25  1  0.284440  0.770277  0.502248  1
  F  F26  1  0.229723  0.715560  0.997752  1
  F  F27  1  0.001592  0.727444  0.790827  1
  F  F28  1  0.210862  0.497795  0.777774  1
  F  F29  1  0.497795  0.210862  0.277774  1
  F  F30  1  0.727444  0.001592  0.290827  1
  F  F31  1  0.715560  0.229723  0.497752  1
  F  F32  1  0.473175  0.526825  0.250000  1
  F  F33  1  0.747227  0.957084  0.972378  1
  F  F34  1  0.042916  0.252773  0.527622  1
  F  F35  1  0.252773  0.042916  0.027622  1
  F  F36  1  0.957084  0.747227  0.472378  1
  F  F37  1  0.526825  0.473175  0.750000  1
