# generated using pymatgen
data_U8Nb12Si15P
_symmetry_space_group_name_H-M   'P 1'
_cell_length_a   7.04196185
_cell_length_b   7.04278371
_cell_length_c   12.96617303
_cell_angle_alpha   90.02787354
_cell_angle_beta   90.03639793
_cell_angle_gamma   89.95702193
_symmetry_Int_Tables_number   1
_chemical_formula_structural   U8Nb12Si15P
_chemical_formula_sum   'U8 Nb12 Si15 P1'
_cell_volume   643.05714877
_cell_formula_units_Z   1
loop_
 _symmetry_equiv_pos_site_id
 _symmetry_equiv_pos_as_xyz
  1  'x, y, z'
loop_
 _atom_site_type_symbol
 _atom_site_label
 _atom_site_symmetry_multiplicity
 _atom_site_fract_x
 _atom_site_fract_y
 _atom_site_fract_z
 _atom_site_occupancy
  U  U0  1  0.998755  0.330129  0.218642  1
  U  U1  1  0.006547  0.669602  0.718524  1
  U  U2  1  0.167001  0.495914  0.469148  1
  U  U3  1  0.502236  0.834705  0.033365  1
  U  U4  1  0.831659  0.504928  0.969406  1
  U  U5  1  0.494827  0.168627  0.530815  1
  U  U6  1  0.330518  0.992798  0.781613  1
  U  U7  1  0.663247  0.004879  0.279501  1
  Nb  Nb8  1  0.169449  0.166921  0.001240  1
  Nb  Nb9  1  0.831898  0.831556  0.499690  1
  Nb  Nb10  1  0.331510  0.670022  0.249118  1
  Nb  Nb11  1  0.668758  0.331608  0.750168  1
  Nb  Nb12  1  0.158179  0.001498  0.371155  1
  Nb  Nb13  1  0.844345  0.000962  0.874019  1
  Nb  Nb14  1  0.499710  0.656445  0.624374  1
  Nb  Nb15  1  0.344906  0.499398  0.875766  1
  Nb  Nb16  1  0.497184  0.338469  0.125783  1
  Nb  Nb17  1  0.657862  0.502009  0.375863  1
  Nb  Nb18  1  0.999103  0.155424  0.625527  1
  Nb  Nb19  1  0.002911  0.845367  0.126561  1
  Si  Si20  1  0.702786  0.959469  0.685034  1
  Si  Si21  1  0.459265  0.796619  0.435050  1
  Si  Si22  1  0.203635  0.540188  0.064720  1
  Si  Si23  1  0.540758  0.203044  0.934965  1
  Si  Si24  1  0.796839  0.459875  0.565298  1
  Si  Si25  1  0.040723  0.297058  0.815333  1
  Si  Si26  1  0.959200  0.702982  0.314635  1
  Si  Si27  1  0.372847  0.298711  0.318448  1
  Si  Si28  1  0.629475  0.707128  0.816624  1
  Si  Si29  1  0.206357  0.871255  0.564834  1
  Si  Si30  1  0.127940  0.791557  0.934030  1
  Si  Si31  1  0.793670  0.129000  0.065785  1
  Si  Si32  1  0.871038  0.205889  0.432944  1
  Si  Si33  1  0.292402  0.370792  0.684031  1
  Si  Si34  1  0.708094  0.626592  0.183030  1
  P  P35  1  0.294364  0.038576  0.184960  1
