# generated using pymatgen
data_CeHoSi2(IrRh)2
_symmetry_space_group_name_H-M   'P 1'
_cell_length_a   9.08099755
_cell_length_b   9.08099756
_cell_length_c   4.09190400
_cell_angle_alpha   90.00000000
_cell_angle_beta   90.00000000
_cell_angle_gamma   154.51112101
_symmetry_Int_Tables_number   1
_chemical_formula_structural   CeHoSi2(IrRh)2
_chemical_formula_sum   'Ce1 Ho1 Si2 Ir2 Rh2'
_cell_volume   145.21120533
_cell_formula_units_Z   1
loop_
 _symmetry_equiv_pos_site_id
 _symmetry_equiv_pos_as_xyz
  1  'x, y, z'
loop_
 _atom_site_type_symbol
 _atom_site_label
 _atom_site_symmetry_multiplicity
 _atom_site_fract_x
 _atom_site_fract_y
 _atom_site_fract_z
 _atom_site_occupancy
  Ce  Ce0  1  0.903838  0.096162  0.250000  1
  Ho  Ho1  1  0.100711  0.899289  0.750000  1
  Si  Si2  1  0.321025  0.678975  0.750000  1
  Si  Si3  1  0.676899  0.323101  0.250000  1
  Ir  Ir4  1  0.545314  0.454686  0.250000  1
  Ir  Ir5  1  0.454755  0.545245  0.750000  1
  Rh  Rh6  1  0.248837  0.751163  0.250000  1
  Rh  Rh7  1  0.748621  0.251379  0.750000  1
