# generated using pymatgen
data_YTh3(Al3Rh)6
_symmetry_space_group_name_H-M   'P 1'
_cell_length_a   7.66301810
_cell_length_b   7.67374378
_cell_length_c   9.54998200
_cell_angle_alpha   90.00000000
_cell_angle_beta   90.00000000
_cell_angle_gamma   119.43778783
_symmetry_Int_Tables_number   1
_chemical_formula_structural   YTh3(Al3Rh)6
_chemical_formula_sum   'Y1 Th3 Al18 Rh6'
_cell_volume   489.07214940
_cell_formula_units_Z   1
loop_
 _symmetry_equiv_pos_site_id
 _symmetry_equiv_pos_as_xyz
  1  'x, y, z'
loop_
 _atom_site_type_symbol
 _atom_site_label
 _atom_site_symmetry_multiplicity
 _atom_site_fract_x
 _atom_site_fract_y
 _atom_site_fract_z
 _atom_site_occupancy
  Y  Y0  1  0.328388  0.005796  0.750000  1
  Th  Th1  1  0.995021  0.671146  0.250000  1
  Th  Th2  1  0.004624  0.329151  0.750000  1
  Th  Th3  1  0.670352  0.994422  0.250000  1
  Al  Al4  1  0.134309  0.132353  0.250000  1
  Al  Al5  1  0.870900  0.869988  0.750000  1
  Al  Al6  1  0.005485  0.335652  0.073812  1
  Al  Al7  1  0.000272  0.669211  0.923173  1
  Al  Al8  1  0.000272  0.669211  0.576827  1
  Al  Al9  1  0.335034  0.004146  0.431276  1
  Al  Al10  1  0.005485  0.335652  0.426188  1
  Al  Al11  1  0.659998  0.995560  0.576755  1
  Al  Al12  1  0.659998  0.995560  0.923245  1
  Al  Al13  1  0.335034  0.004146  0.068724  1
  Al  Al14  1  0.336207  0.332853  0.551519  1
  Al  Al15  1  0.663331  0.663439  0.455830  1
  Al  Al16  1  0.663331  0.663439  0.044170  1
  Al  Al17  1  0.336207  0.332853  0.948481  1
  Al  Al18  1  0.340946  0.544840  0.250000  1
  Al  Al19  1  0.657635  0.450121  0.750000  1
  Al  Al20  1  0.544449  0.338764  0.250000  1
  Al  Al21  1  0.452496  0.661692  0.750000  1
  Rh  Rh22  1  0.673617  0.328566  0.000236  1
  Rh  Rh23  1  0.327580  0.671469  0.000269  1
  Rh  Rh24  1  0.327580  0.671469  0.499731  1
  Rh  Rh25  1  0.673617  0.328566  0.499764  1
  Rh  Rh26  1  0.998916  0.999967  0.000310  1
  Rh  Rh27  1  0.998916  0.999967  0.499690  1
