# generated using pymatgen
data_Na4CuP2Au
_symmetry_space_group_name_H-M   'P 1'
_cell_length_a   5.59560919
_cell_length_b   5.59560990
_cell_length_c   5.47330045
_cell_angle_alpha   89.11118861
_cell_angle_beta   89.11118258
_cell_angle_gamma   102.94904189
_symmetry_Int_Tables_number   1
_chemical_formula_structural   Na4CuP2Au
_chemical_formula_sum   'Na4 Cu1 P2 Au1'
_cell_volume   166.96379013
_cell_formula_units_Z   1
loop_
 _symmetry_equiv_pos_site_id
 _symmetry_equiv_pos_as_xyz
  1  'x, y, z'
loop_
 _atom_site_type_symbol
 _atom_site_label
 _atom_site_symmetry_multiplicity
 _atom_site_fract_x
 _atom_site_fract_y
 _atom_site_fract_z
 _atom_site_occupancy
  Na  Na0  1  0.032526  0.680470  0.250034  1
  Na  Na1  1  0.967474  0.319530  0.749966  1
  Na  Na2  1  0.680470  0.032526  0.250034  1
  Na  Na3  1  0.319530  0.967474  0.749966  1
  Cu  Cu4  1  0.500000  0.500000  0.000000  1
  P  P5  1  0.771595  0.771595  0.769094  1
  P  P6  1  0.228405  0.228405  0.230906  1
  Au  Au7  1  0.500000  0.500000  0.500000  1
