# generated using pymatgen
data_DyY2Al12CoOs3
_symmetry_space_group_name_H-M   'P 1'
_cell_length_a   8.76800000
_cell_length_b   8.76688950
_cell_length_c   9.54085700
_cell_angle_alpha   90.00000000
_cell_angle_beta   90.00000000
_cell_angle_gamma   120.00418273
_symmetry_Int_Tables_number   1
_chemical_formula_structural   DyY2Al12CoOs3
_chemical_formula_sum   'Dy2 Y4 Al24 Co2 Os6'
_cell_volume   635.10537184
_cell_formula_units_Z   2
loop_
 _symmetry_equiv_pos_site_id
 _symmetry_equiv_pos_as_xyz
  1  'x, y, z'
loop_
 _atom_site_type_symbol
 _atom_site_label
 _atom_site_symmetry_multiplicity
 _atom_site_fract_x
 _atom_site_fract_y
 _atom_site_fract_z
 _atom_site_occupancy
  Dy  Dy0  1  0.193623  0.387247  0.250000  1
  Dy  Dy1  1  0.806377  0.612753  0.750000  1
  Y  Y2  1  0.612671  0.806315  0.250000  1
  Y  Y3  1  0.387329  0.193685  0.750000  1
  Y  Y4  1  0.193644  0.806315  0.250000  1
  Y  Y5  1  0.806356  0.193685  0.750000  1
  Al  Al6  1  0.333336  0.666674  0.015796  1
  Al  Al7  1  0.666664  0.333326  0.984204  1
  Al  Al8  1  0.666664  0.333326  0.515796  1
  Al  Al9  1  0.333336  0.666674  0.484204  1
  Al  Al10  1  0.159708  0.319418  0.575426  1
  Al  Al11  1  0.840292  0.680582  0.424574  1
  Al  Al12  1  0.680578  0.840273  0.575534  1
  Al  Al13  1  0.840292  0.680582  0.075426  1
  Al  Al14  1  0.319422  0.159727  0.424466  1
  Al  Al15  1  0.159708  0.319418  0.924574  1
  Al  Al16  1  0.159694  0.840273  0.575534  1
  Al  Al17  1  0.319422  0.159727  0.075534  1
  Al  Al18  1  0.840306  0.159727  0.424466  1
  Al  Al19  1  0.680578  0.840273  0.924466  1
  Al  Al20  1  0.840306  0.159727  0.075534  1
  Al  Al21  1  0.159694  0.840273  0.924466  1
  Al  Al22  1  0.561659  0.123319  0.250000  1
  Al  Al23  1  0.438341  0.876681  0.750000  1
  Al  Al24  1  0.876698  0.438290  0.250000  1
  Al  Al25  1  0.123302  0.561710  0.750000  1
  Al  Al26  1  0.561591  0.438290  0.250000  1
  Al  Al27  1  0.438409  0.561710  0.750000  1
  Al  Al28  1  0.000116  0.000232  0.250000  1
  Al  Al29  1  0.999884  0.999768  0.750000  1
  Co  Co30  1  0.000000  0.000000  0.000000  1
  Co  Co31  1  0.000000  0.000000  0.500000  1
  Os  Os32  1  0.500000  0.000000  0.000000  1
  Os  Os33  1  0.000000  0.500000  0.000000  1
  Os  Os34  1  0.500000  0.000000  0.500000  1
  Os  Os35  1  0.500000  0.500000  0.000000  1
  Os  Os36  1  0.000000  0.500000  0.500000  1
  Os  Os37  1  0.500000  0.500000  0.500000  1
