# generated using pymatgen
data_Nd3Ho5CdHgIr2
_symmetry_space_group_name_H-M   'P 1'
_cell_length_a   9.71577569
_cell_length_b   9.71577758
_cell_length_c   9.72146000
_cell_angle_alpha   59.98065093
_cell_angle_beta   59.98064448
_cell_angle_gamma   60.02188050
_symmetry_Int_Tables_number   1
_chemical_formula_structural   Nd3Ho5CdHgIr2
_chemical_formula_sum   'Nd6 Ho10 Cd2 Hg2 Ir4'
_cell_volume   648.80795228
_cell_formula_units_Z   2
loop_
 _symmetry_equiv_pos_site_id
 _symmetry_equiv_pos_as_xyz
  1  'x, y, z'
loop_
 _atom_site_type_symbol
 _atom_site_label
 _atom_site_symmetry_multiplicity
 _atom_site_fract_x
 _atom_site_fract_y
 _atom_site_fract_z
 _atom_site_occupancy
  Nd  Nd0  1  0.940924  0.558226  0.559570  1
  Nd  Nd1  1  0.558226  0.940924  0.941279  1
  Nd  Nd2  1  0.558226  0.940924  0.559570  1
  Nd  Nd3  1  0.940924  0.558226  0.941279  1
  Nd  Nd4  1  0.558696  0.558696  0.941304  1
  Nd  Nd5  1  0.940592  0.940592  0.559408  1
  Ho  Ho6  1  0.348094  0.348094  0.346912  1
  Ho  Ho7  1  0.348094  0.348094  0.956899  1
  Ho  Ho8  1  0.349018  0.954574  0.348204  1
  Ho  Ho9  1  0.954574  0.349018  0.348204  1
  Ho  Ho10  1  0.811887  0.186434  0.188605  1
  Ho  Ho11  1  0.186434  0.811887  0.813073  1
  Ho  Ho12  1  0.186434  0.811887  0.188605  1
  Ho  Ho13  1  0.811887  0.186434  0.813073  1
  Ho  Ho14  1  0.186763  0.186763  0.813237  1
  Ho  Ho15  1  0.811458  0.811458  0.188542  1
  Cd  Cd16  1  0.578911  0.263009  0.579039  1
  Cd  Cd17  1  0.263009  0.578911  0.579039  1
  Hg  Hg18  1  0.582263  0.582263  0.583794  1
  Hg  Hg19  1  0.582263  0.582263  0.251679  1
  Ir  Ir20  1  0.141811  0.141811  0.140797  1
  Ir  Ir21  1  0.141811  0.141811  0.575579  1
  Ir  Ir22  1  0.141856  0.575840  0.141151  1
  Ir  Ir23  1  0.575840  0.141856  0.141151  1
