# generated using pymatgen
data_Cs6HoTmSb4
_symmetry_space_group_name_H-M   'P 1'
_cell_length_a   10.53907499
_cell_length_b   10.53907516
_cell_length_c   10.53907595
_cell_angle_alpha   127.68815495
_cell_angle_beta   70.15210776
_cell_angle_gamma   136.73242391
_symmetry_Int_Tables_number   1
_chemical_formula_structural   Cs6HoTmSb4
_chemical_formula_sum   'Cs6 Ho1 Tm1 Sb4'
_cell_volume   622.76718797
_cell_formula_units_Z   1
loop_
 _symmetry_equiv_pos_site_id
 _symmetry_equiv_pos_as_xyz
  1  'x, y, z'
loop_
 _atom_site_type_symbol
 _atom_site_label
 _atom_site_symmetry_multiplicity
 _atom_site_fract_x
 _atom_site_fract_y
 _atom_site_fract_z
 _atom_site_occupancy
  Cs  Cs0  1  0.315952  0.703934  0.019837  1
  Cs  Cs1  1  0.184048  0.203886  0.387982  1
  Cs  Cs2  1  0.750000  0.250000  0.500000  1
  Cs  Cs3  1  0.250000  0.749999  0.499999  1
  Cs  Cs4  1  0.815904  0.796067  0.612019  1
  Cs  Cs5  1  0.684096  0.296115  0.980164  1
  Ho  Ho6  1  0.250000  0.250000  0.000000  1
  Tm  Tm7  1  0.750000  0.750000  0.000000  1
  Sb  Sb8  1  0.905793  0.183344  0.089976  1
  Sb  Sb9  1  0.594208  0.684186  0.277552  1
  Sb  Sb10  1  0.406632  0.316655  0.722447  1
  Sb  Sb11  1  0.093368  0.815814  0.910023  1
