# generated using pymatgen
data_Sc3TaFe2Si2(BRu2)4
_symmetry_space_group_name_H-M   'P 1'
_cell_length_a   9.20678200
_cell_length_b   9.20678200
_cell_length_c   2.98332700
_cell_angle_alpha   90.00000000
_cell_angle_beta   90.00000000
_cell_angle_gamma   90.00000000
_symmetry_Int_Tables_number   1
_chemical_formula_structural   Sc3TaFe2Si2(BRu2)4
_chemical_formula_sum   'Sc3 Ta1 Fe2 Si2 B4 Ru8'
_cell_volume   252.88122030
_cell_formula_units_Z   1
loop_
 _symmetry_equiv_pos_site_id
 _symmetry_equiv_pos_as_xyz
  1  'x, y, z'
loop_
 _atom_site_type_symbol
 _atom_site_label
 _atom_site_symmetry_multiplicity
 _atom_site_fract_x
 _atom_site_fract_y
 _atom_site_fract_z
 _atom_site_occupancy
  Sc  Sc0  1  0.674701  0.824361  0.000000  1
  Sc  Sc1  1  0.324361  0.174701  0.000000  1
  Sc  Sc2  1  0.824898  0.324898  0.000000  1
  Ta  Ta3  1  0.172129  0.672129  0.000000  1
  Fe  Fe4  1  0.004826  0.504826  0.500000  1
  Fe  Fe5  1  0.499101  0.999101  0.500000  1
  Si  Si6  1  0.999664  0.002457  0.000000  1
  Si  Si7  1  0.502457  0.499664  0.000000  1
  B  B8  1  0.383763  0.883763  0.000000  1
  B  B9  1  0.882925  0.617198  0.000000  1
  B  B10  1  0.117198  0.382925  0.000000  1
  B  B11  1  0.616733  0.116733  0.000000  1
  Ru  Ru12  1  0.284032  0.442638  0.500000  1
  Ru  Ru13  1  0.716134  0.566172  0.500000  1
  Ru  Ru14  1  0.562898  0.284195  0.500000  1
  Ru  Ru15  1  0.428250  0.712926  0.500000  1
  Ru  Ru16  1  0.942638  0.784031  0.500000  1
  Ru  Ru17  1  0.784194  0.062898  0.500000  1
  Ru  Ru18  1  0.212925  0.928250  0.500000  1
  Ru  Ru19  1  0.066172  0.216133  0.500000  1
