# generated using pymatgen
data_Ba12Ho(ScAs4)3
_symmetry_space_group_name_H-M   'P 1'
_cell_length_a   4.71427000
_cell_length_b   13.92326711
_cell_length_c   15.05781289
_cell_angle_alpha   89.85820480
_cell_angle_beta   90.00000000
_cell_angle_gamma   90.00000000
_symmetry_Int_Tables_number   1
_chemical_formula_structural   Ba12Ho(ScAs4)3
_chemical_formula_sum   'Ba12 Ho1 Sc3 As12'
_cell_volume   988.36230439
_cell_formula_units_Z   1
loop_
 _symmetry_equiv_pos_site_id
 _symmetry_equiv_pos_as_xyz
  1  'x, y, z'
loop_
 _atom_site_type_symbol
 _atom_site_label
 _atom_site_symmetry_multiplicity
 _atom_site_fract_x
 _atom_site_fract_y
 _atom_site_fract_z
 _atom_site_occupancy
  Ba  Ba0  1  0.250000  0.419030  0.101655  1
  Ba  Ba1  1  0.250000  0.143272  0.003118  1
  Ba  Ba2  1  0.250000  0.226304  0.296571  1
  Ba  Ba3  1  0.750000  0.276557  0.795969  1
  Ba  Ba4  1  0.750000  0.360290  0.501315  1
  Ba  Ba5  1  0.250000  0.918572  0.396171  1
  Ba  Ba6  1  0.750000  0.768397  0.701685  1
  Ba  Ba7  1  0.750000  0.859775  0.001051  1
  Ba  Ba8  1  0.250000  0.725185  0.202814  1
  Ba  Ba9  1  0.750000  0.081004  0.598193  1
  Ba  Ba10  1  0.750000  0.580721  0.900918  1
  Ba  Ba11  1  0.250000  0.640550  0.497257  1
  Ho  Ho12  1  0.250000  0.953115  0.794719  1
  Sc  Sc13  1  0.750000  0.548408  0.295125  1
  Sc  Sc14  1  0.750000  0.048802  0.205535  1
  Sc  Sc15  1  0.250000  0.452186  0.705306  1
  As  As16  1  0.750000  0.225416  0.133772  1
  As  As17  1  0.750000  0.724656  0.366392  1
  As  As18  1  0.750000  0.586319  0.121960  1
  As  As19  1  0.250000  0.275190  0.632249  1
  As  As20  1  0.250000  0.768759  0.870392  1
  As  As21  1  0.750000  0.087498  0.378406  1
  As  As22  1  0.250000  0.908072  0.614811  1
  As  As23  1  0.250000  0.413606  0.878762  1
  As  As24  1  0.750000  0.044316  0.853509  1
  As  As25  1  0.250000  0.464770  0.346585  1
  As  As26  1  0.250000  0.964949  0.153089  1
  As  As27  1  0.750000  0.534278  0.652673  1
