# generated using pymatgen
data_Pr16CdHg3(RuPt)2
_symmetry_space_group_name_H-M   'P 1'
_cell_length_a   10.01205077
_cell_length_b   10.03420601
_cell_length_c   10.07684400
_cell_angle_alpha   59.85932904
_cell_angle_beta   59.78568518
_cell_angle_gamma   59.88840181
_symmetry_Int_Tables_number   1
_chemical_formula_structural   Pr16CdHg3(RuPt)2
_chemical_formula_sum   'Pr16 Cd1 Hg3 Ru2 Pt2'
_cell_volume   713.31151144
_cell_formula_units_Z   1
loop_
 _symmetry_equiv_pos_site_id
 _symmetry_equiv_pos_as_xyz
  1  'x, y, z'
loop_
 _atom_site_type_symbol
 _atom_site_label
 _atom_site_symmetry_multiplicity
 _atom_site_fract_x
 _atom_site_fract_y
 _atom_site_fract_z
 _atom_site_occupancy
  Pr  Pr0  1  0.349006  0.348239  0.354832  1
  Pr  Pr1  1  0.349006  0.348239  0.947923  1
  Pr  Pr2  1  0.344791  0.954962  0.350123  1
  Pr  Pr3  1  0.952336  0.345741  0.350962  1
  Pr  Pr4  1  0.814223  0.190089  0.192138  1
  Pr  Pr5  1  0.188626  0.815156  0.804598  1
  Pr  Pr6  1  0.188626  0.815156  0.191619  1
  Pr  Pr7  1  0.814223  0.190089  0.803548  1
  Pr  Pr8  1  0.188998  0.189781  0.810610  1
  Pr  Pr9  1  0.804905  0.805118  0.194988  1
  Pr  Pr10  1  0.937542  0.558693  0.564654  1
  Pr  Pr11  1  0.557939  0.938269  0.939270  1
  Pr  Pr12  1  0.557939  0.938269  0.564522  1
  Pr  Pr13  1  0.937542  0.558693  0.939111  1
  Pr  Pr14  1  0.560875  0.561886  0.938619  1
  Pr  Pr15  1  0.937319  0.938195  0.562243  1
  Cd  Cd16  1  0.261202  0.580303  0.579247  1
  Hg  Hg17  1  0.582347  0.584846  0.584174  1
  Hg  Hg18  1  0.582347  0.584846  0.248631  1
  Hg  Hg19  1  0.583506  0.246696  0.584899  1
  Ru  Ru20  1  0.143303  0.143687  0.136564  1
  Ru  Ru21  1  0.143303  0.143687  0.576445  1
  Pt  Pt22  1  0.146479  0.573195  0.140163  1
  Pt  Pt23  1  0.573614  0.146162  0.140112  1
