# generated using pymatgen
data_TbEr5Al24Ru7Rh
_symmetry_space_group_name_H-M   'P 1'
_cell_length_a   8.76442427
_cell_length_b   8.76470053
_cell_length_c   9.58417715
_cell_angle_alpha   89.86176560
_cell_angle_beta   90.13551011
_cell_angle_gamma   119.86131526
_symmetry_Int_Tables_number   1
_chemical_formula_structural   TbEr5Al24Ru7Rh
_chemical_formula_sum   'Tb1 Er5 Al24 Ru7 Rh1'
_cell_volume   638.48324754
_cell_formula_units_Z   1
loop_
 _symmetry_equiv_pos_site_id
 _symmetry_equiv_pos_as_xyz
  1  'x, y, z'
loop_
 _atom_site_type_symbol
 _atom_site_label
 _atom_site_symmetry_multiplicity
 _atom_site_fract_x
 _atom_site_fract_y
 _atom_site_fract_z
 _atom_site_occupancy
  Tb  Tb0  1  0.191400  0.386021  0.250865  1
  Er  Er1  1  0.808114  0.612969  0.749007  1
  Er  Er2  1  0.613005  0.808291  0.250988  1
  Er  Er3  1  0.387135  0.191945  0.749022  1
  Er  Er4  1  0.194182  0.806035  0.250444  1
  Er  Er5  1  0.805897  0.194125  0.749514  1
  Al  Al6  1  0.332838  0.667776  0.019693  1
  Al  Al7  1  0.667339  0.332604  0.980006  1
  Al  Al8  1  0.666545  0.333444  0.519282  1
  Al  Al9  1  0.333637  0.666905  0.481060  1
  Al  Al10  1  0.163598  0.325586  0.577978  1
  Al  Al11  1  0.836422  0.674389  0.422438  1
  Al  Al12  1  0.674358  0.836360  0.577690  1
  Al  Al13  1  0.838653  0.674895  0.077746  1
  Al  Al14  1  0.325784  0.163466  0.422504  1
  Al  Al15  1  0.161325  0.325061  0.921856  1
  Al  Al16  1  0.163187  0.836733  0.577345  1
  Al  Al17  1  0.325246  0.161243  0.077700  1
  Al  Al18  1  0.836518  0.163077  0.422810  1
  Al  Al19  1  0.674851  0.838572  0.922117  1
  Al  Al20  1  0.836912  0.162714  0.077435  1
  Al  Al21  1  0.162788  0.837119  0.922407  1
  Al  Al22  1  0.561207  0.123730  0.249751  1
  Al  Al23  1  0.438804  0.876217  0.750256  1
  Al  Al24  1  0.875719  0.438865  0.249748  1
  Al  Al25  1  0.123777  0.561209  0.750243  1
  Al  Al26  1  0.561975  0.438692  0.250798  1
  Al  Al27  1  0.438618  0.561411  0.749236  1
  Al  Al28  1  0.999445  0.999699  0.250043  1
  Al  Al29  1  0.000304  0.999799  0.749976  1
  Ru  Ru30  1  0.500071  0.000170  0.999946  1
  Ru  Ru31  1  0.999783  0.500228  0.999734  1
  Ru  Ru32  1  0.500032  0.000151  0.500050  1
  Ru  Ru33  1  0.999808  0.500216  0.500214  1
  Ru  Ru34  1  0.500453  0.500193  0.500268  1
  Ru  Ru35  1  0.999972  0.999977  0.000024  1
  Ru  Ru36  1  0.999985  0.999972  0.499986  1
  Rh  Rh37  1  0.500312  0.500144  0.999819  1
