# generated using pymatgen
data_Dy6Ho5Th5Mg2(HgRu2)2
_symmetry_space_group_name_H-M   'P 1'
_cell_length_a   9.66168769
_cell_length_b   9.73183500
_cell_length_c   9.74860444
_cell_angle_alpha   59.81296444
_cell_angle_beta   60.09183296
_cell_angle_gamma   60.19919714
_symmetry_Int_Tables_number   1
_chemical_formula_structural   Dy6Ho5Th5Mg2(HgRu2)2
_chemical_formula_sum   'Dy6 Ho5 Th5 Mg2 Hg2 Ru4'
_cell_volume   648.64311757
_cell_formula_units_Z   1
loop_
 _symmetry_equiv_pos_site_id
 _symmetry_equiv_pos_as_xyz
  1  'x, y, z'
loop_
 _atom_site_type_symbol
 _atom_site_label
 _atom_site_symmetry_multiplicity
 _atom_site_fract_x
 _atom_site_fract_y
 _atom_site_fract_z
 _atom_site_occupancy
  Dy  Dy0  1  0.931706  0.566888  0.567717  1
  Dy  Dy1  1  0.563200  0.933873  0.936811  1
  Dy  Dy2  1  0.562239  0.934569  0.564355  1
  Dy  Dy3  1  0.935527  0.563101  0.938027  1
  Dy  Dy4  1  0.562152  0.563188  0.937865  1
  Dy  Dy5  1  0.936837  0.935854  0.564044  1
  Ho  Ho6  1  0.184887  0.812900  0.813517  1
  Ho  Ho7  1  0.191054  0.807966  0.187319  1
  Ho  Ho8  1  0.812629  0.184146  0.810100  1
  Ho  Ho9  1  0.190497  0.185978  0.809452  1
  Ho  Ho10  1  0.809254  0.806556  0.187445  1
  Th  Th11  1  0.342294  0.348706  0.348672  1
  Th  Th12  1  0.347870  0.347700  0.957970  1
  Th  Th13  1  0.349361  0.955616  0.348187  1
  Th  Th14  1  0.954728  0.351935  0.350810  1
  Th  Th15  1  0.816230  0.182610  0.185790  1
  Mg  Mg16  1  0.578938  0.267777  0.577002  1
  Mg  Mg17  1  0.269648  0.579101  0.573803  1
  Hg  Hg18  1  0.583133  0.583020  0.589078  1
  Hg  Hg19  1  0.581255  0.585522  0.244664  1
  Ru  Ru20  1  0.129744  0.146381  0.147135  1
  Ru  Ru21  1  0.145107  0.141362  0.569438  1
  Ru  Ru22  1  0.144785  0.568144  0.142594  1
  Ru  Ru23  1  0.576927  0.147109  0.148204  1
