# generated using pymatgen
data_SrTh2As3
_symmetry_space_group_name_H-M   'P 1'
_cell_length_a   4.30999400
_cell_length_b   4.30999238
_cell_length_c   10.73978500
_cell_angle_alpha   90.00000000
_cell_angle_beta   90.00000000
_cell_angle_gamma   119.99999709
_symmetry_Int_Tables_number   1
_chemical_formula_structural   SrTh2As3
_chemical_formula_sum   'Sr1 Th2 As3'
_cell_volume   172.77440243
_cell_formula_units_Z   1
loop_
 _symmetry_equiv_pos_site_id
 _symmetry_equiv_pos_as_xyz
  1  'x, y, z'
loop_
 _atom_site_type_symbol
 _atom_site_label
 _atom_site_symmetry_multiplicity
 _atom_site_fract_x
 _atom_site_fract_y
 _atom_site_fract_z
 _atom_site_occupancy
  Sr  Sr0  1  0.000000  0.000000  0.000000  1
  Th  Th1  1  0.333333  0.666667  0.662941  1
  Th  Th2  1  0.666667  0.333333  0.337059  1
  As  As3  1  0.333333  0.666667  0.184202  1
  As  As4  1  0.666667  0.333333  0.815798  1
  As  As5  1  0.000000  0.000000  0.500000  1
