# generated using pymatgen
data_Yb4MnOsRu6
_symmetry_space_group_name_H-M   'P 1'
_cell_length_a   5.22048330
_cell_length_b   5.36977753
_cell_length_c   8.70880528
_cell_angle_alpha   89.99999843
_cell_angle_beta   90.26142329
_cell_angle_gamma   120.95060857
_symmetry_Int_Tables_number   1
_chemical_formula_structural   Yb4MnOsRu6
_chemical_formula_sum   'Yb4 Mn1 Os1 Ru6'
_cell_volume   209.36773956
_cell_formula_units_Z   1
loop_
 _symmetry_equiv_pos_site_id
 _symmetry_equiv_pos_as_xyz
  1  'x, y, z'
loop_
 _atom_site_type_symbol
 _atom_site_label
 _atom_site_symmetry_multiplicity
 _atom_site_fract_x
 _atom_site_fract_y
 _atom_site_fract_z
 _atom_site_occupancy
  Yb  Yb0  1  0.331743  0.665872  0.430846  1
  Yb  Yb1  1  0.668417  0.334209  0.568012  1
  Yb  Yb2  1  0.660141  0.330071  0.935334  1
  Yb  Yb3  1  0.325320  0.662660  0.065839  1
  Mn  Mn4  1  0.997251  0.998625  0.499120  1
  Os  Os5  1  0.666893  0.833446  0.748401  1
  Ru  Ru6  1  0.980279  0.990139  0.000280  1
  Ru  Ru7  1  0.830861  0.165210  0.253548  1
  Ru  Ru8  1  0.830861  0.665651  0.253548  1
  Ru  Ru9  1  0.353349  0.176674  0.254094  1
  Ru  Ru10  1  0.177442  0.832885  0.745490  1
  Ru  Ru11  1  0.177442  0.344558  0.745490  1
