# generated using pymatgen
data_NdYCBr
_symmetry_space_group_name_H-M   'P 1'
_cell_length_a   3.75139100
_cell_length_b   3.75139047
_cell_length_c   14.59018100
_cell_angle_alpha   90.00000000
_cell_angle_beta   90.00000000
_cell_angle_gamma   120.00001353
_symmetry_Int_Tables_number   1
_chemical_formula_structural   NdYCBr
_chemical_formula_sum   'Nd2 Y2 C2 Br2'
_cell_volume   177.81805460
_cell_formula_units_Z   2
loop_
 _symmetry_equiv_pos_site_id
 _symmetry_equiv_pos_as_xyz
  1  'x, y, z'
loop_
 _atom_site_type_symbol
 _atom_site_label
 _atom_site_symmetry_multiplicity
 _atom_site_fract_x
 _atom_site_fract_y
 _atom_site_fract_z
 _atom_site_occupancy
  Nd  Nd0  1  0.666667  0.333333  0.909223  1
  Nd  Nd1  1  0.333333  0.666667  0.409223  1
  Y  Y2  1  0.333333  0.666667  0.090740  1
  Y  Y3  1  0.666667  0.333333  0.590740  1
  C  C4  1  0.000000  0.000000  0.007137  1
  C  C5  1  0.000000  0.000000  0.507137  1
  Br  Br6  1  0.666667  0.333333  0.242900  1
  Br  Br7  1  0.333333  0.666667  0.742900  1
