# generated using pymatgen
data_U8ZnS17
_symmetry_space_group_name_H-M   'P 1'
_cell_length_a   7.83436189
_cell_length_b   7.83250566
_cell_length_c   10.42562777
_cell_angle_alpha   79.96596167
_cell_angle_beta   79.98828678
_cell_angle_gamma   64.39777069
_symmetry_Int_Tables_number   1
_chemical_formula_structural   U8ZnS17
_chemical_formula_sum   'U8 Zn1 S17'
_cell_volume   564.59723367
_cell_formula_units_Z   1
loop_
 _symmetry_equiv_pos_site_id
 _symmetry_equiv_pos_as_xyz
  1  'x, y, z'
loop_
 _atom_site_type_symbol
 _atom_site_label
 _atom_site_symmetry_multiplicity
 _atom_site_fract_x
 _atom_site_fract_y
 _atom_site_fract_z
 _atom_site_occupancy
  U  U0  1  0.818097  0.304115  0.300774  1
  U  U1  1  0.303988  0.818014  0.300818  1
  U  U2  1  0.181903  0.695885  0.699226  1
  U  U3  1  0.696012  0.181986  0.699182  1
  U  U4  1  0.202404  0.202310  0.543220  1
  U  U5  1  0.797596  0.797690  0.456780  1
  U  U6  1  0.679127  0.679237  0.986013  1
  U  U7  1  0.320873  0.320763  0.013987  1
  Zn  Zn8  1  0.000000  0.000000  0.000000  1
  S  S9  1  0.820691  0.433186  0.534738  1
  S  S10  1  0.433278  0.820448  0.534721  1
  S  S11  1  0.179309  0.566814  0.465262  1
  S  S12  1  0.566722  0.179552  0.465279  1
  S  S13  1  0.944770  0.327897  0.036625  1
  S  S14  1  0.327859  0.944875  0.036618  1
  S  S15  1  0.055230  0.672103  0.963375  1
  S  S16  1  0.672141  0.055125  0.963382  1
  S  S17  1  0.213095  0.213156  0.280032  1
  S  S18  1  0.786905  0.786844  0.719968  1
  S  S19  1  0.055840  0.055799  0.768587  1
  S  S20  1  0.944160  0.944201  0.231413  1
  S  S21  1  0.299313  0.299069  0.754880  1
  S  S22  1  0.700687  0.700931  0.245120  1
  S  S23  1  0.519885  0.519819  0.828896  1
  S  S24  1  0.480115  0.480181  0.171104  1
  S  S25  1  0.000000  0.000000  0.500000  1
