# generated using pymatgen
data_Dy(Er3In2)3
_symmetry_space_group_name_H-M   'P 1'
_cell_length_a   9.09108304
_cell_length_b   9.09108261
_cell_length_c   9.09373432
_cell_angle_alpha   96.38190285
_cell_angle_beta   96.41468112
_cell_angle_gamma   140.99185121
_symmetry_Int_Tables_number   1
_chemical_formula_structural   Dy(Er3In2)3
_chemical_formula_sum   'Dy1 Er9 In6'
_cell_volume   445.93649905
_cell_formula_units_Z   1
loop_
 _symmetry_equiv_pos_site_id
 _symmetry_equiv_pos_as_xyz
  1  'x, y, z'
loop_
 _atom_site_type_symbol
 _atom_site_label
 _atom_site_symmetry_multiplicity
 _atom_site_fract_x
 _atom_site_fract_y
 _atom_site_fract_z
 _atom_site_occupancy
  Dy  Dy0  1  0.082187  0.781889  0.864076  1
  Er  Er1  1  0.717838  0.418191  0.136029  1
  Er  Er2  1  0.282377  0.581806  0.864183  1
  Er  Er3  1  0.582121  0.717786  0.299906  1
  Er  Er4  1  0.217730  0.082155  0.299884  1
  Er  Er5  1  0.917712  0.217801  0.135513  1
  Er  Er6  1  0.749980  0.249801  0.499879  1
  Er  Er7  1  0.250078  0.749899  0.499879  1
  Er  Er8  1  0.782167  0.918126  0.700294  1
  Er  Er9  1  0.417695  0.282296  0.699992  1
  In  In10  1  0.837953  0.661573  0.499526  1
  In  In11  1  0.338736  0.838397  0.177133  1
  In  In12  1  0.749816  0.750283  0.000184  1
  In  In13  1  0.661903  0.161543  0.823447  1
  In  In14  1  0.161806  0.338085  0.499892  1
  In  In15  1  0.249900  0.250368  0.000184  1
