# generated using pymatgen
data_Ho10Si4Bi3Pb
_symmetry_space_group_name_H-M   'P 1'
_cell_length_a   8.61018508
_cell_length_b   8.61018488
_cell_length_c   7.90839970
_cell_angle_alpha   89.90575476
_cell_angle_beta   89.90576108
_cell_angle_gamma   125.39034716
_symmetry_Int_Tables_number   1
_chemical_formula_structural   Ho10Si4Bi3Pb
_chemical_formula_sum   'Ho10 Si4 Bi3 Pb1'
_cell_volume   477.95661172
_cell_formula_units_Z   1
loop_
 _symmetry_equiv_pos_site_id
 _symmetry_equiv_pos_as_xyz
  1  'x, y, z'
loop_
 _atom_site_type_symbol
 _atom_site_label
 _atom_site_symmetry_multiplicity
 _atom_site_fract_x
 _atom_site_fract_y
 _atom_site_fract_z
 _atom_site_occupancy
  Ho  Ho0  1  0.042565  0.286739  0.332684  1
  Ho  Ho1  1  0.955824  0.711210  0.666138  1
  Ho  Ho2  1  0.459458  0.213188  0.836693  1
  Ho  Ho3  1  0.786812  0.540542  0.163307  1
  Ho  Ho4  1  0.544771  0.789062  0.163394  1
  Ho  Ho5  1  0.210938  0.455229  0.836606  1
  Ho  Ho6  1  0.713261  0.957435  0.667316  1
  Ho  Ho7  1  0.288790  0.044176  0.333862  1
  Ho  Ho8  1  0.997907  0.002093  0.000000  1
  Ho  Ho9  1  0.500265  0.499735  0.500000  1
  Si  Si10  1  0.366982  0.366745  0.133214  1
  Si  Si11  1  0.633255  0.633018  0.866786  1
  Si  Si12  1  0.134108  0.133337  0.632734  1
  Si  Si13  1  0.866663  0.865892  0.367266  1
  Bi  Bi14  1  0.207299  0.792701  0.000000  1
  Bi  Bi15  1  0.707236  0.292764  0.500000  1
  Bi  Bi16  1  0.292289  0.707711  0.500000  1
  Pb  Pb17  1  0.791576  0.208424  0.000000  1
