# generated using pymatgen
data_YTaCoB6
_symmetry_space_group_name_H-M   'P 1'
_cell_length_a   3.36906600
_cell_length_b   8.92377100
_cell_length_c   11.24030500
_cell_angle_alpha   90.00000000
_cell_angle_beta   90.00000000
_cell_angle_gamma   90.00000000
_symmetry_Int_Tables_number   1
_chemical_formula_structural   YTaCoB6
_chemical_formula_sum   'Y4 Ta4 Co4 B24'
_cell_volume   337.93722353
_cell_formula_units_Z   4
loop_
 _symmetry_equiv_pos_site_id
 _symmetry_equiv_pos_as_xyz
  1  'x, y, z'
loop_
 _atom_site_type_symbol
 _atom_site_label
 _atom_site_symmetry_multiplicity
 _atom_site_fract_x
 _atom_site_fract_y
 _atom_site_fract_z
 _atom_site_occupancy
  Y  Y0  1  0.000000  0.822442  0.086423  1
  Y  Y1  1  0.000000  0.177558  0.913577  1
  Y  Y2  1  0.000000  0.322442  0.413577  1
  Y  Y3  1  0.000000  0.677558  0.586423  1
  Ta  Ta4  1  0.000000  0.445328  0.128444  1
  Ta  Ta5  1  0.000000  0.554672  0.871556  1
  Ta  Ta6  1  0.000000  0.945328  0.371556  1
  Ta  Ta7  1  0.000000  0.054672  0.628444  1
  Co  Co8  1  0.000000  0.143849  0.182645  1
  Co  Co9  1  0.000000  0.856151  0.817355  1
  Co  Co10  1  0.000000  0.643849  0.317355  1
  Co  Co11  1  0.000000  0.356151  0.682645  1
  B  B12  1  0.500000  0.055142  0.067367  1
  B  B13  1  0.500000  0.944858  0.932633  1
  B  B14  1  0.500000  0.555142  0.432633  1
  B  B15  1  0.500000  0.444858  0.567367  1
  B  B16  1  0.500000  0.253119  0.082975  1
  B  B17  1  0.500000  0.746881  0.917025  1
  B  B18  1  0.500000  0.753119  0.417025  1
  B  B19  1  0.500000  0.246881  0.582975  1
  B  B20  1  0.500000  0.297638  0.236432  1
  B  B21  1  0.500000  0.702362  0.763568  1
  B  B22  1  0.500000  0.797638  0.263568  1
  B  B23  1  0.500000  0.202362  0.736432  1
  B  B24  1  0.500000  0.129925  0.318112  1
  B  B25  1  0.500000  0.870075  0.681888  1
  B  B26  1  0.500000  0.629925  0.181888  1
  B  B27  1  0.500000  0.370075  0.818112  1
  B  B28  1  0.500000  0.482926  0.286235  1
  B  B29  1  0.500000  0.517074  0.713765  1
  B  B30  1  0.500000  0.982926  0.213765  1
  B  B31  1  0.500000  0.017074  0.786235  1
  B  B32  1  0.500000  0.099094  0.474013  1
  B  B33  1  0.500000  0.900906  0.525987  1
  B  B34  1  0.500000  0.599094  0.025987  1
  B  B35  1  0.500000  0.400906  0.974013  1
