# generated using pymatgen
data_EuZrP2
_symmetry_space_group_name_H-M   'P 1'
_cell_length_a   3.88911200
_cell_length_b   3.88911218
_cell_length_c   13.69185000
_cell_angle_alpha   90.00000000
_cell_angle_beta   90.00000000
_cell_angle_gamma   119.99999845
_symmetry_Int_Tables_number   1
_chemical_formula_structural   EuZrP2
_chemical_formula_sum   'Eu2 Zr2 P4'
_cell_volume   179.34682469
_cell_formula_units_Z   2
loop_
 _symmetry_equiv_pos_site_id
 _symmetry_equiv_pos_as_xyz
  1  'x, y, z'
loop_
 _atom_site_type_symbol
 _atom_site_label
 _atom_site_symmetry_multiplicity
 _atom_site_fract_x
 _atom_site_fract_y
 _atom_site_fract_z
 _atom_site_occupancy
  Eu  Eu0  1  0.333333  0.666667  0.379795  1
  Eu  Eu1  1  0.666667  0.333333  0.879795  1
  Zr  Zr2  1  0.666667  0.333333  0.621260  1
  Zr  Zr3  1  0.333333  0.666667  0.121260  1
  P  P4  1  0.666667  0.333333  0.235399  1
  P  P5  1  0.333333  0.666667  0.735399  1
  P  P6  1  0.000000  0.000000  0.513546  1
  P  P7  1  0.000000  0.000000  0.013546  1
