# generated using pymatgen
data_Ho6Sc4Tl7InPt4
_symmetry_space_group_name_H-M   'P 1'
_cell_length_a   3.60217500
_cell_length_b   8.03464670
_cell_length_c   17.94164158
_cell_angle_alpha   89.95213717
_cell_angle_beta   90.00000000
_cell_angle_gamma   90.00000000
_symmetry_Int_Tables_number   1
_chemical_formula_structural   Ho6Sc4Tl7InPt4
_chemical_formula_sum   'Ho6 Sc4 Tl7 In1 Pt4'
_cell_volume   519.27045975
_cell_formula_units_Z   1
loop_
 _symmetry_equiv_pos_site_id
 _symmetry_equiv_pos_as_xyz
  1  'x, y, z'
loop_
 _atom_site_type_symbol
 _atom_site_label
 _atom_site_symmetry_multiplicity
 _atom_site_fract_x
 _atom_site_fract_y
 _atom_site_fract_z
 _atom_site_occupancy
  Ho  Ho0  1  0.000000  0.242896  0.218184  1
  Ho  Ho1  1  0.000000  0.757029  0.782334  1
  Ho  Ho2  1  0.000000  0.256667  0.717028  1
  Ho  Ho3  1  0.000000  0.742340  0.283139  1
  Ho  Ho4  1  0.000000  0.999733  0.000037  1
  Ho  Ho5  1  0.000000  0.502304  0.499775  1
  Sc  Sc6  1  0.000000  0.115758  0.412020  1
  Sc  Sc7  1  0.000000  0.883780  0.587399  1
  Sc  Sc8  1  0.000000  0.384320  0.911043  1
  Sc  Sc9  1  0.000000  0.615598  0.088912  1
  Tl  Tl10  1  0.500000  0.415955  0.353374  1
  Tl  Tl11  1  0.500000  0.586095  0.646823  1
  Tl  Tl12  1  0.500000  0.085469  0.852713  1
  Tl  Tl13  1  0.500000  0.914666  0.147631  1
  Tl  Tl14  1  0.500000  0.305641  0.058431  1
  Tl  Tl15  1  0.500000  0.694005  0.941663  1
  Tl  Tl16  1  0.500000  0.193553  0.557749  1
  In  In17  1  0.500000  0.808564  0.440587  1
  Pt  Pt18  1  0.500000  0.027120  0.308084  1
  Pt  Pt19  1  0.500000  0.969406  0.693229  1
  Pt  Pt20  1  0.500000  0.469221  0.806185  1
  Pt  Pt21  1  0.500000  0.529880  0.193660  1
