# generated using pymatgen
data_Ba(SiAs)2
_symmetry_space_group_name_H-M   'P 1'
_cell_length_a   7.77117400
_cell_length_b   7.77117400
_cell_length_c   8.56121900
_cell_angle_alpha   90.00000000
_cell_angle_beta   90.00000000
_cell_angle_gamma   90.00000000
_symmetry_Int_Tables_number   1
_chemical_formula_structural   Ba(SiAs)2
_chemical_formula_sum   'Ba4 Si8 As8'
_cell_volume   517.02182090
_cell_formula_units_Z   4
loop_
 _symmetry_equiv_pos_site_id
 _symmetry_equiv_pos_as_xyz
  1  'x, y, z'
loop_
 _atom_site_type_symbol
 _atom_site_label
 _atom_site_symmetry_multiplicity
 _atom_site_fract_x
 _atom_site_fract_y
 _atom_site_fract_z
 _atom_site_occupancy
  Ba  Ba0  1  0.000000  0.500000  0.524827  1
  Ba  Ba1  1  0.500000  0.000000  0.024827  1
  Ba  Ba2  1  0.000000  0.000000  0.499529  1
  Ba  Ba3  1  0.000000  0.000000  0.999529  1
  Si  Si4  1  0.162806  0.500000  0.104088  1
  Si  Si5  1  0.500000  0.837194  0.604088  1
  Si  Si6  1  0.837194  0.500000  0.104088  1
  Si  Si7  1  0.500000  0.162806  0.604088  1
  Si  Si8  1  0.337467  0.500000  0.870718  1
  Si  Si9  1  0.500000  0.337467  0.370718  1
  Si  Si10  1  0.500000  0.662533  0.370718  1
  Si  Si11  1  0.662533  0.500000  0.870718  1
  As  As12  1  0.765831  0.252691  0.254933  1
  As  As13  1  0.234169  0.747309  0.254933  1
  As  As14  1  0.252691  0.234169  0.754933  1
  As  As15  1  0.747309  0.765831  0.754933  1
  As  As16  1  0.234169  0.252691  0.254933  1
  As  As17  1  0.747309  0.234169  0.754933  1
  As  As18  1  0.252691  0.765831  0.754933  1
  As  As19  1  0.765831  0.747309  0.254933  1
