# generated using pymatgen
data_Nd2Ga5Pt2Rh
_symmetry_space_group_name_H-M   'P 1'
_cell_length_a   8.67206924
_cell_length_b   8.67206970
_cell_length_c   8.67207014
_cell_angle_alpha   140.20101903
_cell_angle_beta   107.47444314
_cell_angle_gamma   86.06784803
_symmetry_Int_Tables_number   1
_chemical_formula_structural   Nd2Ga5Pt2Rh
_chemical_formula_sum   'Nd4 Ga10 Pt4 Rh2'
_cell_volume   383.89780499
_cell_formula_units_Z   2
loop_
 _symmetry_equiv_pos_site_id
 _symmetry_equiv_pos_as_xyz
  1  'x, y, z'
loop_
 _atom_site_type_symbol
 _atom_site_label
 _atom_site_symmetry_multiplicity
 _atom_site_fract_x
 _atom_site_fract_y
 _atom_site_fract_z
 _atom_site_occupancy
  Nd  Nd0  1  0.636953  0.864659  0.772294  1
  Nd  Nd1  1  0.363047  0.135341  0.227706  1
  Nd  Nd2  1  0.092365  0.364659  0.727706  1
  Nd  Nd3  1  0.907635  0.635341  0.272294  1
  Ga  Ga4  1  0.288482  0.038482  0.750000  1
  Ga  Ga5  1  0.711518  0.961518  0.250000  1
  Ga  Ga6  1  0.711518  0.461518  0.750000  1
  Ga  Ga7  1  0.288482  0.538482  0.250000  1
  Ga  Ga8  1  0.435754  0.595450  0.840304  1
  Ga  Ga9  1  0.564246  0.404550  0.159696  1
  Ga  Ga10  1  0.755145  0.095450  0.659696  1
  Ga  Ga11  1  0.244855  0.904550  0.340304  1
  Ga  Ga12  1  0.000000  0.750000  0.750000  1
  Ga  Ga13  1  0.000000  0.250000  0.250000  1
  Pt  Pt14  1  0.247012  0.644276  0.602737  1
  Pt  Pt15  1  0.752988  0.355724  0.397263  1
  Pt  Pt16  1  0.041539  0.144276  0.897263  1
  Pt  Pt17  1  0.958461  0.855724  0.102737  1
  Rh  Rh18  1  0.500000  0.750000  0.250000  1
  Rh  Rh19  1  0.500000  0.250000  0.750000  1
