# generated using pymatgen
data_Lu4Al5Tc3
_symmetry_space_group_name_H-M   'P 1'
_cell_length_a   5.45262439
_cell_length_b   5.47191527
_cell_length_c   8.70475100
_cell_angle_alpha   90.00000000
_cell_angle_beta   90.00000000
_cell_angle_gamma   120.11709273
_symmetry_Int_Tables_number   1
_chemical_formula_structural   Lu4Al5Tc3
_chemical_formula_sum   'Lu4 Al5 Tc3'
_cell_volume   224.65614075
_cell_formula_units_Z   1
loop_
 _symmetry_equiv_pos_site_id
 _symmetry_equiv_pos_as_xyz
  1  'x, y, z'
loop_
 _atom_site_type_symbol
 _atom_site_label
 _atom_site_symmetry_multiplicity
 _atom_site_fract_x
 _atom_site_fract_y
 _atom_site_fract_z
 _atom_site_occupancy
  Lu  Lu0  1  0.336150  0.668075  0.443678  1
  Lu  Lu1  1  0.665352  0.332676  0.555084  1
  Lu  Lu2  1  0.665352  0.332676  0.944916  1
  Lu  Lu3  1  0.336150  0.668075  0.056322  1
  Al  Al4  1  0.835206  0.162951  0.250000  1
  Al  Al5  1  0.835206  0.672255  0.250000  1
  Al  Al6  1  0.323731  0.161865  0.250000  1
  Al  Al7  1  0.186273  0.842740  0.750000  1
  Al  Al8  1  0.186273  0.343533  0.750000  1
  Tc  Tc9  1  0.977386  0.988693  0.509923  1
  Tc  Tc10  1  0.977386  0.988693  0.990077  1
  Tc  Tc11  1  0.675536  0.837768  0.750000  1
