# generated using pymatgen
data_Rb4GaSb7Au8
_symmetry_space_group_name_H-M   'P 1'
_cell_length_a   4.85883000
_cell_length_b   9.04419450
_cell_length_c   12.47627418
_cell_angle_alpha   89.53357212
_cell_angle_beta   90.00000000
_cell_angle_gamma   90.00000000
_symmetry_Int_Tables_number   1
_chemical_formula_structural   Rb4GaSb7Au8
_chemical_formula_sum   'Rb4 Ga1 Sb7 Au8'
_cell_volume   548.24176515
_cell_formula_units_Z   1
loop_
 _symmetry_equiv_pos_site_id
 _symmetry_equiv_pos_as_xyz
  1  'x, y, z'
loop_
 _atom_site_type_symbol
 _atom_site_label
 _atom_site_symmetry_multiplicity
 _atom_site_fract_x
 _atom_site_fract_y
 _atom_site_fract_z
 _atom_site_occupancy
  Rb  Rb0  1  0.750000  0.742822  0.331746  1
  Rb  Rb1  1  0.250000  0.756789  0.840161  1
  Rb  Rb2  1  0.250000  0.257961  0.667012  1
  Rb  Rb3  1  0.750000  0.243111  0.163757  1
  Ga  Ga4  1  0.250000  0.387327  0.947568  1
  Sb  Sb5  1  0.250000  0.402923  0.344760  1
  Sb  Sb6  1  0.250000  0.913355  0.154456  1
  Sb  Sb7  1  0.750000  0.604713  0.042656  1
  Sb  Sb8  1  0.750000  0.596533  0.655377  1
  Sb  Sb9  1  0.750000  0.098822  0.849557  1
  Sb  Sb10  1  0.250000  0.889044  0.549953  1
  Sb  Sb11  1  0.750000  0.110727  0.455050  1
  Au  Au12  1  0.250000  0.090214  0.965655  1
  Au  Au13  1  0.750000  0.431120  0.850818  1
  Au  Au14  1  0.750000  0.934259  0.657055  1
  Au  Au15  1  0.250000  0.556591  0.144641  1
  Au  Au16  1  0.250000  0.070958  0.347694  1
  Au  Au17  1  0.750000  0.910286  0.034178  1
  Au  Au18  1  0.250000  0.584806  0.531616  1
  Au  Au19  1  0.750000  0.417639  0.466291  1
