# generated using pymatgen
data_Ba2NdAg5S6
_symmetry_space_group_name_H-M   'P 1'
_cell_length_a   4.24959700
_cell_length_b   7.38091234
_cell_length_c   11.31138086
_cell_angle_alpha   95.02339272
_cell_angle_beta   90.00000000
_cell_angle_gamma   106.73093095
_symmetry_Int_Tables_number   1
_chemical_formula_structural   Ba2NdAg5S6
_chemical_formula_sum   'Ba2 Nd1 Ag5 S6'
_cell_volume   338.34912728
_cell_formula_units_Z   1
loop_
 _symmetry_equiv_pos_site_id
 _symmetry_equiv_pos_as_xyz
  1  'x, y, z'
loop_
 _atom_site_type_symbol
 _atom_site_label
 _atom_site_symmetry_multiplicity
 _atom_site_fract_x
 _atom_site_fract_y
 _atom_site_fract_z
 _atom_site_occupancy
  Ba  Ba0  1  0.251928  0.503856  0.704482  1
  Ba  Ba1  1  0.748072  0.496144  0.295518  1
  Nd  Nd2  1  0.500000  0.000000  0.500000  1
  Ag  Ag3  1  0.018369  0.036738  0.256152  1
  Ag  Ag4  1  0.981631  0.963262  0.743848  1
  Ag  Ag5  1  0.352134  0.704268  0.037746  1
  Ag  Ag6  1  0.647866  0.295732  0.962254  1
  Ag  Ag7  1  0.000000  0.000000  0.000000  1
  S  S8  1  0.129229  0.258457  0.451222  1
  S  S9  1  0.870771  0.741543  0.548778  1
  S  S10  1  0.157132  0.314264  0.101817  1
  S  S11  1  0.842868  0.685736  0.898183  1
  S  S12  1  0.412032  0.824064  0.261127  1
  S  S13  1  0.587968  0.175936  0.738873  1
