# generated using pymatgen
data_Be3Re2Ni
_symmetry_space_group_name_H-M   'P 1'
_cell_length_a   4.44073528
_cell_length_b   4.41277590
_cell_length_c   7.28391100
_cell_angle_alpha   90.00000000
_cell_angle_beta   90.00000000
_cell_angle_gamma   119.79195042
_symmetry_Int_Tables_number   1
_chemical_formula_structural   Be3Re2Ni
_chemical_formula_sum   'Be6 Re4 Ni2'
_cell_volume   123.87072568
_cell_formula_units_Z   2
loop_
 _symmetry_equiv_pos_site_id
 _symmetry_equiv_pos_as_xyz
  1  'x, y, z'
loop_
 _atom_site_type_symbol
 _atom_site_label
 _atom_site_symmetry_multiplicity
 _atom_site_fract_x
 _atom_site_fract_y
 _atom_site_fract_z
 _atom_site_occupancy
  Be  Be0  1  0.000000  0.001222  0.000000  1
  Be  Be1  1  0.000000  0.001222  0.500000  1
  Be  Be2  1  0.659528  0.827088  0.750000  1
  Be  Be3  1  0.340472  0.167560  0.250000  1
  Be  Be4  1  0.829812  0.169628  0.250000  1
  Be  Be5  1  0.170188  0.339816  0.750000  1
  Re  Re6  1  0.338389  0.666610  0.060565  1
  Re  Re7  1  0.661611  0.328220  0.560565  1
  Re  Re8  1  0.661611  0.328220  0.939435  1
  Re  Re9  1  0.338389  0.666610  0.439435  1
  Ni  Ni10  1  0.838130  0.670968  0.250000  1
  Ni  Ni11  1  0.161870  0.832837  0.750000  1
