# generated using pymatgen
data_Zn2GaCu10
_symmetry_space_group_name_H-M   'P 1'
_cell_length_a   9.35771739
_cell_length_b   9.37063328
_cell_length_c   4.26638700
_cell_angle_alpha   90.00000000
_cell_angle_beta   90.00000000
_cell_angle_gamma   120.10767371
_symmetry_Int_Tables_number   1
_chemical_formula_structural   Zn2GaCu10
_chemical_formula_sum   'Zn4 Ga2 Cu20'
_cell_volume   323.63651563
_cell_formula_units_Z   2
loop_
 _symmetry_equiv_pos_site_id
 _symmetry_equiv_pos_as_xyz
  1  'x, y, z'
loop_
 _atom_site_type_symbol
 _atom_site_label
 _atom_site_symmetry_multiplicity
 _atom_site_fract_x
 _atom_site_fract_y
 _atom_site_fract_z
 _atom_site_occupancy
  Zn  Zn0  1  0.362738  0.104919  0.250000  1
  Zn  Zn1  1  0.893843  0.256254  0.250000  1
  Zn  Zn2  1  0.742330  0.638141  0.250000  1
  Zn  Zn3  1  0.638138  0.895158  0.750000  1
  Ga  Ga4  1  0.105568  0.743685  0.750000  1
  Ga  Ga5  1  0.257364  0.362899  0.750000  1
  Cu  Cu6  1  0.333003  0.666487  0.750000  1
  Cu  Cu7  1  0.666730  0.333770  0.250000  1
  Cu  Cu8  1  0.125938  0.177574  0.250000  1
  Cu  Cu9  1  0.822592  0.948088  0.250000  1
  Cu  Cu10  1  0.052212  0.873984  0.250000  1
  Cu  Cu11  1  0.874024  0.821973  0.750000  1
  Cu  Cu12  1  0.177657  0.052747  0.750000  1
  Cu  Cu13  1  0.947340  0.125901  0.750000  1
  Cu  Cu14  1  0.433957  0.411008  0.250000  1
  Cu  Cu15  1  0.588899  0.022731  0.250000  1
  Cu  Cu16  1  0.977412  0.566028  0.250000  1
  Cu  Cu17  1  0.565933  0.588727  0.750000  1
  Cu  Cu18  1  0.411090  0.976436  0.750000  1
  Cu  Cu19  1  0.022844  0.434456  0.750000  1
  Cu  Cu20  1  0.205156  0.487171  0.250000  1
  Cu  Cu21  1  0.511992  0.717405  0.250000  1
  Cu  Cu22  1  0.283728  0.794840  0.250000  1
  Cu  Cu23  1  0.795139  0.511316  0.750000  1
  Cu  Cu24  1  0.488415  0.283457  0.750000  1
  Cu  Cu25  1  0.715958  0.204845  0.750000  1
