# generated using pymatgen
data_Tm3Sc(IrO4)4
_symmetry_space_group_name_H-M   'P 1'
_cell_length_a   5.26079620
_cell_length_b   7.30910563
_cell_length_c   7.54962232
_cell_angle_alpha   81.01882528
_cell_angle_beta   93.12158878
_cell_angle_gamma   90.42742520
_symmetry_Int_Tables_number   1
_chemical_formula_structural   Tm3Sc(IrO4)4
_chemical_formula_sum   'Tm3 Sc1 Ir4 O16'
_cell_volume   286.31119429
_cell_formula_units_Z   1
loop_
 _symmetry_equiv_pos_site_id
 _symmetry_equiv_pos_as_xyz
  1  'x, y, z'
loop_
 _atom_site_type_symbol
 _atom_site_label
 _atom_site_symmetry_multiplicity
 _atom_site_fract_x
 _atom_site_fract_y
 _atom_site_fract_z
 _atom_site_occupancy
  Tm  Tm0  1  0.240466  0.883508  0.370734  1
  Tm  Tm1  1  0.758805  0.117737  0.623207  1
  Tm  Tm2  1  0.702135  0.610945  0.663954  1
  Sc  Sc3  1  0.292220  0.382410  0.337638  1
  Ir  Ir4  1  0.780607  0.199868  0.163252  1
  Ir  Ir5  1  0.742534  0.699631  0.163544  1
  Ir  Ir6  1  0.258684  0.297620  0.837608  1
  Ir  Ir7  1  0.218421  0.801261  0.837807  1
  O  O8  1  0.105586  0.307029  0.066679  1
  O  O9  1  0.418593  0.814493  0.058530  1
  O  O10  1  0.621616  0.442598  0.175763  1
  O  O11  1  0.900066  0.944562  0.173820  1
  O  O12  1  0.508987  0.119163  0.330997  1
  O  O13  1  0.005368  0.185408  0.393525  1
  O  O14  1  0.059253  0.611525  0.298174  1
  O  O15  1  0.554870  0.679275  0.389804  1
  O  O16  1  0.443465  0.330385  0.601917  1
  O  O17  1  0.946106  0.375847  0.702546  1
  O  O18  1  0.000644  0.822202  0.603288  1
  O  O19  1  0.488864  0.886511  0.672240  1
  O  O20  1  0.100344  0.054248  0.825997  1
  O  O21  1  0.367822  0.555338  0.832555  1
  O  O22  1  0.585375  0.188594  0.940331  1
  O  O23  1  0.899168  0.689843  0.936089  1
