# generated using pymatgen
data_Lu3B2Ir5
_symmetry_space_group_name_H-M   'P 1'
_cell_length_a   9.80530600
_cell_length_b   9.80530600
_cell_length_c   3.18284100
_cell_angle_alpha   90.00000000
_cell_angle_beta   90.00000000
_cell_angle_gamma   90.00000000
_symmetry_Int_Tables_number   1
_chemical_formula_structural   Lu3B2Ir5
_chemical_formula_sum   'Lu6 B4 Ir10'
_cell_volume   306.01114707
_cell_formula_units_Z   2
loop_
 _symmetry_equiv_pos_site_id
 _symmetry_equiv_pos_as_xyz
  1  'x, y, z'
loop_
 _atom_site_type_symbol
 _atom_site_label
 _atom_site_symmetry_multiplicity
 _atom_site_fract_x
 _atom_site_fract_y
 _atom_site_fract_z
 _atom_site_occupancy
  Lu  Lu0  1  0.176274  0.676274  0.000000  1
  Lu  Lu1  1  0.323726  0.176274  0.000000  1
  Lu  Lu2  1  0.823726  0.323726  0.000000  1
  Lu  Lu3  1  0.500000  0.500000  0.000000  1
  Lu  Lu4  1  0.676274  0.823726  0.000000  1
  Lu  Lu5  1  0.000000  0.000000  0.000000  1
  B  B6  1  0.379942  0.879942  0.000000  1
  B  B7  1  0.120058  0.379942  0.000000  1
  B  B8  1  0.879942  0.620058  0.000000  1
  B  B9  1  0.620058  0.120058  0.000000  1
  Ir  Ir10  1  0.228274  0.929856  0.500000  1
  Ir  Ir11  1  0.929856  0.771726  0.500000  1
  Ir  Ir12  1  0.429856  0.728274  0.500000  1
  Ir  Ir13  1  0.570144  0.271726  0.500000  1
  Ir  Ir14  1  0.728274  0.570144  0.500000  1
  Ir  Ir15  1  0.271726  0.429856  0.500000  1
  Ir  Ir16  1  0.070144  0.228274  0.500000  1
  Ir  Ir17  1  0.000000  0.500000  0.500000  1
  Ir  Ir18  1  0.500000  0.000000  0.500000  1
  Ir  Ir19  1  0.771726  0.070144  0.500000  1
