# generated using pymatgen
data_PrNd11Ir3Pd
_symmetry_space_group_name_H-M   'P 1'
_cell_length_a   6.57952942
_cell_length_b   7.37745663
_cell_length_c   9.92153100
_cell_angle_alpha   90.00000000
_cell_angle_beta   90.00000000
_cell_angle_gamma   90.16001808
_symmetry_Int_Tables_number   1
_chemical_formula_structural   PrNd11Ir3Pd
_chemical_formula_sum   'Pr1 Nd11 Ir3 Pd1'
_cell_volume   481.59115099
_cell_formula_units_Z   1
loop_
 _symmetry_equiv_pos_site_id
 _symmetry_equiv_pos_as_xyz
  1  'x, y, z'
loop_
 _atom_site_type_symbol
 _atom_site_label
 _atom_site_symmetry_multiplicity
 _atom_site_fract_x
 _atom_site_fract_y
 _atom_site_fract_z
 _atom_site_occupancy
  Pr  Pr0  1  0.856851  0.524062  0.250000  1
  Nd  Nd1  1  0.335306  0.671591  0.062556  1
  Nd  Nd2  1  0.171182  0.181349  0.437688  1
  Nd  Nd3  1  0.672704  0.324308  0.565855  1
  Nd  Nd4  1  0.828733  0.825021  0.932088  1
  Nd  Nd5  1  0.672704  0.324308  0.934145  1
  Nd  Nd6  1  0.828733  0.825021  0.567912  1
  Nd  Nd7  1  0.335306  0.671591  0.437444  1
  Nd  Nd8  1  0.171182  0.181349  0.062312  1
  Nd  Nd9  1  0.630538  0.036809  0.250000  1
  Nd  Nd10  1  0.138919  0.464951  0.750000  1
  Nd  Nd11  1  0.361180  0.965529  0.750000  1
  Ir  Ir12  1  0.433137  0.381526  0.250000  1
  Ir  Ir13  1  0.936417  0.118893  0.750000  1
  Ir  Ir14  1  0.560317  0.618358  0.750000  1
  Pd  Pd15  1  0.066790  0.885333  0.250000  1
