# generated using pymatgen
data_TiAlBiO5
_symmetry_space_group_name_H-M   'P 1'
_cell_length_a   5.82697300
_cell_length_b   7.64233300
_cell_length_c   8.54842000
_cell_angle_alpha   90.00000000
_cell_angle_beta   90.00000000
_cell_angle_gamma   90.00000000
_symmetry_Int_Tables_number   1
_chemical_formula_structural   TiAlBiO5
_chemical_formula_sum   'Ti4 Al4 Bi4 O20'
_cell_volume   380.67540177
_cell_formula_units_Z   4
loop_
 _symmetry_equiv_pos_site_id
 _symmetry_equiv_pos_as_xyz
  1  'x, y, z'
loop_
 _atom_site_type_symbol
 _atom_site_label
 _atom_site_symmetry_multiplicity
 _atom_site_fract_x
 _atom_site_fract_y
 _atom_site_fract_z
 _atom_site_occupancy
  Ti  Ti0  1  0.500000  0.873545  0.143689  1
  Ti  Ti1  1  0.500000  0.626455  0.643689  1
  Ti  Ti2  1  0.500000  0.373545  0.356311  1
  Ti  Ti3  1  0.500000  0.126455  0.856311  1
  Al  Al4  1  0.751131  0.500000  0.000000  1
  Al  Al5  1  0.248869  0.500000  0.000000  1
  Al  Al6  1  0.751131  0.000000  0.500000  1
  Al  Al7  1  0.248869  0.000000  0.500000  1
  Bi  Bi8  1  0.000000  0.838807  0.835414  1
  Bi  Bi9  1  0.000000  0.338807  0.664586  1
  Bi  Bi10  1  0.000000  0.161193  0.164586  1
  Bi  Bi11  1  0.000000  0.661193  0.335414  1
  O  O12  1  0.500000  0.649082  0.073804  1
  O  O13  1  0.000000  0.153307  0.444905  1
  O  O14  1  0.260653  0.887786  0.298480  1
  O  O15  1  0.710121  0.000000  0.000000  1
  O  O16  1  0.739347  0.612214  0.798480  1
  O  O17  1  0.739347  0.112214  0.701520  1
  O  O18  1  0.500000  0.350918  0.926196  1
  O  O19  1  0.289879  0.500000  0.500000  1
  O  O20  1  0.000000  0.846693  0.555095  1
  O  O21  1  0.260653  0.112214  0.701520  1
  O  O22  1  0.000000  0.653307  0.055095  1
  O  O23  1  0.739347  0.387786  0.201520  1
  O  O24  1  0.739347  0.887786  0.298480  1
  O  O25  1  0.260653  0.612214  0.798480  1
  O  O26  1  0.289879  0.000000  0.000000  1
  O  O27  1  0.500000  0.850918  0.573804  1
  O  O28  1  0.500000  0.149082  0.426196  1
  O  O29  1  0.710121  0.500000  0.500000  1
  O  O30  1  0.260653  0.387786  0.201520  1
  O  O31  1  0.000000  0.346693  0.944905  1
