# generated using pymatgen
data_PuGa6Cu7
_symmetry_space_group_name_H-M   'P 1'
_cell_length_a   8.42572757
_cell_length_b   8.42572781
_cell_length_c   8.42572676
_cell_angle_alpha   122.02620534
_cell_angle_beta   119.15877325
_cell_angle_gamma   88.99505686
_symmetry_Int_Tables_number   1
_chemical_formula_structural   PuGa6Cu7
_chemical_formula_sum   'Pu2 Ga12 Cu14'
_cell_volume   418.77464055
_cell_formula_units_Z   2
loop_
 _symmetry_equiv_pos_site_id
 _symmetry_equiv_pos_as_xyz
  1  'x, y, z'
loop_
 _atom_site_type_symbol
 _atom_site_label
 _atom_site_symmetry_multiplicity
 _atom_site_fract_x
 _atom_site_fract_y
 _atom_site_fract_z
 _atom_site_occupancy
  Pu  Pu0  1  0.250000  0.750000  0.500000  1
  Pu  Pu1  1  0.750000  0.250000  0.500000  1
  Ga  Ga2  1  0.553208  0.542073  0.358540  1
  Ga  Ga3  1  0.446792  0.457927  0.641460  1
  Ga  Ga4  1  0.183532  0.194667  0.641460  1
  Ga  Ga5  1  0.316468  0.957927  0.011135  1
  Ga  Ga6  1  0.816468  0.805333  0.358540  1
  Ga  Ga7  1  0.683532  0.042073  0.988865  1
  Ga  Ga8  1  0.946792  0.305333  0.988865  1
  Ga  Ga9  1  0.053208  0.694667  0.011135  1
  Ga  Ga10  1  0.050927  0.312825  0.363752  1
  Ga  Ga11  1  0.949073  0.687175  0.636248  1
  Ga  Ga12  1  0.550927  0.187175  0.738101  1
  Ga  Ga13  1  0.449073  0.812825  0.261899  1
  Cu  Cu14  1  0.286082  0.297546  0.233080  1
  Cu  Cu15  1  0.713918  0.702454  0.766920  1
  Cu  Cu16  1  0.064465  0.053002  0.766920  1
  Cu  Cu17  1  0.435535  0.202454  0.988537  1
  Cu  Cu18  1  0.935535  0.946998  0.233080  1
  Cu  Cu19  1  0.564465  0.797546  0.011463  1
  Cu  Cu20  1  0.213918  0.446998  0.011463  1
  Cu  Cu21  1  0.786082  0.553002  0.988537  1
  Cu  Cu22  1  0.000000  0.000000  0.000000  1
  Cu  Cu23  1  0.500000  0.500000  0.000000  1
  Cu  Cu24  1  0.285715  0.067223  0.352939  1
  Cu  Cu25  1  0.714285  0.932777  0.647061  1
  Cu  Cu26  1  0.785715  0.432777  0.218493  1
  Cu  Cu27  1  0.214285  0.567223  0.781507  1
