# generated using pymatgen
data_ThTl4(MoO4)4
_symmetry_space_group_name_H-M   'P 1'
_cell_length_a   10.69550775
_cell_length_b   10.69550824
_cell_length_c   10.69550700
_cell_angle_alpha   102.95165692
_cell_angle_beta   112.82610598
_cell_angle_gamma   112.82610624
_symmetry_Int_Tables_number   1
_chemical_formula_structural   ThTl4(MoO4)4
_chemical_formula_sum   'Th2 Tl8 Mo8 O32'
_cell_volume   932.84855086
_cell_formula_units_Z   2
loop_
 _symmetry_equiv_pos_site_id
 _symmetry_equiv_pos_as_xyz
  1  'x, y, z'
loop_
 _atom_site_type_symbol
 _atom_site_label
 _atom_site_symmetry_multiplicity
 _atom_site_fract_x
 _atom_site_fract_y
 _atom_site_fract_z
 _atom_site_occupancy
  Th  Th0  1  0.250000  0.875000  0.625000  1
  Th  Th1  1  0.750000  0.125000  0.375000  1
  Tl  Tl2  1  0.587580  0.448816  0.360480  1
  Tl  Tl3  1  0.588337  0.361236  0.948816  1
  Tl  Tl4  1  0.912420  0.272900  0.861236  1
  Tl  Tl5  1  0.911663  0.860480  0.772900  1
  Tl  Tl6  1  0.411663  0.638764  0.051184  1
  Tl  Tl7  1  0.088337  0.139520  0.227100  1
  Tl  Tl8  1  0.412420  0.551184  0.639520  1
  Tl  Tl9  1  0.087580  0.727100  0.138764  1
  Mo  Mo10  1  0.843709  0.805423  0.321406  1
  Mo  Mo11  1  0.656291  0.977697  0.961713  1
  Mo  Mo12  1  0.343709  0.022303  0.038287  1
  Mo  Mo13  1  0.015983  0.538287  0.694577  1
  Mo  Mo14  1  0.156291  0.194577  0.678594  1
  Mo  Mo15  1  0.984017  0.461713  0.305423  1
  Mo  Mo16  1  0.515983  0.821406  0.477697  1
  Mo  Mo17  1  0.484017  0.178594  0.522303  1
  O  O18  1  0.072514  0.666800  0.376727  1
  O  O19  1  0.786215  0.009978  0.891979  1
  O  O20  1  0.940167  0.861354  0.224223  1
  O  O21  1  0.008711  0.142065  0.484068  1
  O  O22  1  0.290075  0.123273  0.695790  1
  O  O23  1  0.790075  0.094285  0.166800  1
  O  O24  1  0.637130  0.275777  0.715944  1
  O  O25  1  0.713785  0.605765  0.223765  1
  O  O26  1  0.118000  0.608021  0.894235  1
  O  O27  1  0.286215  0.394235  0.776235  1
  O  O28  1  0.572514  0.195790  0.405715  1
  O  O29  1  0.618000  0.723765  0.509978  1
  O  O30  1  0.508711  0.024642  0.866647  1
  O  O31  1  0.927486  0.333200  0.623274  1
  O  O32  1  0.491289  0.975358  0.133353  1
  O  O33  1  0.657998  0.015932  0.524642  1
  O  O34  1  0.059833  0.138646  0.775777  1
  O  O35  1  0.440167  0.215944  0.078814  1
  O  O36  1  0.342002  0.984068  0.475358  1
  O  O37  1  0.709925  0.876726  0.304210  1
  O  O38  1  0.559833  0.784056  0.921186  1
  O  O39  1  0.427486  0.804210  0.594285  1
  O  O40  1  0.842002  0.366647  0.357935  1
  O  O41  1  0.213785  0.990022  0.108021  1
  O  O42  1  0.137130  0.421186  0.361354  1
  O  O43  1  0.882000  0.391979  0.105765  1
  O  O44  1  0.209925  0.905715  0.833200  1
  O  O45  1  0.362870  0.724223  0.284056  1
  O  O46  1  0.991289  0.857935  0.515932  1
  O  O47  1  0.862870  0.578814  0.638646  1
  O  O48  1  0.157998  0.633353  0.642065  1
  O  O49  1  0.382000  0.276235  0.490022  1
