# generated using pymatgen
data_Cs(P2O5)2
_symmetry_space_group_name_H-M   'P 1'
_cell_length_a   9.15984982
_cell_length_b   9.41995952
_cell_length_c   8.93040975
_cell_angle_alpha   98.05280390
_cell_angle_beta   109.38509358
_cell_angle_gamma   125.01006772
_symmetry_Int_Tables_number   1
_chemical_formula_structural   Cs(P2O5)2
_chemical_formula_sum   'Cs2 P8 O20'
_cell_volume   538.12787915
_cell_formula_units_Z   2
loop_
 _symmetry_equiv_pos_site_id
 _symmetry_equiv_pos_as_xyz
  1  'x, y, z'
loop_
 _atom_site_type_symbol
 _atom_site_label
 _atom_site_symmetry_multiplicity
 _atom_site_fract_x
 _atom_site_fract_y
 _atom_site_fract_z
 _atom_site_occupancy
  Cs  Cs0  1  0.160227  0.109045  0.077253  1
  Cs  Cs1  1  0.356143  0.870717  0.502185  1
  P  P2  1  0.915504  0.532308  0.936177  1
  P  P3  1  0.197861  0.369646  0.528844  1
  P  P4  1  0.876555  0.760819  0.548196  1
  P  P5  1  0.596394  0.917832  0.995893  1
  P  P6  1  0.737922  0.334899  0.150200  1
  P  P7  1  0.801817  0.968436  0.364102  1
  P  P8  1  0.581025  0.451094  0.615510  1
  P  P9  1  0.183714  0.506571  0.848123  1
  O  O10  1  0.591298  0.074122  0.055939  1
  O  O11  1  0.753637  0.932097  0.166032  1
  O  O12  1  0.566553  0.334460  0.103164  1
  O  O13  1  0.775255  0.342349  0.945111  1
  O  O14  1  0.085180  0.713348  0.097060  1
  O  O15  1  0.180193  0.419258  0.379145  1
  O  O16  1  0.051533  0.144809  0.476411  1
  O  O17  1  0.688759  0.008789  0.415549  1
  O  O18  1  0.944102  0.660754  0.499821  1
  O  O19  1  0.779350  0.792503  0.372861  1
  O  O20  1  0.419380  0.444942  0.661073  1
  O  O21  1  0.151258  0.455678  0.653202  1
  O  O22  1  0.492427  0.258988  0.508856  1
  O  O23  1  0.646813  0.600550  0.535311  1
  O  O24  1  0.005654  0.939553  0.707449  1
  O  O25  1  0.640890  0.895060  0.854723  1
  O  O26  1  0.371498  0.729949  0.952136  1
  O  O27  1  0.201901  0.391839  0.933536  1
  O  O28  1  0.771001  0.563606  0.809679  1
  O  O29  1  0.991351  0.491178  0.806462  1
