# generated using pymatgen
data_La3Th(Mo2O7)2
_symmetry_space_group_name_H-M   'P 1'
_cell_length_a   7.55832109
_cell_length_b   7.61874183
_cell_length_c   7.61874200
_cell_angle_alpha   59.99999925
_cell_angle_beta   59.73520774
_cell_angle_gamma   59.73519892
_symmetry_Int_Tables_number   1
_chemical_formula_structural   La3Th(Mo2O7)2
_chemical_formula_sum   'La3 Th1 Mo4 O14'
_cell_volume   308.97760027
_cell_formula_units_Z   1
loop_
 _symmetry_equiv_pos_site_id
 _symmetry_equiv_pos_as_xyz
  1  'x, y, z'
loop_
 _atom_site_type_symbol
 _atom_site_label
 _atom_site_symmetry_multiplicity
 _atom_site_fract_x
 _atom_site_fract_y
 _atom_site_fract_z
 _atom_site_occupancy
  La  La0  1  0.125000  0.125000  0.125000  1
  La  La1  1  0.125000  0.125000  0.625000  1
  La  La2  1  0.125000  0.625000  0.125000  1
  Th  Th3  1  0.625000  0.125000  0.125000  1
  Mo  Mo4  1  0.625000  0.625000  0.625000  1
  Mo  Mo5  1  0.125000  0.625000  0.625000  1
  Mo  Mo6  1  0.625000  0.625000  0.125000  1
  Mo  Mo7  1  0.625000  0.125000  0.625000  1
  O  O8  1  0.990492  0.003169  0.003169  1
  O  O9  1  0.259508  0.246831  0.246831  1
  O  O10  1  0.294481  0.278097  0.713711  1
  O  O11  1  0.556481  0.524730  0.959394  1
  O  O12  1  0.693519  0.290606  0.725270  1
  O  O13  1  0.693519  0.290606  0.290606  1
  O  O14  1  0.294481  0.713711  0.713711  1
  O  O15  1  0.294481  0.713711  0.278097  1
  O  O16  1  0.693519  0.725270  0.290606  1
  O  O17  1  0.955519  0.536289  0.536289  1
  O  O18  1  0.556481  0.959394  0.959394  1
  O  O19  1  0.955519  0.971903  0.536289  1
  O  O20  1  0.955519  0.536289  0.971903  1
  O  O21  1  0.556481  0.959394  0.524730  1
