# generated using pymatgen
data_Dy12Co6Sn
_symmetry_space_group_name_H-M   'P 1'
_cell_length_a   8.32916388
_cell_length_b   8.32916426
_cell_length_c   8.32916400
_cell_angle_alpha   109.47121999
_cell_angle_beta   109.47122093
_cell_angle_gamma   109.47122284
_symmetry_Int_Tables_number   1
_chemical_formula_structural   Dy12Co6Sn
_chemical_formula_sum   'Dy12 Co6 Sn1'
_cell_volume   444.81799362
_cell_formula_units_Z   1
loop_
 _symmetry_equiv_pos_site_id
 _symmetry_equiv_pos_as_xyz
  1  'x, y, z'
loop_
 _atom_site_type_symbol
 _atom_site_label
 _atom_site_symmetry_multiplicity
 _atom_site_fract_x
 _atom_site_fract_y
 _atom_site_fract_z
 _atom_site_occupancy
  Dy  Dy0  1  0.806276  0.696646  0.502923  1
  Dy  Dy1  1  0.193724  0.303354  0.497077  1
  Dy  Dy2  1  0.193724  0.696646  0.890370  1
  Dy  Dy3  1  0.806276  0.303354  0.109630  1
  Dy  Dy4  1  0.696646  0.502923  0.806276  1
  Dy  Dy5  1  0.303354  0.497077  0.193724  1
  Dy  Dy6  1  0.696646  0.890370  0.193724  1
  Dy  Dy7  1  0.303354  0.109630  0.806276  1
  Dy  Dy8  1  0.502923  0.806276  0.696646  1
  Dy  Dy9  1  0.497077  0.193724  0.303354  1
  Dy  Dy10  1  0.109630  0.806276  0.303354  1
  Dy  Dy11  1  0.890370  0.193724  0.696646  1
  Co  Co12  1  0.886391  0.386391  0.500000  1
  Co  Co13  1  0.113609  0.613609  0.500000  1
  Co  Co14  1  0.386391  0.500000  0.886391  1
  Co  Co15  1  0.613609  0.500000  0.113609  1
  Co  Co16  1  0.500000  0.886391  0.386391  1
  Co  Co17  1  0.500000  0.113609  0.613609  1
  Sn  Sn18  1  0.000000  0.000000  0.000000  1
