# generated using pymatgen
data_Tm10Cd3Pt
_symmetry_space_group_name_H-M   'P 1'
_cell_length_a   9.57823400
_cell_length_b   9.57823266
_cell_length_c   9.61353700
_cell_angle_alpha   90.00000000
_cell_angle_beta   90.00000000
_cell_angle_gamma   119.99999771
_symmetry_Int_Tables_number   1
_chemical_formula_structural   Tm10Cd3Pt
_chemical_formula_sum   'Tm20 Cd6 Pt2'
_cell_volume   763.80881962
_cell_formula_units_Z   2
loop_
 _symmetry_equiv_pos_site_id
 _symmetry_equiv_pos_as_xyz
  1  'x, y, z'
loop_
 _atom_site_type_symbol
 _atom_site_label
 _atom_site_symmetry_multiplicity
 _atom_site_fract_x
 _atom_site_fract_y
 _atom_site_fract_z
 _atom_site_occupancy
  Tm  Tm0  1  0.207562  0.792438  0.940831  1
  Tm  Tm1  1  0.207562  0.415124  0.940831  1
  Tm  Tm2  1  0.584876  0.792438  0.940831  1
  Tm  Tm3  1  0.792438  0.207562  0.059169  1
  Tm  Tm4  1  0.792438  0.584876  0.059169  1
  Tm  Tm5  1  0.415124  0.207562  0.059169  1
  Tm  Tm6  1  0.792438  0.207562  0.440831  1
  Tm  Tm7  1  0.792438  0.584876  0.440831  1
  Tm  Tm8  1  0.415124  0.207562  0.440831  1
  Tm  Tm9  1  0.207562  0.792438  0.559169  1
  Tm  Tm10  1  0.207562  0.415124  0.559169  1
  Tm  Tm11  1  0.584876  0.792438  0.559169  1
  Tm  Tm12  1  0.542685  0.457315  0.750000  1
  Tm  Tm13  1  0.542685  0.085369  0.750000  1
  Tm  Tm14  1  0.914631  0.457315  0.750000  1
  Tm  Tm15  1  0.457315  0.542685  0.250000  1
  Tm  Tm16  1  0.457315  0.914631  0.250000  1
  Tm  Tm17  1  0.085369  0.542685  0.250000  1
  Tm  Tm18  1  0.000000  0.000000  0.000000  1
  Tm  Tm19  1  0.000000  0.000000  0.500000  1
  Cd  Cd20  1  0.884268  0.115732  0.750000  1
  Cd  Cd21  1  0.884268  0.768538  0.750000  1
  Cd  Cd22  1  0.231462  0.115732  0.750000  1
  Cd  Cd23  1  0.115732  0.884268  0.250000  1
  Cd  Cd24  1  0.115732  0.231462  0.250000  1
  Cd  Cd25  1  0.768538  0.884268  0.250000  1
  Pt  Pt26  1  0.333333  0.666667  0.750000  1
  Pt  Pt27  1  0.666667  0.333333  0.250000  1
