# generated using pymatgen
data_TbNd2Si5PPd20
_symmetry_space_group_name_H-M   'P 1'
_cell_length_a   8.76465048
_cell_length_b   8.76465084
_cell_length_c   8.76429000
_cell_angle_alpha   60.00136187
_cell_angle_beta   60.00136053
_cell_angle_gamma   59.99727762
_symmetry_Int_Tables_number   1
_chemical_formula_structural   TbNd2Si5PPd20
_chemical_formula_sum   'Tb1 Nd2 Si5 P1 Pd20'
_cell_volume   476.07016097
_cell_formula_units_Z   1
loop_
 _symmetry_equiv_pos_site_id
 _symmetry_equiv_pos_as_xyz
  1  'x, y, z'
loop_
 _atom_site_type_symbol
 _atom_site_label
 _atom_site_symmetry_multiplicity
 _atom_site_fract_x
 _atom_site_fract_y
 _atom_site_fract_z
 _atom_site_occupancy
  Tb  Tb0  1  0.000882  0.000882  0.999118  1
  Nd  Nd1  1  0.248823  0.248823  0.251177  1
  Nd  Nd2  1  0.748823  0.748823  0.751177  1
  Si  Si3  1  0.732607  0.265533  0.267393  1
  Si  Si4  1  0.265533  0.732607  0.734467  1
  Si  Si5  1  0.265533  0.732607  0.267393  1
  Si  Si6  1  0.732607  0.265533  0.734467  1
  Si  Si7  1  0.267508  0.267508  0.732492  1
  P  P8  1  0.735122  0.735122  0.264878  1
  Pd  Pd9  1  0.384732  0.384732  0.384548  1
  Pd  Pd10  1  0.615117  0.615117  0.613564  1
  Pd  Pd11  1  0.384732  0.384732  0.845987  1
  Pd  Pd12  1  0.386436  0.843799  0.384883  1
  Pd  Pd13  1  0.615117  0.615117  0.156201  1
  Pd  Pd14  1  0.615452  0.154013  0.615268  1
  Pd  Pd15  1  0.843799  0.386436  0.384883  1
  Pd  Pd16  1  0.154013  0.615452  0.615268  1
  Pd  Pd17  1  0.345367  0.000241  0.999759  1
  Pd  Pd18  1  0.654627  0.998394  0.001606  1
  Pd  Pd19  1  0.000241  0.345367  0.654633  1
  Pd  Pd20  1  0.998394  0.654627  0.345373  1
  Pd  Pd21  1  0.000241  0.345367  0.999759  1
  Pd  Pd22  1  0.654627  0.998394  0.345373  1
  Pd  Pd23  1  0.998394  0.654627  0.001606  1
  Pd  Pd24  1  0.345367  0.000241  0.654633  1
  Pd  Pd25  1  0.001476  0.001476  0.344362  1
  Pd  Pd26  1  0.001476  0.001476  0.652686  1
  Pd  Pd27  1  0.655638  0.347314  0.998524  1
  Pd  Pd28  1  0.347314  0.655638  0.998524  1
