# generated using pymatgen
data_Ga10IrPd
_symmetry_space_group_name_H-M   'P 1'
_cell_length_a   6.78446865
_cell_length_b   6.78446846
_cell_length_c   6.78446896
_cell_angle_alpha   122.41058289
_cell_angle_beta   122.41057871
_cell_angle_gamma   85.87311881
_symmetry_Int_Tables_number   1
_chemical_formula_structural   Ga10IrPd
_chemical_formula_sum   'Ga10 Ir1 Pd1'
_cell_volume   212.17151426
_cell_formula_units_Z   1
loop_
 _symmetry_equiv_pos_site_id
 _symmetry_equiv_pos_as_xyz
  1  'x, y, z'
loop_
 _atom_site_type_symbol
 _atom_site_label
 _atom_site_symmetry_multiplicity
 _atom_site_fract_x
 _atom_site_fract_y
 _atom_site_fract_z
 _atom_site_occupancy
  Ga  Ga0  1  0.998293  0.998293  0.000000  1
  Ga  Ga1  1  0.501707  0.501707  0.000000  1
  Ga  Ga2  1  0.790263  0.282808  0.791936  1
  Ga  Ga3  1  0.282808  0.490872  0.492545  1
  Ga  Ga4  1  0.998327  0.790263  0.507455  1
  Ga  Ga5  1  0.709737  0.501673  0.492545  1
  Ga  Ga6  1  0.009128  0.217192  0.507455  1
  Ga  Ga7  1  0.501673  0.009128  0.791936  1
  Ga  Ga8  1  0.217192  0.709737  0.208064  1
  Ga  Ga9  1  0.490872  0.998327  0.208064  1
  Ir  Ir10  1  0.250000  0.250000  0.000000  1
  Pd  Pd11  1  0.750000  0.750000  0.000000  1
