# generated using pymatgen
data_Ce2MnP2Ir3Au2
_symmetry_space_group_name_H-M   'P 1'
_cell_length_a   3.97476500
_cell_length_b   3.97476500
_cell_length_c   11.16340600
_cell_angle_alpha   90.00000000
_cell_angle_beta   90.00000000
_cell_angle_gamma   90.00000000
_symmetry_Int_Tables_number   1
_chemical_formula_structural   Ce2MnP2Ir3Au2
_chemical_formula_sum   'Ce2 Mn1 P2 Ir3 Au2'
_cell_volume   176.36793651
_cell_formula_units_Z   1
loop_
 _symmetry_equiv_pos_site_id
 _symmetry_equiv_pos_as_xyz
  1  'x, y, z'
loop_
 _atom_site_type_symbol
 _atom_site_label
 _atom_site_symmetry_multiplicity
 _atom_site_fract_x
 _atom_site_fract_y
 _atom_site_fract_z
 _atom_site_occupancy
  Ce  Ce0  1  0.000000  0.500000  0.254639  1
  Ce  Ce1  1  0.500000  0.000000  0.745361  1
  Mn  Mn2  1  0.000000  0.000000  0.500000  1
  P  P3  1  0.000000  0.500000  0.607292  1
  P  P4  1  0.500000  0.000000  0.392708  1
  Ir  Ir5  1  0.500000  0.500000  0.500000  1
  Ir  Ir6  1  0.000000  0.500000  0.812198  1
  Ir  Ir7  1  0.500000  0.000000  0.187802  1
  Au  Au8  1  0.000000  0.000000  0.000000  1
  Au  Au9  1  0.500000  0.500000  0.000000  1
