# generated using pymatgen
data_Lu12TlFe2TcTe
_symmetry_space_group_name_H-M   'P 1'
_cell_length_a   8.24980446
_cell_length_b   8.25340958
_cell_length_c   8.24980444
_cell_angle_alpha   108.02865813
_cell_angle_beta   109.12040643
_cell_angle_gamma   111.26358974
_symmetry_Int_Tables_number   1
_chemical_formula_structural   Lu12TlFe2TcTe
_chemical_formula_sum   'Lu12 Tl1 Fe2 Tc1 Te1'
_cell_volume   432.14977562
_cell_formula_units_Z   1
loop_
 _symmetry_equiv_pos_site_id
 _symmetry_equiv_pos_as_xyz
  1  'x, y, z'
loop_
 _atom_site_type_symbol
 _atom_site_label
 _atom_site_symmetry_multiplicity
 _atom_site_fract_x
 _atom_site_fract_y
 _atom_site_fract_z
 _atom_site_occupancy
  Lu  Lu0  1  0.304687  0.313038  0.617966  1
  Lu  Lu1  1  0.695313  0.686962  0.382034  1
  Lu  Lu2  1  0.695072  0.313038  0.008351  1
  Lu  Lu3  1  0.304928  0.686962  0.991649  1
  Lu  Lu4  1  0.190180  0.425910  0.235730  1
  Lu  Lu5  1  0.809820  0.574090  0.764270  1
  Lu  Lu6  1  0.190344  0.954411  0.764068  1
  Lu  Lu7  1  0.962388  0.196352  0.766071  1
  Lu  Lu8  1  0.809656  0.045589  0.235932  1
  Lu  Lu9  1  0.037612  0.803648  0.233929  1
  Lu  Lu10  1  0.430281  0.196352  0.233963  1
  Lu  Lu11  1  0.569719  0.803648  0.766037  1
  Tl  Tl12  1  0.000000  0.500000  0.500000  1
  Fe  Fe13  1  0.383649  0.382899  0.999250  1
  Fe  Fe14  1  0.616351  0.617101  0.000750  1
  Tc  Tc15  1  0.000000  0.000000  0.000000  1
  Te  Te16  1  0.500000  0.000000  0.500000  1
