# generated using pymatgen
data_Nb16CoNi3Te16
_symmetry_space_group_name_H-M   'P 1'
_cell_length_a   4.81792400
_cell_length_b   10.97558427
_cell_length_c   19.23792922
_cell_angle_alpha   89.97867632
_cell_angle_beta   90.00000000
_cell_angle_gamma   90.00000000
_symmetry_Int_Tables_number   1
_chemical_formula_structural   Nb16CoNi3Te16
_chemical_formula_sum   'Nb16 Co1 Ni3 Te16'
_cell_volume   1017.29260133
_cell_formula_units_Z   1
loop_
 _symmetry_equiv_pos_site_id
 _symmetry_equiv_pos_as_xyz
  1  'x, y, z'
loop_
 _atom_site_type_symbol
 _atom_site_label
 _atom_site_symmetry_multiplicity
 _atom_site_fract_x
 _atom_site_fract_y
 _atom_site_fract_z
 _atom_site_occupancy
  Nb  Nb0  1  0.499837  0.564544  0.384126  1
  Nb  Nb1  1  0.499837  0.435456  0.615874  1
  Nb  Nb2  1  0.500141  0.064985  0.116603  1
  Nb  Nb3  1  0.500141  0.935015  0.883397  1
  Nb  Nb4  1  0.500563  0.703959  0.536477  1
  Nb  Nb5  1  0.500563  0.296041  0.463523  1
  Nb  Nb6  1  0.500049  0.205028  0.963351  1
  Nb  Nb7  1  0.500049  0.794972  0.036649  1
  Nb  Nb8  1  0.999178  0.689644  0.443694  1
  Nb  Nb9  1  0.999178  0.310356  0.556306  1
  Nb  Nb10  1  0.000039  0.190933  0.056491  1
  Nb  Nb11  1  0.000039  0.809067  0.943509  1
  Nb  Nb12  1  0.000008  0.401134  0.392264  1
  Nb  Nb13  1  0.000008  0.598866  0.607736  1
  Nb  Nb14  1  0.000093  0.900634  0.108425  1
  Nb  Nb15  1  0.000093  0.099366  0.891575  1
  Co  Co16  1  0.249939  0.500000  0.500000  1
  Ni  Ni17  1  0.750285  0.000000  0.000000  1
  Ni  Ni18  1  0.750137  0.500000  0.500000  1
  Ni  Ni19  1  0.249957  0.000000  0.000000  1
  Te  Te20  1  0.000922  0.846937  0.562499  1
  Te  Te21  1  0.000922  0.153063  0.437501  1
  Te  Te22  1  0.000044  0.347378  0.937522  1
  Te  Te23  1  0.000044  0.652622  0.062478  1
  Te  Te24  1  0.499395  0.333030  0.316466  1
  Te  Te25  1  0.499395  0.666970  0.683534  1
  Te  Te26  1  0.500033  0.833097  0.183756  1
  Te  Te27  1  0.500033  0.166903  0.816244  1
  Te  Te28  1  0.498940  0.822805  0.404046  1
  Te  Te29  1  0.498940  0.177195  0.595954  1
  Te  Te30  1  0.500077  0.323235  0.095957  1
  Te  Te31  1  0.500077  0.676765  0.904043  1
  Te  Te32  1  0.000355  0.608634  0.302523  1
  Te  Te33  1  0.000355  0.391366  0.697477  1
  Te  Te34  1  0.000169  0.109136  0.197539  1
  Te  Te35  1  0.000169  0.890864  0.802461  1
