# generated using pymatgen
data_NaLaDy2(CuSe3)2
_symmetry_space_group_name_H-M   'P 1'
_cell_length_a   6.96100570
_cell_length_b   6.96100602
_cell_length_c   10.60590900
_cell_angle_alpha   90.00000000
_cell_angle_beta   90.00000000
_cell_angle_gamma   146.00727374
_symmetry_Int_Tables_number   1
_chemical_formula_structural   NaLaDy2(CuSe3)2
_chemical_formula_sum   'Na1 La1 Dy2 Cu2 Se6'
_cell_volume   287.32392882
_cell_formula_units_Z   1
loop_
 _symmetry_equiv_pos_site_id
 _symmetry_equiv_pos_as_xyz
  1  'x, y, z'
loop_
 _atom_site_type_symbol
 _atom_site_label
 _atom_site_symmetry_multiplicity
 _atom_site_fract_x
 _atom_site_fract_y
 _atom_site_fract_z
 _atom_site_occupancy
  Na  Na0  1  0.254867  0.745132  0.750000  1
  La  La1  1  0.747129  0.252870  0.250000  1
  Dy  Dy2  1  0.495960  0.504038  0.990248  1
  Dy  Dy3  1  0.495960  0.504038  0.509752  1
  Cu  Cu4  1  0.026662  0.973336  0.250000  1
  Cu  Cu5  1  0.974146  0.025852  0.750000  1
  Se  Se6  1  0.143690  0.856308  0.073665  1
  Se  Se7  1  0.416815  0.583184  0.250000  1
  Se  Se8  1  0.143690  0.856308  0.426335  1
  Se  Se9  1  0.859075  0.140923  0.562998  1
  Se  Se10  1  0.582921  0.417078  0.750000  1
  Se  Se11  1  0.859075  0.140923  0.937002  1
