# generated using pymatgen
data_Dy8Y4Co4CuPb
_symmetry_space_group_name_H-M   'P 1'
_cell_length_a   8.34782181
_cell_length_b   8.34722168
_cell_length_c   8.34782225
_cell_angle_alpha   111.13377342
_cell_angle_beta   110.23109161
_cell_angle_gamma   107.07918464
_symmetry_Int_Tables_number   1
_chemical_formula_structural   Dy8Y4Co4CuPb
_chemical_formula_sum   'Dy8 Y4 Co4 Cu1 Pb1'
_cell_volume   447.15415453
_cell_formula_units_Z   1
loop_
 _symmetry_equiv_pos_site_id
 _symmetry_equiv_pos_as_xyz
  1  'x, y, z'
loop_
 _atom_site_type_symbol
 _atom_site_label
 _atom_site_symmetry_multiplicity
 _atom_site_fract_x
 _atom_site_fract_y
 _atom_site_fract_z
 _atom_site_occupancy
  Dy  Dy0  1  0.686328  0.379407  0.693079  1
  Dy  Dy1  1  0.313672  0.620593  0.306921  1
  Dy  Dy2  1  0.686352  0.993268  0.306916  1
  Dy  Dy3  1  0.313648  0.006732  0.693084  1
  Dy  Dy4  1  0.587467  0.787949  0.799547  1
  Dy  Dy5  1  0.412533  0.212051  0.200453  1
  Dy  Dy6  1  0.988402  0.787949  0.200482  1
  Dy  Dy7  1  0.011598  0.212051  0.799518  1
  Y  Y8  1  0.814529  0.708670  0.523166  1
  Y  Y9  1  0.185471  0.291330  0.476834  1
  Y  Y10  1  0.185504  0.708670  0.894140  1
  Y  Y11  1  0.814496  0.291330  0.105860  1
  Co  Co12  1  0.621599  0.000000  0.621599  1
  Co  Co13  1  0.378401  0.000000  0.378401  1
  Co  Co14  1  0.112616  0.612599  0.499983  1
  Co  Co15  1  0.887384  0.387401  0.500017  1
  Cu  Cu16  1  0.000000  0.000000  0.000000  1
  Pb  Pb17  1  0.500000  0.500000  0.000000  1
