# generated using pymatgen
data_YbSn6(IrRu)2
_symmetry_space_group_name_H-M   'P 1'
_cell_length_a   6.95487203
_cell_length_b   6.95487168
_cell_length_c   6.97630295
_cell_angle_alpha   119.95893608
_cell_angle_beta   119.95893432
_cell_angle_gamma   89.89480467
_symmetry_Int_Tables_number   1
_chemical_formula_structural   YbSn6(IrRu)2
_chemical_formula_sum   'Yb1 Sn6 Ir2 Ru2'
_cell_volume   239.12320670
_cell_formula_units_Z   1
loop_
 _symmetry_equiv_pos_site_id
 _symmetry_equiv_pos_as_xyz
  1  'x, y, z'
loop_
 _atom_site_type_symbol
 _atom_site_label
 _atom_site_symmetry_multiplicity
 _atom_site_fract_x
 _atom_site_fract_y
 _atom_site_fract_z
 _atom_site_occupancy
  Yb  Yb0  1  0.001731  0.001731  0.003462  1
  Sn  Sn1  1  0.462349  0.462349  0.584793  1
  Sn  Sn2  1  0.122445  0.122445  0.584793  1
  Sn  Sn3  1  0.883614  0.532452  0.416065  1
  Sn  Sn4  1  0.532452  0.883614  0.416065  1
  Sn  Sn5  1  0.994652  0.494652  0.989303  1
  Sn  Sn6  1  0.494652  0.994652  0.989303  1
  Ir  Ir7  1  0.405105  0.405105  0.160727  1
  Ir  Ir8  1  0.755622  0.755622  0.160727  1
  Ru  Ru9  1  0.253758  0.593621  0.847379  1
  Ru  Ru10  1  0.593621  0.253758  0.847379  1
