# generated using pymatgen
data_CeNdB4(OsRu)2
_symmetry_space_group_name_H-M   'P 1'
_cell_length_a   6.75805541
_cell_length_b   6.00711365
_cell_length_c   5.60817048
_cell_angle_alpha   71.06331728
_cell_angle_beta   57.22189615
_cell_angle_gamma   51.71478286
_symmetry_Int_Tables_number   1
_chemical_formula_structural   CeNdB4(OsRu)2
_chemical_formula_sum   'Ce1 Nd1 B4 Os2 Ru2'
_cell_volume   150.23216038
_cell_formula_units_Z   1
loop_
 _symmetry_equiv_pos_site_id
 _symmetry_equiv_pos_as_xyz
  1  'x, y, z'
loop_
 _atom_site_type_symbol
 _atom_site_label
 _atom_site_symmetry_multiplicity
 _atom_site_fract_x
 _atom_site_fract_y
 _atom_site_fract_z
 _atom_site_occupancy
  Ce  Ce0  1  0.000000  0.000000  0.000000  1
  Nd  Nd1  1  0.250000  0.250000  0.250000  1
  B  B2  1  0.566699  0.933301  0.566699  1
  B  B3  1  0.933301  0.566699  0.933301  1
  B  B4  1  0.313952  0.686048  0.313952  1
  B  B5  1  0.686048  0.313952  0.686048  1
  Os  Os6  1  0.611961  0.611961  0.888039  1
  Os  Os7  1  0.888039  0.888039  0.611961  1
  Ru  Ru8  1  0.363160  0.363160  0.636840  1
  Ru  Ru9  1  0.636840  0.636840  0.363160  1
