# generated using pymatgen
data_SmAl2CuSi
_symmetry_space_group_name_H-M   'P 1'
_cell_length_a   4.12109713
_cell_length_b   4.12396917
_cell_length_c   6.00089927
_cell_angle_alpha   69.90287699
_cell_angle_beta   69.91746648
_cell_angle_gamma   90.00000949
_symmetry_Int_Tables_number   1
_chemical_formula_structural   SmAl2CuSi
_chemical_formula_sum   'Sm1 Al2 Cu1 Si1'
_cell_volume   89.14529132
_cell_formula_units_Z   1
loop_
 _symmetry_equiv_pos_site_id
 _symmetry_equiv_pos_as_xyz
  1  'x, y, z'
loop_
 _atom_site_type_symbol
 _atom_site_label
 _atom_site_symmetry_multiplicity
 _atom_site_fract_x
 _atom_site_fract_y
 _atom_site_fract_z
 _atom_site_occupancy
  Sm  Sm0  1  0.992878  0.992878  0.014245  1
  Al  Al1  1  0.745344  0.245344  0.509312  1
  Al  Al2  1  0.245436  0.745436  0.509127  1
  Cu  Cu3  1  0.618499  0.618499  0.763003  1
  Si  Si4  1  0.397843  0.397843  0.204312  1
