# generated using pymatgen
data_Ho6Tm9ThCd4PtRh3
_symmetry_space_group_name_H-M   'P 1'
_cell_length_a   9.60660299
_cell_length_b   9.60660444
_cell_length_c   9.60660300
_cell_angle_alpha   60.21355457
_cell_angle_beta   60.21354960
_cell_angle_gamma   60.21354451
_symmetry_Int_Tables_number   1
_chemical_formula_structural   Ho6Tm9ThCd4PtRh3
_chemical_formula_sum   'Ho6 Tm9 Th1 Cd4 Pt1 Rh3'
_cell_volume   629.92582398
_cell_formula_units_Z   1
loop_
 _symmetry_equiv_pos_site_id
 _symmetry_equiv_pos_as_xyz
  1  'x, y, z'
loop_
 _atom_site_type_symbol
 _atom_site_label
 _atom_site_symmetry_multiplicity
 _atom_site_fract_x
 _atom_site_fract_y
 _atom_site_fract_z
 _atom_site_occupancy
  Ho  Ho0  1  0.184388  0.817457  0.817457  1
  Ho  Ho1  1  0.812233  0.188565  0.188565  1
  Ho  Ho2  1  0.815583  0.185632  0.817304  1
  Ho  Ho3  1  0.187803  0.813638  0.188447  1
  Ho  Ho4  1  0.815583  0.817304  0.185632  1
  Ho  Ho5  1  0.187803  0.188447  0.813638  1
  Tm  Tm6  1  0.600667  0.604060  0.194361  1
  Tm  Tm7  1  0.600667  0.194361  0.604060  1
  Tm  Tm8  1  0.196936  0.601622  0.601622  1
  Tm  Tm9  1  0.065366  0.436675  0.436675  1
  Tm  Tm10  1  0.437264  0.062526  0.062526  1
  Tm  Tm11  1  0.436396  0.064219  0.436083  1
  Tm  Tm12  1  0.065664  0.437556  0.058596  1
  Tm  Tm13  1  0.436396  0.436083  0.064219  1
  Tm  Tm14  1  0.065664  0.058596  0.437556  1
  Th  Th15  1  0.592050  0.599268  0.599268  1
  Cd  Cd16  1  0.830010  0.830846  0.830846  1
  Cd  Cd17  1  0.831765  0.832195  0.504433  1
  Cd  Cd18  1  0.831765  0.504433  0.832195  1
  Cd  Cd19  1  0.502331  0.832818  0.832818  1
  Pt  Pt20  1  0.823328  0.388392  0.388392  1
  Rh  Rh21  1  0.394737  0.393820  0.393820  1
  Rh  Rh22  1  0.392800  0.391297  0.820188  1
  Rh  Rh23  1  0.392800  0.820188  0.391297  1
