# generated using pymatgen
data_NdDy4Tc5(P6Ir7)2
_symmetry_space_group_name_H-M   'P 1'
_cell_length_a   12.64603905
_cell_length_b   12.74068664
_cell_length_c   3.98764200
_cell_angle_alpha   90.00000000
_cell_angle_beta   90.00000000
_cell_angle_gamma   120.15941324
_symmetry_Int_Tables_number   1
_chemical_formula_structural   NdDy4Tc5(P6Ir7)2
_chemical_formula_sum   'Nd1 Dy4 Tc5 P12 Ir14'
_cell_volume   555.51305816
_cell_formula_units_Z   1
loop_
 _symmetry_equiv_pos_site_id
 _symmetry_equiv_pos_as_xyz
  1  'x, y, z'
loop_
 _atom_site_type_symbol
 _atom_site_label
 _atom_site_symmetry_multiplicity
 _atom_site_fract_x
 _atom_site_fract_y
 _atom_site_fract_z
 _atom_site_occupancy
  Nd  Nd0  1  0.999757  0.811448  0.000000  1
  Dy  Dy1  1  0.334296  0.667822  0.500000  1
  Dy  Dy2  1  0.666748  0.333368  0.500000  1
  Dy  Dy3  1  0.186805  0.185520  0.000000  1
  Dy  Dy4  1  0.810344  0.998481  0.000000  1
  Tc  Tc5  1  0.996430  0.448956  0.500000  1
  Tc  Tc6  1  0.547895  0.544709  0.500000  1
  Tc  Tc7  1  0.457627  0.009917  0.500000  1
  Tc  Tc8  1  0.619948  0.799184  0.500000  1
  Tc  Tc9  1  0.203403  0.822421  0.500000  1
  P  P10  1  0.006681  0.637491  0.500000  1
  P  P11  1  0.363607  0.364910  0.500000  1
  P  P12  1  0.632966  0.993520  0.500000  1
  P  P13  1  0.519398  0.694041  0.000000  1
  P  P14  1  0.308264  0.829712  0.000000  1
  P  P15  1  0.170163  0.483026  0.000000  1
  P  P16  1  0.484179  0.170217  0.000000  1
  P  P17  1  0.686246  0.516517  0.000000  1
  P  P18  1  0.832284  0.314515  0.000000  1
  P  P19  1  0.998909  0.177151  0.500000  1
  P  P20  1  0.815659  0.820503  0.500000  1
  P  P21  1  0.179241  0.995964  0.500000  1
  Ir  Ir22  1  0.507904  0.875055  0.000000  1
  Ir  Ir23  1  0.127632  0.635187  0.000000  1
  Ir  Ir24  1  0.361898  0.493868  0.000000  1
  Ir  Ir25  1  0.491224  0.359293  0.000000  1
  Ir  Ir26  1  0.866131  0.505774  0.000000  1
  Ir  Ir27  1  0.643562  0.136705  0.000000  1
  Ir  Ir28  1  0.000311  0.285503  0.000000  1
  Ir  Ir29  1  0.714397  0.710309  0.000000  1
  Ir  Ir30  1  0.288752  0.006204  0.000000  1
  Ir  Ir31  1  0.180117  0.375442  0.500000  1
  Ir  Ir32  1  0.374290  0.184269  0.500000  1
  Ir  Ir33  1  0.804000  0.619600  0.500000  1
  Ir  Ir34  1  0.819163  0.192465  0.500000  1
  Ir  Ir35  1  0.999768  0.000932  0.500000  1
