# generated using pymatgen
data_Li2Y18MgCd5Ru2
_symmetry_space_group_name_H-M   'P 1'
_cell_length_a   9.51002544
_cell_length_b   9.51006721
_cell_length_c   9.77440900
_cell_angle_alpha   90.00000000
_cell_angle_beta   90.00000000
_cell_angle_gamma   120.14320715
_symmetry_Int_Tables_number   1
_chemical_formula_structural   Li2Y18MgCd5Ru2
_chemical_formula_sum   'Li2 Y18 Mg1 Cd5 Ru2'
_cell_volume   764.46548998
_cell_formula_units_Z   1
loop_
 _symmetry_equiv_pos_site_id
 _symmetry_equiv_pos_as_xyz
  1  'x, y, z'
loop_
 _atom_site_type_symbol
 _atom_site_label
 _atom_site_symmetry_multiplicity
 _atom_site_fract_x
 _atom_site_fract_y
 _atom_site_fract_z
 _atom_site_occupancy
  Li  Li0  1  0.001419  0.998579  0.504847  1
  Li  Li1  1  0.001419  0.998579  0.995153  1
  Y  Y2  1  0.207747  0.792254  0.440650  1
  Y  Y3  1  0.208737  0.418173  0.443409  1
  Y  Y4  1  0.581826  0.791265  0.443412  1
  Y  Y5  1  0.790935  0.209065  0.559987  1
  Y  Y6  1  0.791942  0.584613  0.558376  1
  Y  Y7  1  0.415388  0.208058  0.558372  1
  Y  Y8  1  0.790935  0.209065  0.940013  1
  Y  Y9  1  0.791942  0.584613  0.941624  1
  Y  Y10  1  0.415388  0.208058  0.941628  1
  Y  Y11  1  0.207747  0.792254  0.059350  1
  Y  Y12  1  0.208737  0.418173  0.056591  1
  Y  Y13  1  0.581826  0.791265  0.056588  1
  Y  Y14  1  0.541815  0.458183  0.250000  1
  Y  Y15  1  0.542341  0.085341  0.250000  1
  Y  Y16  1  0.914657  0.457659  0.250000  1
  Y  Y17  1  0.458073  0.541923  0.750000  1
  Y  Y18  1  0.456150  0.914834  0.750000  1
  Y  Y19  1  0.085169  0.543852  0.750000  1
  Mg  Mg20  1  0.898497  0.101502  0.250000  1
  Cd  Cd21  1  0.891690  0.782529  0.250000  1
  Cd  Cd22  1  0.217475  0.108313  0.250000  1
  Cd  Cd23  1  0.108358  0.891643  0.750000  1
  Cd  Cd24  1  0.107953  0.216839  0.750000  1
  Cd  Cd25  1  0.783160  0.892047  0.750000  1
  Ru  Ru26  1  0.332758  0.667225  0.250000  1
  Ru  Ru27  1  0.665916  0.334098  0.750000  1
