# generated using pymatgen
data_NdHo4In4IrPd
_symmetry_space_group_name_H-M   'P 1'
_cell_length_a   3.65345300
_cell_length_b   8.13572750
_cell_length_c   18.38302100
_cell_angle_alpha   90.14372521
_cell_angle_beta   90.00000000
_cell_angle_gamma   90.00000000
_symmetry_Int_Tables_number   1
_chemical_formula_structural   NdHo4In4IrPd
_chemical_formula_sum   'Nd2 Ho8 In8 Ir2 Pd2'
_cell_volume   546.40596931
_cell_formula_units_Z   2
loop_
 _symmetry_equiv_pos_site_id
 _symmetry_equiv_pos_as_xyz
  1  'x, y, z'
loop_
 _atom_site_type_symbol
 _atom_site_label
 _atom_site_symmetry_multiplicity
 _atom_site_fract_x
 _atom_site_fract_y
 _atom_site_fract_z
 _atom_site_occupancy
  Nd  Nd0  1  0.000000  0.500000  0.500000  1
  Nd  Nd1  1  0.000000  0.000000  0.000000  1
  Ho  Ho2  1  0.000000  0.727760  0.277784  1
  Ho  Ho3  1  0.000000  0.272240  0.722216  1
  Ho  Ho4  1  0.000000  0.746446  0.779949  1
  Ho  Ho5  1  0.000000  0.253554  0.220051  1
  Ho  Ho6  1  0.000000  0.614123  0.087978  1
  Ho  Ho7  1  0.000000  0.385877  0.912022  1
  Ho  Ho8  1  0.000000  0.883455  0.585344  1
  Ho  Ho9  1  0.000000  0.116545  0.414656  1
  In  In10  1  0.500000  0.705054  0.930432  1
  In  In11  1  0.500000  0.294946  0.069568  1
  In  In12  1  0.500000  0.795941  0.430743  1
  In  In13  1  0.500000  0.204059  0.569257  1
  In  In14  1  0.500000  0.579755  0.650688  1
  In  In15  1  0.500000  0.420245  0.349312  1
  In  In16  1  0.500000  0.921051  0.152162  1
  In  In17  1  0.500000  0.078949  0.847838  1
  Ir  Ir18  1  0.500000  0.519511  0.195531  1
  Ir  Ir19  1  0.500000  0.480489  0.804469  1
  Pd  Pd20  1  0.500000  0.980320  0.696159  1
  Pd  Pd21  1  0.500000  0.019680  0.303841  1
