# generated using pymatgen
data_Tb2Co3Si3P4Ru9
_symmetry_space_group_name_H-M   'P 1'
_cell_length_a   9.37169386
_cell_length_b   9.37393951
_cell_length_c   3.84848900
_cell_angle_alpha   90.00000000
_cell_angle_beta   90.00000000
_cell_angle_gamma   119.75023344
_symmetry_Int_Tables_number   1
_chemical_formula_structural   Tb2Co3Si3P4Ru9
_chemical_formula_sum   'Tb2 Co3 Si3 P4 Ru9'
_cell_volume   293.52741304
_cell_formula_units_Z   1
loop_
 _symmetry_equiv_pos_site_id
 _symmetry_equiv_pos_as_xyz
  1  'x, y, z'
loop_
 _atom_site_type_symbol
 _atom_site_label
 _atom_site_symmetry_multiplicity
 _atom_site_fract_x
 _atom_site_fract_y
 _atom_site_fract_z
 _atom_site_occupancy
  Tb  Tb0  1  0.999591  0.000482  0.000000  1
  Tb  Tb1  1  0.335408  0.668115  0.500000  1
  Co  Co2  1  0.825689  0.604475  0.000000  1
  Co  Co3  1  0.391344  0.219400  0.000000  1
  Co  Co4  1  0.782936  0.174409  0.000000  1
  Si  Si5  1  0.778809  0.727036  0.500000  1
  Si  Si6  1  0.270744  0.050371  0.500000  1
  Si  Si7  1  0.664727  0.332413  0.000000  1
  P  P8  1  0.949392  0.221253  0.500000  1
  P  P9  1  0.079355  0.638760  0.000000  1
  P  P10  1  0.363354  0.441287  0.000000  1
  P  P11  1  0.560910  0.923599  0.000000  1
  Ru  Ru12  1  0.088956  0.396656  0.000000  1
  Ru  Ru13  1  0.603596  0.694999  0.000000  1
  Ru  Ru14  1  0.307579  0.910140  0.000000  1
  Ru  Ru15  1  0.052747  0.764886  0.500000  1
  Ru  Ru16  1  0.228002  0.285034  0.500000  1
  Ru  Ru17  1  0.719707  0.952157  0.500000  1
  Ru  Ru18  1  0.869174  0.419527  0.500000  1
  Ru  Ru19  1  0.572695  0.443767  0.500000  1
  Ru  Ru20  1  0.555288  0.131236  0.500000  1
