# generated using pymatgen
data_DyY5(Er2Sn3)2
_symmetry_space_group_name_H-M   'P 1'
_cell_length_a   8.95475700
_cell_length_b   8.95514086
_cell_length_c   6.51681900
_cell_angle_alpha   90.00000000
_cell_angle_beta   90.00000000
_cell_angle_gamma   119.99858574
_symmetry_Int_Tables_number   1
_chemical_formula_structural   DyY5(Er2Sn3)2
_chemical_formula_sum   'Dy1 Y5 Er4 Sn6'
_cell_volume   452.58348918
_cell_formula_units_Z   1
loop_
 _symmetry_equiv_pos_site_id
 _symmetry_equiv_pos_as_xyz
  1  'x, y, z'
loop_
 _atom_site_type_symbol
 _atom_site_label
 _atom_site_symmetry_multiplicity
 _atom_site_fract_x
 _atom_site_fract_y
 _atom_site_fract_z
 _atom_site_occupancy
  Dy  Dy0  1  0.239680  0.000000  0.250000  1
  Y  Y1  1  0.000216  0.760606  0.750000  1
  Y  Y2  1  0.000002  0.239447  0.250000  1
  Y  Y3  1  0.760554  0.760553  0.250000  1
  Y  Y4  1  0.760060  0.000000  0.750000  1
  Y  Y5  1  0.239610  0.239394  0.750000  1
  Er  Er6  1  0.333322  0.666644  0.499948  1
  Er  Er7  1  0.666679  0.333356  0.000052  1
  Er  Er8  1  0.666679  0.333356  0.499948  1
  Er  Er9  1  0.333322  0.666644  0.000052  1
  Sn  Sn10  1  0.395540  0.000000  0.750000  1
  Sn  Sn11  1  0.395360  0.394867  0.250000  1
  Sn  Sn12  1  0.000492  0.605133  0.250000  1
  Sn  Sn13  1  0.000107  0.395737  0.750000  1
  Sn  Sn14  1  0.604370  0.604263  0.750000  1
  Sn  Sn15  1  0.604006  0.000000  0.250000  1
