# generated using pymatgen
data_U4Cu(SnTe3)3
_symmetry_space_group_name_H-M   'P 1'
_cell_length_a   7.47597905
_cell_length_b   7.48755233
_cell_length_c   11.61042275
_cell_angle_alpha   67.42465664
_cell_angle_beta   65.86338657
_cell_angle_gamma   70.15866296
_symmetry_Int_Tables_number   1
_chemical_formula_structural   U4Cu(SnTe3)3
_chemical_formula_sum   'U4 Cu1 Sn3 Te9'
_cell_volume   534.65946888
_cell_formula_units_Z   1
loop_
 _symmetry_equiv_pos_site_id
 _symmetry_equiv_pos_as_xyz
  1  'x, y, z'
loop_
 _atom_site_type_symbol
 _atom_site_label
 _atom_site_symmetry_multiplicity
 _atom_site_fract_x
 _atom_site_fract_y
 _atom_site_fract_z
 _atom_site_occupancy
  U  U0  1  0.821508  0.807150  0.831391  1
  U  U1  1  0.315584  0.316551  0.840437  1
  U  U2  1  0.684616  0.195167  0.131161  1
  U  U3  1  0.179257  0.690250  0.153341  1
  Cu  Cu4  1  0.821783  0.773209  0.544625  1
  Sn  Sn5  1  0.908947  0.079506  0.349410  1
  Sn  Sn6  1  0.518567  0.397015  0.399781  1
  Sn  Sn7  1  0.516309  0.034581  0.636181  1
  Te  Te8  1  0.028955  0.486481  0.669371  1
  Te  Te9  1  0.253065  0.262789  0.329901  1
  Te  Te10  1  0.743961  0.764321  0.336161  1
  Te  Te11  1  0.270160  0.757211  0.655467  1
  Te  Te12  1  0.762453  0.248408  0.675666  1
  Te  Te13  1  0.043787  0.009706  0.927805  1
  Te  Te14  1  0.510990  0.542594  0.925323  1
  Te  Te15  1  0.468147  0.966664  0.067146  1
  Te  Te16  1  0.963209  0.479695  0.061229  1
