# generated using pymatgen
data_Li4Dy7HoSc8Si15As
_symmetry_space_group_name_H-M   'P 1'
_cell_length_a   6.90196901
_cell_length_b   7.40444509
_cell_length_c   14.04838709
_cell_angle_alpha   89.98829637
_cell_angle_beta   89.99488981
_cell_angle_gamma   90.06442947
_symmetry_Int_Tables_number   1
_chemical_formula_structural   Li4Dy7HoSc8Si15As
_chemical_formula_sum   'Li4 Dy7 Ho1 Sc8 Si15 As1'
_cell_volume   717.94586999
_cell_formula_units_Z   1
loop_
 _symmetry_equiv_pos_site_id
 _symmetry_equiv_pos_as_xyz
  1  'x, y, z'
loop_
 _atom_site_type_symbol
 _atom_site_label
 _atom_site_symmetry_multiplicity
 _atom_site_fract_x
 _atom_site_fract_y
 _atom_site_fract_z
 _atom_site_occupancy
  Li  Li0  1  0.159228  0.509261  0.750020  1
  Li  Li1  1  0.841333  0.494206  0.249912  1
  Li  Li2  1  0.341377  0.005902  0.249930  1
  Li  Li3  1  0.656854  0.993865  0.749982  1
  Dy  Dy4  1  0.986504  0.817290  0.900894  1
  Dy  Dy5  1  0.486162  0.681052  0.901341  1
  Dy  Dy6  1  0.986499  0.817256  0.599209  1
  Dy  Dy7  1  0.513714  0.318631  0.099084  1
  Dy  Dy8  1  0.013928  0.181838  0.400760  1
  Dy  Dy9  1  0.513784  0.318737  0.400909  1
  Dy  Dy10  1  0.486174  0.681063  0.598724  1
  Ho  Ho11  1  0.013846  0.181785  0.099283  1
  Sc  Sc12  1  0.332179  0.179296  0.626396  1
  Sc  Sc13  1  0.669591  0.820410  0.373701  1
  Sc  Sc14  1  0.169629  0.679424  0.373655  1
  Sc  Sc15  1  0.669704  0.820299  0.126234  1
  Sc  Sc16  1  0.828787  0.322553  0.625690  1
  Sc  Sc17  1  0.332162  0.179392  0.873642  1
  Sc  Sc18  1  0.828918  0.322500  0.874252  1
  Sc  Sc19  1  0.169600  0.679369  0.126371  1
  Si  Si20  1  0.969116  0.896502  0.249874  1
  Si  Si21  1  0.468739  0.604111  0.249967  1
  Si  Si22  1  0.530507  0.395718  0.750024  1
  Si  Si23  1  0.288265  0.875657  0.749995  1
  Si  Si24  1  0.717698  0.117969  0.249882  1
  Si  Si25  1  0.217076  0.381660  0.249874  1
  Si  Si26  1  0.782566  0.617478  0.750043  1
  Si  Si27  1  0.158563  0.462489  0.535132  1
  Si  Si28  1  0.841292  0.536833  0.464898  1
  Si  Si29  1  0.340484  0.963660  0.465326  1
  Si  Si30  1  0.841311  0.536468  0.035170  1
  Si  Si31  1  0.659310  0.036784  0.534715  1
  Si  Si32  1  0.158559  0.462182  0.964991  1
  Si  Si33  1  0.659459  0.036814  0.965323  1
  Si  Si34  1  0.340064  0.963916  0.034769  1
  As  As35  1  0.027020  0.107625  0.750027  1
