# generated using pymatgen
data_CaNd3(AsPd)4
_symmetry_space_group_name_H-M   'P 1'
_cell_length_a   7.94796486
_cell_length_b   4.37217300
_cell_length_c   7.52663257
_cell_angle_alpha   90.00000000
_cell_angle_beta   90.01031710
_cell_angle_gamma   90.00000000
_symmetry_Int_Tables_number   1
_chemical_formula_structural   CaNd3(AsPd)4
_chemical_formula_sum   'Ca1 Nd3 As4 Pd4'
_cell_volume   261.54955464
_cell_formula_units_Z   1
loop_
 _symmetry_equiv_pos_site_id
 _symmetry_equiv_pos_as_xyz
  1  'x, y, z'
loop_
 _atom_site_type_symbol
 _atom_site_label
 _atom_site_symmetry_multiplicity
 _atom_site_fract_x
 _atom_site_fract_y
 _atom_site_fract_z
 _atom_site_occupancy
  Ca  Ca0  1  0.000761  0.250001  0.250766  1
  Nd  Nd1  1  0.500903  0.250001  0.248165  1
  Nd  Nd2  1  0.500489  0.750001  0.751562  1
  Nd  Nd3  1  0.999604  0.750001  0.748834  1
  As  As4  1  0.249655  0.750001  0.082895  1
  As  As5  1  0.735458  0.750001  0.417434  1
  As  As6  1  0.245426  0.250001  0.581841  1
  As  As7  1  0.744710  0.250001  0.917742  1
  Pd  Pd8  1  0.760894  0.750001  0.082281  1
  Pd  Pd9  1  0.252810  0.750001  0.418279  1
  Pd  Pd10  1  0.755840  0.250001  0.582888  1
  Pd  Pd11  1  0.253448  0.250001  0.917309  1
