# generated using pymatgen
data_Er4TcOsRu6
_symmetry_space_group_name_H-M   'P 1'
_cell_length_a   5.14228472
_cell_length_b   5.33039319
_cell_length_c   8.93921800
_cell_angle_alpha   90.00000000
_cell_angle_beta   90.00000000
_cell_angle_gamma   119.50778317
_symmetry_Int_Tables_number   1
_chemical_formula_structural   Er4TcOsRu6
_chemical_formula_sum   'Er4 Tc1 Os1 Ru6'
_cell_volume   213.24471943
_cell_formula_units_Z   1
loop_
 _symmetry_equiv_pos_site_id
 _symmetry_equiv_pos_as_xyz
  1  'x, y, z'
loop_
 _atom_site_type_symbol
 _atom_site_label
 _atom_site_symmetry_multiplicity
 _atom_site_fract_x
 _atom_site_fract_y
 _atom_site_fract_z
 _atom_site_occupancy
  Er  Er0  1  0.329264  0.668138  0.433070  1
  Er  Er1  1  0.657912  0.327921  0.565815  1
  Er  Er2  1  0.657912  0.327921  0.934185  1
  Er  Er3  1  0.329264  0.668138  0.066930  1
  Tc  Tc4  1  0.679953  0.839034  0.750000  1
  Os  Os5  1  0.838240  0.163331  0.250000  1
  Ru  Ru6  1  0.982810  0.000127  0.499521  1
  Ru  Ru7  1  0.982810  0.000127  0.000479  1
  Ru  Ru8  1  0.830485  0.654203  0.250000  1
  Ru  Ru9  1  0.352109  0.172716  0.250000  1
  Ru  Ru10  1  0.180713  0.828711  0.750000  1
  Ru  Ru11  1  0.178528  0.349634  0.750000  1
