# generated using pymatgen
data_Nd9DySe10
_symmetry_space_group_name_H-M   'P 1'
_cell_length_a   7.27844229
_cell_length_b   8.38068439
_cell_length_c   9.50673825
_cell_angle_alpha   103.23184364
_cell_angle_beta   96.78568493
_cell_angle_gamma   106.67494414
_symmetry_Int_Tables_number   1
_chemical_formula_structural   Nd9DySe10
_chemical_formula_sum   'Nd9 Dy1 Se10'
_cell_volume   530.14961735
_cell_formula_units_Z   1
loop_
 _symmetry_equiv_pos_site_id
 _symmetry_equiv_pos_as_xyz
  1  'x, y, z'
loop_
 _atom_site_type_symbol
 _atom_site_label
 _atom_site_symmetry_multiplicity
 _atom_site_fract_x
 _atom_site_fract_y
 _atom_site_fract_z
 _atom_site_occupancy
  Nd  Nd0  1  0.800140  0.599446  0.596883  1
  Nd  Nd1  1  0.593595  0.196821  0.198842  1
  Nd  Nd2  1  0.406405  0.803179  0.801158  1
  Nd  Nd3  1  0.599949  0.701664  0.201404  1
  Nd  Nd4  1  0.199860  0.400554  0.403117  1
  Nd  Nd5  1  0.400051  0.298336  0.798596  1
  Nd  Nd6  1  0.000000  0.000000  0.000000  1
  Nd  Nd7  1  0.202156  0.901247  0.401026  1
  Nd  Nd8  1  0.797844  0.098753  0.598974  1
  Dy  Dy9  1  0.000000  0.500000  0.000000  1
  Se  Se10  1  0.706790  0.646162  0.901586  1
  Se  Se11  1  0.500236  0.250682  0.499847  1
  Se  Se12  1  0.707198  0.158487  0.902795  1
  Se  Se13  1  0.292802  0.841513  0.097205  1
  Se  Se14  1  0.499764  0.749318  0.500153  1
  Se  Se15  1  0.098577  0.452333  0.707407  1
  Se  Se16  1  0.293210  0.353838  0.098414  1
  Se  Se17  1  0.899859  0.050892  0.299796  1
  Se  Se18  1  0.100141  0.949108  0.700204  1
  Se  Se19  1  0.901423  0.547667  0.292593  1
