# generated using pymatgen
data_Ti10CuSb7
_symmetry_space_group_name_H-M   'P 1'
_cell_length_a   8.30226300
_cell_length_b   8.30226354
_cell_length_c   5.55794300
_cell_angle_alpha   90.00000000
_cell_angle_beta   90.00000000
_cell_angle_gamma   120.00000184
_symmetry_Int_Tables_number   1
_chemical_formula_structural   Ti10CuSb7
_chemical_formula_sum   'Ti10 Cu1 Sb7'
_cell_volume   331.77045937
_cell_formula_units_Z   1
loop_
 _symmetry_equiv_pos_site_id
 _symmetry_equiv_pos_as_xyz
  1  'x, y, z'
loop_
 _atom_site_type_symbol
 _atom_site_label
 _atom_site_symmetry_multiplicity
 _atom_site_fract_x
 _atom_site_fract_y
 _atom_site_fract_z
 _atom_site_occupancy
  Ti  Ti0  1  0.666667  0.333333  0.500000  1
  Ti  Ti1  1  0.333333  0.666667  0.500000  1
  Ti  Ti2  1  0.333333  0.666667  0.000000  1
  Ti  Ti3  1  0.666667  0.333333  0.000000  1
  Ti  Ti4  1  0.723732  0.723732  0.259668  1
  Ti  Ti5  1  0.276268  0.000000  0.259668  1
  Ti  Ti6  1  0.000000  0.276268  0.259668  1
  Ti  Ti7  1  0.276268  0.276268  0.740332  1
  Ti  Ti8  1  0.723732  0.000000  0.740332  1
  Ti  Ti9  1  0.000000  0.723732  0.740332  1
  Cu  Cu10  1  0.000000  0.000000  0.500000  1
  Sb  Sb11  1  0.000000  0.000000  0.000000  1
  Sb  Sb12  1  0.386898  0.386898  0.250176  1
  Sb  Sb13  1  0.613102  0.000000  0.250176  1
  Sb  Sb14  1  0.000000  0.613102  0.250176  1
  Sb  Sb15  1  0.613102  0.613102  0.749824  1
  Sb  Sb16  1  0.386898  0.000000  0.749824  1
  Sb  Sb17  1  0.000000  0.386898  0.749824  1
