# generated using pymatgen
data_Dy4Y4Re(B8Os)3
_symmetry_space_group_name_H-M   'P 1'
_cell_length_a   3.66739100
_cell_length_b   9.16494609
_cell_length_c   11.55024300
_cell_angle_alpha   90.08635282
_cell_angle_beta   90.00000000
_cell_angle_gamma   90.00000000
_symmetry_Int_Tables_number   1
_chemical_formula_structural   Dy4Y4Re(B8Os)3
_chemical_formula_sum   'Dy4 Y4 Re1 B24 Os3'
_cell_volume   388.21986817
_cell_formula_units_Z   1
loop_
 _symmetry_equiv_pos_site_id
 _symmetry_equiv_pos_as_xyz
  1  'x, y, z'
loop_
 _atom_site_type_symbol
 _atom_site_label
 _atom_site_symmetry_multiplicity
 _atom_site_fract_x
 _atom_site_fract_y
 _atom_site_fract_z
 _atom_site_occupancy
  Dy  Dy0  1  0.000000  0.943290  0.371910  1
  Dy  Dy1  1  0.000000  0.055943  0.627631  1
  Dy  Dy2  1  0.000000  0.442964  0.127798  1
  Dy  Dy3  1  0.000000  0.556472  0.872836  1
  Y  Y4  1  0.000000  0.322595  0.414815  1
  Y  Y5  1  0.000000  0.679884  0.588261  1
  Y  Y6  1  0.000000  0.822835  0.083722  1
  Y  Y7  1  0.000000  0.176181  0.913115  1
  Re  Re8  1  0.000000  0.862429  0.821389  1
  B  B9  1  0.500000  0.553869  0.432968  1
  B  B10  1  0.500000  0.446321  0.567391  1
  B  B11  1  0.500000  0.053656  0.067551  1
  B  B12  1  0.500000  0.947060  0.932858  1
  B  B13  1  0.500000  0.747962  0.419296  1
  B  B14  1  0.500000  0.252203  0.580562  1
  B  B15  1  0.500000  0.247669  0.080824  1
  B  B16  1  0.500000  0.751990  0.919170  1
  B  B17  1  0.500000  0.790146  0.266527  1
  B  B18  1  0.500000  0.209362  0.732725  1
  B  B19  1  0.500000  0.290582  0.233519  1
  B  B20  1  0.500000  0.708786  0.766495  1
  B  B21  1  0.500000  0.631300  0.185854  1
  B  B22  1  0.500000  0.368216  0.813795  1
  B  B23  1  0.500000  0.131933  0.314309  1
  B  B24  1  0.500000  0.868410  0.685969  1
  B  B25  1  0.500000  0.983809  0.212751  1
  B  B26  1  0.500000  0.017216  0.787107  1
  B  B27  1  0.500000  0.483524  0.287692  1
  B  B28  1  0.500000  0.516492  0.712882  1
  B  B29  1  0.500000  0.606772  0.030301  1
  B  B30  1  0.500000  0.391669  0.970360  1
  B  B31  1  0.500000  0.108174  0.469640  1
  B  B32  1  0.500000  0.892434  0.529283  1
  Os  Os33  1  0.000000  0.637362  0.321568  1
  Os  Os34  1  0.000000  0.362655  0.678008  1
  Os  Os35  1  0.000000  0.137836  0.179115  1
