# generated using pymatgen
data_Tm3Sc5Rh4
_symmetry_space_group_name_H-M   'P 1'
_cell_length_a   4.21217500
_cell_length_b   7.11063993
_cell_length_c   8.55813452
_cell_angle_alpha   91.39480411
_cell_angle_beta   90.00000000
_cell_angle_gamma   90.00000000
_symmetry_Int_Tables_number   1
_chemical_formula_structural   Tm3Sc5Rh4
_chemical_formula_sum   'Tm3 Sc5 Rh4'
_cell_volume   256.25096074
_cell_formula_units_Z   1
loop_
 _symmetry_equiv_pos_site_id
 _symmetry_equiv_pos_as_xyz
  1  'x, y, z'
loop_
 _atom_site_type_symbol
 _atom_site_label
 _atom_site_symmetry_multiplicity
 _atom_site_fract_x
 _atom_site_fract_y
 _atom_site_fract_z
 _atom_site_occupancy
  Tm  Tm0  1  0.250000  0.984016  0.328280  1
  Tm  Tm1  1  0.750000  0.020475  0.672191  1
  Tm  Tm2  1  0.250000  0.484297  0.168552  1
  Sc  Sc3  1  0.750000  0.511238  0.836091  1
  Sc  Sc4  1  0.750000  0.639812  0.434389  1
  Sc  Sc5  1  0.250000  0.366511  0.576235  1
  Sc  Sc6  1  0.750000  0.140572  0.067317  1
  Sc  Sc7  1  0.250000  0.849399  0.925716  1
  Rh  Rh8  1  0.250000  0.246724  0.895939  1
  Rh  Rh9  1  0.750000  0.751196  0.097366  1
  Rh  Rh10  1  0.250000  0.751218  0.597912  1
  Rh  Rh11  1  0.750000  0.254540  0.400012  1
