# generated using pymatgen
data_Sc6Sn7Rh5
_symmetry_space_group_name_H-M   'P 1'
_cell_length_a   7.61766100
_cell_length_b   7.61766093
_cell_length_c   7.11508600
_cell_angle_alpha   90.00000000
_cell_angle_beta   90.00000000
_cell_angle_gamma   120.00001332
_symmetry_Int_Tables_number   1
_chemical_formula_structural   Sc6Sn7Rh5
_chemical_formula_sum   'Sc6 Sn7 Rh5'
_cell_volume   357.56418117
_cell_formula_units_Z   1
loop_
 _symmetry_equiv_pos_site_id
 _symmetry_equiv_pos_as_xyz
  1  'x, y, z'
loop_
 _atom_site_type_symbol
 _atom_site_label
 _atom_site_symmetry_multiplicity
 _atom_site_fract_x
 _atom_site_fract_y
 _atom_site_fract_z
 _atom_site_occupancy
  Sc  Sc0  1  0.384259  0.983586  0.235158  1
  Sc  Sc1  1  0.599327  0.615741  0.235158  1
  Sc  Sc2  1  0.016414  0.400673  0.235158  1
  Sc  Sc3  1  0.383373  0.981999  0.764947  1
  Sc  Sc4  1  0.598625  0.616627  0.764947  1
  Sc  Sc5  1  0.018001  0.401375  0.764947  1
  Sn  Sn6  1  0.285344  0.277320  0.999991  1
  Sn  Sn7  1  0.991976  0.714656  0.999991  1
  Sn  Sn8  1  0.018412  0.753633  0.499803  1
  Sn  Sn9  1  0.735220  0.981588  0.499803  1
  Sn  Sn10  1  0.246367  0.264780  0.499803  1
  Sn  Sn11  1  0.722680  0.008024  0.999991  1
  Sn  Sn12  1  0.666667  0.333333  0.501989  1
  Rh  Rh13  1  0.000000  0.000000  0.770159  1
  Rh  Rh14  1  0.000000  0.000000  0.229557  1
  Rh  Rh15  1  0.666667  0.333333  0.998527  1
  Rh  Rh16  1  0.333333  0.666667  0.498883  1
  Rh  Rh17  1  0.333333  0.666667  0.001186  1
