# generated using pymatgen
data_NaSmEr(P3Pd10)2
_symmetry_space_group_name_H-M   'P 1'
_cell_length_a   8.66935777
_cell_length_b   8.66935813
_cell_length_c   8.66935700
_cell_angle_alpha   60.00000049
_cell_angle_beta   59.99999913
_cell_angle_gamma   59.99999417
_symmetry_Int_Tables_number   1
_chemical_formula_structural   NaSmEr(P3Pd10)2
_chemical_formula_sum   'Na1 Sm1 Er1 P6 Pd20'
_cell_volume   460.72920141
_cell_formula_units_Z   1
loop_
 _symmetry_equiv_pos_site_id
 _symmetry_equiv_pos_as_xyz
  1  'x, y, z'
loop_
 _atom_site_type_symbol
 _atom_site_label
 _atom_site_symmetry_multiplicity
 _atom_site_fract_x
 _atom_site_fract_y
 _atom_site_fract_z
 _atom_site_occupancy
  Na  Na0  1  0.000000  0.000000  0.000000  1
  Sm  Sm1  1  0.750000  0.750000  0.750000  1
  Er  Er2  1  0.250000  0.250000  0.250000  1
  P  P3  1  0.739578  0.260422  0.260422  1
  P  P4  1  0.260422  0.739578  0.739578  1
  P  P5  1  0.260422  0.739578  0.260422  1
  P  P6  1  0.739578  0.260422  0.739578  1
  P  P7  1  0.260422  0.260422  0.739578  1
  P  P8  1  0.739578  0.739578  0.260422  1
  Pd  Pd9  1  0.383720  0.383720  0.383720  1
  Pd  Pd10  1  0.613416  0.613416  0.613416  1
  Pd  Pd11  1  0.383720  0.383720  0.848839  1
  Pd  Pd12  1  0.383720  0.848839  0.383720  1
  Pd  Pd13  1  0.613416  0.613416  0.159750  1
  Pd  Pd14  1  0.613416  0.159750  0.613416  1
  Pd  Pd15  1  0.848839  0.383720  0.383720  1
  Pd  Pd16  1  0.159750  0.613416  0.613416  1
  Pd  Pd17  1  0.346584  0.999921  0.999921  1
  Pd  Pd18  1  0.653574  0.999921  0.999921  1
  Pd  Pd19  1  0.999921  0.346584  0.653574  1
  Pd  Pd20  1  0.999921  0.653574  0.346584  1
  Pd  Pd21  1  0.999921  0.346584  0.999921  1
  Pd  Pd22  1  0.653574  0.999921  0.346584  1
  Pd  Pd23  1  0.999921  0.653574  0.999921  1
  Pd  Pd24  1  0.346584  0.999921  0.653574  1
  Pd  Pd25  1  0.999921  0.999921  0.346584  1
  Pd  Pd26  1  0.999921  0.999921  0.653574  1
  Pd  Pd27  1  0.653574  0.346584  0.999921  1
  Pd  Pd28  1  0.346584  0.653574  0.999921  1
