# generated using pymatgen
data_Ta5Ti2NbO12
_symmetry_space_group_name_H-M   'P 1'
_cell_length_a   6.68483632
_cell_length_b   6.69148875
_cell_length_c   6.68960583
_cell_angle_alpha   73.14115228
_cell_angle_beta   73.28302079
_cell_angle_gamma   73.09562116
_symmetry_Int_Tables_number   1
_chemical_formula_structural   Ta5Ti2NbO12
_chemical_formula_sum   'Ta5 Ti2 Nb1 O12'
_cell_volume   267.16198717
_cell_formula_units_Z   1
loop_
 _symmetry_equiv_pos_site_id
 _symmetry_equiv_pos_as_xyz
  1  'x, y, z'
loop_
 _atom_site_type_symbol
 _atom_site_label
 _atom_site_symmetry_multiplicity
 _atom_site_fract_x
 _atom_site_fract_y
 _atom_site_fract_z
 _atom_site_occupancy
  Ta  Ta0  1  0.705280  0.944752  0.116795  1
  Ta  Ta1  1  0.117706  0.704846  0.943759  1
  Ta  Ta2  1  0.055978  0.882792  0.294094  1
  Ta  Ta3  1  0.294627  0.055869  0.881860  1
  Ta  Ta4  1  0.881463  0.295091  0.054424  1
  Ti  Ti5  1  0.272123  0.273857  0.277202  1
  Ti  Ti6  1  0.726151  0.727543  0.724056  1
  Nb  Nb7  1  0.943912  0.117322  0.705592  1
  O  O8  1  0.171933  0.572241  0.259383  1
  O  O9  1  0.264371  0.172218  0.572392  1
  O  O10  1  0.572060  0.258810  0.171628  1
  O  O11  1  0.827111  0.431387  0.743122  1
  O  O12  1  0.740335  0.828305  0.427243  1
  O  O13  1  0.427049  0.741112  0.828130  1
  O  O14  1  0.642314  0.033213  0.803845  1
  O  O15  1  0.800267  0.645374  0.037643  1
  O  O16  1  0.966310  0.201390  0.349358  1
  O  O17  1  0.200201  0.354532  0.962821  1
  O  O18  1  0.354222  0.964252  0.200257  1
  O  O19  1  0.036586  0.795092  0.646396  1
