# generated using pymatgen
data_PrDy2Er(Ir2O7)2
_symmetry_space_group_name_H-M   'P 1'
_cell_length_a   7.30742199
_cell_length_b   7.25243759
_cell_length_c   7.24418814
_cell_angle_alpha   59.96231866
_cell_angle_beta   60.21794663
_cell_angle_gamma   60.24859261
_symmetry_Int_Tables_number   1
_chemical_formula_structural   PrDy2Er(Ir2O7)2
_chemical_formula_sum   'Pr1 Dy2 Er1 Ir4 O14'
_cell_volume   272.34565857
_cell_formula_units_Z   1
loop_
 _symmetry_equiv_pos_site_id
 _symmetry_equiv_pos_as_xyz
  1  'x, y, z'
loop_
 _atom_site_type_symbol
 _atom_site_label
 _atom_site_symmetry_multiplicity
 _atom_site_fract_x
 _atom_site_fract_y
 _atom_site_fract_z
 _atom_site_occupancy
  Pr  Pr0  1  0.625000  0.125000  0.125000  1
  Dy  Dy1  1  0.125000  0.125000  0.125000  1
  Dy  Dy2  1  0.125000  0.625000  0.125000  1
  Er  Er3  1  0.125000  0.125000  0.625000  1
  Ir  Ir4  1  0.625000  0.625000  0.625000  1
  Ir  Ir5  1  0.125000  0.625000  0.625000  1
  Ir  Ir6  1  0.625000  0.125000  0.625000  1
  Ir  Ir7  1  0.625000  0.625000  0.125000  1
  O  O8  1  0.962118  0.537401  0.539569  1
  O  O9  1  0.287882  0.289088  0.710431  1
  O  O10  1  0.961769  0.538806  0.960619  1
  O  O11  1  0.720976  0.288998  0.288992  1
  O  O12  1  0.529024  0.548965  0.961008  1
  O  O13  1  0.527474  0.961358  0.549810  1
  O  O14  1  0.529024  0.961002  0.961008  1
  O  O15  1  0.237757  0.252851  0.256541  1
  O  O16  1  0.287882  0.712599  0.710431  1
  O  O17  1  0.722526  0.288642  0.700190  1
  O  O18  1  0.012243  0.997149  0.993459  1
  O  O19  1  0.962118  0.960912  0.539569  1
  O  O20  1  0.288231  0.711194  0.289381  1
  O  O21  1  0.720976  0.701035  0.288992  1
