# generated using pymatgen
data_Tb11CeY4(CdCo)4
_symmetry_space_group_name_H-M   'P 1'
_cell_length_a   9.51724324
_cell_length_b   9.51852811
_cell_length_c   9.37851986
_cell_angle_alpha   60.66796859
_cell_angle_beta   60.59622684
_cell_angle_gamma   59.79016285
_symmetry_Int_Tables_number   1
_chemical_formula_structural   Tb11CeY4(CdCo)4
_chemical_formula_sum   'Tb11 Ce1 Y4 Cd4 Co4'
_cell_volume   605.44904332
_cell_formula_units_Z   1
loop_
 _symmetry_equiv_pos_site_id
 _symmetry_equiv_pos_as_xyz
  1  'x, y, z'
loop_
 _atom_site_type_symbol
 _atom_site_label
 _atom_site_symmetry_multiplicity
 _atom_site_fract_x
 _atom_site_fract_y
 _atom_site_fract_z
 _atom_site_occupancy
  Tb  Tb0  1  0.808714  0.190044  0.812352  1
  Tb  Tb1  1  0.437121  0.055145  0.441882  1
  Tb  Tb2  1  0.593766  0.216993  0.596699  1
  Tb  Tb3  1  0.816405  0.815540  0.184594  1
  Tb  Tb4  1  0.216132  0.593780  0.597116  1
  Tb  Tb5  1  0.806391  0.189719  0.190620  1
  Tb  Tb6  1  0.055586  0.436387  0.442151  1
  Tb  Tb7  1  0.189457  0.806146  0.190748  1
  Tb  Tb8  1  0.601369  0.602057  0.206611  1
  Tb  Tb9  1  0.180680  0.180462  0.818324  1
  Tb  Tb10  1  0.056169  0.434820  0.063464  1
  Ce  Ce11  1  0.432142  0.431401  0.067032  1
  Y  Y12  1  0.601550  0.601317  0.591390  1
  Y  Y13  1  0.190235  0.808664  0.812043  1
  Y  Y14  1  0.060195  0.059432  0.437131  1
  Y  Y15  1  0.435277  0.055507  0.063241  1
  Cd  Cd16  1  0.830971  0.831236  0.507778  1
  Cd  Cd17  1  0.830513  0.831275  0.829178  1
  Cd  Cd18  1  0.507552  0.834241  0.828879  1
  Cd  Cd19  1  0.833558  0.507993  0.828448  1
  Co  Co20  1  0.401746  0.401307  0.352712  1
  Co  Co21  1  0.825814  0.389444  0.393007  1
  Co  Co22  1  0.388591  0.824666  0.395897  1
  Co  Co23  1  0.400067  0.402428  0.848701  1
