# generated using pymatgen
data_TmLu3(NiAs)4
_symmetry_space_group_name_H-M   'P 1'
_cell_length_a   4.00629000
_cell_length_b   4.00628921
_cell_length_c   15.11961200
_cell_angle_alpha   90.00000000
_cell_angle_beta   90.00000000
_cell_angle_gamma   120.00000654
_symmetry_Int_Tables_number   1
_chemical_formula_structural   TmLu3(NiAs)4
_chemical_formula_sum   'Tm1 Lu3 Ni4 As4'
_cell_volume   210.16284050
_cell_formula_units_Z   1
loop_
 _symmetry_equiv_pos_site_id
 _symmetry_equiv_pos_as_xyz
  1  'x, y, z'
loop_
 _atom_site_type_symbol
 _atom_site_label
 _atom_site_symmetry_multiplicity
 _atom_site_fract_x
 _atom_site_fract_y
 _atom_site_fract_z
 _atom_site_occupancy
  Tm  Tm0  1  0.000000  0.000000  0.500000  1
  Lu  Lu1  1  0.000000  0.000000  0.249381  1
  Lu  Lu2  1  0.000000  0.000000  0.750619  1
  Lu  Lu3  1  0.000000  0.000000  0.000000  1
  Ni  Ni4  1  0.333333  0.666667  0.136428  1
  Ni  Ni5  1  0.666667  0.333333  0.863572  1
  Ni  Ni6  1  0.666667  0.333333  0.634556  1
  Ni  Ni7  1  0.333333  0.666667  0.365444  1
  As  As8  1  0.333333  0.666667  0.620439  1
  As  As9  1  0.666667  0.333333  0.379561  1
  As  As10  1  0.666667  0.333333  0.118823  1
  As  As11  1  0.333333  0.666667  0.881177  1
