# generated using pymatgen
data_Ba2AcGaO5
_symmetry_space_group_name_H-M   'P 1'
_cell_length_a   6.29096000
_cell_length_b   7.98688029
_cell_length_c   13.02348700
_cell_angle_alpha   91.31869234
_cell_angle_beta   90.00000000
_cell_angle_gamma   90.00000000
_symmetry_Int_Tables_number   1
_chemical_formula_structural   Ba2AcGaO5
_chemical_formula_sum   'Ba8 Ac4 Ga4 O20'
_cell_volume   654.19367908
_cell_formula_units_Z   4
loop_
 _symmetry_equiv_pos_site_id
 _symmetry_equiv_pos_as_xyz
  1  'x, y, z'
loop_
 _atom_site_type_symbol
 _atom_site_label
 _atom_site_symmetry_multiplicity
 _atom_site_fract_x
 _atom_site_fract_y
 _atom_site_fract_z
 _atom_site_occupancy
  Ba  Ba0  1  0.759802  0.464294  0.313745  1
  Ba  Ba1  1  0.740198  0.964294  0.813745  1
  Ba  Ba2  1  0.240198  0.535706  0.686255  1
  Ba  Ba3  1  0.259802  0.035706  0.186255  1
  Ba  Ba4  1  0.757002  0.976412  0.377828  1
  Ba  Ba5  1  0.742998  0.476412  0.877828  1
  Ba  Ba6  1  0.242998  0.023588  0.622172  1
  Ba  Ba7  1  0.257002  0.523588  0.122172  1
  Ac  Ac8  1  0.761221  0.299301  0.610777  1
  Ac  Ac9  1  0.738779  0.799301  0.110777  1
  Ac  Ac10  1  0.238779  0.700699  0.389223  1
  Ac  Ac11  1  0.261221  0.200699  0.889223  1
  Ga  Ga12  1  0.724075  0.746812  0.582285  1
  Ga  Ga13  1  0.775925  0.246812  0.082285  1
  Ga  Ga14  1  0.275925  0.253188  0.417715  1
  Ga  Ga15  1  0.224075  0.753188  0.917715  1
  O  O16  1  0.787075  0.977141  0.606215  1
  O  O17  1  0.712925  0.477141  0.106215  1
  O  O18  1  0.212925  0.022859  0.393785  1
  O  O19  1  0.287075  0.522859  0.893785  1
  O  O20  1  0.714107  0.105345  0.190903  1
  O  O21  1  0.785893  0.605345  0.690903  1
  O  O22  1  0.285893  0.894655  0.809097  1
  O  O23  1  0.214107  0.394655  0.309097  1
  O  O24  1  0.527400  0.741903  0.268326  1
  O  O25  1  0.972600  0.241903  0.768326  1
  O  O26  1  0.472600  0.258097  0.731674  1
  O  O27  1  0.027400  0.758097  0.231674  1
  O  O28  1  0.620660  0.183481  0.965898  1
  O  O29  1  0.879340  0.683481  0.465898  1
  O  O30  1  0.379340  0.816519  0.034102  1
  O  O31  1  0.120660  0.316519  0.534102  1
  O  O32  1  0.068660  0.234969  0.054167  1
  O  O33  1  0.431340  0.734969  0.554167  1
  O  O34  1  0.931340  0.765031  0.945833  1
  O  O35  1  0.568660  0.265031  0.445833  1
