# generated using pymatgen
data_Ho12Tc2Ni2SnOs
_symmetry_space_group_name_H-M   'P 1'
_cell_length_a   8.34784848
_cell_length_b   8.34784908
_cell_length_c   8.34784901
_cell_angle_alpha   113.90525884
_cell_angle_beta   109.74773715
_cell_angle_gamma   104.88589372
_symmetry_Int_Tables_number   1
_chemical_formula_structural   Ho12Tc2Ni2SnOs
_chemical_formula_sum   'Ho12 Tc2 Ni2 Sn1 Os1'
_cell_volume   445.04972204
_cell_formula_units_Z   1
loop_
 _symmetry_equiv_pos_site_id
 _symmetry_equiv_pos_as_xyz
  1  'x, y, z'
loop_
 _atom_site_type_symbol
 _atom_site_label
 _atom_site_symmetry_multiplicity
 _atom_site_fract_x
 _atom_site_fract_y
 _atom_site_fract_z
 _atom_site_occupancy
  Ho  Ho0  1  0.417802  0.230989  0.186812  1
  Ho  Ho1  1  0.582198  0.769011  0.813188  1
  Ho  Ho2  1  0.044176  0.230989  0.813188  1
  Ho  Ho3  1  0.955824  0.769011  0.186812  1
  Ho  Ho4  1  0.176817  0.271712  0.448529  1
  Ho  Ho5  1  0.823183  0.728288  0.551471  1
  Ho  Ho6  1  0.176817  0.728288  0.905106  1
  Ho  Ho7  1  0.823183  0.271712  0.094894  1
  Ho  Ho8  1  0.330716  0.646009  0.315292  1
  Ho  Ho9  1  0.669284  0.353991  0.684708  1
  Ho  Ho10  1  0.330716  0.015425  0.684708  1
  Ho  Ho11  1  0.669284  0.984575  0.315292  1
  Tc  Tc12  1  0.332416  0.000000  0.332416  1
  Tc  Tc13  1  0.667584  0.000000  0.667584  1
  Ni  Ni14  1  0.114571  0.614571  0.500000  1
  Ni  Ni15  1  0.885429  0.385429  0.500000  1
  Sn  Sn16  1  0.500000  0.500000  0.000000  1
  Os  Os17  1  0.000000  0.000000  0.000000  1
