# generated using pymatgen
data_Sc2Be2SbRh5
_symmetry_space_group_name_H-M   'P 1'
_cell_length_a   9.43279100
_cell_length_b   9.43279100
_cell_length_c   3.30363300
_cell_angle_alpha   90.00000000
_cell_angle_beta   90.00000000
_cell_angle_gamma   90.00000000
_symmetry_Int_Tables_number   1
_chemical_formula_structural   Sc2Be2SbRh5
_chemical_formula_sum   'Sc4 Be4 Sb2 Rh10'
_cell_volume   293.94915739
_cell_formula_units_Z   2
loop_
 _symmetry_equiv_pos_site_id
 _symmetry_equiv_pos_as_xyz
  1  'x, y, z'
loop_
 _atom_site_type_symbol
 _atom_site_label
 _atom_site_symmetry_multiplicity
 _atom_site_fract_x
 _atom_site_fract_y
 _atom_site_fract_z
 _atom_site_occupancy
  Sc  Sc0  1  0.825778  0.325778  0.000000  1
  Sc  Sc1  1  0.325778  0.174222  0.000000  1
  Sc  Sc2  1  0.674222  0.825778  0.000000  1
  Sc  Sc3  1  0.174222  0.674222  0.000000  1
  Be  Be4  1  0.621490  0.121490  0.000000  1
  Be  Be5  1  0.121490  0.378510  0.000000  1
  Be  Be6  1  0.878510  0.621490  0.000000  1
  Be  Be7  1  0.378510  0.878510  0.000000  1
  Sb  Sb8  1  0.000000  0.000000  0.000000  1
  Sb  Sb9  1  0.500000  0.500000  0.000000  1
  Rh  Rh10  1  0.071814  0.214642  0.500000  1
  Rh  Rh11  1  0.214642  0.928186  0.500000  1
  Rh  Rh12  1  0.785358  0.071814  0.500000  1
  Rh  Rh13  1  0.928186  0.785358  0.500000  1
  Rh  Rh14  1  0.428186  0.714642  0.500000  1
  Rh  Rh15  1  0.571814  0.285358  0.500000  1
  Rh  Rh16  1  0.714642  0.571814  0.500000  1
  Rh  Rh17  1  0.285358  0.428186  0.500000  1
  Rh  Rh18  1  0.500000  0.000000  0.500000  1
  Rh  Rh19  1  0.000000  0.500000  0.500000  1
