# generated using pymatgen
data_Sr6TlPd4Pb3
_symmetry_space_group_name_H-M   'P 1'
_cell_length_a   6.21951100
_cell_length_b   9.08997200
_cell_length_c   14.60085700
_cell_angle_alpha   90.00000000
_cell_angle_beta   90.00000000
_cell_angle_gamma   90.00000000
_symmetry_Int_Tables_number   1
_chemical_formula_structural   Sr6TlPd4Pb3
_chemical_formula_sum   'Sr12 Tl2 Pd8 Pb6'
_cell_volume   825.46209097
_cell_formula_units_Z   2
loop_
 _symmetry_equiv_pos_site_id
 _symmetry_equiv_pos_as_xyz
  1  'x, y, z'
loop_
 _atom_site_type_symbol
 _atom_site_label
 _atom_site_symmetry_multiplicity
 _atom_site_fract_x
 _atom_site_fract_y
 _atom_site_fract_z
 _atom_site_occupancy
  Sr  Sr0  1  0.149837  0.395572  0.596907  1
  Sr  Sr1  1  0.850163  0.604428  0.096907  1
  Sr  Sr2  1  0.149837  0.104428  0.403093  1
  Sr  Sr3  1  0.850163  0.895572  0.903093  1
  Sr  Sr4  1  0.849366  0.602250  0.401710  1
  Sr  Sr5  1  0.150634  0.397750  0.901710  1
  Sr  Sr6  1  0.849366  0.897750  0.598290  1
  Sr  Sr7  1  0.150634  0.102250  0.098290  1
  Sr  Sr8  1  0.643418  0.255267  0.749852  1
  Sr  Sr9  1  0.356582  0.744733  0.249852  1
  Sr  Sr10  1  0.643418  0.244733  0.250148  1
  Sr  Sr11  1  0.356582  0.755267  0.750148  1
  Tl  Tl12  1  0.359465  0.750000  0.500000  1
  Tl  Tl13  1  0.640535  0.250000  0.000000  1
  Pd  Pd14  1  0.378644  0.028645  0.587991  1
  Pd  Pd15  1  0.621356  0.971355  0.087991  1
  Pd  Pd16  1  0.378644  0.471355  0.412009  1
  Pd  Pd17  1  0.621356  0.528645  0.912009  1
  Pd  Pd18  1  0.621573  0.966111  0.410734  1
  Pd  Pd19  1  0.378427  0.033889  0.910734  1
  Pd  Pd20  1  0.621573  0.533889  0.589266  1
  Pd  Pd21  1  0.378427  0.466111  0.089266  1
  Pb  Pb22  1  0.640394  0.250000  0.500000  1
  Pb  Pb23  1  0.359606  0.750000  0.000000  1
  Pb  Pb24  1  0.147867  0.104125  0.750264  1
  Pb  Pb25  1  0.852133  0.895875  0.250264  1
  Pb  Pb26  1  0.147867  0.395875  0.249736  1
  Pb  Pb27  1  0.852133  0.604125  0.749736  1
