# generated using pymatgen
data_Ca6Sc4Al12Rh7
_symmetry_space_group_name_H-M   'P 1'
_cell_length_a   9.18002984
_cell_length_b   9.18003061
_cell_length_c   9.18002900
_cell_angle_alpha   60.00000221
_cell_angle_beta   59.99999941
_cell_angle_gamma   60.00000449
_symmetry_Int_Tables_number   1
_chemical_formula_structural   Ca6Sc4Al12Rh7
_chemical_formula_sum   'Ca6 Sc4 Al12 Rh7'
_cell_volume   547.03775066
_cell_formula_units_Z   1
loop_
 _symmetry_equiv_pos_site_id
 _symmetry_equiv_pos_as_xyz
  1  'x, y, z'
loop_
 _atom_site_type_symbol
 _atom_site_label
 _atom_site_symmetry_multiplicity
 _atom_site_fract_x
 _atom_site_fract_y
 _atom_site_fract_z
 _atom_site_occupancy
  Ca  Ca0  1  0.699767  0.699767  0.300233  1
  Ca  Ca1  1  0.300233  0.699767  0.300233  1
  Ca  Ca2  1  0.699767  0.300233  0.300233  1
  Ca  Ca3  1  0.300233  0.300233  0.699767  1
  Ca  Ca4  1  0.699767  0.300233  0.699767  1
  Ca  Ca5  1  0.300233  0.699767  0.699767  1
  Sc  Sc6  1  0.881814  0.881814  0.354556  1
  Sc  Sc7  1  0.881814  0.354556  0.881814  1
  Sc  Sc8  1  0.354556  0.881814  0.881814  1
  Sc  Sc9  1  0.881814  0.881814  0.881814  1
  Al  Al10  1  0.121643  0.121643  0.635070  1
  Al  Al11  1  0.121643  0.635070  0.121643  1
  Al  Al12  1  0.635070  0.121643  0.121643  1
  Al  Al13  1  0.121643  0.121643  0.121643  1
  Al  Al14  1  0.672398  0.672398  0.982805  1
  Al  Al15  1  0.672398  0.982805  0.672398  1
  Al  Al16  1  0.982805  0.672398  0.672398  1
  Al  Al17  1  0.672398  0.672398  0.672398  1
  Al  Al18  1  0.325979  0.325979  0.022064  1
  Al  Al19  1  0.325979  0.022064  0.325979  1
  Al  Al20  1  0.022064  0.325979  0.325979  1
  Al  Al21  1  0.325979  0.325979  0.325979  1
  Rh  Rh22  1  0.000000  0.000000  0.000000  1
  Rh  Rh23  1  0.000930  0.000930  0.499070  1
  Rh  Rh24  1  0.499070  0.000930  0.499070  1
  Rh  Rh25  1  0.000930  0.499070  0.499070  1
  Rh  Rh26  1  0.499070  0.499070  0.000930  1
  Rh  Rh27  1  0.000930  0.499070  0.000930  1
  Rh  Rh28  1  0.499070  0.000930  0.000930  1
