# generated using pymatgen
data_Dy3Zn3AgGe2
_symmetry_space_group_name_H-M   'P 1'
_cell_length_a   6.94992500
_cell_length_b   6.94992473
_cell_length_c   4.31655000
_cell_angle_alpha   90.00000000
_cell_angle_beta   90.00000000
_cell_angle_gamma   120.00000606
_symmetry_Int_Tables_number   1
_chemical_formula_structural   Dy3Zn3AgGe2
_chemical_formula_sum   'Dy3 Zn3 Ag1 Ge2'
_cell_volume   180.56251689
_cell_formula_units_Z   1
loop_
 _symmetry_equiv_pos_site_id
 _symmetry_equiv_pos_as_xyz
  1  'x, y, z'
loop_
 _atom_site_type_symbol
 _atom_site_label
 _atom_site_symmetry_multiplicity
 _atom_site_fract_x
 _atom_site_fract_y
 _atom_site_fract_z
 _atom_site_occupancy
  Dy  Dy0  1  0.423581  0.423581  0.500000  1
  Dy  Dy1  1  0.576419  0.000000  0.500000  1
  Dy  Dy2  1  0.000000  0.576419  0.500000  1
  Zn  Zn3  1  0.758391  0.758391  0.000000  1
  Zn  Zn4  1  0.241609  0.000000  0.000000  1
  Zn  Zn5  1  0.000000  0.241609  0.000000  1
  Ag  Ag6  1  0.000000  0.000000  0.500000  1
  Ge  Ge7  1  0.666667  0.333333  0.000000  1
  Ge  Ge8  1  0.333333  0.666667  0.000000  1
