# generated using pymatgen
data_Cs3NaAs2O7
_symmetry_space_group_name_H-M   'P 1'
_cell_length_a   6.13891608
_cell_length_b   6.13891677
_cell_length_c   15.11713100
_cell_angle_alpha   90.00000000
_cell_angle_beta   90.00000000
_cell_angle_gamma   112.27806603
_symmetry_Int_Tables_number   1
_chemical_formula_structural   Cs3NaAs2O7
_chemical_formula_sum   'Cs6 Na2 As4 O14'
_cell_volume   527.18270448
_cell_formula_units_Z   2
loop_
 _symmetry_equiv_pos_site_id
 _symmetry_equiv_pos_as_xyz
  1  'x, y, z'
loop_
 _atom_site_type_symbol
 _atom_site_label
 _atom_site_symmetry_multiplicity
 _atom_site_fract_x
 _atom_site_fract_y
 _atom_site_fract_z
 _atom_site_occupancy
  Cs  Cs0  1  0.123311  0.123311  0.000000  1
  Cs  Cs1  1  0.876689  0.876689  0.500000  1
  Cs  Cs2  1  0.765369  0.452976  0.120430  1
  Cs  Cs3  1  0.452976  0.765369  0.879570  1
  Cs  Cs4  1  0.234631  0.547024  0.620430  1
  Cs  Cs5  1  0.547024  0.234631  0.379570  1
  Na  Na6  1  0.999265  0.000735  0.250000  1
  Na  Na7  1  0.000735  0.999265  0.750000  1
  As  As8  1  0.429292  0.814916  0.155020  1
  As  As9  1  0.814916  0.429292  0.844980  1
  As  As10  1  0.570708  0.185084  0.655020  1
  As  As11  1  0.185084  0.570708  0.344980  1
  O  O12  1  0.333118  0.033252  0.180200  1
  O  O13  1  0.033252  0.333118  0.819800  1
  O  O14  1  0.666882  0.966748  0.680200  1
  O  O15  1  0.966748  0.666882  0.319800  1
  O  O16  1  0.727895  0.928003  0.141280  1
  O  O17  1  0.928003  0.727895  0.858720  1
  O  O18  1  0.272105  0.071997  0.641280  1
  O  O19  1  0.071997  0.272105  0.358720  1
  O  O20  1  0.285668  0.639483  0.069441  1
  O  O21  1  0.639483  0.285668  0.930559  1
  O  O22  1  0.714332  0.360517  0.569441  1
  O  O23  1  0.360517  0.714332  0.430559  1
  O  O24  1  0.383639  0.616361  0.250000  1
  O  O25  1  0.616361  0.383639  0.750000  1
