# generated using pymatgen
data_Y15Er5(Bi2Sb)4
_symmetry_space_group_name_H-M   'P 1'
_cell_length_a   8.17744833
_cell_length_b   9.44541204
_cell_length_c   12.01698145
_cell_angle_alpha   90.00419545
_cell_angle_beta   90.03094439
_cell_angle_gamma   90.00934362
_symmetry_Int_Tables_number   1
_chemical_formula_structural   Y15Er5(Bi2Sb)4
_chemical_formula_sum   'Y15 Er5 Bi8 Sb4'
_cell_volume   928.18391218
_cell_formula_units_Z   1
loop_
 _symmetry_equiv_pos_site_id
 _symmetry_equiv_pos_as_xyz
  1  'x, y, z'
loop_
 _atom_site_type_symbol
 _atom_site_label
 _atom_site_symmetry_multiplicity
 _atom_site_fract_x
 _atom_site_fract_y
 _atom_site_fract_z
 _atom_site_occupancy
  Y  Y0  1  0.183071  0.749970  0.718232  1
  Y  Y1  1  0.683100  0.750005  0.781869  1
  Y  Y2  1  0.817008  0.250015  0.281755  1
  Y  Y3  1  0.316915  0.250298  0.217885  1
  Y  Y4  1  0.809631  0.061529  0.558743  1
  Y  Y5  1  0.690072  0.938488  0.058502  1
  Y  Y6  1  0.190489  0.561442  0.441324  1
  Y  Y7  1  0.690278  0.561329  0.058526  1
  Y  Y8  1  0.190447  0.938475  0.441376  1
  Y  Y9  1  0.309508  0.062094  0.941457  1
  Y  Y10  1  0.809550  0.438482  0.558659  1
  Y  Y11  1  0.354238  0.750177  0.212935  1
  Y  Y12  1  0.854144  0.750030  0.287104  1
  Y  Y13  1  0.645488  0.250487  0.787283  1
  Y  Y14  1  0.146472  0.250510  0.713238  1
  Er  Er15  1  0.028761  0.749908  0.988408  1
  Er  Er16  1  0.528464  0.750056  0.511646  1
  Er  Er17  1  0.972199  0.250450  0.011513  1
  Er  Er18  1  0.471488  0.250031  0.488459  1
  Er  Er19  1  0.309551  0.436612  0.941312  1
  Bi  Bi20  1  0.433957  0.003807  0.673008  1
  Bi  Bi21  1  0.934300  0.496440  0.827170  1
  Bi  Bi22  1  0.565929  0.503722  0.326961  1
  Bi  Bi23  1  0.066094  0.996340  0.172924  1
  Bi  Bi24  1  0.566017  0.996408  0.327021  1
  Bi  Bi25  1  0.066106  0.503832  0.172726  1
  Bi  Bi26  1  0.433793  0.496363  0.673166  1
  Bi  Bi27  1  0.934036  0.003857  0.827119  1
  Sb  Sb28  1  0.408233  0.748479  0.958977  1
  Sb  Sb29  1  0.908988  0.749949  0.540778  1
  Sb  Sb30  1  0.590714  0.250478  0.040524  1
  Sb  Sb31  1  0.090958  0.249937  0.459400  1
