# generated using pymatgen
data_Sm12Ga3GeBr12
_symmetry_space_group_name_H-M   'P 1'
_cell_length_a   10.34701142
_cell_length_b   10.32379358
_cell_length_c   10.32389438
_cell_angle_alpha   109.42458075
_cell_angle_beta   109.51527977
_cell_angle_gamma   109.51439572
_symmetry_Int_Tables_number   1
_chemical_formula_structural   Sm12Ga3GeBr12
_chemical_formula_sum   'Sm12 Ga3 Ge1 Br12'
_cell_volume   848.51176117
_cell_formula_units_Z   1
loop_
 _symmetry_equiv_pos_site_id
 _symmetry_equiv_pos_as_xyz
  1  'x, y, z'
loop_
 _atom_site_type_symbol
 _atom_site_label
 _atom_site_symmetry_multiplicity
 _atom_site_fract_x
 _atom_site_fract_y
 _atom_site_fract_z
 _atom_site_occupancy
  Sm  Sm0  1  0.480436  0.490228  0.240064  1
  Sm  Sm1  1  0.749999  0.240807  0.259192  1
  Sm  Sm2  1  0.750001  0.008752  0.491251  1
  Sm  Sm3  1  0.241264  0.482524  0.491255  1
  Sm  Sm4  1  0.259622  0.749826  0.240058  1
  Sm  Sm5  1  0.019563  0.259934  0.009772  1
  Sm  Sm6  1  0.009193  0.018383  0.259185  1
  Sm  Sm7  1  0.490201  0.749831  0.009779  1
  Sm  Sm8  1  0.490806  0.240811  0.481616  1
  Sm  Sm9  1  0.009801  0.490221  0.750168  1
  Sm  Sm10  1  0.258734  0.008744  0.017476  1
  Sm  Sm11  1  0.240379  0.259942  0.750173  1
  Ga  Ga12  1  0.250001  0.250161  0.249841  1
  Ga  Ga13  1  0.499842  0.999672  0.249839  1
  Ga  Ga14  1  0.000158  0.250163  0.500328  1
  Ge  Ge15  1  0.250001  0.500003  0.999999  1
  Br  Br16  1  0.250001  0.754231  0.745769  1
  Br  Br17  1  0.509714  0.504990  0.755453  1
  Br  Br18  1  0.990283  0.744545  0.995008  1
  Br  Br19  1  0.745742  0.250467  0.755457  1
  Br  Br20  1  0.995767  0.991535  0.745772  1
  Br  Br21  1  0.250001  0.994930  0.505070  1
  Br  Br22  1  0.755067  0.510136  0.505070  1
  Br  Br23  1  0.504731  0.250466  0.995008  1
  Br  Br24  1  0.754259  0.744542  0.249534  1
  Br  Br25  1  0.744932  0.994930  0.989862  1
  Br  Br26  1  0.995270  0.504992  0.249534  1
  Br  Br27  1  0.504233  0.754231  0.508464  1
