# generated using pymatgen
data_Ga8Ru9W
_symmetry_space_group_name_H-M   'P 1'
_cell_length_a   7.44129332
_cell_length_b   7.44129379
_cell_length_c   5.29386528
_cell_angle_alpha   90.02009269
_cell_angle_beta   90.02009180
_cell_angle_gamma   120.07294208
_symmetry_Int_Tables_number   1
_chemical_formula_structural   Ga8Ru9W
_chemical_formula_sum   'Ga8 Ru9 W1'
_cell_volume   253.67671377
_cell_formula_units_Z   1
loop_
 _symmetry_equiv_pos_site_id
 _symmetry_equiv_pos_as_xyz
  1  'x, y, z'
loop_
 _atom_site_type_symbol
 _atom_site_label
 _atom_site_symmetry_multiplicity
 _atom_site_fract_x
 _atom_site_fract_y
 _atom_site_fract_z
 _atom_site_occupancy
  Ga  Ga0  1  0.666473  0.996680  0.223771  1
  Ga  Ga1  1  0.336893  0.336892  0.223600  1
  Ga  Ga2  1  0.996680  0.666474  0.223771  1
  Ga  Ga3  1  0.666709  0.336588  0.560326  1
  Ga  Ga4  1  0.336589  0.666710  0.560326  1
  Ga  Ga5  1  0.996681  0.996681  0.561063  1
  Ga  Ga6  1  0.333311  0.999932  0.891889  1
  Ga  Ga7  1  0.999932  0.333310  0.891889  1
  Ru  Ru8  1  0.666506  0.330856  0.060120  1
  Ru  Ru9  1  0.330857  0.666507  0.060120  1
  Ru  Ru10  1  0.002424  0.002424  0.060788  1
  Ru  Ru11  1  0.333215  0.000020  0.391830  1
  Ru  Ru12  1  0.000020  0.333214  0.391830  1
  Ru  Ru13  1  0.666813  0.666813  0.392362  1
  Ru  Ru14  1  0.666591  0.002332  0.724030  1
  Ru  Ru15  1  0.331142  0.331142  0.723742  1
  Ru  Ru16  1  0.002332  0.666591  0.724030  1
  W  W17  1  0.666835  0.666835  0.892352  1
