# generated using pymatgen
data_Yb8Mn2SbPd22
_symmetry_space_group_name_H-M   'P 1'
_cell_length_a   8.12886500
_cell_length_b   8.54100100
_cell_length_c   8.44334800
_cell_angle_alpha   90.00000000
_cell_angle_beta   90.00000000
_cell_angle_gamma   90.00000000
_symmetry_Int_Tables_number   1
_chemical_formula_structural   Yb8Mn2SbPd22
_chemical_formula_sum   'Yb8 Mn2 Sb1 Pd22'
_cell_volume   586.21020325
_cell_formula_units_Z   1
loop_
 _symmetry_equiv_pos_site_id
 _symmetry_equiv_pos_as_xyz
  1  'x, y, z'
loop_
 _atom_site_type_symbol
 _atom_site_label
 _atom_site_symmetry_multiplicity
 _atom_site_fract_x
 _atom_site_fract_y
 _atom_site_fract_z
 _atom_site_occupancy
  Yb  Yb0  1  0.748834  0.733779  0.244285  1
  Yb  Yb1  1  0.748834  0.266221  0.755715  1
  Yb  Yb2  1  0.251377  0.763097  0.757910  1
  Yb  Yb3  1  0.748834  0.733779  0.755715  1
  Yb  Yb4  1  0.748834  0.266221  0.244285  1
  Yb  Yb5  1  0.251377  0.236903  0.757910  1
  Yb  Yb6  1  0.251377  0.763097  0.242090  1
  Yb  Yb7  1  0.251377  0.236903  0.242090  1
  Mn  Mn8  1  0.718737  0.000000  0.500000  1
  Mn  Mn9  1  0.257023  0.500000  0.500000  1
  Sb  Sb10  1  0.002797  0.000000  0.000000  1
  Pd  Pd11  1  0.979654  0.000000  0.314662  1
  Pd  Pd12  1  0.731274  0.500000  0.000000  1
  Pd  Pd13  1  0.512852  0.000000  0.726653  1
  Pd  Pd14  1  0.007705  0.733233  0.500000  1
  Pd  Pd15  1  0.512852  0.000000  0.273347  1
  Pd  Pd16  1  0.007705  0.266767  0.500000  1
  Pd  Pd17  1  0.500145  0.731821  0.000000  1
  Pd  Pd18  1  0.483959  0.500000  0.736867  1
  Pd  Pd19  1  0.483959  0.500000  0.263133  1
  Pd  Pd20  1  0.498187  0.255630  0.500000  1
  Pd  Pd21  1  0.498187  0.744370  0.500000  1
  Pd  Pd22  1  0.746638  0.500000  0.500000  1
  Pd  Pd23  1  0.321971  0.000000  0.000000  1
  Pd  Pd24  1  0.979654  0.000000  0.685338  1
  Pd  Pd25  1  0.018914  0.500000  0.267776  1
  Pd  Pd26  1  0.000693  0.307630  0.000000  1
  Pd  Pd27  1  0.000693  0.692370  0.000000  1
  Pd  Pd28  1  0.686397  0.000000  0.000000  1
  Pd  Pd29  1  0.267558  0.500000  0.000000  1
  Pd  Pd30  1  0.262543  0.000000  0.500000  1
  Pd  Pd31  1  0.018914  0.500000  0.732224  1
  Pd  Pd32  1  0.500145  0.268179  0.000000  1
