# generated using pymatgen
data_Yb(Al3Ni)3
_symmetry_space_group_name_H-M   'P 1'
_cell_length_a   10.15157933
_cell_length_b   10.15157991
_cell_length_c   10.15157895
_cell_angle_alpha   42.08714271
_cell_angle_beta   42.08713913
_cell_angle_gamma   42.08714676
_symmetry_Int_Tables_number   1
_chemical_formula_structural   Yb(Al3Ni)3
_chemical_formula_sum   'Yb2 Al18 Ni6'
_cell_volume   425.21230824
_cell_formula_units_Z   2
loop_
 _symmetry_equiv_pos_site_id
 _symmetry_equiv_pos_as_xyz
  1  'x, y, z'
loop_
 _atom_site_type_symbol
 _atom_site_label
 _atom_site_symmetry_multiplicity
 _atom_site_fract_x
 _atom_site_fract_y
 _atom_site_fract_z
 _atom_site_occupancy
  Yb  Yb0  1  0.166778  0.166778  0.166778  1
  Yb  Yb1  1  0.833222  0.833222  0.833222  1
  Al  Al2  1  0.103560  0.432154  0.761387  1
  Al  Al3  1  0.432154  0.761387  0.103560  1
  Al  Al4  1  0.567846  0.896440  0.238613  1
  Al  Al5  1  0.947921  0.947921  0.947921  1
  Al  Al6  1  0.052079  0.052079  0.052079  1
  Al  Al7  1  0.291504  0.708496  0.500000  1
  Al  Al8  1  0.896440  0.238613  0.567846  1
  Al  Al9  1  0.386765  0.386765  0.386765  1
  Al  Al10  1  0.500000  0.291504  0.708496  1
  Al  Al11  1  0.238613  0.567846  0.896440  1
  Al  Al12  1  0.718498  0.718498  0.718498  1
  Al  Al13  1  0.613235  0.613235  0.613235  1
  Al  Al14  1  0.333750  0.000000  0.666250  1
  Al  Al15  1  0.708496  0.500000  0.291504  1
  Al  Al16  1  0.666250  0.333750  0.000000  1
  Al  Al17  1  0.281502  0.281502  0.281502  1
  Al  Al18  1  0.000000  0.666250  0.333750  1
  Al  Al19  1  0.761387  0.103560  0.432154  1
  Ni  Ni20  1  0.417963  0.078098  0.757546  1
  Ni  Ni21  1  0.582037  0.242454  0.921902  1
  Ni  Ni22  1  0.078098  0.757546  0.417963  1
  Ni  Ni23  1  0.757546  0.417963  0.078098  1
  Ni  Ni24  1  0.921902  0.582037  0.242454  1
  Ni  Ni25  1  0.242454  0.921902  0.582037  1
