# generated using pymatgen
data_La20Si11Tc
_symmetry_space_group_name_H-M   'P 1'
_cell_length_a   7.88692700
_cell_length_b   7.88692700
_cell_length_c   14.45678900
_cell_angle_alpha   90.00000000
_cell_angle_beta   90.00000000
_cell_angle_gamma   90.00000000
_symmetry_Int_Tables_number   1
_chemical_formula_structural   La20Si11Tc
_chemical_formula_sum   'La20 Si11 Tc1'
_cell_volume   899.26457328
_cell_formula_units_Z   1
loop_
 _symmetry_equiv_pos_site_id
 _symmetry_equiv_pos_as_xyz
  1  'x, y, z'
loop_
 _atom_site_type_symbol
 _atom_site_label
 _atom_site_symmetry_multiplicity
 _atom_site_fract_x
 _atom_site_fract_y
 _atom_site_fract_z
 _atom_site_occupancy
  La  La0  1  0.500000  0.000000  0.775605  1
  La  La1  1  0.329111  0.314013  0.105129  1
  La  La2  1  0.828153  0.814789  0.894146  1
  La  La3  1  0.000000  0.500000  0.224249  1
  La  La4  1  0.835095  0.190680  0.395928  1
  La  La5  1  0.171847  0.185211  0.894146  1
  La  La6  1  0.670889  0.685987  0.105129  1
  La  La7  1  0.000000  0.500000  0.717611  1
  La  La8  1  0.816890  0.828200  0.603958  1
  La  La9  1  0.309320  0.335095  0.395928  1
  La  La10  1  0.185987  0.829111  0.105129  1
  La  La11  1  0.183110  0.171800  0.603958  1
  La  La12  1  0.814013  0.170889  0.105129  1
  La  La13  1  0.328200  0.683110  0.603958  1
  La  La14  1  0.500000  0.000000  0.277737  1
  La  La15  1  0.685211  0.328153  0.894146  1
  La  La16  1  0.671800  0.316890  0.603958  1
  La  La17  1  0.314789  0.671847  0.894146  1
  La  La18  1  0.164905  0.809320  0.395928  1
  La  La19  1  0.690680  0.664905  0.395928  1
  Si  Si20  1  0.613967  0.387325  0.248444  1
  Si  Si21  1  0.887578  0.112542  0.751320  1
  Si  Si22  1  0.500000  0.000000  0.495749  1
  Si  Si23  1  0.887325  0.886033  0.248444  1
  Si  Si24  1  0.000000  0.500000  0.005426  1
  Si  Si25  1  0.112422  0.887458  0.751320  1
  Si  Si26  1  0.387458  0.387578  0.751320  1
  Si  Si27  1  0.112675  0.113967  0.248444  1
  Si  Si28  1  0.386033  0.612675  0.248444  1
  Si  Si29  1  0.612542  0.612422  0.751320  1
  Si  Si30  1  0.500000  0.000000  0.994071  1
  Tc  Tc31  1  0.000000  0.500000  0.513849  1
