# generated using pymatgen
data_Ca2CdNiSn2
_symmetry_space_group_name_H-M   'P 1'
_cell_length_a   4.66558800
_cell_length_b   8.26875718
_cell_length_c   7.49556401
_cell_angle_alpha   87.62170416
_cell_angle_beta   90.00000000
_cell_angle_gamma   90.00000000
_symmetry_Int_Tables_number   1
_chemical_formula_structural   Ca2CdNiSn2
_chemical_formula_sum   'Ca4 Cd2 Ni2 Sn4'
_cell_volume   288.91938945
_cell_formula_units_Z   2
loop_
 _symmetry_equiv_pos_site_id
 _symmetry_equiv_pos_as_xyz
  1  'x, y, z'
loop_
 _atom_site_type_symbol
 _atom_site_label
 _atom_site_symmetry_multiplicity
 _atom_site_fract_x
 _atom_site_fract_y
 _atom_site_fract_z
 _atom_site_occupancy
  Ca  Ca0  1  0.750000  0.290256  0.994767  1
  Ca  Ca1  1  0.250000  0.709744  0.005233  1
  Ca  Ca2  1  0.250000  0.821225  0.496580  1
  Ca  Ca3  1  0.750000  0.178775  0.503420  1
  Cd  Cd4  1  0.250000  0.422699  0.674954  1
  Cd  Cd5  1  0.750000  0.577301  0.325046  1
  Ni  Ni6  1  0.250000  0.068981  0.184901  1
  Ni  Ni7  1  0.750000  0.931019  0.815099  1
  Sn  Sn8  1  0.250000  0.071982  0.820960  1
  Sn  Sn9  1  0.750000  0.630419  0.725744  1
  Sn  Sn10  1  0.250000  0.369581  0.274256  1
  Sn  Sn11  1  0.750000  0.928018  0.179040  1
