# generated using pymatgen
data_DyY3(UTc3)2
_symmetry_space_group_name_H-M   'P 1'
_cell_length_a   5.79975700
_cell_length_b   5.79975720
_cell_length_c   8.24304700
_cell_angle_alpha   90.00000000
_cell_angle_beta   90.00000000
_cell_angle_gamma   119.99998172
_symmetry_Int_Tables_number   1
_chemical_formula_structural   DyY3(UTc3)2
_chemical_formula_sum   'Dy1 Y3 U2 Tc6'
_cell_volume   240.12539849
_cell_formula_units_Z   1
loop_
 _symmetry_equiv_pos_site_id
 _symmetry_equiv_pos_as_xyz
  1  'x, y, z'
loop_
 _atom_site_type_symbol
 _atom_site_label
 _atom_site_symmetry_multiplicity
 _atom_site_fract_x
 _atom_site_fract_y
 _atom_site_fract_z
 _atom_site_occupancy
  Dy  Dy0  1  0.333333  0.666667  0.058858  1
  Y  Y1  1  0.333333  0.666667  0.440780  1
  Y  Y2  1  0.666667  0.333333  0.558902  1
  Y  Y3  1  0.666667  0.333333  0.941104  1
  U  U4  1  0.000000  0.000000  0.499931  1
  U  U5  1  0.000000  0.000000  0.000079  1
  Tc  Tc6  1  0.836474  0.163526  0.249901  1
  Tc  Tc7  1  0.836474  0.672948  0.249901  1
  Tc  Tc8  1  0.327052  0.163526  0.249901  1
  Tc  Tc9  1  0.163643  0.836357  0.750215  1
  Tc  Tc10  1  0.163643  0.327285  0.750215  1
  Tc  Tc11  1  0.672715  0.836357  0.750215  1
