# generated using pymatgen
data_TiFe4P4Ru3
_symmetry_space_group_name_H-M   'P 1'
_cell_length_a   3.66373000
_cell_length_b   5.85552948
_cell_length_c   6.64872665
_cell_angle_alpha   90.61669828
_cell_angle_beta   90.00000000
_cell_angle_gamma   90.00000000
_symmetry_Int_Tables_number   1
_chemical_formula_structural   TiFe4P4Ru3
_chemical_formula_sum   'Ti1 Fe4 P4 Ru3'
_cell_volume   142.62739588
_cell_formula_units_Z   1
loop_
 _symmetry_equiv_pos_site_id
 _symmetry_equiv_pos_as_xyz
  1  'x, y, z'
loop_
 _atom_site_type_symbol
 _atom_site_label
 _atom_site_symmetry_multiplicity
 _atom_site_fract_x
 _atom_site_fract_y
 _atom_site_fract_z
 _atom_site_occupancy
  Ti  Ti0  1  0.750000  0.476733  0.324687  1
  Fe  Fe1  1  0.250000  0.147230  0.438603  1
  Fe  Fe2  1  0.250000  0.641271  0.068833  1
  Fe  Fe3  1  0.750000  0.858804  0.564371  1
  Fe  Fe4  1  0.750000  0.357381  0.934992  1
  P  P5  1  0.250000  0.778475  0.380190  1
  P  P6  1  0.250000  0.262874  0.117102  1
  P  P7  1  0.750000  0.227786  0.627410  1
  P  P8  1  0.750000  0.727345  0.878612  1
  Ru  Ru9  1  0.250000  0.013987  0.835098  1
  Ru  Ru10  1  0.250000  0.540137  0.662209  1
  Ru  Ru11  1  0.750000  0.967978  0.167893  1
