# generated using pymatgen
data_TbPr7(DyPb3)2
_symmetry_space_group_name_H-M   'P 1'
_cell_length_a   9.35857000
_cell_length_b   9.35857055
_cell_length_c   6.87234300
_cell_angle_alpha   90.00000000
_cell_angle_beta   90.00000000
_cell_angle_gamma   119.99999805
_symmetry_Int_Tables_number   1
_chemical_formula_structural   TbPr7(DyPb3)2
_chemical_formula_sum   'Tb1 Pr7 Dy2 Pb6'
_cell_volume   521.26009538
_cell_formula_units_Z   1
loop_
 _symmetry_equiv_pos_site_id
 _symmetry_equiv_pos_as_xyz
  1  'x, y, z'
loop_
 _atom_site_type_symbol
 _atom_site_label
 _atom_site_symmetry_multiplicity
 _atom_site_fract_x
 _atom_site_fract_y
 _atom_site_fract_z
 _atom_site_occupancy
  Tb  Tb0  1  0.666667  0.333333  0.000000  1
  Pr  Pr1  1  0.239796  0.240417  0.749060  1
  Pr  Pr2  1  0.239796  0.999379  0.250940  1
  Pr  Pr3  1  0.333333  0.666667  0.000000  1
  Pr  Pr4  1  0.000621  0.760204  0.749060  1
  Pr  Pr5  1  0.759583  0.760204  0.250940  1
  Pr  Pr6  1  0.000621  0.240417  0.250940  1
  Pr  Pr7  1  0.759583  0.999379  0.749060  1
  Dy  Dy8  1  0.333333  0.666667  0.500000  1
  Dy  Dy9  1  0.666667  0.333333  0.500000  1
  Pb  Pb10  1  0.996532  0.395993  0.745594  1
  Pb  Pb11  1  0.399459  0.395993  0.254406  1
  Pb  Pb12  1  0.604007  0.003468  0.254406  1
  Pb  Pb13  1  0.604007  0.600541  0.745594  1
  Pb  Pb14  1  0.399459  0.003468  0.745594  1
  Pb  Pb15  1  0.996532  0.600541  0.254406  1
