# generated using pymatgen
data_Ho15Th(ZrIr3)4
_symmetry_space_group_name_H-M   'P 1'
_cell_length_a   10.86760464
_cell_length_b   10.82702883
_cell_length_c   6.24404591
_cell_angle_alpha   90.08633660
_cell_angle_beta   89.76476370
_cell_angle_gamma   90.14568237
_symmetry_Int_Tables_number   1
_chemical_formula_structural   Ho15Th(ZrIr3)4
_chemical_formula_sum   'Ho15 Th1 Zr4 Ir12'
_cell_volume   734.68920892
_cell_formula_units_Z   1
loop_
 _symmetry_equiv_pos_site_id
 _symmetry_equiv_pos_as_xyz
  1  'x, y, z'
loop_
 _atom_site_type_symbol
 _atom_site_label
 _atom_site_symmetry_multiplicity
 _atom_site_fract_x
 _atom_site_fract_y
 _atom_site_fract_z
 _atom_site_occupancy
  Ho  Ho0  1  0.290341  0.909636  0.873021  1
  Ho  Ho1  1  0.709588  0.087287  0.874439  1
  Ho  Ho2  1  0.709846  0.912112  0.372773  1
  Ho  Ho3  1  0.587156  0.789983  0.873817  1
  Ho  Ho4  1  0.592166  0.210891  0.373971  1
  Ho  Ho5  1  0.414824  0.786188  0.373909  1
  Ho  Ho6  1  0.414878  0.211571  0.872869  1
  Ho  Ho7  1  0.209563  0.413131  0.625661  1
  Ho  Ho8  1  0.209883  0.586765  0.125782  1
  Ho  Ho9  1  0.789924  0.413851  0.125436  1
  Ho  Ho10  1  0.790166  0.587112  0.625781  1
  Ho  Ho11  1  0.912971  0.709785  0.126621  1
  Ho  Ho12  1  0.912180  0.290555  0.624768  1
  Ho  Ho13  1  0.086749  0.709413  0.626297  1
  Ho  Ho14  1  0.083858  0.291697  0.122928  1
  Th  Th15  1  0.289529  0.089040  0.374650  1
  Zr  Zr16  1  0.995378  0.998350  0.501618  1
  Zr  Zr17  1  0.999775  0.999858  0.000498  1
  Zr  Zr18  1  0.500323  0.500067  0.001961  1
  Zr  Zr19  1  0.501251  0.499207  0.501823  1
  Ir  Ir20  1  0.854295  0.146221  0.249038  1
  Ir  Ir21  1  0.853299  0.853958  0.751956  1
  Ir  Ir22  1  0.144971  0.146184  0.744409  1
  Ir  Ir23  1  0.147738  0.856244  0.252733  1
  Ir  Ir24  1  0.646778  0.355155  0.750650  1
  Ir  Ir25  1  0.645956  0.645949  0.250004  1
  Ir  Ir26  1  0.354807  0.352873  0.252382  1
  Ir  Ir27  1  0.354515  0.645118  0.751201  1
  Ir  Ir28  1  0.497884  0.000555  0.120217  1
  Ir  Ir29  1  0.499674  0.999530  0.618051  1
  Ir  Ir30  1  0.999885  0.500546  0.880584  1
  Ir  Ir31  1  0.999849  0.501169  0.380152  1
