# generated using pymatgen
data_La4Ge2Pd25Au3
_symmetry_space_group_name_H-M   'P 1'
_cell_length_a   9.14631072
_cell_length_b   9.14631072
_cell_length_c   7.15493255
_cell_angle_alpha   90.05202620
_cell_angle_beta   90.05202620
_cell_angle_gamma   90.37823142
_symmetry_Int_Tables_number   1
_chemical_formula_structural   La4Ge2Pd25Au3
_chemical_formula_sum   'La4 Ge2 Pd25 Au3'
_cell_volume   598.53234342
_cell_formula_units_Z   1
loop_
 _symmetry_equiv_pos_site_id
 _symmetry_equiv_pos_as_xyz
  1  'x, y, z'
loop_
 _atom_site_type_symbol
 _atom_site_label
 _atom_site_symmetry_multiplicity
 _atom_site_fract_x
 _atom_site_fract_y
 _atom_site_fract_z
 _atom_site_occupancy
  La  La0  1  0.503129  0.003129  0.934385  1
  La  La1  1  0.996871  0.496871  0.065615  1
  La  La2  1  0.999711  0.000289  0.500000  1
  La  La3  1  0.500289  0.499711  0.500000  1
  Ge  Ge4  1  0.500791  0.000791  0.449445  1
  Ge  Ge5  1  0.999209  0.499209  0.550555  1
  Pd  Pd6  1  0.332515  0.832515  0.618700  1
  Pd  Pd7  1  0.332845  0.167741  0.618184  1
  Pd  Pd8  1  0.667741  0.832845  0.618184  1
  Pd  Pd9  1  0.669032  0.169032  0.621078  1
  Pd  Pd10  1  0.167485  0.667485  0.381300  1
  Pd  Pd11  1  0.167155  0.332259  0.381816  1
  Pd  Pd12  1  0.832259  0.667155  0.381816  1
  Pd  Pd13  1  0.830968  0.330968  0.378922  1
  Pd  Pd14  1  0.499912  0.767018  0.256758  1
  Pd  Pd15  1  0.502115  0.232772  0.254888  1
  Pd  Pd16  1  0.267018  0.999912  0.256758  1
  Pd  Pd17  1  0.732772  0.002115  0.254888  1
  Pd  Pd18  1  0.000088  0.732982  0.743242  1
  Pd  Pd19  1  0.997885  0.267228  0.745112  1
  Pd  Pd20  1  0.232982  0.500088  0.743242  1
  Pd  Pd21  1  0.767228  0.497885  0.745112  1
  Pd  Pd22  1  0.502261  0.349621  0.854876  1
  Pd  Pd23  1  0.499764  0.648922  0.852953  1
  Pd  Pd24  1  0.849621  0.002261  0.854876  1
  Pd  Pd25  1  0.148922  0.999764  0.852953  1
  Pd  Pd26  1  0.997739  0.150379  0.145124  1
  Pd  Pd27  1  0.000236  0.851078  0.147047  1
  Pd  Pd28  1  0.650379  0.497739  0.145124  1
  Pd  Pd29  1  0.351078  0.500236  0.147047  1
  Pd  Pd30  1  0.750000  0.250000  0.000000  1
  Au  Au31  1  0.250000  0.750000  0.000000  1
  Au  Au32  1  0.250000  0.250000  0.000000  1
  Au  Au33  1  0.750000  0.750000  0.000000  1
