# generated using pymatgen
data_Y7Ho3Ru3Rh
_symmetry_space_group_name_H-M   'P 1'
_cell_length_a   6.36591649
_cell_length_b   7.32144535
_cell_length_c   8.51085947
_cell_angle_alpha   96.74717318
_cell_angle_beta   112.08452049
_cell_angle_gamma   90.15814569
_symmetry_Int_Tables_number   1
_chemical_formula_structural   Y7Ho3Ru3Rh
_chemical_formula_sum   'Y7 Ho3 Ru3 Rh1'
_cell_volume   364.54722204
_cell_formula_units_Z   1
loop_
 _symmetry_equiv_pos_site_id
 _symmetry_equiv_pos_as_xyz
  1  'x, y, z'
loop_
 _atom_site_type_symbol
 _atom_site_label
 _atom_site_symmetry_multiplicity
 _atom_site_fract_x
 _atom_site_fract_y
 _atom_site_fract_z
 _atom_site_occupancy
  Y  Y0  1  0.978573  0.917808  0.185547  1
  Y  Y1  1  0.791217  0.584729  0.811295  1
  Y  Y2  1  0.021824  0.084816  0.813668  1
  Y  Y3  1  0.209733  0.414089  0.185572  1
  Y  Y4  1  0.640535  0.816339  0.436231  1
  Y  Y5  1  0.209210  0.685621  0.567422  1
  Y  Y6  1  0.357675  0.185444  0.565168  1
  Ho  Ho7  1  0.793244  0.313244  0.435591  1
  Ho  Ho8  1  0.419385  0.750701  0.999468  1
  Ho  Ho9  1  0.578171  0.248063  0.998635  1
  Ru  Ru10  1  0.603522  0.923452  0.781096  1
  Ru  Ru11  1  0.176679  0.425147  0.779602  1
  Ru  Ru12  1  0.399288  0.076145  0.219903  1
  Rh  Rh13  1  0.820943  0.574400  0.220803  1
