# generated using pymatgen
data_CeY14Ho(InRh)4
_symmetry_space_group_name_H-M   'P 1'
_cell_length_a   9.70648948
_cell_length_b   9.71168790
_cell_length_c   9.70649100
_cell_angle_alpha   59.86171455
_cell_angle_beta   59.84456004
_cell_angle_gamma   59.86171569
_symmetry_Int_Tables_number   1
_chemical_formula_structural   CeY14Ho(InRh)4
_chemical_formula_sum   'Ce1 Y14 Ho1 In4 Rh4'
_cell_volume   644.88548338
_cell_formula_units_Z   1
loop_
 _symmetry_equiv_pos_site_id
 _symmetry_equiv_pos_as_xyz
  1  'x, y, z'
loop_
 _atom_site_type_symbol
 _atom_site_label
 _atom_site_symmetry_multiplicity
 _atom_site_fract_x
 _atom_site_fract_y
 _atom_site_fract_z
 _atom_site_occupancy
  Ce  Ce0  1  0.596070  0.213197  0.596070  1
  Y  Y1  1  0.188318  0.188612  0.811597  1
  Y  Y2  1  0.600947  0.602853  0.195933  1
  Y  Y3  1  0.438457  0.059567  0.438457  1
  Y  Y4  1  0.439587  0.438440  0.060697  1
  Y  Y5  1  0.811081  0.189356  0.811081  1
  Y  Y6  1  0.187879  0.813113  0.187879  1
  Y  Y7  1  0.438756  0.060170  0.063133  1
  Y  Y8  1  0.188635  0.812399  0.810949  1
  Y  Y9  1  0.061293  0.438481  0.061293  1
  Y  Y10  1  0.810949  0.812399  0.188635  1
  Y  Y11  1  0.195933  0.602853  0.600947  1
  Y  Y12  1  0.060697  0.438440  0.439587  1
  Y  Y13  1  0.063133  0.060170  0.438756  1
  Y  Y14  1  0.811597  0.188612  0.188318  1
  Ho  Ho15  1  0.599481  0.601189  0.599481  1
  In  In16  1  0.833239  0.833518  0.833239  1
  In  In17  1  0.832575  0.832920  0.500933  1
  In  In18  1  0.500933  0.832920  0.832575  1
  In  In19  1  0.833055  0.499884  0.833055  1
  Rh  Rh20  1  0.394152  0.819545  0.394152  1
  Rh  Rh21  1  0.396928  0.386426  0.396928  1
  Rh  Rh22  1  0.818221  0.387469  0.398085  1
  Rh  Rh23  1  0.398085  0.387469  0.818221  1
