# generated using pymatgen
data_La10CoOsI15
_symmetry_space_group_name_H-M   'P 1'
_cell_length_a   10.05702348
_cell_length_b   11.16733393
_cell_length_c   11.97769149
_cell_angle_alpha   92.09289052
_cell_angle_beta   113.64229692
_cell_angle_gamma   109.97146183
_symmetry_Int_Tables_number   1
_chemical_formula_structural   La10CoOsI15
_chemical_formula_sum   'La10 Co1 Os1 I15'
_cell_volume   1134.44312219
_cell_formula_units_Z   1
loop_
 _symmetry_equiv_pos_site_id
 _symmetry_equiv_pos_as_xyz
  1  'x, y, z'
loop_
 _atom_site_type_symbol
 _atom_site_label
 _atom_site_symmetry_multiplicity
 _atom_site_fract_x
 _atom_site_fract_y
 _atom_site_fract_z
 _atom_site_occupancy
  La  La0  1  0.215027  0.586582  0.055654  1
  La  La1  1  0.775071  0.417694  0.946981  1
  La  La2  1  0.305273  0.904861  0.272888  1
  La  La3  1  0.698486  0.093778  0.726163  1
  La  La4  1  0.091438  0.543707  0.332425  1
  La  La5  1  0.906521  0.454494  0.666402  1
  La  La6  1  0.845972  0.743293  0.171216  1
  La  La7  1  0.163845  0.255173  0.827351  1
  La  La8  1  0.973740  0.793131  0.899795  1
  La  La9  1  0.024858  0.204327  0.098697  1
  Co  Co10  1  0.033576  0.678879  0.122787  1
  Os  Os11  1  0.965859  0.327729  0.881672  1
  I  I12  1  0.342743  0.442561  0.299830  1
  I  I13  1  0.655250  0.557360  0.699740  1
  I  I14  1  0.213400  0.735973  0.814397  1
  I  I15  1  0.785892  0.264237  0.184976  1
  I  I16  1  0.143489  0.385616  0.582425  1
  I  I17  1  0.857583  0.615243  0.416679  1
  I  I18  1  0.387945  0.801134  0.529312  1
  I  I19  1  0.607770  0.196506  0.468400  1
  I  I20  1  0.265011  0.085512  0.052949  1
  I  I21  1  0.734827  0.911268  0.946394  1
  I  I22  1  0.570135  0.841189  0.225844  1
  I  I23  1  0.433316  0.157897  0.774514  1
  I  I24  1  0.091312  0.035473  0.334255  1
  I  I25  1  0.913198  0.963195  0.665649  1
  I  I26  1  0.498465  0.503188  0.002603  1
