# generated using pymatgen
data_Ca4GeAsPd28
_symmetry_space_group_name_H-M   'P 1'
_cell_length_a   8.98396100
_cell_length_b   8.98396100
_cell_length_c   7.13206100
_cell_angle_alpha   90.00000000
_cell_angle_beta   90.00000000
_cell_angle_gamma   90.00000000
_symmetry_Int_Tables_number   1
_chemical_formula_structural   Ca4GeAsPd28
_chemical_formula_sum   'Ca4 Ge1 As1 Pd28'
_cell_volume   575.63973544
_cell_formula_units_Z   1
loop_
 _symmetry_equiv_pos_site_id
 _symmetry_equiv_pos_as_xyz
  1  'x, y, z'
loop_
 _atom_site_type_symbol
 _atom_site_label
 _atom_site_symmetry_multiplicity
 _atom_site_fract_x
 _atom_site_fract_y
 _atom_site_fract_z
 _atom_site_occupancy
  Ca  Ca0  1  0.500000  0.000000  0.939335  1
  Ca  Ca1  1  0.000000  0.500000  0.060575  1
  Ca  Ca2  1  0.000000  0.000000  0.500324  1
  Ca  Ca3  1  0.500000  0.500000  0.500324  1
  Ge  Ge4  1  0.000000  0.500000  0.550243  1
  As  As5  1  0.500000  0.000000  0.449370  1
  Pd  Pd6  1  0.330437  0.830437  0.622346  1
  Pd  Pd7  1  0.330437  0.169563  0.622346  1
  Pd  Pd8  1  0.669563  0.830437  0.622346  1
  Pd  Pd9  1  0.669563  0.169563  0.622346  1
  Pd  Pd10  1  0.169874  0.669874  0.377416  1
  Pd  Pd11  1  0.169874  0.330126  0.377416  1
  Pd  Pd12  1  0.830126  0.669874  0.377416  1
  Pd  Pd13  1  0.830126  0.330126  0.377416  1
  Pd  Pd14  1  0.500000  0.766724  0.253908  1
  Pd  Pd15  1  0.500000  0.233276  0.253908  1
  Pd  Pd16  1  0.266724  0.000000  0.253908  1
  Pd  Pd17  1  0.733276  0.000000  0.253908  1
  Pd  Pd18  1  0.000000  0.733666  0.746125  1
  Pd  Pd19  1  0.000000  0.266334  0.746125  1
  Pd  Pd20  1  0.233666  0.500000  0.746125  1
  Pd  Pd21  1  0.766334  0.500000  0.746125  1
  Pd  Pd22  1  0.500000  0.348916  0.857801  1
  Pd  Pd23  1  0.500000  0.651084  0.857801  1
  Pd  Pd24  1  0.848916  0.000000  0.857801  1
  Pd  Pd25  1  0.151084  0.000000  0.857801  1
  Pd  Pd26  1  0.000000  0.150893  0.142543  1
  Pd  Pd27  1  0.000000  0.849107  0.142543  1
  Pd  Pd28  1  0.650893  0.500000  0.142543  1
  Pd  Pd29  1  0.349107  0.500000  0.142543  1
  Pd  Pd30  1  0.249838  0.749838  0.999818  1
  Pd  Pd31  1  0.249838  0.250162  0.999818  1
  Pd  Pd32  1  0.750162  0.749838  0.999818  1
  Pd  Pd33  1  0.750162  0.250162  0.999818  1
