# generated using pymatgen
data_Dy5SiGeSe3
_symmetry_space_group_name_H-M   'P 1'
_cell_length_a   7.13461819
_cell_length_b   7.13461857
_cell_length_c   7.13183854
_cell_angle_alpha   99.13884915
_cell_angle_beta   99.78521409
_cell_angle_gamma   132.17098934
_symmetry_Int_Tables_number   1
_chemical_formula_structural   Dy5SiGeSe3
_chemical_formula_sum   'Dy5 Si1 Ge1 Se3'
_cell_volume   245.93544742
_cell_formula_units_Z   1
loop_
 _symmetry_equiv_pos_site_id
 _symmetry_equiv_pos_as_xyz
  1  'x, y, z'
loop_
 _atom_site_type_symbol
 _atom_site_label
 _atom_site_symmetry_multiplicity
 _atom_site_fract_x
 _atom_site_fract_y
 _atom_site_fract_z
 _atom_site_occupancy
  Dy  Dy0  1  0.395828  0.787779  0.183607  1
  Dy  Dy1  1  0.002274  0.995412  0.997686  1
  Dy  Dy2  1  0.596951  0.206802  0.803753  1
  Dy  Dy3  1  0.206755  0.410726  0.617481  1
  Dy  Dy4  1  0.797847  0.599319  0.397166  1
  Si  Si5  1  0.502129  0.501329  0.003459  1
  Ge  Ge6  1  0.097057  0.698467  0.795523  1
  Se  Se7  1  0.696416  0.899706  0.596123  1
  Se  Se8  1  0.300361  0.098975  0.399335  1
  Se  Se9  1  0.904382  0.301484  0.205866  1
