# generated using pymatgen
data_Li2DyThPt2
_symmetry_space_group_name_H-M   'P 1'
_cell_length_a   4.08086100
_cell_length_b   7.14583217
_cell_length_c   8.59829100
_cell_angle_alpha   89.09055236
_cell_angle_beta   90.00000000
_cell_angle_gamma   90.00000000
_symmetry_Int_Tables_number   1
_chemical_formula_structural   Li2DyThPt2
_chemical_formula_sum   'Li4 Dy2 Th2 Pt4'
_cell_volume   250.70444926
_cell_formula_units_Z   2
loop_
 _symmetry_equiv_pos_site_id
 _symmetry_equiv_pos_as_xyz
  1  'x, y, z'
loop_
 _atom_site_type_symbol
 _atom_site_label
 _atom_site_symmetry_multiplicity
 _atom_site_fract_x
 _atom_site_fract_y
 _atom_site_fract_z
 _atom_site_occupancy
  Li  Li0  1  0.250000  0.617008  0.557531  1
  Li  Li1  1  0.750000  0.382992  0.442469  1
  Li  Li2  1  0.750000  0.867915  0.054389  1
  Li  Li3  1  0.250000  0.132085  0.945611  1
  Dy  Dy4  1  0.250000  0.551870  0.178489  1
  Dy  Dy5  1  0.750000  0.448130  0.821511  1
  Th  Th6  1  0.750000  0.952023  0.690084  1
  Th  Th7  1  0.250000  0.047977  0.309916  1
  Pt  Pt8  1  0.250000  0.738650  0.871662  1
  Pt  Pt9  1  0.750000  0.261350  0.128338  1
  Pt  Pt10  1  0.750000  0.765195  0.378632  1
  Pt  Pt11  1  0.250000  0.234805  0.621368  1
