# generated using pymatgen
data_HoTa5(ReSi)6
_symmetry_space_group_name_H-M   'P 1'
_cell_length_a   7.63124632
_cell_length_b   7.59416116
_cell_length_c   7.63124713
_cell_angle_alpha   127.01319344
_cell_angle_beta   124.80764241
_cell_angle_gamma   80.16996111
_symmetry_Int_Tables_number   1
_chemical_formula_structural   HoTa5(ReSi)6
_chemical_formula_sum   'Ho1 Ta5 Re6 Si6'
_cell_volume   279.68641234
_cell_formula_units_Z   1
loop_
 _symmetry_equiv_pos_site_id
 _symmetry_equiv_pos_as_xyz
  1  'x, y, z'
loop_
 _atom_site_type_symbol
 _atom_site_label
 _atom_site_symmetry_multiplicity
 _atom_site_fract_x
 _atom_site_fract_y
 _atom_site_fract_z
 _atom_site_occupancy
  Ho  Ho0  1  0.534910  0.061867  0.026958  1
  Ta  Ta1  1  0.462316  0.495898  0.533582  1
  Ta  Ta2  1  0.944561  0.483528  0.038967  1
  Ta  Ta3  1  0.054650  0.102630  0.547979  1
  Ta  Ta4  1  0.744470  0.906000  0.661530  1
  Ta  Ta5  1  0.252795  0.910501  0.157707  1
  Re  Re6  1  0.484217  0.247447  0.729160  1
  Re  Re7  1  0.018287  0.247447  0.263231  1
  Re  Re8  1  0.082491  0.748862  0.581770  1
  Re  Re9  1  0.900870  0.498411  0.650468  1
  Re  Re10  1  0.667092  0.748862  0.166370  1
  Re  Re11  1  0.347944  0.498411  0.097541  1
  Si  Si12  1  0.732112  0.475681  0.243569  1
  Si  Si13  1  0.279846  0.549724  0.769878  1
  Si  Si14  1  0.319910  0.822118  0.477810  1
  Si  Si15  1  0.673821  0.161346  0.505946  1
  Si  Si16  1  0.844308  0.822118  0.002208  1
  Si  Si17  1  0.155400  0.161346  0.987525  1
