# generated using pymatgen
data_Li4Tb3YbPt4
_symmetry_space_group_name_H-M   'P 1'
_cell_length_a   4.04771700
_cell_length_b   7.10523619
_cell_length_c   8.32401225
_cell_angle_alpha   89.97910947
_cell_angle_beta   90.00000000
_cell_angle_gamma   90.00000000
_symmetry_Int_Tables_number   1
_chemical_formula_structural   Li4Tb3YbPt4
_chemical_formula_sum   'Li4 Tb3 Yb1 Pt4'
_cell_volume   239.39845405
_cell_formula_units_Z   1
loop_
 _symmetry_equiv_pos_site_id
 _symmetry_equiv_pos_as_xyz
  1  'x, y, z'
loop_
 _atom_site_type_symbol
 _atom_site_label
 _atom_site_symmetry_multiplicity
 _atom_site_fract_x
 _atom_site_fract_y
 _atom_site_fract_z
 _atom_site_occupancy
  Li  Li0  1  0.250000  0.136040  0.939441  1
  Li  Li1  1  0.250000  0.628187  0.562436  1
  Li  Li2  1  0.750000  0.871010  0.057320  1
  Li  Li3  1  0.750000  0.366539  0.441536  1
  Tb  Tb4  1  0.250000  0.039682  0.317448  1
  Tb  Tb5  1  0.250000  0.541502  0.180570  1
  Tb  Tb6  1  0.750000  0.958106  0.682617  1
  Yb  Yb7  1  0.750000  0.461382  0.816673  1
  Pt  Pt8  1  0.250000  0.242054  0.617731  1
  Pt  Pt9  1  0.250000  0.757834  0.879062  1
  Pt  Pt10  1  0.750000  0.748023  0.377577  1
  Pt  Pt11  1  0.750000  0.249640  0.127590  1
