# generated using pymatgen
data_Li8Tb7DySn5Bi3
_symmetry_space_group_name_H-M   'P 1'
_cell_length_a   9.50742400
_cell_length_b   9.50742475
_cell_length_c   7.29001100
_cell_angle_alpha   90.00000000
_cell_angle_beta   90.00000000
_cell_angle_gamma   120.00000434
_symmetry_Int_Tables_number   1
_chemical_formula_structural   Li8Tb7DySn5Bi3
_chemical_formula_sum   'Li8 Tb7 Dy1 Sn5 Bi3'
_cell_volume   570.66936037
_cell_formula_units_Z   1
loop_
 _symmetry_equiv_pos_site_id
 _symmetry_equiv_pos_as_xyz
  1  'x, y, z'
loop_
 _atom_site_type_symbol
 _atom_site_label
 _atom_site_symmetry_multiplicity
 _atom_site_fract_x
 _atom_site_fract_y
 _atom_site_fract_z
 _atom_site_occupancy
  Li  Li0  1  0.167257  0.334516  0.281410  1
  Li  Li1  1  0.167257  0.832743  0.281410  1
  Li  Li2  1  0.665484  0.832743  0.281410  1
  Li  Li3  1  0.831630  0.663260  0.789372  1
  Li  Li4  1  0.831630  0.168370  0.789372  1
  Li  Li5  1  0.336740  0.168370  0.789372  1
  Li  Li6  1  0.333333  0.666667  0.668984  1
  Li  Li7  1  0.666667  0.333333  0.177624  1
  Tb  Tb8  1  0.514502  0.029004  0.488870  1
  Tb  Tb9  1  0.514502  0.485498  0.488870  1
  Tb  Tb10  1  0.970996  0.485498  0.488870  1
  Tb  Tb11  1  0.490978  0.981957  0.999353  1
  Tb  Tb12  1  0.490978  0.509022  0.999353  1
  Tb  Tb13  1  0.018043  0.509022  0.999353  1
  Tb  Tb14  1  0.000000  0.000000  0.493281  1
  Dy  Dy15  1  0.000000  0.000000  0.008535  1
  Sn  Sn16  1  0.833567  0.667134  0.232522  1
  Sn  Sn17  1  0.833567  0.166433  0.232522  1
  Sn  Sn18  1  0.332866  0.166433  0.232522  1
  Sn  Sn19  1  0.333333  0.666667  0.257868  1
  Sn  Sn20  1  0.666667  0.333333  0.759762  1
  Bi  Bi21  1  0.166739  0.333480  0.733787  1
  Bi  Bi22  1  0.166739  0.833261  0.733787  1
  Bi  Bi23  1  0.666520  0.833261  0.733787  1
