# generated using pymatgen
data_CeScCdIn5
_symmetry_space_group_name_H-M   'P 1'
_cell_length_a   4.63773400
_cell_length_b   4.63773400
_cell_length_c   9.13918700
_cell_angle_alpha   90.00000000
_cell_angle_beta   90.00000000
_cell_angle_gamma   90.00000000
_symmetry_Int_Tables_number   1
_chemical_formula_structural   CeScCdIn5
_chemical_formula_sum   'Ce1 Sc1 Cd1 In5'
_cell_volume   196.57090415
_cell_formula_units_Z   1
loop_
 _symmetry_equiv_pos_site_id
 _symmetry_equiv_pos_as_xyz
  1  'x, y, z'
loop_
 _atom_site_type_symbol
 _atom_site_label
 _atom_site_symmetry_multiplicity
 _atom_site_fract_x
 _atom_site_fract_y
 _atom_site_fract_z
 _atom_site_occupancy
  Ce  Ce0  1  0.000000  0.000000  0.000000  1
  Sc  Sc1  1  0.000000  0.000000  0.500000  1
  Cd  Cd2  1  0.500000  0.500000  0.500000  1
  In  In3  1  0.500000  0.500000  0.000000  1
  In  In4  1  0.500000  0.000000  0.262158  1
  In  In5  1  0.500000  0.000000  0.737842  1
  In  In6  1  0.000000  0.500000  0.262158  1
  In  In7  1  0.000000  0.500000  0.737842  1
