# generated using pymatgen
data_Tm6Sc2(Al2Os)7
_symmetry_space_group_name_H-M   'P 1'
_cell_length_a   8.98000435
_cell_length_b   8.97689998
_cell_length_c   8.97689979
_cell_angle_alpha   60.05709473
_cell_angle_beta   59.98856328
_cell_angle_gamma   59.98855605
_symmetry_Int_Tables_number   1
_chemical_formula_structural   Tm6Sc2(Al2Os)7
_chemical_formula_sum   'Tm6 Sc2 Al14 Os7'
_cell_volume   511.83051281
_cell_formula_units_Z   1
loop_
 _symmetry_equiv_pos_site_id
 _symmetry_equiv_pos_as_xyz
  1  'x, y, z'
loop_
 _atom_site_type_symbol
 _atom_site_label
 _atom_site_symmetry_multiplicity
 _atom_site_fract_x
 _atom_site_fract_y
 _atom_site_fract_z
 _atom_site_occupancy
  Tm  Tm0  1  0.706235  0.709775  0.288345  1
  Tm  Tm1  1  0.295646  0.709775  0.288345  1
  Tm  Tm2  1  0.701436  0.298564  0.298564  1
  Tm  Tm3  1  0.295646  0.288345  0.709775  1
  Tm  Tm4  1  0.706235  0.288345  0.709775  1
  Tm  Tm5  1  0.287533  0.712467  0.712467  1
  Sc  Sc6  1  0.879449  0.885787  0.355316  1
  Sc  Sc7  1  0.879449  0.355316  0.885787  1
  Al  Al8  1  0.367506  0.878333  0.878333  1
  Al  Al9  1  0.875828  0.878333  0.878333  1
  Al  Al10  1  0.120739  0.126749  0.631772  1
  Al  Al11  1  0.120739  0.631772  0.126749  1
  Al  Al12  1  0.637899  0.120563  0.120563  1
  Al  Al13  1  0.120975  0.120563  0.120563  1
  Al  Al14  1  0.667267  0.669521  0.995946  1
  Al  Al15  1  0.667267  0.995946  0.669521  1
  Al  Al16  1  0.996227  0.668657  0.668657  1
  Al  Al17  1  0.666460  0.668657  0.668657  1
  Al  Al18  1  0.332720  0.331331  0.003230  1
  Al  Al19  1  0.332720  0.003230  0.331331  1
  Al  Al20  1  0.002469  0.331775  0.331775  1
  Al  Al21  1  0.333980  0.331775  0.331775  1
  Os  Os22  1  0.011132  0.988868  0.988868  1
  Os  Os23  1  0.002664  0.001199  0.502922  1
  Os  Os24  1  0.493215  0.001199  0.502922  1
  Os  Os25  1  0.002967  0.497033  0.497033  1
  Os  Os26  1  0.493215  0.502922  0.001199  1
  Os  Os27  1  0.002664  0.502922  0.001199  1
  Os  Os28  1  0.499720  0.000280  0.000280  1
