# generated using pymatgen
data_Y12InCoCuNi3
_symmetry_space_group_name_H-M   'P 1'
_cell_length_a   8.38585994
_cell_length_b   8.38585964
_cell_length_c   8.38585962
_cell_angle_alpha   111.45441884
_cell_angle_beta   109.78590078
_cell_angle_gamma   107.20147697
_symmetry_Int_Tables_number   1
_chemical_formula_structural   Y12InCoCuNi3
_chemical_formula_sum   'Y12 In1 Co1 Cu1 Ni3'
_cell_volume   453.33147832
_cell_formula_units_Z   1
loop_
 _symmetry_equiv_pos_site_id
 _symmetry_equiv_pos_as_xyz
  1  'x, y, z'
loop_
 _atom_site_type_symbol
 _atom_site_label
 _atom_site_symmetry_multiplicity
 _atom_site_fract_x
 _atom_site_fract_y
 _atom_site_fract_z
 _atom_site_occupancy
  Y  Y0  1  0.415304  0.220759  0.194545  1
  Y  Y1  1  0.583133  0.777842  0.805291  1
  Y  Y2  1  0.026214  0.220759  0.805455  1
  Y  Y3  1  0.972549  0.777842  0.194709  1
  Y  Y4  1  0.180364  0.286985  0.471050  1
  Y  Y5  1  0.815934  0.709314  0.528950  1
  Y  Y6  1  0.180364  0.709314  0.893380  1
  Y  Y7  1  0.815934  0.286985  0.106620  1
  Y  Y8  1  0.322684  0.627716  0.305033  1
  Y  Y9  1  0.681568  0.373951  0.692382  1
  Y  Y10  1  0.322684  0.017651  0.694967  1
  Y  Y11  1  0.681568  0.989187  0.307618  1
  In  In12  1  0.499611  0.499611  0.000000  1
  Co  Co13  1  0.885897  0.385897  0.500000  1
  Cu  Cu14  1  0.998934  0.998934  0.000000  1
  Ni  Ni15  1  0.361511  0.999251  0.362260  1
  Ni  Ni16  1  0.636990  0.999251  0.637740  1
  Ni  Ni17  1  0.118757  0.618757  0.500000  1
