# generated using pymatgen
data_Nd4Al18PdRh5
_symmetry_space_group_name_H-M   'P 1'
_cell_length_a   7.64589112
_cell_length_b   7.64589044
_cell_length_c   9.60701506
_cell_angle_alpha   89.99372223
_cell_angle_beta   89.99371716
_cell_angle_gamma   119.46115021
_symmetry_Int_Tables_number   1
_chemical_formula_structural   Nd4Al18PdRh5
_chemical_formula_sum   'Nd4 Al18 Pd1 Rh5'
_cell_volume   488.99891089
_cell_formula_units_Z   1
loop_
 _symmetry_equiv_pos_site_id
 _symmetry_equiv_pos_as_xyz
  1  'x, y, z'
loop_
 _atom_site_type_symbol
 _atom_site_label
 _atom_site_symmetry_multiplicity
 _atom_site_fract_x
 _atom_site_fract_y
 _atom_site_fract_z
 _atom_site_occupancy
  Nd  Nd0  1  0.994246  0.669004  0.750141  1
  Nd  Nd1  1  0.003827  0.329422  0.250134  1
  Nd  Nd2  1  0.670578  0.996173  0.749866  1
  Nd  Nd3  1  0.330996  0.005754  0.249859  1
  Al  Al4  1  0.129317  0.128374  0.750637  1
  Al  Al5  1  0.871626  0.870683  0.249363  1
  Al  Al6  1  0.007275  0.335406  0.575477  1
  Al  Al7  1  0.000997  0.669135  0.425246  1
  Al  Al8  1  0.998655  0.665262  0.072933  1
  Al  Al9  1  0.334738  0.001345  0.927067  1
  Al  Al10  1  0.002638  0.334670  0.926405  1
  Al  Al11  1  0.665330  0.997362  0.073595  1
  Al  Al12  1  0.664594  0.992725  0.424523  1
  Al  Al13  1  0.330865  0.999003  0.574754  1
  Al  Al14  1  0.333472  0.333645  0.046313  1
  Al  Al15  1  0.666355  0.666528  0.953687  1
  Al  Al16  1  0.665468  0.668894  0.549280  1
  Al  Al17  1  0.331106  0.334532  0.450720  1
  Al  Al18  1  0.340721  0.548487  0.750399  1
  Al  Al19  1  0.659814  0.455256  0.246291  1
  Al  Al20  1  0.544744  0.340186  0.753709  1
  Al  Al21  1  0.451513  0.659279  0.249601  1
  Pd  Pd22  1  0.671523  0.328477  0.500000  1
  Rh  Rh23  1  0.328988  0.671012  0.500000  1
  Rh  Rh24  1  0.329023  0.670977  0.000000  1
  Rh  Rh25  1  0.671393  0.328607  0.000000  1
  Rh  Rh26  1  0.999932  0.000068  0.500000  1
  Rh  Rh27  1  0.000263  0.999737  0.000000  1
