# generated using pymatgen
data_Li4HgGe2S7
_symmetry_space_group_name_H-M   'P 1'
_cell_length_a   9.25381877
_cell_length_b   9.25381868
_cell_length_c   10.32799889
_cell_angle_alpha   86.33807965
_cell_angle_beta   86.33807917
_cell_angle_gamma   43.21317487
_symmetry_Int_Tables_number   1
_chemical_formula_structural   Li4HgGe2S7
_chemical_formula_sum   'Li8 Hg2 Ge4 S14'
_cell_volume   604.14424205
_cell_formula_units_Z   2
loop_
 _symmetry_equiv_pos_site_id
 _symmetry_equiv_pos_as_xyz
  1  'x, y, z'
loop_
 _atom_site_type_symbol
 _atom_site_label
 _atom_site_symmetry_multiplicity
 _atom_site_fract_x
 _atom_site_fract_y
 _atom_site_fract_z
 _atom_site_occupancy
  Li  Li0  1  0.819322  0.183202  0.006735  1
  Li  Li1  1  0.183202  0.819322  0.506735  1
  Li  Li2  1  0.596524  0.266348  0.380119  1
  Li  Li3  1  0.266348  0.596524  0.880119  1
  Li  Li4  1  0.473516  0.109775  0.100274  1
  Li  Li5  1  0.109775  0.473516  0.600274  1
  Li  Li6  1  0.589196  0.858186  0.447177  1
  Li  Li7  1  0.858186  0.589196  0.947177  1
  Hg  Hg8  1  0.972159  0.327322  0.287900  1
  Hg  Hg9  1  0.327322  0.972159  0.787900  1
  Ge  Ge10  1  0.403381  0.744319  0.168954  1
  Ge  Ge11  1  0.744319  0.403381  0.668954  1
  Ge  Ge12  1  0.032901  0.694063  0.245324  1
  Ge  Ge13  1  0.694063  0.032901  0.745324  1
  S  S14  1  0.804328  0.137117  0.589013  1
  S  S15  1  0.137117  0.804328  0.089013  1
  S  S16  1  0.695047  0.970187  0.285989  1
  S  S17  1  0.970187  0.695047  0.785989  1
  S  S18  1  0.095302  0.449546  0.134797  1
  S  S19  1  0.449546  0.095302  0.634797  1
  S  S20  1  0.486436  0.859958  0.018650  1
  S  S21  1  0.859958  0.486436  0.518650  1
  S  S22  1  0.298320  0.925123  0.348447  1
  S  S23  1  0.925123  0.298320  0.848447  1
  S  S24  1  0.394725  0.671758  0.702417  1
  S  S25  1  0.671758  0.394725  0.202417  1
  S  S26  1  0.222385  0.559353  0.419604  1
  S  S27  1  0.559353  0.222385  0.919604  1
