# generated using pymatgen
data_TbZn2CuAgPt
_symmetry_space_group_name_H-M   'P 1'
_cell_length_a   5.20133313
_cell_length_b   5.20133376
_cell_length_c   5.25204117
_cell_angle_alpha   60.33170609
_cell_angle_beta   60.33170250
_cell_angle_gamma   60.43973196
_symmetry_Int_Tables_number   1
_chemical_formula_structural   TbZn2CuAgPt
_chemical_formula_sum   'Tb1 Zn2 Cu1 Ag1 Pt1'
_cell_volume   101.30684108
_cell_formula_units_Z   1
loop_
 _symmetry_equiv_pos_site_id
 _symmetry_equiv_pos_as_xyz
  1  'x, y, z'
loop_
 _atom_site_type_symbol
 _atom_site_label
 _atom_site_symmetry_multiplicity
 _atom_site_fract_x
 _atom_site_fract_y
 _atom_site_fract_z
 _atom_site_occupancy
  Tb  Tb0  1  0.996653  0.996653  0.005196  1
  Zn  Zn1  1  0.624490  0.132250  0.620714  1
  Zn  Zn2  1  0.132250  0.624490  0.620714  1
  Cu  Cu3  1  0.625050  0.625050  0.620678  1
  Ag  Ag4  1  0.244518  0.244518  0.263573  1
  Pt  Pt5  1  0.627037  0.627037  0.119126  1
