# generated using pymatgen
data_Er3MgNb(ReN4)3
_symmetry_space_group_name_H-M   'P 1'
_cell_length_a   11.05906663
_cell_length_b   11.04804382
_cell_length_c   11.05906669
_cell_angle_alpha   109.45102748
_cell_angle_beta   109.49140351
_cell_angle_gamma   109.45103284
_symmetry_Int_Tables_number   1
_chemical_formula_structural   Er3MgNb(ReN4)3
_chemical_formula_sum   'Er12 Mg4 Nb4 Re12 N48'
_cell_volume   1040.41979144
_cell_formula_units_Z   4
loop_
 _symmetry_equiv_pos_site_id
 _symmetry_equiv_pos_as_xyz
  1  'x, y, z'
loop_
 _atom_site_type_symbol
 _atom_site_label
 _atom_site_symmetry_multiplicity
 _atom_site_fract_x
 _atom_site_fract_y
 _atom_site_fract_z
 _atom_site_occupancy
  Er  Er0  1  0.250951  0.374047  0.121460  1
  Er  Er1  1  0.378540  0.752586  0.129490  1
  Er  Er2  1  0.370510  0.123096  0.249049  1
  Er  Er3  1  0.873110  0.629641  0.249701  1
  Er  Er4  1  0.749701  0.120061  0.376591  1
  Er  Er5  1  0.123409  0.243469  0.373110  1
  Er  Er6  1  0.876591  0.756531  0.626890  1
  Er  Er7  1  0.250299  0.879939  0.623409  1
  Er  Er8  1  0.126890  0.370359  0.750299  1
  Er  Er9  1  0.629490  0.876904  0.750951  1
  Er  Er10  1  0.621460  0.247414  0.870510  1
  Er  Er11  1  0.749049  0.625953  0.878540  1
  Mg  Mg12  1  0.000000  0.000000  0.000000  1
  Mg  Mg13  1  0.500000  0.500000  0.000000  1
  Mg  Mg14  1  0.000000  0.000000  0.500000  1
  Mg  Mg15  1  0.500000  0.000000  0.500000  1
  Nb  Nb16  1  0.500000  0.000000  0.000000  1
  Nb  Nb17  1  0.000000  0.500000  0.000000  1
  Nb  Nb18  1  0.000000  0.500000  0.500000  1
  Nb  Nb19  1  0.500000  0.500000  0.500000  1
  Re  Re20  1  0.876115  0.250396  0.126728  1
  Re  Re21  1  0.750477  0.874114  0.123755  1
  Re  Re22  1  0.626728  0.376331  0.250613  1
  Re  Re23  1  0.126721  0.876363  0.250477  1
  Re  Re24  1  0.249387  0.625719  0.376115  1
  Re  Re25  1  0.623755  0.749641  0.373279  1
  Re  Re26  1  0.376245  0.250359  0.626721  1
  Re  Re27  1  0.750613  0.374281  0.623885  1
  Re  Re28  1  0.873279  0.123637  0.749523  1
  Re  Re29  1  0.373272  0.623669  0.749387  1
  Re  Re30  1  0.249523  0.125886  0.876245  1
  Re  Re31  1  0.123885  0.749604  0.873272  1
  N  N32  1  0.215097  0.124933  0.025425  1
  N  N33  1  0.313187  0.904224  0.022103  1
  N  N34  1  0.881628  0.402132  0.088594  1
  N  N35  1  0.717762  0.690455  0.092439  1
  N  N36  1  0.623112  0.407486  0.100071  1
  N  N37  1  0.976263  0.684904  0.095327  1
  N  N38  1  0.595327  0.910424  0.119063  1
  N  N39  1  0.023041  0.215626  0.123112  1
  N  N40  1  0.208917  0.591037  0.186813  1
  N  N41  1  0.474575  0.599509  0.189672  1
  N  N42  1  0.125323  0.027306  0.217762  1
  N  N43  1  0.588594  0.186462  0.206966  1
  N  N44  1  0.477897  0.382120  0.291083  1
  N  N45  1  0.310328  0.909837  0.284903  1
  N  N46  1  0.911663  0.292148  0.315510  1
  N  N47  1  0.900890  0.025158  0.307557  1
  N  N48  1  0.293034  0.479496  0.381628  1
  N  N49  1  0.592439  0.901983  0.374677  1
  N  N50  1  0.815511  0.523362  0.403847  1
  N  N51  1  0.093333  0.875732  0.400890  1
  N  N52  1  0.096153  0.619515  0.411662  1
  N  N53  1  0.807558  0.782399  0.406667  1
  N  N54  1  0.600071  0.192585  0.476959  1
  N  N55  1  0.380937  0.291360  0.476263  1
  N  N56  1  0.619063  0.708640  0.523737  1
  N  N57  1  0.399929  0.807416  0.523041  1
  N  N58  1  0.192443  0.217601  0.593333  1
  N  N59  1  0.903847  0.380485  0.588338  1
  N  N60  1  0.906668  0.124268  0.599110  1
  N  N61  1  0.184490  0.476638  0.596153  1
  N  N62  1  0.407561  0.098017  0.625323  1
  N  N63  1  0.706966  0.520504  0.618372  1
  N  N64  1  0.088338  0.707852  0.684490  1
  N  N65  1  0.099110  0.974842  0.692443  1
  N  N66  1  0.689672  0.090164  0.715097  1
  N  N67  1  0.522103  0.617880  0.708917  1
  N  N68  1  0.411406  0.813539  0.793034  1
  N  N69  1  0.874677  0.972694  0.782238  1
  N  N70  1  0.525425  0.400491  0.810329  1
  N  N71  1  0.791083  0.408963  0.813188  1
  N  N72  1  0.404673  0.089577  0.880937  1
  N  N73  1  0.976959  0.784374  0.876888  1
  N  N74  1  0.023737  0.315096  0.904673  1
  N  N75  1  0.376888  0.592514  0.899929  1
  N  N76  1  0.282238  0.309545  0.907562  1
  N  N77  1  0.118372  0.597868  0.911407  1
  N  N78  1  0.686813  0.095776  0.977897  1
  N  N79  1  0.784903  0.875067  0.974575  1
