# generated using pymatgen
data_TmLu7Mn2(B12Ru)2
_symmetry_space_group_name_H-M   'P 1'
_cell_length_a   3.54528700
_cell_length_b   9.00552226
_cell_length_c   11.37161304
_cell_angle_alpha   89.99075549
_cell_angle_beta   90.00000000
_cell_angle_gamma   90.00000000
_symmetry_Int_Tables_number   1
_chemical_formula_structural   TmLu7Mn2(B12Ru)2
_chemical_formula_sum   'Tm1 Lu7 Mn2 B24 Ru2'
_cell_volume   363.06331541
_cell_formula_units_Z   1
loop_
 _symmetry_equiv_pos_site_id
 _symmetry_equiv_pos_as_xyz
  1  'x, y, z'
loop_
 _atom_site_type_symbol
 _atom_site_label
 _atom_site_symmetry_multiplicity
 _atom_site_fract_x
 _atom_site_fract_y
 _atom_site_fract_z
 _atom_site_occupancy
  Tm  Tm0  1  0.000000  0.326329  0.416307  1
  Lu  Lu1  1  0.000000  0.673597  0.583527  1
  Lu  Lu2  1  0.000000  0.819711  0.087793  1
  Lu  Lu3  1  0.000000  0.180279  0.912177  1
  Lu  Lu4  1  0.000000  0.939814  0.371050  1
  Lu  Lu5  1  0.000000  0.059916  0.629055  1
  Lu  Lu6  1  0.000000  0.445437  0.131135  1
  Lu  Lu7  1  0.000000  0.554633  0.868794  1
  Mn  Mn8  1  0.000000  0.638311  0.320185  1
  Mn  Mn9  1  0.000000  0.361991  0.679939  1
  B  B10  1  0.500000  0.554134  0.432773  1
  B  B11  1  0.500000  0.446402  0.567529  1
  B  B12  1  0.500000  0.053254  0.066307  1
  B  B13  1  0.500000  0.946715  0.933666  1
  B  B14  1  0.500000  0.747017  0.418435  1
  B  B15  1  0.500000  0.253030  0.582036  1
  B  B16  1  0.500000  0.249867  0.080359  1
  B  B17  1  0.500000  0.750147  0.919592  1
  B  B18  1  0.500000  0.790198  0.265769  1
  B  B19  1  0.500000  0.209778  0.734323  1
  B  B20  1  0.500000  0.292580  0.235407  1
  B  B21  1  0.500000  0.707274  0.764255  1
  B  B22  1  0.500000  0.631100  0.186127  1
  B  B23  1  0.500000  0.369011  0.813825  1
  B  B24  1  0.500000  0.130615  0.315520  1
  B  B25  1  0.500000  0.869052  0.684275  1
  B  B26  1  0.500000  0.980734  0.212622  1
  B  B27  1  0.500000  0.019181  0.787374  1
  B  B28  1  0.500000  0.484608  0.288614  1
  B  B29  1  0.500000  0.515920  0.711262  1
  B  B30  1  0.500000  0.603023  0.028568  1
  B  B31  1  0.500000  0.397012  0.971397  1
  B  B32  1  0.500000  0.102944  0.471692  1
  B  B33  1  0.500000  0.896522  0.528446  1
  Ru  Ru34  1  0.000000  0.137956  0.178961  1
  Ru  Ru35  1  0.000000  0.861909  0.820903  1
