# generated using pymatgen
data_LaCrSb12IrOs2
_symmetry_space_group_name_H-M   'P 1'
_cell_length_a   8.15965778
_cell_length_b   8.17260910
_cell_length_c   8.17871847
_cell_angle_alpha   109.50037713
_cell_angle_beta   109.41029083
_cell_angle_gamma   109.30715130
_symmetry_Int_Tables_number   1
_chemical_formula_structural   LaCrSb12IrOs2
_chemical_formula_sum   'La1 Cr1 Sb12 Ir1 Os2'
_cell_volume   420.86262686
_cell_formula_units_Z   1
loop_
 _symmetry_equiv_pos_site_id
 _symmetry_equiv_pos_as_xyz
  1  'x, y, z'
loop_
 _atom_site_type_symbol
 _atom_site_label
 _atom_site_symmetry_multiplicity
 _atom_site_fract_x
 _atom_site_fract_y
 _atom_site_fract_z
 _atom_site_occupancy
  La  La0  1  0.000000  0.000000  0.000000  1
  Cr  Cr1  1  0.500000  0.000000  0.000000  1
  Sb  Sb2  1  0.337465  0.181242  0.842079  1
  Sb  Sb3  1  0.662535  0.818758  0.157921  1
  Sb  Sb4  1  0.660503  0.503869  0.845216  1
  Sb  Sb5  1  0.339497  0.496131  0.154784  1
  Sb  Sb6  1  0.181780  0.842400  0.338318  1
  Sb  Sb7  1  0.818220  0.157600  0.661682  1
  Sb  Sb8  1  0.504862  0.844833  0.660737  1
  Sb  Sb9  1  0.495138  0.155167  0.339263  1
  Sb  Sb10  1  0.843480  0.338785  0.181251  1
  Sb  Sb11  1  0.156520  0.661215  0.818749  1
  Sb  Sb12  1  0.845776  0.661424  0.504335  1
  Sb  Sb13  1  0.154224  0.338576  0.495665  1
  Ir  Ir14  1  0.500000  0.500000  0.500000  1
  Os  Os15  1  0.000000  0.000000  0.500000  1
  Os  Os16  1  0.000000  0.500000  0.000000  1
