# generated using pymatgen
data_TbEu(Si7Ir3)2
_symmetry_space_group_name_H-M   'P 1'
_cell_length_a   8.05804263
_cell_length_b   8.05804359
_cell_length_c   8.05804249
_cell_angle_alpha   56.79439633
_cell_angle_beta   56.79439498
_cell_angle_gamma   56.79439943
_symmetry_Int_Tables_number   1
_chemical_formula_structural   TbEu(Si7Ir3)2
_chemical_formula_sum   'Tb1 Eu1 Si14 Ir6'
_cell_volume   342.60220493
_cell_formula_units_Z   1
loop_
 _symmetry_equiv_pos_site_id
 _symmetry_equiv_pos_as_xyz
  1  'x, y, z'
loop_
 _atom_site_type_symbol
 _atom_site_label
 _atom_site_symmetry_multiplicity
 _atom_site_fract_x
 _atom_site_fract_y
 _atom_site_fract_z
 _atom_site_occupancy
  Tb  Tb0  1  0.500000  0.500000  0.500000  1
  Eu  Eu1  1  0.000000  0.000000  0.000000  1
  Si  Si2  1  0.065437  0.851750  0.672558  1
  Si  Si3  1  0.672558  0.065437  0.851750  1
  Si  Si4  1  0.851750  0.672558  0.065437  1
  Si  Si5  1  0.172753  0.350291  0.565152  1
  Si  Si6  1  0.565152  0.172753  0.350291  1
  Si  Si7  1  0.350291  0.565152  0.172753  1
  Si  Si8  1  0.934563  0.148250  0.327442  1
  Si  Si9  1  0.327442  0.934563  0.148250  1
  Si  Si10  1  0.148250  0.327442  0.934563  1
  Si  Si11  1  0.827247  0.649709  0.434848  1
  Si  Si12  1  0.434848  0.827247  0.649709  1
  Si  Si13  1  0.649709  0.434848  0.827247  1
  Si  Si14  1  0.750128  0.750128  0.750128  1
  Si  Si15  1  0.249872  0.249872  0.249872  1
  Ir  Ir16  1  0.071064  0.747695  0.433083  1
  Ir  Ir17  1  0.433083  0.071064  0.747695  1
  Ir  Ir18  1  0.747695  0.433083  0.071064  1
  Ir  Ir19  1  0.928936  0.252305  0.566917  1
  Ir  Ir20  1  0.566917  0.928936  0.252305  1
  Ir  Ir21  1  0.252305  0.566917  0.928936  1
