# generated using pymatgen
data_Dy3Fe5(P3Rh2)2
_symmetry_space_group_name_H-M   'P 1'
_cell_length_a   3.75934500
_cell_length_b   10.94025200
_cell_length_c   12.40803400
_cell_angle_alpha   90.00000000
_cell_angle_beta   90.00000000
_cell_angle_gamma   90.00000000
_symmetry_Int_Tables_number   1
_chemical_formula_structural   Dy3Fe5(P3Rh2)2
_chemical_formula_sum   'Dy6 Fe10 P12 Rh8'
_cell_volume   510.31987633
_cell_formula_units_Z   2
loop_
 _symmetry_equiv_pos_site_id
 _symmetry_equiv_pos_as_xyz
  1  'x, y, z'
loop_
 _atom_site_type_symbol
 _atom_site_label
 _atom_site_symmetry_multiplicity
 _atom_site_fract_x
 _atom_site_fract_y
 _atom_site_fract_z
 _atom_site_occupancy
  Dy  Dy0  1  0.000000  0.500000  0.523156  1
  Dy  Dy1  1  0.500000  0.000000  0.476844  1
  Dy  Dy2  1  0.500000  0.821679  0.200815  1
  Dy  Dy3  1  0.500000  0.178321  0.200815  1
  Dy  Dy4  1  0.000000  0.678321  0.799185  1
  Dy  Dy5  1  0.000000  0.321679  0.799185  1
  Fe  Fe6  1  0.000000  0.500000  0.991623  1
  Fe  Fe7  1  0.500000  0.000000  0.008377  1
  Fe  Fe8  1  0.500000  0.333592  0.994343  1
  Fe  Fe9  1  0.500000  0.666408  0.994343  1
  Fe  Fe10  1  0.000000  0.166408  0.005657  1
  Fe  Fe11  1  0.000000  0.833592  0.005657  1
  Fe  Fe12  1  0.500000  0.295488  0.430431  1
  Fe  Fe13  1  0.500000  0.704512  0.430431  1
  Fe  Fe14  1  0.000000  0.204512  0.569569  1
  Fe  Fe15  1  0.000000  0.795488  0.569569  1
  P  P16  1  0.500000  0.500000  0.893033  1
  P  P17  1  0.000000  0.000000  0.106967  1
  P  P18  1  0.500000  0.500000  0.350126  1
  P  P19  1  0.000000  0.000000  0.649874  1
  P  P20  1  0.500000  0.307214  0.609807  1
  P  P21  1  0.500000  0.692786  0.609807  1
  P  P22  1  0.000000  0.192786  0.390193  1
  P  P23  1  0.000000  0.807214  0.390193  1
  P  P24  1  0.500000  0.840226  0.905145  1
  P  P25  1  0.500000  0.159774  0.905145  1
  P  P26  1  0.000000  0.659774  0.094855  1
  P  P27  1  0.000000  0.340226  0.094855  1
  Rh  Rh28  1  0.500000  0.500000  0.154628  1
  Rh  Rh29  1  0.000000  0.000000  0.845372  1
  Rh  Rh30  1  0.500000  0.500000  0.701045  1
  Rh  Rh31  1  0.000000  0.000000  0.298955  1
  Rh  Rh32  1  0.500000  0.873863  0.713689  1
  Rh  Rh33  1  0.500000  0.126137  0.713689  1
  Rh  Rh34  1  0.000000  0.626137  0.286311  1
  Rh  Rh35  1  0.000000  0.373863  0.286311  1
