# generated using pymatgen
data_Ho3Tm13MgIn3Rh4
_symmetry_space_group_name_H-M   'P 1'
_cell_length_a   9.56485579
_cell_length_b   9.55591719
_cell_length_c   9.56481734
_cell_angle_alpha   59.99303739
_cell_angle_beta   59.99061475
_cell_angle_gamma   59.96322005
_symmetry_Int_Tables_number   1
_chemical_formula_structural   Ho3Tm13MgIn3Rh4
_chemical_formula_sum   'Ho3 Tm13 Mg1 In3 Rh4'
_cell_volume   617.92815593
_cell_formula_units_Z   1
loop_
 _symmetry_equiv_pos_site_id
 _symmetry_equiv_pos_as_xyz
  1  'x, y, z'
loop_
 _atom_site_type_symbol
 _atom_site_label
 _atom_site_symmetry_multiplicity
 _atom_site_fract_x
 _atom_site_fract_y
 _atom_site_fract_z
 _atom_site_occupancy
  Ho  Ho0  1  0.061361  0.061168  0.438590  1
  Ho  Ho1  1  0.435880  0.064848  0.435399  1
  Ho  Ho2  1  0.061815  0.438438  0.061276  1
  Tm  Tm3  1  0.047538  0.649971  0.650208  1
  Tm  Tm4  1  0.436239  0.436125  0.063675  1
  Tm  Tm5  1  0.650001  0.047394  0.650486  1
  Tm  Tm6  1  0.187361  0.812035  0.187095  1
  Tm  Tm7  1  0.187156  0.187207  0.812347  1
  Tm  Tm8  1  0.809994  0.810107  0.190076  1
  Tm  Tm9  1  0.439096  0.061096  0.060753  1
  Tm  Tm10  1  0.812184  0.187288  0.186977  1
  Tm  Tm11  1  0.063718  0.436570  0.436241  1
  Tm  Tm12  1  0.809845  0.190060  0.810380  1
  Tm  Tm13  1  0.190059  0.809894  0.810327  1
  Tm  Tm14  1  0.649926  0.650194  0.047530  1
  Tm  Tm15  1  0.651621  0.651570  0.651819  1
  Mg  Mg16  1  0.422497  0.422707  0.422507  1
  In  In17  1  0.748039  0.417836  0.417742  1
  In  In18  1  0.417945  0.748090  0.417388  1
  In  In19  1  0.417764  0.417317  0.748653  1
  Rh  Rh20  1  0.858655  0.858050  0.426103  1
  Rh  Rh21  1  0.856928  0.857388  0.857408  1
  Rh  Rh22  1  0.426275  0.858180  0.858857  1
  Rh  Rh23  1  0.858106  0.426467  0.858163  1
