# generated using pymatgen
data_CePrTlPt2
_symmetry_space_group_name_H-M   'P 1'
_cell_length_a   8.08162400
_cell_length_b   8.07026300
_cell_length_c   3.73057100
_cell_angle_alpha   90.00000000
_cell_angle_beta   90.00000000
_cell_angle_gamma   90.00000000
_symmetry_Int_Tables_number   1
_chemical_formula_structural   CePrTlPt2
_chemical_formula_sum   'Ce2 Pr2 Tl2 Pt4'
_cell_volume   243.31094127
_cell_formula_units_Z   2
loop_
 _symmetry_equiv_pos_site_id
 _symmetry_equiv_pos_as_xyz
  1  'x, y, z'
loop_
 _atom_site_type_symbol
 _atom_site_label
 _atom_site_symmetry_multiplicity
 _atom_site_fract_x
 _atom_site_fract_y
 _atom_site_fract_z
 _atom_site_occupancy
  Ce  Ce0  1  0.828165  0.672114  0.500000  1
  Ce  Ce1  1  0.328165  0.827886  0.500000  1
  Pr  Pr2  1  0.672669  0.172200  0.500000  1
  Pr  Pr3  1  0.172669  0.327800  0.500000  1
  Tl  Tl4  1  0.999287  0.999915  0.000000  1
  Tl  Tl5  1  0.499287  0.500085  0.000000  1
  Pt  Pt6  1  0.372496  0.110220  0.000000  1
  Pt  Pt7  1  0.127382  0.640444  0.000000  1
  Pt  Pt8  1  0.627382  0.859556  0.000000  1
  Pt  Pt9  1  0.872496  0.389780  0.000000  1
