# generated using pymatgen
data_Tb3Y5(TcB6)4
_symmetry_space_group_name_H-M   'P 1'
_cell_length_a   3.69503300
_cell_length_b   9.18448100
_cell_length_c   11.57933700
_cell_angle_alpha   89.99923561
_cell_angle_beta   90.00000000
_cell_angle_gamma   90.00000000
_symmetry_Int_Tables_number   1
_chemical_formula_structural   Tb3Y5(TcB6)4
_chemical_formula_sum   'Tb3 Y5 Tc4 B24'
_cell_volume   392.96750105
_cell_formula_units_Z   1
loop_
 _symmetry_equiv_pos_site_id
 _symmetry_equiv_pos_as_xyz
  1  'x, y, z'
loop_
 _atom_site_type_symbol
 _atom_site_label
 _atom_site_symmetry_multiplicity
 _atom_site_fract_x
 _atom_site_fract_y
 _atom_site_fract_z
 _atom_site_occupancy
  Tb  Tb0  1  0.000000  0.823697  0.085868  1
  Tb  Tb1  1  0.000000  0.176295  0.914080  1
  Tb  Tb2  1  0.000000  0.323729  0.414197  1
  Y  Y3  1  0.000000  0.676348  0.585840  1
  Y  Y4  1  0.000000  0.442491  0.130511  1
  Y  Y5  1  0.000000  0.557495  0.869419  1
  Y  Y6  1  0.000000  0.942465  0.369535  1
  Y  Y7  1  0.000000  0.057532  0.630508  1
  Tc  Tc8  1  0.000000  0.138269  0.179328  1
  Tc  Tc9  1  0.000000  0.861677  0.820596  1
  Tc  Tc10  1  0.000000  0.638265  0.320736  1
  Tc  Tc11  1  0.000000  0.361766  0.679348  1
  B  B12  1  0.500000  0.053328  0.067362  1
  B  B13  1  0.500000  0.946643  0.932606  1
  B  B14  1  0.500000  0.553259  0.432717  1
  B  B15  1  0.500000  0.446672  0.567354  1
  B  B16  1  0.500000  0.248432  0.081633  1
  B  B17  1  0.500000  0.751568  0.918341  1
  B  B18  1  0.500000  0.748440  0.418483  1
  B  B19  1  0.500000  0.251638  0.581692  1
  B  B20  1  0.500000  0.291351  0.234657  1
  B  B21  1  0.500000  0.708589  0.765273  1
  B  B22  1  0.500000  0.791351  0.265370  1
  B  B23  1  0.500000  0.208708  0.734652  1
  B  B24  1  0.500000  0.130774  0.314076  1
  B  B25  1  0.500000  0.869204  0.685878  1
  B  B26  1  0.500000  0.630791  0.185952  1
  B  B27  1  0.500000  0.369255  0.814017  1
  B  B28  1  0.500000  0.482382  0.288355  1
  B  B29  1  0.500000  0.517701  0.711613  1
  B  B30  1  0.500000  0.982361  0.211671  1
  B  B31  1  0.500000  0.017610  0.788316  1
  B  B32  1  0.500000  0.100445  0.471867  1
  B  B33  1  0.500000  0.899434  0.528173  1
  B  B34  1  0.500000  0.600386  0.028105  1
  B  B35  1  0.500000  0.399647  0.971874  1
