# generated using pymatgen
data_Er4MgSn3C
_symmetry_space_group_name_H-M   'P 1'
_cell_length_a   8.85088700
_cell_length_b   8.85088726
_cell_length_c   6.28786500
_cell_angle_alpha   90.00000000
_cell_angle_beta   90.00000000
_cell_angle_gamma   120.00000276
_symmetry_Int_Tables_number   1
_chemical_formula_structural   Er4MgSn3C
_chemical_formula_sum   'Er8 Mg2 Sn6 C2'
_cell_volume   426.58682027
_cell_formula_units_Z   2
loop_
 _symmetry_equiv_pos_site_id
 _symmetry_equiv_pos_as_xyz
  1  'x, y, z'
loop_
 _atom_site_type_symbol
 _atom_site_label
 _atom_site_symmetry_multiplicity
 _atom_site_fract_x
 _atom_site_fract_y
 _atom_site_fract_z
 _atom_site_occupancy
  Er  Er0  1  0.333333  0.666667  0.000000  1
  Er  Er1  1  0.666667  0.333333  0.000000  1
  Er  Er2  1  0.786330  0.786330  0.248311  1
  Er  Er3  1  0.213670  0.000000  0.248311  1
  Er  Er4  1  0.000000  0.213670  0.248311  1
  Er  Er5  1  0.213670  0.213670  0.751689  1
  Er  Er6  1  0.786330  0.000000  0.751689  1
  Er  Er7  1  0.000000  0.786330  0.751689  1
  Mg  Mg8  1  0.666667  0.333333  0.500000  1
  Mg  Mg9  1  0.333333  0.666667  0.500000  1
  Sn  Sn10  1  0.409654  0.409654  0.249981  1
  Sn  Sn11  1  0.590346  0.000000  0.249981  1
  Sn  Sn12  1  0.000000  0.590346  0.249981  1
  Sn  Sn13  1  0.590346  0.590346  0.750019  1
  Sn  Sn14  1  0.409654  0.000000  0.750019  1
  Sn  Sn15  1  0.000000  0.409654  0.750019  1
  C  C16  1  0.000000  0.000000  0.500000  1
  C  C17  1  0.000000  0.000000  0.000000  1
