# generated using pymatgen
data_Tb6Y10MgCd3Pt4
_symmetry_space_group_name_H-M   'P 1'
_cell_length_a   9.72829738
_cell_length_b   9.73524496
_cell_length_c   9.73524679
_cell_angle_alpha   60.00959855
_cell_angle_beta   60.08689965
_cell_angle_gamma   60.08690268
_symmetry_Int_Tables_number   1
_chemical_formula_structural   Tb6Y10MgCd3Pt4
_chemical_formula_sum   'Tb6 Y10 Mg1 Cd3 Pt4'
_cell_volume   652.85460124
_cell_formula_units_Z   1
loop_
 _symmetry_equiv_pos_site_id
 _symmetry_equiv_pos_as_xyz
  1  'x, y, z'
loop_
 _atom_site_type_symbol
 _atom_site_label
 _atom_site_symmetry_multiplicity
 _atom_site_fract_x
 _atom_site_fract_y
 _atom_site_fract_z
 _atom_site_occupancy
  Tb  Tb0  1  0.349216  0.350043  0.350043  1
  Tb  Tb1  1  0.353524  0.352880  0.943341  1
  Tb  Tb2  1  0.353524  0.943341  0.352880  1
  Tb  Tb3  1  0.943434  0.353305  0.353305  1
  Tb  Tb4  1  0.810125  0.191282  0.191282  1
  Tb  Tb5  1  0.188201  0.812373  0.812373  1
  Y  Y6  1  0.191595  0.809562  0.191700  1
  Y  Y7  1  0.811661  0.188790  0.811691  1
  Y  Y8  1  0.191595  0.191700  0.809562  1
  Y  Y9  1  0.811661  0.811691  0.188790  1
  Y  Y10  1  0.935027  0.566330  0.566330  1
  Y  Y11  1  0.563778  0.936539  0.936539  1
  Y  Y12  1  0.565800  0.936147  0.565483  1
  Y  Y13  1  0.937165  0.563317  0.936974  1
  Y  Y14  1  0.565800  0.565483  0.936147  1
  Y  Y15  1  0.937165  0.936974  0.563317  1
  Mg  Mg16  1  0.576707  0.575816  0.575816  1
  Cd  Cd17  1  0.580982  0.581379  0.253278  1
  Cd  Cd18  1  0.580982  0.253278  0.581379  1
  Cd  Cd19  1  0.253081  0.580902  0.580902  1
  Pt  Pt20  1  0.143731  0.144853  0.144853  1
  Pt  Pt21  1  0.142080  0.140822  0.570919  1
  Pt  Pt22  1  0.142080  0.570919  0.140822  1
  Pt  Pt23  1  0.571084  0.142275  0.142275  1
