# generated using pymatgen
data_Sc4B8Mo3Ru6W
_symmetry_space_group_name_H-M   'P 1'
_cell_length_a   3.05966000
_cell_length_b   8.69892878
_cell_length_c   10.02093875
_cell_angle_alpha   89.98576335
_cell_angle_beta   90.00000000
_cell_angle_gamma   90.00000000
_symmetry_Int_Tables_number   1
_chemical_formula_structural   Sc4B8Mo3Ru6W
_chemical_formula_sum   'Sc4 B8 Mo3 Ru6 W1'
_cell_volume   266.71493682
_cell_formula_units_Z   1
loop_
 _symmetry_equiv_pos_site_id
 _symmetry_equiv_pos_as_xyz
  1  'x, y, z'
loop_
 _atom_site_type_symbol
 _atom_site_label
 _atom_site_symmetry_multiplicity
 _atom_site_fract_x
 _atom_site_fract_y
 _atom_site_fract_z
 _atom_site_occupancy
  Sc  Sc0  1  0.500000  0.839966  0.181488  1
  Sc  Sc1  1  0.500000  0.160901  0.818932  1
  Sc  Sc2  1  0.500000  0.660803  0.680587  1
  Sc  Sc3  1  0.500000  0.339835  0.318559  1
  B  B4  1  0.500000  0.966629  0.586240  1
  B  B5  1  0.500000  0.033696  0.413381  1
  B  B6  1  0.500000  0.853377  0.898151  1
  B  B7  1  0.500000  0.145456  0.101694  1
  B  B8  1  0.500000  0.645986  0.398733  1
  B  B9  1  0.500000  0.354050  0.601632  1
  B  B10  1  0.500000  0.465850  0.913962  1
  B  B11  1  0.500000  0.532783  0.086917  1
  Mo  Mo12  1  0.000000  0.336792  0.047782  1
  Mo  Mo13  1  0.000000  0.837375  0.452407  1
  Mo  Mo14  1  0.000000  0.162742  0.547677  1
  Ru  Ru15  1  0.000000  0.999374  0.000009  1
  Ru  Ru16  1  0.000000  0.407915  0.760914  1
  Ru  Ru17  1  0.000000  0.593624  0.239099  1
  Ru  Ru18  1  0.000000  0.499962  0.499850  1
  Ru  Ru19  1  0.000000  0.907009  0.739064  1
  Ru  Ru20  1  0.000000  0.093089  0.260569  1
  W  W21  1  0.000000  0.662784  0.952355  1
