# generated using pymatgen
data_Y3Tm5Cd2IrPt
_symmetry_space_group_name_H-M   'P 1'
_cell_length_a   9.58643087
_cell_length_b   9.58643089
_cell_length_c   9.55068100
_cell_angle_alpha   60.12328159
_cell_angle_beta   60.12328155
_cell_angle_gamma   60.29191999
_symmetry_Int_Tables_number   1
_chemical_formula_structural   Y3Tm5Cd2IrPt
_chemical_formula_sum   'Y6 Tm10 Cd4 Ir2 Pt2'
_cell_volume   623.14992136
_cell_formula_units_Z   2
loop_
 _symmetry_equiv_pos_site_id
 _symmetry_equiv_pos_as_xyz
  1  'x, y, z'
loop_
 _atom_site_type_symbol
 _atom_site_label
 _atom_site_symmetry_multiplicity
 _atom_site_fract_x
 _atom_site_fract_y
 _atom_site_fract_z
 _atom_site_occupancy
  Y  Y0  1  0.939479  0.562522  0.560197  1
  Y  Y1  1  0.562522  0.939479  0.937802  1
  Y  Y2  1  0.562522  0.939479  0.560197  1
  Y  Y3  1  0.939479  0.562522  0.937802  1
  Y  Y4  1  0.561927  0.561927  0.938073  1
  Y  Y5  1  0.939252  0.939252  0.560748  1
  Tm  Tm6  1  0.350399  0.350399  0.346255  1
  Tm  Tm7  1  0.350399  0.350399  0.952947  1
  Tm  Tm8  1  0.356141  0.944386  0.349737  1
  Tm  Tm9  1  0.944386  0.356141  0.349737  1
  Tm  Tm10  1  0.807666  0.188855  0.190014  1
  Tm  Tm11  1  0.188855  0.807666  0.813465  1
  Tm  Tm12  1  0.188855  0.807666  0.190014  1
  Tm  Tm13  1  0.807666  0.188855  0.813465  1
  Tm  Tm14  1  0.190543  0.190543  0.809457  1
  Tm  Tm15  1  0.812303  0.812303  0.187697  1
  Cd  Cd16  1  0.580619  0.580619  0.580533  1
  Cd  Cd17  1  0.580619  0.580619  0.258231  1
  Cd  Cd18  1  0.580414  0.257221  0.581183  1
  Cd  Cd19  1  0.257221  0.580414  0.581183  1
  Ir  Ir20  1  0.140864  0.573982  0.142577  1
  Ir  Ir21  1  0.573982  0.140864  0.142577  1
  Pt  Pt22  1  0.141945  0.141945  0.144970  1
  Pt  Pt23  1  0.141945  0.141945  0.571142  1
