# generated using pymatgen
data_Yb3Ce4Ho(Pt2Pb)4
_symmetry_space_group_name_H-M   'P 1'
_cell_length_a   7.94555814
_cell_length_b   7.94555814
_cell_length_c   7.29495000
_cell_angle_alpha   90.00000000
_cell_angle_beta   90.00000000
_cell_angle_gamma   90.19188600
_symmetry_Int_Tables_number   1
_chemical_formula_structural   Yb3Ce4Ho(Pt2Pb)4
_chemical_formula_sum   'Yb3 Ce4 Ho1 Pt8 Pb4'
_cell_volume   460.54142850
_cell_formula_units_Z   1
loop_
 _symmetry_equiv_pos_site_id
 _symmetry_equiv_pos_as_xyz
  1  'x, y, z'
loop_
 _atom_site_type_symbol
 _atom_site_label
 _atom_site_symmetry_multiplicity
 _atom_site_fract_x
 _atom_site_fract_y
 _atom_site_fract_z
 _atom_site_occupancy
  Yb  Yb0  1  0.660037  0.660037  0.500000  1
  Yb  Yb1  1  0.840923  0.159030  0.000000  1
  Yb  Yb2  1  0.159030  0.840923  0.000000  1
  Ce  Ce3  1  0.677579  0.677579  0.000000  1
  Ce  Ce4  1  0.823347  0.176137  0.500000  1
  Ce  Ce5  1  0.323314  0.323314  0.000000  1
  Ce  Ce6  1  0.176137  0.823347  0.500000  1
  Ho  Ho7  1  0.341402  0.341402  0.500000  1
  Pt  Pt8  1  0.871570  0.871570  0.733624  1
  Pt  Pt9  1  0.132024  0.132024  0.731423  1
  Pt  Pt10  1  0.627415  0.369514  0.764019  1
  Pt  Pt11  1  0.627415  0.369514  0.235981  1
  Pt  Pt12  1  0.369514  0.627415  0.235981  1
  Pt  Pt13  1  0.132024  0.132024  0.268577  1
  Pt  Pt14  1  0.871570  0.871570  0.266376  1
  Pt  Pt15  1  0.369514  0.627415  0.764019  1
  Pb  Pb16  1  0.500693  0.997901  0.750601  1
  Pb  Pb17  1  0.500693  0.997901  0.249399  1
  Pb  Pb18  1  0.997901  0.500693  0.750601  1
  Pb  Pb19  1  0.997901  0.500693  0.249399  1
