# generated using pymatgen
data_Tb3Dy2(TcO6)2
_symmetry_space_group_name_H-M   'P 1'
_cell_length_a   6.85164246
_cell_length_b   6.85164199
_cell_length_c   7.56054423
_cell_angle_alpha   73.78350867
_cell_angle_beta   73.78351057
_cell_angle_gamma   49.00195730
_symmetry_Int_Tables_number   1
_chemical_formula_structural   Tb3Dy2(TcO6)2
_chemical_formula_sum   'Tb3 Dy2 Tc2 O12'
_cell_volume   254.94933882
_cell_formula_units_Z   1
loop_
 _symmetry_equiv_pos_site_id
 _symmetry_equiv_pos_as_xyz
  1  'x, y, z'
loop_
 _atom_site_type_symbol
 _atom_site_label
 _atom_site_symmetry_multiplicity
 _atom_site_fract_x
 _atom_site_fract_y
 _atom_site_fract_z
 _atom_site_occupancy
  Tb  Tb0  1  0.195108  0.195108  0.643184  1
  Tb  Tb1  1  0.184313  0.184313  0.175201  1
  Tb  Tb2  1  0.804834  0.804834  0.357411  1
  Dy  Dy3  1  0.499934  0.499934  0.500218  1
  Dy  Dy4  1  0.815748  0.815748  0.824301  1
  Tc  Tc5  1  0.713882  0.286150  0.999814  1
  Tc  Tc6  1  0.286150  0.713882  0.999814  1
  O  O7  1  0.414768  0.913826  0.916162  1
  O  O8  1  0.913826  0.414768  0.916162  1
  O  O9  1  0.904724  0.402234  0.426274  1
  O  O10  1  0.402234  0.904724  0.426274  1
  O  O11  1  0.501376  0.501376  0.203942  1
  O  O12  1  0.998810  0.998810  0.176242  1
  O  O13  1  0.000767  0.000767  0.823237  1
  O  O14  1  0.498604  0.498604  0.796017  1
  O  O15  1  0.085009  0.586861  0.082889  1
  O  O16  1  0.586861  0.085009  0.082889  1
  O  O17  1  0.094615  0.598436  0.574985  1
  O  O18  1  0.598436  0.094615  0.574985  1
