# generated using pymatgen
data_Ba2GaPdI
_symmetry_space_group_name_H-M   'P 1'
_cell_length_a   4.48066200
_cell_length_b   4.48066190
_cell_length_c   19.62778000
_cell_angle_alpha   90.00000000
_cell_angle_beta   90.00000000
_cell_angle_gamma   120.00000075
_symmetry_Int_Tables_number   1
_chemical_formula_structural   Ba2GaPdI
_chemical_formula_sum   'Ba4 Ga2 Pd2 I2'
_cell_volume   341.26061418
_cell_formula_units_Z   2
loop_
 _symmetry_equiv_pos_site_id
 _symmetry_equiv_pos_as_xyz
  1  'x, y, z'
loop_
 _atom_site_type_symbol
 _atom_site_label
 _atom_site_symmetry_multiplicity
 _atom_site_fract_x
 _atom_site_fract_y
 _atom_site_fract_z
 _atom_site_occupancy
  Ba  Ba0  1  0.000000  0.000000  0.113987  1
  Ba  Ba1  1  0.000000  0.000000  0.386013  1
  Ba  Ba2  1  0.000000  0.000000  0.614729  1
  Ba  Ba3  1  0.000000  0.000000  0.885271  1
  Ga  Ga4  1  0.666668  0.333335  0.500699  1
  Ga  Ga5  1  0.666668  0.333335  0.999301  1
  Pd  Pd6  1  0.333333  0.666667  0.000666  1
  Pd  Pd7  1  0.333333  0.666667  0.499334  1
  I  I8  1  0.666668  0.333335  0.250000  1
  I  I9  1  0.333333  0.666667  0.750000  1
