# generated using pymatgen
data_Pr3Y3(CoSn6)2
_symmetry_space_group_name_H-M   'P 1'
_cell_length_a   8.56705749
_cell_length_b   8.56705692
_cell_length_c   13.35781479
_cell_angle_alpha   89.94437541
_cell_angle_beta   90.05562433
_cell_angle_gamma   148.77925165
_symmetry_Int_Tables_number   1
_chemical_formula_structural   Pr3Y3(CoSn6)2
_chemical_formula_sum   'Pr3 Y3 Co2 Sn12'
_cell_volume   508.17174193
_cell_formula_units_Z   1
loop_
 _symmetry_equiv_pos_site_id
 _symmetry_equiv_pos_as_xyz
  1  'x, y, z'
loop_
 _atom_site_type_symbol
 _atom_site_label
 _atom_site_symmetry_multiplicity
 _atom_site_fract_x
 _atom_site_fract_y
 _atom_site_fract_z
 _atom_site_occupancy
  Pr  Pr0  1  0.099845  0.900155  0.592062  1
  Pr  Pr1  1  0.099603  0.900397  0.908591  1
  Pr  Pr2  1  0.900451  0.099549  0.406381  1
  Y  Y3  1  0.898614  0.101386  0.092574  1
  Y  Y4  1  0.899172  0.100828  0.752039  1
  Y  Y5  1  0.100732  0.899268  0.248465  1
  Co  Co6  1  0.298528  0.701472  0.249043  1
  Co  Co7  1  0.702562  0.297438  0.751054  1
  Sn  Sn8  1  0.755747  0.244253  0.572816  1
  Sn  Sn9  1  0.427570  0.572430  0.580101  1
  Sn  Sn10  1  0.571794  0.428206  0.419160  1
  Sn  Sn11  1  0.734357  0.265643  0.248970  1
  Sn  Sn12  1  0.266552  0.733448  0.750351  1
  Sn  Sn13  1  0.245881  0.754119  0.072221  1
  Sn  Sn14  1  0.244615  0.755385  0.426727  1
  Sn  Sn15  1  0.571168  0.428832  0.078835  1
  Sn  Sn16  1  0.453276  0.546724  0.246315  1
  Sn  Sn17  1  0.546141  0.453859  0.750791  1
  Sn  Sn18  1  0.756525  0.243475  0.929027  1
  Sn  Sn19  1  0.426867  0.573133  0.924474  1
