# generated using pymatgen
data_Hf18GaRe8Si
_symmetry_space_group_name_H-M   'P 1'
_cell_length_a   8.57235700
_cell_length_b   8.57235731
_cell_length_c   8.69580000
_cell_angle_alpha   90.00000000
_cell_angle_beta   90.00000000
_cell_angle_gamma   120.00000267
_symmetry_Int_Tables_number   1
_chemical_formula_structural   Hf18GaRe8Si
_chemical_formula_sum   'Hf18 Ga1 Re8 Si1'
_cell_volume   553.40193909
_cell_formula_units_Z   1
loop_
 _symmetry_equiv_pos_site_id
 _symmetry_equiv_pos_as_xyz
  1  'x, y, z'
loop_
 _atom_site_type_symbol
 _atom_site_label
 _atom_site_symmetry_multiplicity
 _atom_site_fract_x
 _atom_site_fract_y
 _atom_site_fract_z
 _atom_site_occupancy
  Hf  Hf0  1  0.194452  0.805548  0.453420  1
  Hf  Hf1  1  0.194452  0.388903  0.453420  1
  Hf  Hf2  1  0.611097  0.805548  0.453420  1
  Hf  Hf3  1  0.804711  0.195289  0.547262  1
  Hf  Hf4  1  0.804711  0.609423  0.547262  1
  Hf  Hf5  1  0.390577  0.195289  0.547262  1
  Hf  Hf6  1  0.804711  0.195289  0.952738  1
  Hf  Hf7  1  0.804711  0.609423  0.952738  1
  Hf  Hf8  1  0.390577  0.195289  0.952738  1
  Hf  Hf9  1  0.194452  0.805548  0.046580  1
  Hf  Hf10  1  0.194452  0.388903  0.046580  1
  Hf  Hf11  1  0.611097  0.805548  0.046580  1
  Hf  Hf12  1  0.540188  0.459812  0.250000  1
  Hf  Hf13  1  0.540188  0.080375  0.250000  1
  Hf  Hf14  1  0.919625  0.459812  0.250000  1
  Hf  Hf15  1  0.460630  0.539370  0.750000  1
  Hf  Hf16  1  0.460630  0.921262  0.750000  1
  Hf  Hf17  1  0.078738  0.539370  0.750000  1
  Ga  Ga18  1  0.333333  0.666667  0.250000  1
  Re  Re19  1  0.890643  0.109357  0.250000  1
  Re  Re20  1  0.890643  0.781285  0.250000  1
  Re  Re21  1  0.218715  0.109357  0.250000  1
  Re  Re22  1  0.109225  0.890775  0.750000  1
  Re  Re23  1  0.109225  0.218450  0.750000  1
  Re  Re24  1  0.781550  0.890775  0.750000  1
  Re  Re25  1  0.000000  0.000000  0.500110  1
  Re  Re26  1  0.000000  0.000000  0.999890  1
  Si  Si27  1  0.666667  0.333333  0.750000  1
