# generated using pymatgen
data_Tb2ErAs4Pd7
_symmetry_space_group_name_H-M   'P 1'
_cell_length_a   8.11741494
_cell_length_b   8.11741586
_cell_length_c   9.65463664
_cell_angle_alpha   55.60647512
_cell_angle_beta   55.60647080
_cell_angle_gamma   29.48831221
_symmetry_Int_Tables_number   1
_chemical_formula_structural   Tb2ErAs4Pd7
_chemical_formula_sum   'Tb2 Er1 As4 Pd7'
_cell_volume   254.17721260
_cell_formula_units_Z   1
loop_
 _symmetry_equiv_pos_site_id
 _symmetry_equiv_pos_as_xyz
  1  'x, y, z'
loop_
 _atom_site_type_symbol
 _atom_site_label
 _atom_site_symmetry_multiplicity
 _atom_site_fract_x
 _atom_site_fract_y
 _atom_site_fract_z
 _atom_site_occupancy
  Tb  Tb0  1  0.499911  0.499911  0.500122  1
  Tb  Tb1  1  0.822231  0.822231  0.172002  1
  Er  Er2  1  0.177227  0.177227  0.828939  1
  As  As3  1  0.394310  0.394310  0.322335  1
  As  As4  1  0.606426  0.606426  0.677789  1
  As  As5  1  0.840229  0.840229  0.752029  1
  As  As6  1  0.158701  0.158701  0.249665  1
  Pd  Pd7  1  0.667483  0.667483  0.069916  1
  Pd  Pd8  1  0.012660  0.012660  0.204429  1
  Pd  Pd9  1  0.987621  0.987621  0.794745  1
  Pd  Pd10  1  0.501457  0.501457  0.998888  1
  Pd  Pd11  1  0.194251  0.194251  0.475239  1
  Pd  Pd12  1  0.805812  0.805812  0.526726  1
  Pd  Pd13  1  0.331682  0.331682  0.927177  1
