# generated using pymatgen
data_Tb3Ho5(TmRu2)2
_symmetry_space_group_name_H-M   'P 1'
_cell_length_a   6.32526411
_cell_length_b   7.25557238
_cell_length_c   8.45498469
_cell_angle_alpha   96.75744814
_cell_angle_beta   112.07218265
_cell_angle_gamma   89.98831474
_symmetry_Int_Tables_number   1
_chemical_formula_structural   Tb3Ho5(TmRu2)2
_chemical_formula_sum   'Tb3 Ho5 Tm2 Ru4'
_cell_volume   356.68335058
_cell_formula_units_Z   1
loop_
 _symmetry_equiv_pos_site_id
 _symmetry_equiv_pos_as_xyz
  1  'x, y, z'
loop_
 _atom_site_type_symbol
 _atom_site_label
 _atom_site_symmetry_multiplicity
 _atom_site_fract_x
 _atom_site_fract_y
 _atom_site_fract_z
 _atom_site_occupancy
  Tb  Tb0  1  0.789993  0.083410  0.811506  1
  Tb  Tb1  1  0.976101  0.416828  0.187102  1
  Tb  Tb2  1  0.210902  0.916401  0.187661  1
  Ho  Ho3  1  0.022450  0.583863  0.812911  1
  Ho  Ho4  1  0.204656  0.185158  0.566447  1
  Ho  Ho5  1  0.640079  0.316074  0.434804  1
  Ho  Ho6  1  0.795198  0.814353  0.434025  1
  Ho  Ho7  1  0.359816  0.684663  0.566379  1
  Tm  Tm8  1  0.420473  0.250002  0.999465  1
  Tm  Tm9  1  0.578749  0.749973  0.999743  1
  Ru  Ru10  1  0.602145  0.425684  0.778864  1
  Ru  Ru11  1  0.820811  0.076273  0.221139  1
  Ru  Ru12  1  0.400106  0.574627  0.220387  1
  Ru  Ru13  1  0.178523  0.922690  0.779565  1
