# generated using pymatgen
data_Ho5ErAl18
_symmetry_space_group_name_H-M   'P 1'
_cell_length_a   14.38595659
_cell_length_b   14.38595667
_cell_length_c   14.38595831
_cell_angle_alpha   24.83217577
_cell_angle_beta   24.83217644
_cell_angle_gamma   24.83217646
_symmetry_Int_Tables_number   1
_chemical_formula_structural   Ho5ErAl18
_chemical_formula_sum   'Ho5 Er1 Al18'
_cell_volume   461.85693411
_cell_formula_units_Z   1
loop_
 _symmetry_equiv_pos_site_id
 _symmetry_equiv_pos_as_xyz
  1  'x, y, z'
loop_
 _atom_site_type_symbol
 _atom_site_label
 _atom_site_symmetry_multiplicity
 _atom_site_fract_x
 _atom_site_fract_y
 _atom_site_fract_z
 _atom_site_occupancy
  Ho  Ho0  1  0.999926  0.999926  0.999926  1
  Ho  Ho1  1  0.500046  0.500046  0.500046  1
  Ho  Ho2  1  0.108607  0.108607  0.108607  1
  Ho  Ho3  1  0.891471  0.891471  0.891471  1
  Ho  Ho4  1  0.391231  0.391231  0.391231  1
  Er  Er5  1  0.608593  0.608593  0.608593  1
  Al  Al6  1  0.925414  0.369884  0.369884  1
  Al  Al7  1  0.425671  0.869452  0.869452  1
  Al  Al8  1  0.369884  0.369884  0.925414  1
  Al  Al9  1  0.869452  0.869452  0.425671  1
  Al  Al10  1  0.369884  0.925414  0.369884  1
  Al  Al11  1  0.869452  0.425671  0.869452  1
  Al  Al12  1  0.574063  0.130606  0.130606  1
  Al  Al13  1  0.074278  0.630499  0.630499  1
  Al  Al14  1  0.130606  0.130606  0.574063  1
  Al  Al15  1  0.630499  0.630499  0.074278  1
  Al  Al16  1  0.130606  0.574063  0.130606  1
  Al  Al17  1  0.630499  0.074278  0.630499  1
  Al  Al18  1  0.500661  0.500661  0.998192  1
  Al  Al19  1  0.000257  0.000257  0.499796  1
  Al  Al20  1  0.500661  0.998192  0.500661  1
  Al  Al21  1  0.000257  0.499796  0.000257  1
  Al  Al22  1  0.998192  0.500661  0.500661  1
  Al  Al23  1  0.499796  0.000257  0.000257  1
