# generated using pymatgen
data_Cr20Re2AsC6
_symmetry_space_group_name_H-M   'P 1'
_cell_length_a   7.52434673
_cell_length_b   7.52420283
_cell_length_c   7.52441300
_cell_angle_alpha   59.99907159
_cell_angle_beta   59.99970428
_cell_angle_gamma   59.99770939
_symmetry_Int_Tables_number   1
_chemical_formula_structural   Cr20Re2AsC6
_chemical_formula_sum   'Cr20 Re2 As1 C6'
_cell_volume   301.21416084
_cell_formula_units_Z   1
loop_
 _symmetry_equiv_pos_site_id
 _symmetry_equiv_pos_as_xyz
  1  'x, y, z'
loop_
 _atom_site_type_symbol
 _atom_site_label
 _atom_site_symmetry_multiplicity
 _atom_site_fract_x
 _atom_site_fract_y
 _atom_site_fract_z
 _atom_site_occupancy
  Cr  Cr0  1  0.616592  0.616739  0.150185  1
  Cr  Cr1  1  0.616696  0.150061  0.616622  1
  Cr  Cr2  1  0.150141  0.616761  0.616549  1
  Cr  Cr3  1  0.616592  0.616739  0.616485  1
  Cr  Cr4  1  0.383408  0.383261  0.849815  1
  Cr  Cr5  1  0.383304  0.849939  0.383378  1
  Cr  Cr6  1  0.849859  0.383239  0.383451  1
  Cr  Cr7  1  0.383408  0.383261  0.383515  1
  Cr  Cr8  1  0.000000  0.000000  0.341083  1
  Cr  Cr9  1  0.659000  0.999974  0.341048  1
  Cr  Cr10  1  0.999981  0.659085  0.340948  1
  Cr  Cr11  1  0.659143  0.340853  0.000002  1
  Cr  Cr12  1  0.000019  0.340915  0.000014  1
  Cr  Cr13  1  0.000019  0.340915  0.659052  1
  Cr  Cr14  1  0.340857  0.659147  0.999998  1
  Cr  Cr15  1  0.341000  0.000026  0.658952  1
  Cr  Cr16  1  0.341000  0.000026  0.000022  1
  Cr  Cr17  1  0.000000  0.000000  0.658917  1
  Cr  Cr18  1  0.999981  0.659085  0.999986  1
  Cr  Cr19  1  0.659000  0.999974  0.999978  1
  Re  Re20  1  0.750002  0.750179  0.749909  1
  Re  Re21  1  0.249998  0.249821  0.250091  1
  As  As22  1  0.000000  0.000000  0.000000  1
  C  C23  1  0.720139  0.720249  0.279806  1
  C  C24  1  0.279775  0.720279  0.279849  1
  C  C25  1  0.720225  0.279721  0.279903  1
  C  C26  1  0.279861  0.279751  0.720194  1
  C  C27  1  0.720225  0.279721  0.720151  1
  C  C28  1  0.279775  0.720279  0.720097  1
