# generated using pymatgen
data_Hf2ZrTiI12
_symmetry_space_group_name_H-M   'P 1'
_cell_length_a   6.54015401
_cell_length_b   7.99861321
_cell_length_c   13.95337800
_cell_angle_alpha   90.00000000
_cell_angle_beta   90.00000000
_cell_angle_gamma   89.89159158
_symmetry_Int_Tables_number   1
_chemical_formula_structural   Hf2ZrTiI12
_chemical_formula_sum   'Hf2 Zr1 Ti1 I12'
_cell_volume   729.93006780
_cell_formula_units_Z   1
loop_
 _symmetry_equiv_pos_site_id
 _symmetry_equiv_pos_as_xyz
  1  'x, y, z'
loop_
 _atom_site_type_symbol
 _atom_site_label
 _atom_site_symmetry_multiplicity
 _atom_site_fract_x
 _atom_site_fract_y
 _atom_site_fract_z
 _atom_site_occupancy
  Hf  Hf0  1  0.750908  0.249409  0.500000  1
  Hf  Hf1  1  0.751614  0.750525  0.000000  1
  Zr  Zr2  1  0.249128  0.249441  0.500000  1
  Ti  Ti3  1  0.248154  0.750550  0.000000  1
  I  I4  1  0.503934  0.399530  0.350383  1
  I  I5  1  0.002810  0.604628  0.854598  1
  I  I6  1  0.002810  0.604628  0.145402  1
  I  I7  1  0.503934  0.399530  0.649617  1
  I  I8  1  0.497183  0.896216  0.855186  1
  I  I9  1  0.996174  0.098860  0.350104  1
  I  I10  1  0.996174  0.098860  0.649896  1
  I  I11  1  0.497183  0.896216  0.144814  1
  I  I12  1  0.503242  0.948740  0.500000  1
  I  I13  1  0.004915  0.042634  0.000000  1
  I  I14  1  0.495017  0.459401  0.000000  1
  I  I15  1  0.996818  0.550831  0.500000  1
