# generated using pymatgen
data_Lu3AlCd2Au3
_symmetry_space_group_name_H-M   'P 1'
_cell_length_a   7.55216649
_cell_length_b   7.44863240
_cell_length_c   3.96523600
_cell_angle_alpha   90.00000000
_cell_angle_beta   90.00000000
_cell_angle_gamma   119.54752463
_symmetry_Int_Tables_number   1
_chemical_formula_structural   Lu3AlCd2Au3
_chemical_formula_sum   'Lu3 Al1 Cd2 Au3'
_cell_volume   194.04832939
_cell_formula_units_Z   1
loop_
 _symmetry_equiv_pos_site_id
 _symmetry_equiv_pos_as_xyz
  1  'x, y, z'
loop_
 _atom_site_type_symbol
 _atom_site_label
 _atom_site_symmetry_multiplicity
 _atom_site_fract_x
 _atom_site_fract_y
 _atom_site_fract_z
 _atom_site_occupancy
  Lu  Lu0  1  0.410117  0.406058  0.500000  1
  Lu  Lu1  1  0.589883  0.995941  0.500000  1
  Lu  Lu2  1  0.000000  0.592761  0.500000  1
  Al  Al3  1  0.000000  0.255819  0.000000  1
  Cd  Cd4  1  0.744356  0.743692  0.000000  1
  Cd  Cd5  1  0.255644  0.999335  0.000000  1
  Au  Au6  1  0.679835  0.327203  0.000000  1
  Au  Au7  1  0.320165  0.647369  0.000000  1
  Au  Au8  1  0.000000  0.031820  0.500000  1
