# generated using pymatgen
data_Nd3Cu(Pt2O7)2
_symmetry_space_group_name_H-M   'P 1'
_cell_length_a   7.25477504
_cell_length_b   7.25477574
_cell_length_c   7.25477425
_cell_angle_alpha   61.67193527
_cell_angle_beta   61.67193389
_cell_angle_gamma   61.67193034
_symmetry_Int_Tables_number   1
_chemical_formula_structural   Nd3Cu(Pt2O7)2
_chemical_formula_sum   'Nd3 Cu1 Pt4 O14'
_cell_volume   280.11653005
_cell_formula_units_Z   1
loop_
 _symmetry_equiv_pos_site_id
 _symmetry_equiv_pos_as_xyz
  1  'x, y, z'
loop_
 _atom_site_type_symbol
 _atom_site_label
 _atom_site_symmetry_multiplicity
 _atom_site_fract_x
 _atom_site_fract_y
 _atom_site_fract_z
 _atom_site_occupancy
  Nd  Nd0  1  0.625000  0.625000  0.125000  1
  Nd  Nd1  1  0.625000  0.125000  0.625000  1
  Nd  Nd2  1  0.125000  0.625000  0.625000  1
  Cu  Cu3  1  0.625000  0.625000  0.625000  1
  Pt  Pt4  1  0.125000  0.125000  0.625000  1
  Pt  Pt5  1  0.125000  0.625000  0.125000  1
  Pt  Pt6  1  0.625000  0.125000  0.125000  1
  Pt  Pt7  1  0.125000  0.125000  0.125000  1
  O  O8  1  0.516586  0.516586  0.516586  1
  O  O9  1  0.733414  0.733414  0.733414  1
  O  O10  1  0.453066  0.051720  0.453066  1
  O  O11  1  0.214775  0.788246  0.214775  1
  O  O12  1  0.453066  0.453066  0.051720  1
  O  O13  1  0.051720  0.453066  0.453066  1
  O  O14  1  0.461754  0.035225  0.035225  1
  O  O15  1  0.035225  0.035225  0.461754  1
  O  O16  1  0.035225  0.461754  0.035225  1
  O  O17  1  0.788246  0.214775  0.214775  1
  O  O18  1  0.198280  0.796934  0.796934  1
  O  O19  1  0.796934  0.198280  0.796934  1
  O  O20  1  0.214775  0.214775  0.788246  1
  O  O21  1  0.796934  0.796934  0.198280  1
