# generated using pymatgen
data_Ho2ErZr2Sb3
_symmetry_space_group_name_H-M   'P 1'
_cell_length_a   8.79089433
_cell_length_b   8.79089605
_cell_length_c   5.99211500
_cell_angle_alpha   90.00000000
_cell_angle_beta   90.00000000
_cell_angle_gamma   120.03141512
_symmetry_Int_Tables_number   1
_chemical_formula_structural   Ho2ErZr2Sb3
_chemical_formula_sum   'Ho4 Er2 Zr4 Sb6'
_cell_volume   400.90309445
_cell_formula_units_Z   2
loop_
 _symmetry_equiv_pos_site_id
 _symmetry_equiv_pos_as_xyz
  1  'x, y, z'
loop_
 _atom_site_type_symbol
 _atom_site_label
 _atom_site_symmetry_multiplicity
 _atom_site_fract_x
 _atom_site_fract_y
 _atom_site_fract_z
 _atom_site_occupancy
  Ho  Ho0  1  0.749032  0.749032  0.750000  1
  Ho  Ho1  1  0.251114  0.999886  0.750000  1
  Ho  Ho2  1  0.999886  0.251114  0.750000  1
  Ho  Ho3  1  0.250996  0.250996  0.250000  1
  Er  Er4  1  0.748821  0.000032  0.250000  1
  Er  Er5  1  0.000032  0.748821  0.250000  1
  Zr  Zr6  1  0.666642  0.333332  0.999987  1
  Zr  Zr7  1  0.333332  0.666642  0.999987  1
  Zr  Zr8  1  0.333332  0.666642  0.500013  1
  Zr  Zr9  1  0.666642  0.333332  0.500013  1
  Sb  Sb10  1  0.391672  0.391672  0.750000  1
  Sb  Sb11  1  0.608362  0.000008  0.750000  1
  Sb  Sb12  1  0.000008  0.608362  0.750000  1
  Sb  Sb13  1  0.608726  0.608726  0.250000  1
  Sb  Sb14  1  0.391674  0.999725  0.250000  1
  Sb  Sb15  1  0.999725  0.391674  0.250000  1
