# generated using pymatgen
data_Tm20GaNi2Bi9
_symmetry_space_group_name_H-M   'P 1'
_cell_length_a   7.90457937
_cell_length_b   9.26108100
_cell_length_c   11.99797800
_cell_angle_alpha   90.00000000
_cell_angle_beta   89.91664304
_cell_angle_gamma   90.00000000
_symmetry_Int_Tables_number   1
_chemical_formula_structural   Tm20GaNi2Bi9
_chemical_formula_sum   'Tm20 Ga1 Ni2 Bi9'
_cell_volume   878.31044736
_cell_formula_units_Z   1
loop_
 _symmetry_equiv_pos_site_id
 _symmetry_equiv_pos_as_xyz
  1  'x, y, z'
loop_
 _atom_site_type_symbol
 _atom_site_label
 _atom_site_symmetry_multiplicity
 _atom_site_fract_x
 _atom_site_fract_y
 _atom_site_fract_z
 _atom_site_occupancy
  Tm  Tm0  1  0.683805  0.927042  0.435655  1
  Tm  Tm1  1  0.817840  0.560918  0.937689  1
  Tm  Tm2  1  0.321097  0.472875  0.567707  1
  Tm  Tm3  1  0.171437  0.037849  0.060852  1
  Tm  Tm4  1  0.321097  0.027125  0.567707  1
  Tm  Tm5  1  0.171437  0.462151  0.060852  1
  Tm  Tm6  1  0.683805  0.572958  0.435655  1
  Tm  Tm7  1  0.817840  0.939082  0.937689  1
  Tm  Tm8  1  0.344674  0.750000  0.297497  1
  Tm  Tm9  1  0.157624  0.750000  0.796426  1
  Tm  Tm10  1  0.682251  0.250000  0.732748  1
  Tm  Tm11  1  0.837429  0.250000  0.211282  1
  Tm  Tm12  1  0.055209  0.750000  0.502238  1
  Tm  Tm13  1  0.441250  0.750000  0.004813  1
  Tm  Tm14  1  0.990299  0.250000  0.505845  1
  Tm  Tm15  1  0.526091  0.250000  0.005913  1
  Tm  Tm16  1  0.876597  0.750000  0.192950  1
  Tm  Tm17  1  0.623271  0.750000  0.694063  1
  Tm  Tm18  1  0.142943  0.250000  0.789457  1
  Tm  Tm19  1  0.343411  0.250000  0.282713  1
  Ga  Ga20  1  0.900425  0.250000  0.969786  1
  Ni  Ni21  1  0.077460  0.750000  0.011757  1
  Ni  Ni22  1  0.420041  0.750000  0.514516  1
  Bi  Bi23  1  0.598814  0.250000  0.474505  1
  Bi  Bi24  1  0.568555  0.991935  0.175190  1
  Bi  Bi25  1  0.929403  0.510247  0.673266  1
  Bi  Bi26  1  0.433190  0.490911  0.828970  1
  Bi  Bi27  1  0.065774  0.007857  0.327418  1
  Bi  Bi28  1  0.433190  0.009089  0.828970  1
  Bi  Bi29  1  0.065774  0.492143  0.327418  1
  Bi  Bi30  1  0.568555  0.508065  0.175190  1
  Bi  Bi31  1  0.929403  0.989753  0.673266  1
