# generated using pymatgen
data_Ba4Al6CrO16
_symmetry_space_group_name_H-M   'P 1'
_cell_length_a   8.45191067
_cell_length_b   8.45191034
_cell_length_c   8.45190991
_cell_angle_alpha   109.72319847
_cell_angle_beta   109.72319449
_cell_angle_gamma   108.96843532
_symmetry_Int_Tables_number   1
_chemical_formula_structural   Ba4Al6CrO16
_chemical_formula_sum   'Ba4 Al6 Cr1 O16'
_cell_volume   464.74817606
_cell_formula_units_Z   1
loop_
 _symmetry_equiv_pos_site_id
 _symmetry_equiv_pos_as_xyz
  1  'x, y, z'
loop_
 _atom_site_type_symbol
 _atom_site_label
 _atom_site_symmetry_multiplicity
 _atom_site_fract_x
 _atom_site_fract_y
 _atom_site_fract_z
 _atom_site_occupancy
  Ba  Ba0  1  0.504717  0.004717  0.009433  1
  Ba  Ba1  1  0.995283  0.004717  0.500000  1
  Ba  Ba2  1  0.995283  0.495283  0.990567  1
  Ba  Ba3  1  0.504717  0.495283  0.500000  1
  Al  Al4  1  0.498072  0.247142  0.749070  1
  Al  Al5  1  0.750000  0.250000  0.500000  1
  Al  Al6  1  0.250999  0.501928  0.749070  1
  Al  Al7  1  0.250000  0.750000  0.500000  1
  Al  Al8  1  0.498072  0.749001  0.250930  1
  Al  Al9  1  0.752858  0.501928  0.250930  1
  Cr  Cr10  1  0.000000  0.000000  0.000000  1
  O  O11  1  0.649447  0.998832  0.349385  1
  O  O12  1  0.312257  0.656564  0.655693  1
  O  O13  1  0.654392  0.345608  0.000000  1
  O  O14  1  0.343436  0.999131  0.655693  1
  O  O15  1  0.001168  0.350553  0.650615  1
  O  O16  1  0.654392  0.654392  0.308784  1
  O  O17  1  0.649447  0.300061  0.650615  1
  O  O18  1  0.000869  0.656564  0.344307  1
  O  O19  1  0.345608  0.654392  0.000000  1
  O  O20  1  0.343436  0.687743  0.344307  1
  O  O21  1  0.699939  0.350553  0.349385  1
  O  O22  1  0.345608  0.345608  0.691216  1
  O  O23  1  0.900857  0.760645  0.859790  1
  O  O24  1  0.958933  0.099143  0.859790  1
  O  O25  1  0.239355  0.099143  0.140210  1
  O  O26  1  0.900857  0.041067  0.140210  1
