# generated using pymatgen
data_Tm4AlRe3B16
_symmetry_space_group_name_H-M   'P 1'
_cell_length_a   3.58023200
_cell_length_b   5.94227127
_cell_length_c   11.46538800
_cell_angle_alpha   89.87904546
_cell_angle_beta   90.00000000
_cell_angle_gamma   90.00000000
_symmetry_Int_Tables_number   1
_chemical_formula_structural   Tm4AlRe3B16
_chemical_formula_sum   'Tm4 Al1 Re3 B16'
_cell_volume   243.92225854
_cell_formula_units_Z   1
loop_
 _symmetry_equiv_pos_site_id
 _symmetry_equiv_pos_as_xyz
  1  'x, y, z'
loop_
 _atom_site_type_symbol
 _atom_site_label
 _atom_site_symmetry_multiplicity
 _atom_site_fract_x
 _atom_site_fract_y
 _atom_site_fract_z
 _atom_site_occupancy
  Tm  Tm0  1  0.000000  0.625854  0.351288  1
  Tm  Tm1  1  0.000000  0.373720  0.646644  1
  Tm  Tm2  1  0.000000  0.129773  0.153547  1
  Tm  Tm3  1  0.000000  0.873885  0.849878  1
  Al  Al4  1  0.000000  0.863001  0.588407  1
  Re  Re5  1  0.000000  0.635329  0.085668  1
  Re  Re6  1  0.000000  0.363066  0.913230  1
  Re  Re7  1  0.000000  0.127677  0.414203  1
  B  B8  1  0.500000  0.787201  0.186183  1
  B  B9  1  0.500000  0.211166  0.813372  1
  B  B10  1  0.500000  0.289033  0.315395  1
  B  B11  1  0.500000  0.711707  0.685562  1
  B  B12  1  0.500000  0.865561  0.031241  1
  B  B13  1  0.500000  0.134870  0.968676  1
  B  B14  1  0.500000  0.365888  0.468920  1
  B  B15  1  0.500000  0.634616  0.531852  1
  B  B16  1  0.500000  0.886661  0.450551  1
  B  B17  1  0.500000  0.117786  0.546726  1
  B  B18  1  0.500000  0.386588  0.047567  1
  B  B19  1  0.500000  0.614751  0.951588  1
  B  B20  1  0.500000  0.977813  0.307117  1
  B  B21  1  0.500000  0.022709  0.693583  1
  B  B22  1  0.500000  0.477084  0.193066  1
  B  B23  1  0.500000  0.524262  0.805738  1
