# generated using pymatgen
data_Yb4TaTi2GaO12
_symmetry_space_group_name_H-M   'P 1'
_cell_length_a   5.35764203
_cell_length_b   5.51361767
_cell_length_c   7.65983596
_cell_angle_alpha   90.01605132
_cell_angle_beta   89.82711567
_cell_angle_gamma   90.12006850
_symmetry_Int_Tables_number   1
_chemical_formula_structural   Yb4TaTi2GaO12
_chemical_formula_sum   'Yb4 Ta1 Ti2 Ga1 O12'
_cell_volume   226.26994043
_cell_formula_units_Z   1
loop_
 _symmetry_equiv_pos_site_id
 _symmetry_equiv_pos_as_xyz
  1  'x, y, z'
loop_
 _atom_site_type_symbol
 _atom_site_label
 _atom_site_symmetry_multiplicity
 _atom_site_fract_x
 _atom_site_fract_y
 _atom_site_fract_z
 _atom_site_occupancy
  Yb  Yb0  1  0.987926  0.452176  0.744608  1
  Yb  Yb1  1  0.513646  0.940833  0.746534  1
  Yb  Yb2  1  0.486354  0.059167  0.253466  1
  Yb  Yb3  1  0.012074  0.547824  0.255392  1
  Ta  Ta4  1  0.000000  0.000000  0.000000  1
  Ti  Ti5  1  0.000000  0.000000  0.500000  1
  Ti  Ti6  1  0.500000  0.500000  0.500000  1
  Ga  Ga7  1  0.500000  0.500000  0.000000  1
  O  O8  1  0.091394  0.026726  0.748331  1
  O  O9  1  0.199486  0.295445  0.050137  1
  O  O10  1  0.204217  0.291185  0.455127  1
  O  O11  1  0.291538  0.795226  0.455150  1
  O  O12  1  0.297992  0.799091  0.047674  1
  O  O13  1  0.412304  0.525127  0.745961  1
  O  O14  1  0.587696  0.474873  0.254039  1
  O  O15  1  0.702008  0.200909  0.952326  1
  O  O16  1  0.708462  0.204774  0.544850  1
  O  O17  1  0.795783  0.708815  0.544873  1
  O  O18  1  0.800514  0.704555  0.949863  1
  O  O19  1  0.908606  0.973274  0.251669  1
