# generated using pymatgen
data_Y2Tm4Al24Ru7Rh
_symmetry_space_group_name_H-M   'P 1'
_cell_length_a   8.78250431
_cell_length_b   8.80231263
_cell_length_c   9.57479496
_cell_angle_alpha   89.99306548
_cell_angle_beta   89.87786718
_cell_angle_gamma   120.10498160
_symmetry_Int_Tables_number   1
_chemical_formula_structural   Y2Tm4Al24Ru7Rh
_chemical_formula_sum   'Y2 Tm4 Al24 Ru7 Rh1'
_cell_volume   640.34420021
_cell_formula_units_Z   1
loop_
 _symmetry_equiv_pos_site_id
 _symmetry_equiv_pos_as_xyz
  1  'x, y, z'
loop_
 _atom_site_type_symbol
 _atom_site_label
 _atom_site_symmetry_multiplicity
 _atom_site_fract_x
 _atom_site_fract_y
 _atom_site_fract_z
 _atom_site_occupancy
  Y  Y0  1  0.805801  0.190585  0.749077  1
  Y  Y1  1  0.194199  0.809415  0.250923  1
  Tm  Tm2  1  0.388232  0.194223  0.749657  1
  Tm  Tm3  1  0.611768  0.805777  0.250343  1
  Tm  Tm4  1  0.803884  0.612805  0.748866  1
  Tm  Tm5  1  0.196116  0.387195  0.251134  1
  Al  Al6  1  0.665086  0.332748  0.980398  1
  Al  Al7  1  0.334914  0.667252  0.019602  1
  Al  Al8  1  0.333375  0.666391  0.481239  1
  Al  Al9  1  0.666625  0.333609  0.518761  1
  Al  Al10  1  0.837993  0.162947  0.421632  1
  Al  Al11  1  0.162007  0.837053  0.578368  1
  Al  Al12  1  0.325941  0.163266  0.422974  1
  Al  Al13  1  0.163349  0.838943  0.921709  1
  Al  Al14  1  0.674059  0.836734  0.577026  1
  Al  Al15  1  0.836651  0.161057  0.078291  1
  Al  Al16  1  0.837434  0.674369  0.422425  1
  Al  Al17  1  0.674462  0.836927  0.922604  1
  Al  Al18  1  0.162566  0.325631  0.577575  1
  Al  Al19  1  0.325538  0.163073  0.077396  1
  Al  Al20  1  0.163779  0.325040  0.922450  1
  Al  Al21  1  0.836221  0.674960  0.077550  1
  Al  Al22  1  0.437742  0.560606  0.750437  1
  Al  Al23  1  0.562258  0.439394  0.249563  1
  Al  Al24  1  0.122805  0.561726  0.749335  1
  Al  Al25  1  0.877195  0.438274  0.250665  1
  Al  Al26  1  0.436791  0.876279  0.750405  1
  Al  Al27  1  0.563209  0.123721  0.249595  1
  Al  Al28  1  0.000286  0.998392  0.749956  1
  Al  Al29  1  0.999714  0.001608  0.250044  1
  Ru  Ru30  1  0.500000  0.500000  0.000000  1
  Ru  Ru31  1  0.500000  0.500000  0.500000  1
  Ru  Ru32  1  0.500000  0.000000  0.000000  1
  Ru  Ru33  1  0.000000  0.500000  0.500000  1
  Ru  Ru34  1  0.500000  0.000000  0.500000  1
  Ru  Ru35  1  0.000000  0.000000  0.000000  1
  Ru  Ru36  1  0.000000  0.000000  0.500000  1
  Rh  Rh37  1  0.000000  0.500000  0.000000  1
