# generated using pymatgen
data_Tb3YbY2(CoSn6)2
_symmetry_space_group_name_H-M   'P 1'
_cell_length_a   8.49459984
_cell_length_b   8.49460158
_cell_length_c   13.15473300
_cell_angle_alpha   90.01301424
_cell_angle_beta   89.98698656
_cell_angle_gamma   148.54685375
_symmetry_Int_Tables_number   1
_chemical_formula_structural   Tb3YbY2(CoSn6)2
_chemical_formula_sum   'Tb3 Yb1 Y2 Co2 Sn12'
_cell_volume   495.30531658
_cell_formula_units_Z   1
loop_
 _symmetry_equiv_pos_site_id
 _symmetry_equiv_pos_as_xyz
  1  'x, y, z'
loop_
 _atom_site_type_symbol
 _atom_site_label
 _atom_site_symmetry_multiplicity
 _atom_site_fract_x
 _atom_site_fract_y
 _atom_site_fract_z
 _atom_site_occupancy
  Tb  Tb0  1  0.900723  0.099277  0.751787  1
  Tb  Tb1  1  0.100606  0.899394  0.906764  1
  Tb  Tb2  1  0.099685  0.900315  0.249483  1
  Yb  Yb3  1  0.899197  0.100803  0.403703  1
  Y  Y4  1  0.898831  0.101169  0.093792  1
  Y  Y5  1  0.100974  0.899026  0.594216  1
  Co  Co6  1  0.299065  0.700935  0.250109  1
  Co  Co7  1  0.700173  0.299827  0.749526  1
  Sn  Sn8  1  0.757453  0.242547  0.572081  1
  Sn  Sn9  1  0.428462  0.571538  0.576472  1
  Sn  Sn10  1  0.572670  0.427330  0.423712  1
  Sn  Sn11  1  0.734548  0.265452  0.249047  1
  Sn  Sn12  1  0.265081  0.734919  0.750517  1
  Sn  Sn13  1  0.243343  0.756657  0.071567  1
  Sn  Sn14  1  0.244288  0.755712  0.428816  1
  Sn  Sn15  1  0.571696  0.428304  0.075699  1
  Sn  Sn16  1  0.453923  0.546077  0.248850  1
  Sn  Sn17  1  0.546132  0.453868  0.750629  1
  Sn  Sn18  1  0.755876  0.244124  0.928207  1
  Sn  Sn19  1  0.427273  0.572727  0.925024  1
