# generated using pymatgen
data_SrAl6Ag7
_symmetry_space_group_name_H-M   'P 1'
_cell_length_a   9.10391430
_cell_length_b   9.10391458
_cell_length_c   9.10391476
_cell_angle_alpha   120.51892704
_cell_angle_beta   120.72154594
_cell_angle_gamma   88.92912387
_symmetry_Int_Tables_number   1
_chemical_formula_structural   SrAl6Ag7
_chemical_formula_sum   'Sr2 Al12 Ag14'
_cell_volume   528.43900933
_cell_formula_units_Z   2
loop_
 _symmetry_equiv_pos_site_id
 _symmetry_equiv_pos_as_xyz
  1  'x, y, z'
loop_
 _atom_site_type_symbol
 _atom_site_label
 _atom_site_symmetry_multiplicity
 _atom_site_fract_x
 _atom_site_fract_y
 _atom_site_fract_z
 _atom_site_occupancy
  Sr  Sr0  1  0.250000  0.750000  0.500000  1
  Sr  Sr1  1  0.750000  0.250000  0.500000  1
  Al  Al2  1  0.557182  0.554071  0.347812  1
  Al  Al3  1  0.442818  0.445929  0.652188  1
  Al  Al4  1  0.206259  0.209371  0.652188  1
  Al  Al5  1  0.293741  0.945929  0.003111  1
  Al  Al6  1  0.793741  0.790629  0.347812  1
  Al  Al7  1  0.706259  0.054071  0.996889  1
  Al  Al8  1  0.942818  0.290629  0.996889  1
  Al  Al9  1  0.057182  0.709371  0.003111  1
  Al  Al10  1  0.066373  0.290726  0.357100  1
  Al  Al11  1  0.933627  0.709274  0.642900  1
  Al  Al12  1  0.566373  0.209274  0.775646  1
  Al  Al13  1  0.433627  0.790726  0.224354  1
  Ag  Ag14  1  0.312243  0.313217  0.259879  1
  Ag  Ag15  1  0.687757  0.686783  0.740121  1
  Ag  Ag16  1  0.053338  0.052364  0.740121  1
  Ag  Ag17  1  0.446662  0.186783  0.999026  1
  Ag  Ag18  1  0.946662  0.947636  0.259879  1
  Ag  Ag19  1  0.553338  0.813217  0.000974  1
  Ag  Ag20  1  0.187757  0.447636  0.000974  1
  Ag  Ag21  1  0.812243  0.552364  0.999026  1
  Ag  Ag22  1  0.000000  0.000000  0.000000  1
  Ag  Ag23  1  0.500000  0.500000  0.000000  1
  Ag  Ag24  1  0.314343  0.059205  0.373549  1
  Ag  Ag25  1  0.685657  0.940795  0.626451  1
  Ag  Ag26  1  0.814343  0.440795  0.255137  1
  Ag  Ag27  1  0.185657  0.559205  0.744863  1
