# generated using pymatgen
data_Sm2Si4RuRh5
_symmetry_space_group_name_H-M   'P 1'
_cell_length_a   6.70203309
_cell_length_b   6.69981774
_cell_length_c   6.70203400
_cell_angle_alpha   130.32364532
_cell_angle_beta   114.84003342
_cell_angle_gamma   86.15837235
_symmetry_Int_Tables_number   1
_chemical_formula_structural   Sm2Si4RuRh5
_chemical_formula_sum   'Sm2 Si4 Ru1 Rh5'
_cell_volume   198.87395580
_cell_formula_units_Z   1
loop_
 _symmetry_equiv_pos_site_id
 _symmetry_equiv_pos_as_xyz
  1  'x, y, z'
loop_
 _atom_site_type_symbol
 _atom_site_label
 _atom_site_symmetry_multiplicity
 _atom_site_fract_x
 _atom_site_fract_y
 _atom_site_fract_z
 _atom_site_occupancy
  Sm  Sm0  1  0.749476  0.036430  0.285980  1
  Sm  Sm1  1  0.249550  0.963570  0.713046  1
  Si  Si2  1  0.576520  0.380784  0.803578  1
  Si  Si3  1  0.422794  0.619216  0.195736  1
  Si  Si4  1  0.078764  0.279163  0.202353  1
  Si  Si5  1  0.923191  0.720837  0.799602  1
  Ru  Ru6  1  0.219207  0.500000  0.719207  1
  Rh  Rh7  1  0.717648  0.000000  0.717648  1
  Rh  Rh8  1  0.784826  0.500000  0.284826  1
  Rh  Rh9  1  0.282344  0.000000  0.282344  1
  Rh  Rh10  1  0.498846  0.499608  0.496443  1
  Rh  Rh11  1  0.996834  0.500392  0.999238  1
