# generated using pymatgen
data_Yb4Al(TcO4)3
_symmetry_space_group_name_H-M   'P 1'
_cell_length_a   5.31987115
_cell_length_b   5.51633371
_cell_length_c   7.62358353
_cell_angle_alpha   89.93691094
_cell_angle_beta   90.10276316
_cell_angle_gamma   90.01450170
_symmetry_Int_Tables_number   1
_chemical_formula_structural   Yb4Al(TcO4)3
_chemical_formula_sum   'Yb4 Al1 Tc3 O12'
_cell_volume   223.72258663
_cell_formula_units_Z   1
loop_
 _symmetry_equiv_pos_site_id
 _symmetry_equiv_pos_as_xyz
  1  'x, y, z'
loop_
 _atom_site_type_symbol
 _atom_site_label
 _atom_site_symmetry_multiplicity
 _atom_site_fract_x
 _atom_site_fract_y
 _atom_site_fract_z
 _atom_site_occupancy
  Yb  Yb0  1  0.515679  0.560990  0.239990  1
  Yb  Yb1  1  0.987865  0.054068  0.240596  1
  Yb  Yb2  1  0.484321  0.439010  0.760010  1
  Yb  Yb3  1  0.012135  0.945932  0.759404  1
  Al  Al4  1  0.500000  0.000000  0.000000  1
  Tc  Tc5  1  0.000000  0.500000  0.000000  1
  Tc  Tc6  1  0.500000  0.000000  0.500000  1
  Tc  Tc7  1  0.000000  0.500000  0.500000  1
  O  O8  1  0.412991  0.975986  0.243715  1
  O  O9  1  0.089067  0.475888  0.248508  1
  O  O10  1  0.587009  0.024014  0.756285  1
  O  O11  1  0.910933  0.524112  0.751492  1
  O  O12  1  0.789893  0.798683  0.044352  1
  O  O13  1  0.692368  0.301280  0.454094  1
  O  O14  1  0.194978  0.197569  0.547687  1
  O  O15  1  0.300533  0.711690  0.955654  1
  O  O16  1  0.210107  0.201317  0.955648  1
  O  O17  1  0.307632  0.698720  0.545906  1
  O  O18  1  0.805022  0.802431  0.452313  1
  O  O19  1  0.699467  0.288310  0.044346  1
