# generated using pymatgen
data_Y4Tm8Co4BiIr
_symmetry_space_group_name_H-M   'P 1'
_cell_length_a   8.23706921
_cell_length_b   8.23706919
_cell_length_c   8.23706974
_cell_angle_alpha   110.87413119
_cell_angle_beta   110.90531216
_cell_angle_gamma   106.67000356
_symmetry_Int_Tables_number   1
_chemical_formula_structural   Y4Tm8Co4BiIr
_chemical_formula_sum   'Y4 Tm8 Co4 Bi1 Ir1'
_cell_volume   429.45916197
_cell_formula_units_Z   1
loop_
 _symmetry_equiv_pos_site_id
 _symmetry_equiv_pos_as_xyz
  1  'x, y, z'
loop_
 _atom_site_type_symbol
 _atom_site_label
 _atom_site_symmetry_multiplicity
 _atom_site_fract_x
 _atom_site_fract_y
 _atom_site_fract_z
 _atom_site_occupancy
  Y  Y0  1  0.284323  0.184776  0.469098  1
  Y  Y1  1  0.715677  0.815224  0.530902  1
  Y  Y2  1  0.284323  0.815224  0.099546  1
  Y  Y3  1  0.715677  0.184776  0.900454  1
  Tm  Tm4  1  0.621787  0.311776  0.310011  1
  Tm  Tm5  1  0.378213  0.688224  0.689989  1
  Tm  Tm6  1  0.001766  0.311776  0.689989  1
  Tm  Tm7  1  0.998234  0.688224  0.310011  1
  Tm  Tm8  1  0.213012  0.410459  0.197448  1
  Tm  Tm9  1  0.786988  0.589541  0.802552  1
  Tm  Tm10  1  0.213012  0.015565  0.802552  1
  Tm  Tm11  1  0.786988  0.984435  0.197448  1
  Co  Co12  1  0.000000  0.375908  0.375908  1
  Co  Co13  1  0.000000  0.624092  0.624092  1
  Co  Co14  1  0.387925  0.887925  0.500000  1
  Co  Co15  1  0.612075  0.112075  0.500000  1
  Bi  Bi16  1  0.500000  0.500000  0.000000  1
  Ir  Ir17  1  0.000000  0.000000  0.000000  1
