# generated using pymatgen
data_Li4Ca2LaHoSi8
_symmetry_space_group_name_H-M   'P 1'
_cell_length_a   3.82901700
_cell_length_b   7.83407556
_cell_length_c   10.53566717
_cell_angle_alpha   89.88068710
_cell_angle_beta   90.00000000
_cell_angle_gamma   90.00000000
_symmetry_Int_Tables_number   1
_chemical_formula_structural   Li4Ca2LaHoSi8
_chemical_formula_sum   'Li4 Ca2 La1 Ho1 Si8'
_cell_volume   316.03570516
_cell_formula_units_Z   1
loop_
 _symmetry_equiv_pos_site_id
 _symmetry_equiv_pos_as_xyz
  1  'x, y, z'
loop_
 _atom_site_type_symbol
 _atom_site_label
 _atom_site_symmetry_multiplicity
 _atom_site_fract_x
 _atom_site_fract_y
 _atom_site_fract_z
 _atom_site_occupancy
  Li  Li0  1  0.250000  0.997272  0.387904  1
  Li  Li1  1  0.750000  0.002717  0.610223  1
  Li  Li2  1  0.250000  0.497019  0.108909  1
  Li  Li3  1  0.750000  0.508256  0.890905  1
  Ca  Ca4  1  0.750000  0.867041  0.134424  1
  Ca  Ca5  1  0.750000  0.362688  0.364935  1
  La  La6  1  0.250000  0.633767  0.636680  1
  Ho  Ho7  1  0.250000  0.129091  0.866059  1
  Si  Si8  1  0.750000  0.266726  0.060752  1
  Si  Si9  1  0.250000  0.740620  0.933484  1
  Si  Si10  1  0.750000  0.768338  0.429879  1
  Si  Si11  1  0.250000  0.226721  0.573994  1
  Si  Si12  1  0.750000  0.844510  0.823349  1
  Si  Si13  1  0.250000  0.163910  0.169549  1
  Si  Si14  1  0.750000  0.328622  0.684830  1
  Si  Si15  1  0.250000  0.662706  0.324121  1
