# generated using pymatgen
data_HoEr5(TcB7)2
_symmetry_space_group_name_H-M   'P 1'
_cell_length_a   8.02637714
_cell_length_b   8.02637787
_cell_length_c   9.31262500
_cell_angle_alpha   90.00000000
_cell_angle_beta   90.00000000
_cell_angle_gamma   154.67434655
_symmetry_Int_Tables_number   1
_chemical_formula_structural   HoEr5(TcB7)2
_chemical_formula_sum   'Ho1 Er5 Tc2 B14'
_cell_volume   256.63394628
_cell_formula_units_Z   1
loop_
 _symmetry_equiv_pos_site_id
 _symmetry_equiv_pos_as_xyz
  1  'x, y, z'
loop_
 _atom_site_type_symbol
 _atom_site_label
 _atom_site_symmetry_multiplicity
 _atom_site_fract_x
 _atom_site_fract_y
 _atom_site_fract_z
 _atom_site_occupancy
  Ho  Ho0  1  0.242207  0.757793  0.250000  1
  Er  Er1  1  0.895172  0.104828  0.440805  1
  Er  Er2  1  0.104832  0.895168  0.559844  1
  Er  Er3  1  0.895172  0.104828  0.059195  1
  Er  Er4  1  0.104832  0.895168  0.940156  1
  Er  Er5  1  0.758259  0.241741  0.750000  1
  Tc  Tc6  1  0.052558  0.947442  0.250000  1
  Tc  Tc7  1  0.947460  0.052540  0.750000  1
  B  B8  1  0.727244  0.272756  0.467319  1
  B  B9  1  0.272666  0.727334  0.533771  1
  B  B10  1  0.727244  0.272756  0.032681  1
  B  B11  1  0.272666  0.727334  0.966229  1
  B  B12  1  0.631912  0.368088  0.150788  1
  B  B13  1  0.368061  0.631939  0.848971  1
  B  B14  1  0.631912  0.368088  0.349212  1
  B  B15  1  0.368061  0.631939  0.651029  1
  B  B16  1  0.520313  0.479687  0.095303  1
  B  B17  1  0.479634  0.520366  0.904654  1
  B  B18  1  0.520313  0.479687  0.404697  1
  B  B19  1  0.479634  0.520366  0.595346  1
  B  B20  1  0.455797  0.544203  0.250000  1
  B  B21  1  0.544053  0.455947  0.750000  1
