# generated using pymatgen
data_TbLu2In3RhAu2
_symmetry_space_group_name_H-M   'P 1'
_cell_length_a   7.68759200
_cell_length_b   7.73962546
_cell_length_c   3.84248500
_cell_angle_alpha   90.00000000
_cell_angle_beta   90.00000000
_cell_angle_gamma   119.77783616
_symmetry_Int_Tables_number   1
_chemical_formula_structural   TbLu2In3RhAu2
_chemical_formula_sum   'Tb1 Lu2 In3 Rh1 Au2'
_cell_volume   198.43623512
_cell_formula_units_Z   1
loop_
 _symmetry_equiv_pos_site_id
 _symmetry_equiv_pos_as_xyz
  1  'x, y, z'
loop_
 _atom_site_type_symbol
 _atom_site_label
 _atom_site_symmetry_multiplicity
 _atom_site_fract_x
 _atom_site_fract_y
 _atom_site_fract_z
 _atom_site_occupancy
  Tb  Tb0  1  0.399597  0.000000  0.500000  1
  Lu  Lu1  1  0.999748  0.397331  0.500000  1
  Lu  Lu2  1  0.602417  0.602669  0.500000  1
  In  In3  1  0.743355  0.000000  0.000000  1
  In  In4  1  0.998142  0.742249  0.000000  1
  In  In5  1  0.255893  0.257751  0.000000  1
  Rh  Rh6  1  0.998201  0.000000  0.500000  1
  Au  Au7  1  0.332378  0.662110  0.000000  1
  Au  Au8  1  0.670269  0.337890  0.000000  1
