# generated using pymatgen
data_Hf2NbGa3
_symmetry_space_group_name_H-M   'P 1'
_cell_length_a   5.52379100
_cell_length_b   8.51550800
_cell_length_c   9.15327000
_cell_angle_alpha   90.00000000
_cell_angle_beta   90.00000000
_cell_angle_gamma   90.00000000
_symmetry_Int_Tables_number   1
_chemical_formula_structural   Hf2NbGa3
_chemical_formula_sum   'Hf8 Nb4 Ga12'
_cell_volume   430.55047491
_cell_formula_units_Z   4
loop_
 _symmetry_equiv_pos_site_id
 _symmetry_equiv_pos_as_xyz
  1  'x, y, z'
loop_
 _atom_site_type_symbol
 _atom_site_label
 _atom_site_symmetry_multiplicity
 _atom_site_fract_x
 _atom_site_fract_y
 _atom_site_fract_z
 _atom_site_occupancy
  Hf  Hf0  1  0.750000  0.469539  0.620831  1
  Hf  Hf1  1  0.250000  0.530461  0.379169  1
  Hf  Hf2  1  0.750000  0.969539  0.379169  1
  Hf  Hf3  1  0.250000  0.030461  0.620831  1
  Hf  Hf4  1  0.750000  0.366981  0.183248  1
  Hf  Hf5  1  0.250000  0.633019  0.816752  1
  Hf  Hf6  1  0.750000  0.866981  0.816752  1
  Hf  Hf7  1  0.250000  0.133019  0.183248  1
  Nb  Nb8  1  0.000000  0.750000  0.111049  1
  Nb  Nb9  1  0.500000  0.250000  0.888951  1
  Nb  Nb10  1  0.000000  0.250000  0.888951  1
  Nb  Nb11  1  0.500000  0.750000  0.111049  1
  Ga  Ga12  1  0.000000  0.750000  0.570920  1
  Ga  Ga13  1  0.500000  0.250000  0.429080  1
  Ga  Ga14  1  0.000000  0.250000  0.429080  1
  Ga  Ga15  1  0.500000  0.750000  0.570920  1
  Ga  Ga16  1  0.750000  0.044818  0.080480  1
  Ga  Ga17  1  0.250000  0.955182  0.919520  1
  Ga  Ga18  1  0.750000  0.544818  0.919520  1
  Ga  Ga19  1  0.250000  0.455182  0.080480  1
  Ga  Ga20  1  0.750000  0.132452  0.652405  1
  Ga  Ga21  1  0.250000  0.867548  0.347595  1
  Ga  Ga22  1  0.750000  0.632452  0.347595  1
  Ga  Ga23  1  0.250000  0.367548  0.652405  1
