# generated using pymatgen
data_NaLuNbH9
_symmetry_space_group_name_H-M   'P 1'
_cell_length_a   8.37646800
_cell_length_b   8.37646706
_cell_length_c   4.97919800
_cell_angle_alpha   90.00000000
_cell_angle_beta   90.00000000
_cell_angle_gamma   120.00000370
_symmetry_Int_Tables_number   1
_chemical_formula_structural   NaLuNbH9
_chemical_formula_sum   'Na3 Lu3 Nb3 H27'
_cell_volume   302.56022252
_cell_formula_units_Z   3
loop_
 _symmetry_equiv_pos_site_id
 _symmetry_equiv_pos_as_xyz
  1  'x, y, z'
loop_
 _atom_site_type_symbol
 _atom_site_label
 _atom_site_symmetry_multiplicity
 _atom_site_fract_x
 _atom_site_fract_y
 _atom_site_fract_z
 _atom_site_occupancy
  Na  Na0  1  0.000000  0.598619  0.000000  1
  Na  Na1  1  0.401381  0.401381  0.000000  1
  Na  Na2  1  0.598619  0.000000  0.000000  1
  Lu  Lu3  1  0.000000  0.272620  0.500000  1
  Lu  Lu4  1  0.727380  0.727380  0.500000  1
  Lu  Lu5  1  0.272620  0.000000  0.500000  1
  Nb  Nb6  1  0.666667  0.333333  0.500000  1
  Nb  Nb7  1  0.333333  0.666667  0.500000  1
  Nb  Nb8  1  0.000000  0.000000  0.000000  1
  H  H9  1  0.832535  0.340698  0.755621  1
  H  H10  1  0.659302  0.491835  0.755621  1
  H  H11  1  0.508165  0.167465  0.755621  1
  H  H12  1  0.167465  0.508165  0.244379  1
  H  H13  1  0.508165  0.167465  0.244379  1
  H  H14  1  0.832535  0.340698  0.244379  1
  H  H15  1  0.659302  0.491835  0.244379  1
  H  H16  1  0.340698  0.832535  0.755621  1
  H  H17  1  0.491835  0.659302  0.755621  1
  H  H18  1  0.218771  0.000000  0.000000  1
  H  H19  1  0.781229  0.781229  0.000000  1
  H  H20  1  0.000000  0.218771  0.000000  1
  H  H21  1  0.844728  0.000000  0.268260  1
  H  H22  1  0.155272  0.155272  0.731740  1
  H  H23  1  0.000000  0.844728  0.731740  1
  H  H24  1  0.000000  0.844728  0.268260  1
  H  H25  1  0.155272  0.155272  0.268260  1
  H  H26  1  0.844728  0.000000  0.731740  1
  H  H27  1  0.133035  0.696241  0.500000  1
  H  H28  1  0.563204  0.866965  0.500000  1
  H  H29  1  0.303759  0.436796  0.500000  1
  H  H30  1  0.436796  0.303759  0.500000  1
  H  H31  1  0.866965  0.563204  0.500000  1
  H  H32  1  0.696241  0.133035  0.500000  1
  H  H33  1  0.167465  0.508165  0.755621  1
  H  H34  1  0.340698  0.832535  0.244379  1
  H  H35  1  0.491835  0.659302  0.244379  1
