# generated using pymatgen
data_Ba4MnZnO6
_symmetry_space_group_name_H-M   'P 1'
_cell_length_a   6.53859343
_cell_length_b   6.55929848
_cell_length_c   12.78094542
_cell_angle_alpha   88.42004570
_cell_angle_beta   88.46589009
_cell_angle_gamma   125.42855636
_symmetry_Int_Tables_number   1
_chemical_formula_structural   Ba4MnZnO6
_chemical_formula_sum   'Ba8 Mn2 Zn2 O12'
_cell_volume   445.87409353
_cell_formula_units_Z   2
loop_
 _symmetry_equiv_pos_site_id
 _symmetry_equiv_pos_as_xyz
  1  'x, y, z'
loop_
 _atom_site_type_symbol
 _atom_site_label
 _atom_site_symmetry_multiplicity
 _atom_site_fract_x
 _atom_site_fract_y
 _atom_site_fract_z
 _atom_site_occupancy
  Ba  Ba0  1  0.442611  0.027654  0.151024  1
  Ba  Ba1  1  0.030525  0.441045  0.651951  1
  Ba  Ba2  1  0.557389  0.972346  0.848976  1
  Ba  Ba3  1  0.969475  0.558955  0.348049  1
  Ba  Ba4  1  0.865371  0.658175  0.926222  1
  Ba  Ba5  1  0.343080  0.132250  0.576248  1
  Ba  Ba6  1  0.134629  0.341825  0.073778  1
  Ba  Ba7  1  0.656920  0.867750  0.423752  1
  Mn  Mn8  1  0.723499  0.729669  0.664741  1
  Mn  Mn9  1  0.276501  0.270331  0.335259  1
  Zn  Zn10  1  0.268613  0.273178  0.836902  1
  Zn  Zn11  1  0.731387  0.726822  0.163098  1
  O  O12  1  0.322013  0.125642  0.965853  1
  O  O13  1  0.877755  0.677817  0.533645  1
  O  O14  1  0.677987  0.874358  0.034147  1
  O  O15  1  0.122245  0.322183  0.466355  1
  O  O16  1  0.995576  0.009940  0.751498  1
  O  O17  1  0.004424  0.990060  0.248502  1
  O  O18  1  0.594671  0.399432  0.752354  1
  O  O19  1  0.497993  0.146780  0.368206  1
  O  O20  1  0.152584  0.493429  0.868550  1
  O  O21  1  0.502007  0.853220  0.631794  1
  O  O22  1  0.847416  0.506571  0.131450  1
  O  O23  1  0.405329  0.600568  0.247646  1
