# generated using pymatgen
data_Ca4MgRu2RhO12
_symmetry_space_group_name_H-M   'P 1'
_cell_length_a   5.40391960
_cell_length_b   5.61636744
_cell_length_c   7.75227920
_cell_angle_alpha   89.82409941
_cell_angle_beta   89.83535606
_cell_angle_gamma   89.88749334
_symmetry_Int_Tables_number   1
_chemical_formula_structural   Ca4MgRu2RhO12
_chemical_formula_sum   'Ca4 Mg1 Ru2 Rh1 O12'
_cell_volume   235.28222992
_cell_formula_units_Z   1
loop_
 _symmetry_equiv_pos_site_id
 _symmetry_equiv_pos_as_xyz
  1  'x, y, z'
loop_
 _atom_site_type_symbol
 _atom_site_label
 _atom_site_symmetry_multiplicity
 _atom_site_fract_x
 _atom_site_fract_y
 _atom_site_fract_z
 _atom_site_occupancy
  Ca  Ca0  1  0.519370  0.562188  0.258431  1
  Ca  Ca1  1  0.987960  0.058254  0.255440  1
  Ca  Ca2  1  0.480630  0.437812  0.741569  1
  Ca  Ca3  1  0.012040  0.941746  0.744560  1
  Mg  Mg4  1  0.500000  0.000000  0.500000  1
  Ru  Ru5  1  0.500000  0.000000  0.000000  1
  Ru  Ru6  1  0.000000  0.500000  0.500000  1
  Rh  Rh7  1  0.000000  0.500000  0.000000  1
  O  O8  1  0.409165  0.972702  0.241380  1
  O  O9  1  0.103282  0.466758  0.252313  1
  O  O10  1  0.590835  0.027298  0.758620  1
  O  O11  1  0.896718  0.533242  0.747687  1
  O  O12  1  0.801715  0.804430  0.051789  1
  O  O13  1  0.709191  0.304871  0.455912  1
  O  O14  1  0.191256  0.212313  0.548575  1
  O  O15  1  0.307535  0.704455  0.944035  1
  O  O16  1  0.198285  0.195570  0.948211  1
  O  O17  1  0.290809  0.695129  0.544088  1
  O  O18  1  0.808744  0.787687  0.451425  1
  O  O19  1  0.692465  0.295545  0.055965  1
