# generated using pymatgen
data_Tb4Ga18RuPt4Rh
_symmetry_space_group_name_H-M   'P 1'
_cell_length_a   7.65900162
_cell_length_b   7.65900031
_cell_length_c   9.50511239
_cell_angle_alpha   89.97167223
_cell_angle_beta   89.97167692
_cell_angle_gamma   119.80935044
_symmetry_Int_Tables_number   1
_chemical_formula_structural   Tb4Ga18RuPt4Rh
_chemical_formula_sum   'Tb4 Ga18 Ru1 Pt4 Rh1'
_cell_volume   483.79686757
_cell_formula_units_Z   1
loop_
 _symmetry_equiv_pos_site_id
 _symmetry_equiv_pos_as_xyz
  1  'x, y, z'
loop_
 _atom_site_type_symbol
 _atom_site_label
 _atom_site_symmetry_multiplicity
 _atom_site_fract_x
 _atom_site_fract_y
 _atom_site_fract_z
 _atom_site_occupancy
  Tb  Tb0  1  0.997221  0.667610  0.250665  1
  Tb  Tb1  1  0.002779  0.332390  0.749335  1
  Tb  Tb2  1  0.667610  0.997221  0.250665  1
  Tb  Tb3  1  0.332390  0.002779  0.749335  1
  Ga  Ga4  1  0.122884  0.122884  0.248890  1
  Ga  Ga5  1  0.877116  0.877116  0.751110  1
  Ga  Ga6  1  0.998663  0.328600  0.079386  1
  Ga  Ga7  1  0.001337  0.671400  0.920614  1
  Ga  Ga8  1  0.000613  0.669459  0.581563  1
  Ga  Ga9  1  0.330541  0.999387  0.418437  1
  Ga  Ga10  1  0.999387  0.330541  0.418437  1
  Ga  Ga11  1  0.669459  0.000613  0.581563  1
  Ga  Ga12  1  0.671400  0.001337  0.920614  1
  Ga  Ga13  1  0.328600  0.998663  0.079386  1
  Ga  Ga14  1  0.327625  0.327625  0.567720  1
  Ga  Ga15  1  0.672375  0.672375  0.432280  1
  Ga  Ga16  1  0.675173  0.675173  0.066482  1
  Ga  Ga17  1  0.324827  0.324827  0.933518  1
  Ga  Ga18  1  0.341566  0.543418  0.249719  1
  Ga  Ga19  1  0.658434  0.456582  0.750281  1
  Ga  Ga20  1  0.543418  0.341566  0.249719  1
  Ga  Ga21  1  0.456582  0.658434  0.750281  1
  Ru  Ru22  1  0.000000  0.000000  0.000000  1
  Pt  Pt23  1  0.671636  0.328364  0.000000  1
  Pt  Pt24  1  0.328364  0.671636  0.000000  1
  Pt  Pt25  1  0.328267  0.671733  0.500000  1
  Pt  Pt26  1  0.671733  0.328267  0.500000  1
  Rh  Rh27  1  0.000000  0.000000  0.500000  1
