# generated using pymatgen
data_Gd2RhI
_symmetry_space_group_name_H-M   'P 1'
_cell_length_a   4.09448500
_cell_length_b   4.09448523
_cell_length_c   16.04477300
_cell_angle_alpha   90.00000000
_cell_angle_beta   90.00000000
_cell_angle_gamma   120.00000624
_symmetry_Int_Tables_number   1
_chemical_formula_structural   Gd2RhI
_chemical_formula_sum   'Gd4 Rh2 I2'
_cell_volume   232.95003206
_cell_formula_units_Z   2
loop_
 _symmetry_equiv_pos_site_id
 _symmetry_equiv_pos_as_xyz
  1  'x, y, z'
loop_
 _atom_site_type_symbol
 _atom_site_label
 _atom_site_symmetry_multiplicity
 _atom_site_fract_x
 _atom_site_fract_y
 _atom_site_fract_z
 _atom_site_occupancy
  Gd  Gd0  1  0.333333  0.666667  0.092524  1
  Gd  Gd1  1  0.666667  0.333333  0.592524  1
  Gd  Gd2  1  0.666667  0.333333  0.907476  1
  Gd  Gd3  1  0.333333  0.666667  0.407476  1
  Rh  Rh4  1  0.000000  0.000000  0.000000  1
  Rh  Rh5  1  0.000000  0.000000  0.500000  1
  I  I6  1  0.666667  0.333333  0.250000  1
  I  I7  1  0.333333  0.666667  0.750000  1
