# generated using pymatgen
data_LaNp5(Sb4Au3)2
_symmetry_space_group_name_H-M   'P 1'
_cell_length_a   8.72780283
_cell_length_b   8.72780205
_cell_length_c   8.72780278
_cell_angle_alpha   109.32949222
_cell_angle_beta   109.32948742
_cell_angle_gamma   109.75506086
_symmetry_Int_Tables_number   1
_chemical_formula_structural   LaNp5(Sb4Au3)2
_chemical_formula_sum   'La1 Np5 Sb8 Au6'
_cell_volume   511.78178073
_cell_formula_units_Z   1
loop_
 _symmetry_equiv_pos_site_id
 _symmetry_equiv_pos_as_xyz
  1  'x, y, z'
loop_
 _atom_site_type_symbol
 _atom_site_label
 _atom_site_symmetry_multiplicity
 _atom_site_fract_x
 _atom_site_fract_y
 _atom_site_fract_z
 _atom_site_occupancy
  La  La0  1  0.375000  0.625000  0.750000  1
  Np  Np1  1  0.875215  0.250190  0.125410  1
  Np  Np2  1  0.624780  0.749805  0.374590  1
  Np  Np3  1  0.250195  0.124785  0.874975  1
  Np  Np4  1  0.749810  0.375220  0.625025  1
  Np  Np5  1  0.125000  0.875000  0.250000  1
  Sb  Sb6  1  0.679142  0.496562  0.999587  1
  Sb  Sb7  1  0.501771  0.002546  0.676654  1
  Sb  Sb8  1  0.996975  0.679555  0.500413  1
  Sb  Sb9  1  0.825892  0.825117  0.823346  1
  Sb  Sb10  1  0.503438  0.003025  0.182580  1
  Sb  Sb11  1  0.174883  0.498229  0.000775  1
  Sb  Sb12  1  0.997454  0.174108  0.499225  1
  Sb  Sb13  1  0.320445  0.320858  0.317420  1
  Au  Au14  1  0.371687  0.243682  0.619024  1
  Au  Au15  1  0.124658  0.752663  0.880976  1
  Au  Au16  1  0.247337  0.628313  0.371995  1
  Au  Au17  1  0.756318  0.875342  0.128005  1
  Au  Au18  1  0.625000  0.375000  0.250000  1
  Au  Au19  1  0.875000  0.125000  0.750000  1
