# generated using pymatgen
data_Ho20Si15Pd
_symmetry_space_group_name_H-M   'P 1'
_cell_length_a   7.40371054
_cell_length_b   14.52665735
_cell_length_c   7.65066678
_cell_angle_alpha   90.14271579
_cell_angle_beta   89.84739681
_cell_angle_gamma   89.73406757
_symmetry_Int_Tables_number   1
_chemical_formula_structural   Ho20Si15Pd
_chemical_formula_sum   'Ho20 Si15 Pd1'
_cell_volume   822.82377486
_cell_formula_units_Z   1
loop_
 _symmetry_equiv_pos_site_id
 _symmetry_equiv_pos_as_xyz
  1  'x, y, z'
loop_
 _atom_site_type_symbol
 _atom_site_label
 _atom_site_symmetry_multiplicity
 _atom_site_fract_x
 _atom_site_fract_y
 _atom_site_fract_z
 _atom_site_occupancy
  Ho  Ho0  1  0.650312  0.749320  0.011310  1
  Ho  Ho1  1  0.849841  0.251846  0.510731  1
  Ho  Ho2  1  0.153106  0.746195  0.489030  1
  Ho  Ho3  1  0.350755  0.250609  0.991155  1
  Ho  Ho4  1  0.180501  0.379149  0.328713  1
  Ho  Ho5  1  0.321326  0.620909  0.818256  1
  Ho  Ho6  1  0.681292  0.123509  0.178188  1
  Ho  Ho7  1  0.820363  0.877751  0.680006  1
  Ho  Ho8  1  0.821220  0.622296  0.675879  1
  Ho  Ho9  1  0.677976  0.376539  0.178763  1
  Ho  Ho10  1  0.318915  0.877068  0.820301  1
  Ho  Ho11  1  0.179888  0.122838  0.320115  1
  Ho  Ho12  1  0.024905  0.400897  0.819350  1
  Ho  Ho13  1  0.474443  0.599943  0.319907  1
  Ho  Ho14  1  0.526963  0.098119  0.682430  1
  Ho  Ho15  1  0.972435  0.901305  0.182601  1
  Ho  Ho16  1  0.972654  0.599038  0.181003  1
  Ho  Ho17  1  0.525936  0.400828  0.681731  1
  Ho  Ho18  1  0.472302  0.901641  0.317586  1
  Ho  Ho19  1  0.028442  0.098948  0.817409  1
  Si  Si20  1  0.023375  0.751432  0.895377  1
  Si  Si21  1  0.476070  0.248570  0.396010  1
  Si  Si22  1  0.526291  0.752160  0.604596  1
  Si  Si23  1  0.978491  0.250164  0.104967  1
  Si  Si24  1  0.769019  0.752679  0.372232  1
  Si  Si25  1  0.731932  0.249146  0.871808  1
  Si  Si26  1  0.268713  0.750998  0.126210  1
  Si  Si27  1  0.233043  0.248423  0.629040  1
  Si  Si28  1  0.351272  0.458636  0.028397  1
  Si  Si29  1  0.647238  0.960144  0.971170  1
  Si  Si30  1  0.851626  0.039831  0.469990  1
  Si  Si31  1  0.843134  0.458331  0.471234  1
  Si  Si32  1  0.648491  0.539559  0.970036  1
  Si  Si33  1  0.353525  0.040228  0.028859  1
  Si  Si34  1  0.146581  0.960842  0.529395  1
  Pd  Pd35  1  0.147629  0.540109  0.526218  1
