# generated using pymatgen
data_RbGd5Tm(CI6)2
_symmetry_space_group_name_H-M   'P 1'
_cell_length_a   9.52092499
_cell_length_b   9.59435212
_cell_length_c   9.95173525
_cell_angle_alpha   72.02262360
_cell_angle_beta   71.00248781
_cell_angle_gamma   72.80737758
_symmetry_Int_Tables_number   1
_chemical_formula_structural   RbGd5Tm(CI6)2
_chemical_formula_sum   'Rb1 Gd5 Tm1 C2 I12'
_cell_volume   798.11189840
_cell_formula_units_Z   1
loop_
 _symmetry_equiv_pos_site_id
 _symmetry_equiv_pos_as_xyz
  1  'x, y, z'
loop_
 _atom_site_type_symbol
 _atom_site_label
 _atom_site_symmetry_multiplicity
 _atom_site_fract_x
 _atom_site_fract_y
 _atom_site_fract_z
 _atom_site_occupancy
  Rb  Rb0  1  0.000822  0.499033  0.999825  1
  Gd  Gd1  1  0.776975  0.030522  0.405616  1
  Gd  Gd2  1  0.591719  0.733357  0.475829  1
  Gd  Gd3  1  0.411850  0.263769  0.524948  1
  Gd  Gd4  1  0.230824  0.967002  0.588186  1
  Gd  Gd5  1  0.520816  0.890547  0.808598  1
  Tm  Tm6  1  0.474105  0.107980  0.201707  1
  C  C7  1  0.489583  0.029452  0.429441  1
  C  C8  1  0.500611  0.977135  0.576122  1
  I  I9  1  0.790764  0.162141  0.072834  1
  I  I10  1  0.583085  0.794646  0.139861  1
  I  I11  1  0.352898  0.427313  0.218064  1
  I  I12  1  0.143218  0.073182  0.286051  1
  I  I13  1  0.933712  0.717313  0.348685  1
  I  I14  1  0.717606  0.368175  0.426478  1
  I  I15  1  0.281787  0.634022  0.569749  1
  I  I16  1  0.071893  0.281010  0.647598  1
  I  I17  1  0.864777  0.927147  0.708851  1
  I  I18  1  0.650796  0.566159  0.783171  1
  I  I19  1  0.415276  0.213726  0.865195  1
  I  I20  1  0.196890  0.836367  0.923189  1
