# generated using pymatgen
data_Y12AlCo4Pt
_symmetry_space_group_name_H-M   'P 1'
_cell_length_a   8.31516037
_cell_length_b   8.31515988
_cell_length_c   8.31516053
_cell_angle_alpha   106.91193428
_cell_angle_beta   110.50635070
_cell_angle_gamma   111.02574124
_symmetry_Int_Tables_number   1
_chemical_formula_structural   Y12AlCo4Pt
_chemical_formula_sum   'Y12 Al1 Co4 Pt1'
_cell_volume   441.91006302
_cell_formula_units_Z   1
loop_
 _symmetry_equiv_pos_site_id
 _symmetry_equiv_pos_as_xyz
  1  'x, y, z'
loop_
 _atom_site_type_symbol
 _atom_site_label
 _atom_site_symmetry_multiplicity
 _atom_site_fract_x
 _atom_site_fract_y
 _atom_site_fract_z
 _atom_site_occupancy
  Y  Y0  1  0.697485  0.281042  0.978527  1
  Y  Y1  1  0.302515  0.718958  0.021473  1
  Y  Y2  1  0.697485  0.718958  0.416443  1
  Y  Y3  1  0.302515  0.281042  0.583557  1
  Y  Y4  1  0.802496  0.119024  0.316528  1
  Y  Y5  1  0.802496  0.485968  0.683472  1
  Y  Y6  1  0.197504  0.880976  0.683472  1
  Y  Y7  1  0.197504  0.514032  0.316528  1
  Y  Y8  1  0.603888  0.790051  0.813837  1
  Y  Y9  1  0.976214  0.790051  0.186163  1
  Y  Y10  1  0.023786  0.209949  0.813837  1
  Y  Y11  1  0.396112  0.209949  0.186163  1
  Al  Al12  1  0.500000  0.000000  0.500000  1
  Co  Co13  1  0.879617  0.500000  0.379617  1
  Co  Co14  1  0.120383  0.500000  0.620383  1
  Co  Co15  1  0.000000  0.111312  0.111312  1
  Co  Co16  1  0.000000  0.888688  0.888688  1
  Pt  Pt17  1  0.500000  0.500000  0.000000  1
