# generated using pymatgen
data_Ho2Tm3Co11(P3Ru2)4
_symmetry_space_group_name_H-M   'P 1'
_cell_length_a   12.19481301
_cell_length_b   12.21721272
_cell_length_c   3.73051700
_cell_angle_alpha   90.00000000
_cell_angle_beta   90.00000000
_cell_angle_gamma   119.92437050
_symmetry_Int_Tables_number   1
_chemical_formula_structural   Ho2Tm3Co11(P3Ru2)4
_chemical_formula_sum   'Ho2 Tm3 Co11 P12 Ru8'
_cell_volume   481.70084124
_cell_formula_units_Z   1
loop_
 _symmetry_equiv_pos_site_id
 _symmetry_equiv_pos_as_xyz
  1  'x, y, z'
loop_
 _atom_site_type_symbol
 _atom_site_label
 _atom_site_symmetry_multiplicity
 _atom_site_fract_x
 _atom_site_fract_y
 _atom_site_fract_z
 _atom_site_occupancy
  Ho  Ho0  1  0.667109  0.333142  0.000000  1
  Ho  Ho1  1  0.328811  0.663128  0.000000  1
  Tm  Tm2  1  0.819997  0.819499  0.500000  1
  Tm  Tm3  1  0.179618  0.000397  0.500000  1
  Tm  Tm4  1  0.999864  0.180475  0.500000  1
  Co  Co5  1  0.128677  0.480800  0.500000  1
  Co  Co6  1  0.804650  0.172277  0.000000  1
  Co  Co7  1  0.829588  0.631000  0.000000  1
  Co  Co8  1  0.366761  0.196555  0.000000  1
  Co  Co9  1  0.172164  0.803796  0.000000  1
  Co  Co10  1  0.631937  0.827780  0.000000  1
  Co  Co11  1  0.193901  0.371281  0.000000  1
  Co  Co12  1  0.278565  0.281369  0.500000  1
  Co  Co13  1  0.719708  0.000020  0.500000  1
  Co  Co14  1  0.001048  0.718738  0.500000  1
  Co  Co15  1  0.000115  0.999542  0.000000  1
  P  P16  1  0.685774  0.161388  0.500000  1
  P  P17  1  0.841353  0.523836  0.500000  1
  P  P18  1  0.475183  0.317024  0.500000  1
  P  P19  1  0.159336  0.679864  0.500000  1
  P  P20  1  0.523344  0.839964  0.500000  1
  P  P21  1  0.310262  0.475956  0.500000  1
  P  P22  1  0.176062  0.178021  0.000000  1
  P  P23  1  0.822955  0.999668  0.000000  1
  P  P24  1  0.000320  0.822403  0.000000  1
  P  P25  1  0.638442  0.639106  0.000000  1
  P  P26  1  0.360146  0.999870  0.000000  1
  P  P27  1  0.004098  0.361737  0.000000  1
  Ru  Ru28  1  0.877363  0.353695  0.500000  1
  Ru  Ru29  1  0.648758  0.520243  0.500000  1
  Ru  Ru30  1  0.480578  0.129430  0.500000  1
  Ru  Ru31  1  0.350747  0.870009  0.500000  1
  Ru  Ru32  1  0.516142  0.647072  0.500000  1
  Ru  Ru33  1  0.444396  0.445460  0.000000  1
  Ru  Ru34  1  0.554676  0.000208  0.000000  1
  Ru  Ru35  1  0.007550  0.555247  0.000000  1
