# generated using pymatgen
data_Zr4Al2Ir3Rh7
_symmetry_space_group_name_H-M   'P 1'
_cell_length_a   5.58375859
_cell_length_b   5.58375923
_cell_length_c   8.19506000
_cell_angle_alpha   89.99883400
_cell_angle_beta   89.99882733
_cell_angle_gamma   97.51968204
_symmetry_Int_Tables_number   1
_chemical_formula_structural   Zr4Al2Ir3Rh7
_chemical_formula_sum   'Zr4 Al2 Ir3 Rh7'
_cell_volume   253.31117776
_cell_formula_units_Z   1
loop_
 _symmetry_equiv_pos_site_id
 _symmetry_equiv_pos_as_xyz
  1  'x, y, z'
loop_
 _atom_site_type_symbol
 _atom_site_label
 _atom_site_symmetry_multiplicity
 _atom_site_fract_x
 _atom_site_fract_y
 _atom_site_fract_z
 _atom_site_occupancy
  Zr  Zr0  1  0.779208  0.220843  0.499992  1
  Zr  Zr1  1  0.221739  0.778806  0.000005  1
  Zr  Zr2  1  0.220843  0.779208  0.499992  1
  Zr  Zr3  1  0.778806  0.221739  0.000005  1
  Al  Al4  1  0.500032  0.500032  0.749768  1
  Al  Al5  1  0.499456  0.499456  0.250200  1
  Ir  Ir6  1  0.717549  0.717549  0.000142  1
  Ir  Ir7  1  0.000419  0.000419  0.249710  1
  Ir  Ir8  1  0.000255  0.000255  0.750285  1
  Rh  Rh9  1  0.716149  0.716149  0.499884  1
  Rh  Rh10  1  0.283650  0.283650  0.999835  1
  Rh  Rh11  1  0.283173  0.283173  0.500163  1
  Rh  Rh12  1  0.499815  0.999652  0.749752  1
  Rh  Rh13  1  0.499773  0.999481  0.250257  1
  Rh  Rh14  1  0.999652  0.499815  0.749752  1
  Rh  Rh15  1  0.999481  0.499773  0.250257  1
