# generated using pymatgen
data_RbCo2(PO4)2
_symmetry_space_group_name_H-M   'P 1'
_cell_length_a   5.54289293
_cell_length_b   5.46860689
_cell_length_c   8.33632842
_cell_angle_alpha   88.52479131
_cell_angle_beta   89.66358298
_cell_angle_gamma   120.22358741
_symmetry_Int_Tables_number   1
_chemical_formula_structural   RbCo2(PO4)2
_chemical_formula_sum   'Rb1 Co2 P2 O8'
_cell_volume   218.21699081
_cell_formula_units_Z   1
loop_
 _symmetry_equiv_pos_site_id
 _symmetry_equiv_pos_as_xyz
  1  'x, y, z'
loop_
 _atom_site_type_symbol
 _atom_site_label
 _atom_site_symmetry_multiplicity
 _atom_site_fract_x
 _atom_site_fract_y
 _atom_site_fract_z
 _atom_site_occupancy
  Rb  Rb0  1  0.000000  0.000000  0.000000  1
  Co  Co1  1  0.337570  0.675525  0.694225  1
  Co  Co2  1  0.662430  0.324475  0.305775  1
  P  P3  1  0.331403  0.660893  0.285658  1
  P  P4  1  0.668597  0.339107  0.714342  1
  O  O5  1  0.537730  0.963628  0.214943  1
  O  O6  1  0.035755  0.572786  0.223818  1
  O  O7  1  0.420401  0.453466  0.222042  1
  O  O8  1  0.462270  0.036372  0.785057  1
  O  O9  1  0.964245  0.427214  0.776182  1
  O  O10  1  0.579599  0.546534  0.777958  1
  O  O11  1  0.330941  0.658971  0.469780  1
  O  O12  1  0.669059  0.341029  0.530220  1
