# generated using pymatgen
data_Tb2Lu3SiSn3
_symmetry_space_group_name_H-M   'P 1'
_cell_length_a   7.70608100
_cell_length_b   8.00066500
_cell_length_c   15.14162700
_cell_angle_alpha   90.00000000
_cell_angle_beta   90.00000000
_cell_angle_gamma   90.00000000
_symmetry_Int_Tables_number   1
_chemical_formula_structural   Tb2Lu3SiSn3
_chemical_formula_sum   'Tb8 Lu12 Si4 Sn12'
_cell_volume   933.53842700
_cell_formula_units_Z   4
loop_
 _symmetry_equiv_pos_site_id
 _symmetry_equiv_pos_as_xyz
  1  'x, y, z'
loop_
 _atom_site_type_symbol
 _atom_site_label
 _atom_site_symmetry_multiplicity
 _atom_site_fract_x
 _atom_site_fract_y
 _atom_site_fract_z
 _atom_site_occupancy
  Tb  Tb0  1  0.515748  0.327949  0.900646  1
  Tb  Tb1  1  0.015748  0.172051  0.599354  1
  Tb  Tb2  1  0.484252  0.672051  0.400646  1
  Tb  Tb3  1  0.984252  0.827949  0.099354  1
  Tb  Tb4  1  0.484252  0.672051  0.099354  1
  Tb  Tb5  1  0.984252  0.827949  0.400646  1
  Tb  Tb6  1  0.515748  0.327949  0.599354  1
  Tb  Tb7  1  0.015748  0.172051  0.900646  1
  Lu  Lu8  1  0.356980  0.826870  0.869021  1
  Lu  Lu9  1  0.856980  0.673130  0.630979  1
  Lu  Lu10  1  0.643020  0.173130  0.369021  1
  Lu  Lu11  1  0.143020  0.326870  0.130979  1
  Lu  Lu12  1  0.643020  0.173130  0.130979  1
  Lu  Lu13  1  0.143020  0.326870  0.369021  1
  Lu  Lu14  1  0.356980  0.826870  0.630979  1
  Lu  Lu15  1  0.856980  0.673130  0.869021  1
  Lu  Lu16  1  0.196619  0.508483  0.750000  1
  Lu  Lu17  1  0.696619  0.991517  0.750000  1
  Lu  Lu18  1  0.803381  0.491517  0.250000  1
  Lu  Lu19  1  0.303381  0.008483  0.250000  1
  Si  Si20  1  0.555570  0.627031  0.750000  1
  Si  Si21  1  0.055570  0.872969  0.750000  1
  Si  Si22  1  0.444430  0.372969  0.250000  1
  Si  Si23  1  0.944430  0.127031  0.250000  1
  Sn  Sn24  1  0.309494  0.038785  0.038457  1
  Sn  Sn25  1  0.809494  0.461215  0.461543  1
  Sn  Sn26  1  0.690506  0.961215  0.538457  1
  Sn  Sn27  1  0.190506  0.538785  0.961543  1
  Sn  Sn28  1  0.690506  0.961215  0.961543  1
  Sn  Sn29  1  0.190506  0.538785  0.538457  1
  Sn  Sn30  1  0.309494  0.038785  0.461543  1
  Sn  Sn31  1  0.809494  0.461215  0.038457  1
  Sn  Sn32  1  0.318391  0.143480  0.750000  1
  Sn  Sn33  1  0.818391  0.356520  0.750000  1
  Sn  Sn34  1  0.681609  0.856520  0.250000  1
  Sn  Sn35  1  0.181609  0.643480  0.250000  1
