# generated using pymatgen
data_Er5GaCo5
_symmetry_space_group_name_H-M   'P 1'
_cell_length_a   5.41494286
_cell_length_b   5.41494236
_cell_length_c   20.41362100
_cell_angle_alpha   90.00000000
_cell_angle_beta   90.00000000
_cell_angle_gamma   136.61438138
_symmetry_Int_Tables_number   1
_chemical_formula_structural   Er5GaCo5
_chemical_formula_sum   'Er10 Ga2 Co10'
_cell_volume   411.15399591
_cell_formula_units_Z   2
loop_
 _symmetry_equiv_pos_site_id
 _symmetry_equiv_pos_as_xyz
  1  'x, y, z'
loop_
 _atom_site_type_symbol
 _atom_site_label
 _atom_site_symmetry_multiplicity
 _atom_site_fract_x
 _atom_site_fract_y
 _atom_site_fract_z
 _atom_site_occupancy
  Er  Er0  1  0.288355  0.711645  0.250000  1
  Er  Er1  1  0.291079  0.708921  0.065881  1
  Er  Er2  1  0.998485  0.001515  0.842857  1
  Er  Er3  1  0.711645  0.288355  0.750000  1
  Er  Er4  1  0.708921  0.291079  0.565881  1
  Er  Er5  1  0.001515  0.998485  0.342857  1
  Er  Er6  1  0.998485  0.001515  0.657143  1
  Er  Er7  1  0.708921  0.291079  0.934119  1
  Er  Er8  1  0.001515  0.998485  0.157143  1
  Er  Er9  1  0.291079  0.708921  0.434119  1
  Ga  Ga10  1  0.000000  0.000000  0.500000  1
  Ga  Ga11  1  0.000000  0.000000  0.000000  1
  Co  Co12  1  0.294459  0.705541  0.654409  1
  Co  Co13  1  0.582145  0.417855  0.441430  1
  Co  Co14  1  0.414337  0.585663  0.750000  1
  Co  Co15  1  0.417855  0.582145  0.941430  1
  Co  Co16  1  0.585663  0.414337  0.250000  1
  Co  Co17  1  0.417855  0.582145  0.558570  1
  Co  Co18  1  0.705541  0.294459  0.345591  1
  Co  Co19  1  0.705541  0.294459  0.154409  1
  Co  Co20  1  0.582145  0.417855  0.058570  1
  Co  Co21  1  0.294459  0.705541  0.845591  1
