# generated using pymatgen
data_Dy3TmAl18ZnIr5
_symmetry_space_group_name_H-M   'P 1'
_cell_length_a   7.58338577
_cell_length_b   7.58450132
_cell_length_c   9.45008468
_cell_angle_alpha   89.92021163
_cell_angle_beta   89.92968804
_cell_angle_gamma   119.64485450
_symmetry_Int_Tables_number   1
_chemical_formula_structural   Dy3TmAl18ZnIr5
_chemical_formula_sum   'Dy3 Tm1 Al18 Zn1 Ir5'
_cell_volume   472.38721999
_cell_formula_units_Z   1
loop_
 _symmetry_equiv_pos_site_id
 _symmetry_equiv_pos_as_xyz
  1  'x, y, z'
loop_
 _atom_site_type_symbol
 _atom_site_label
 _atom_site_symmetry_multiplicity
 _atom_site_fract_x
 _atom_site_fract_y
 _atom_site_fract_z
 _atom_site_occupancy
  Dy  Dy0  1  0.992207  0.667230  0.250037  1
  Dy  Dy1  1  0.001530  0.328841  0.750193  1
  Dy  Dy2  1  0.671012  0.998535  0.249795  1
  Tm  Tm3  1  0.332339  0.007699  0.749461  1
  Al  Al4  1  0.127678  0.125317  0.251313  1
  Al  Al5  1  0.875256  0.872610  0.748733  1
  Al  Al6  1  0.012216  0.335535  0.078337  1
  Al  Al7  1  0.008121  0.675276  0.921607  1
  Al  Al8  1  0.002013  0.665657  0.572862  1
  Al  Al9  1  0.334870  0.998547  0.428254  1
  Al  Al10  1  0.000103  0.334533  0.426276  1
  Al  Al11  1  0.664781  0.999902  0.574323  1
  Al  Al12  1  0.663828  0.988044  0.921134  1
  Al  Al13  1  0.325597  0.992789  0.077235  1
  Al  Al14  1  0.331681  0.331351  0.550063  1
  Al  Al15  1  0.668101  0.668350  0.450608  1
  Al  Al16  1  0.665391  0.672148  0.059900  1
  Al  Al17  1  0.328038  0.334000  0.939427  1
  Al  Al18  1  0.340963  0.550997  0.251613  1
  Al  Al19  1  0.659865  0.456473  0.742731  1
  Al  Al20  1  0.542556  0.339360  0.257444  1
  Al  Al21  1  0.448834  0.659478  0.748425  1
  Zn  Zn22  1  0.673835  0.326164  0.999997  1
  Ir  Ir23  1  0.328533  0.671556  0.999860  1
  Ir  Ir24  1  0.328475  0.671639  0.500160  1
  Ir  Ir25  1  0.672223  0.327445  0.500173  1
  Ir  Ir26  1  0.999462  0.000751  0.999827  1
  Ir  Ir27  1  0.000488  0.999774  0.500212  1
