# generated using pymatgen
data_PrNpN3
_symmetry_space_group_name_H-M   'P 1'
_cell_length_a   6.01454100
_cell_length_b   5.88286900
_cell_length_c   8.39158900
_cell_angle_alpha   90.00000000
_cell_angle_beta   90.00000000
_cell_angle_gamma   90.00000000
_symmetry_Int_Tables_number   1
_chemical_formula_structural   PrNpN3
_chemical_formula_sum   'Pr4 Np4 N12'
_cell_volume   296.91755274
_cell_formula_units_Z   4
loop_
 _symmetry_equiv_pos_site_id
 _symmetry_equiv_pos_as_xyz
  1  'x, y, z'
loop_
 _atom_site_type_symbol
 _atom_site_label
 _atom_site_symmetry_multiplicity
 _atom_site_fract_x
 _atom_site_fract_y
 _atom_site_fract_z
 _atom_site_occupancy
  Pr  Pr0  1  0.045739  0.988299  0.250000  1
  Pr  Pr1  1  0.954261  0.011701  0.750000  1
  Pr  Pr2  1  0.545739  0.511701  0.250000  1
  Pr  Pr3  1  0.454261  0.488299  0.750000  1
  Np  Np4  1  0.500000  0.000000  0.000000  1
  Np  Np5  1  0.000000  0.500000  0.500000  1
  Np  Np6  1  0.000000  0.500000  0.000000  1
  Np  Np7  1  0.500000  0.000000  0.500000  1
  N  N8  1  0.701494  0.276063  0.948179  1
  N  N9  1  0.798506  0.776063  0.448179  1
  N  N10  1  0.798506  0.776063  0.051821  1
  N  N11  1  0.701494  0.276063  0.551821  1
  N  N12  1  0.201494  0.223937  0.948179  1
  N  N13  1  0.298506  0.723937  0.448179  1
  N  N14  1  0.030779  0.596929  0.750000  1
  N  N15  1  0.969221  0.403071  0.250000  1
  N  N16  1  0.469221  0.096929  0.250000  1
  N  N17  1  0.298506  0.723937  0.051821  1
  N  N18  1  0.201494  0.223937  0.551821  1
  N  N19  1  0.530779  0.903071  0.750000  1
