# generated using pymatgen
data_Ho3LuCo14(P2Ru)6
_symmetry_space_group_name_H-M   'P 1'
_cell_length_a   3.72010800
_cell_length_b   10.43086744
_cell_length_c   11.84655249
_cell_angle_alpha   89.96689258
_cell_angle_beta   90.00000000
_cell_angle_gamma   90.00000000
_symmetry_Int_Tables_number   1
_chemical_formula_structural   Ho3LuCo14(P2Ru)6
_chemical_formula_sum   'Ho3 Lu1 Co14 P12 Ru6'
_cell_volume   459.69299412
_cell_formula_units_Z   1
loop_
 _symmetry_equiv_pos_site_id
 _symmetry_equiv_pos_as_xyz
  1  'x, y, z'
loop_
 _atom_site_type_symbol
 _atom_site_label
 _atom_site_symmetry_multiplicity
 _atom_site_fract_x
 _atom_site_fract_y
 _atom_site_fract_z
 _atom_site_occupancy
  Ho  Ho0  1  0.250000  0.586570  0.705461  1
  Ho  Ho1  1  0.250000  0.913268  0.205484  1
  Ho  Ho2  1  0.750000  0.085150  0.791967  1
  Lu  Lu3  1  0.750000  0.414992  0.292189  1
  Co  Co4  1  0.750000  0.597061  0.513030  1
  Co  Co5  1  0.750000  0.902433  0.013149  1
  Co  Co6  1  0.250000  0.226449  0.179860  1
  Co  Co7  1  0.250000  0.275137  0.679240  1
  Co  Co8  1  0.750000  0.776964  0.822230  1
  Co  Co9  1  0.750000  0.722621  0.322067  1
  Co  Co10  1  0.250000  0.884239  0.700483  1
  Co  Co11  1  0.250000  0.614531  0.201151  1
  Co  Co12  1  0.750000  0.114386  0.298187  1
  Co  Co13  1  0.750000  0.386331  0.798416  1
  Co  Co14  1  0.250000  0.465011  0.931853  1
  Co  Co15  1  0.250000  0.035664  0.430745  1
  Co  Co16  1  0.750000  0.537177  0.069017  1
  Co  Co17  1  0.750000  0.962272  0.567770  1
  P  P18  1  0.250000  0.422650  0.113590  1
  P  P19  1  0.250000  0.077534  0.612002  1
  P  P20  1  0.750000  0.578951  0.887367  1
  P  P21  1  0.750000  0.921008  0.386841  1
  P  P22  1  0.250000  0.272658  0.866385  1
  P  P23  1  0.250000  0.228853  0.365775  1
  P  P24  1  0.750000  0.730138  0.132778  1
  P  P25  1  0.750000  0.769786  0.632806  1
  P  P26  1  0.250000  0.599586  0.386272  1
  P  P27  1  0.250000  0.899553  0.886769  1
  P  P28  1  0.750000  0.402657  0.612653  1
  P  P29  1  0.750000  0.097185  0.112688  1
  Ru  Ru30  1  0.250000  0.713548  0.989721  1
  Ru  Ru31  1  0.250000  0.785753  0.489231  1
  Ru  Ru32  1  0.750000  0.290317  0.013255  1
  Ru  Ru33  1  0.750000  0.209713  0.513197  1
  Ru  Ru34  1  0.250000  0.408753  0.487368  1
  Ru  Ru35  1  0.250000  0.091103  0.989003  1
