# generated using pymatgen
data_GdLu3(MoO6)2
_symmetry_space_group_name_H-M   'P 1'
_cell_length_a   5.32694100
_cell_length_b   7.62496766
_cell_length_c   11.35171798
_cell_angle_alpha   75.33889796
_cell_angle_beta   90.00000000
_cell_angle_gamma   90.00000000
_symmetry_Int_Tables_number   1
_chemical_formula_structural   GdLu3(MoO6)2
_chemical_formula_sum   'Gd2 Lu6 Mo4 O24'
_cell_volume   446.06837938
_cell_formula_units_Z   2
loop_
 _symmetry_equiv_pos_site_id
 _symmetry_equiv_pos_as_xyz
  1  'x, y, z'
loop_
 _atom_site_type_symbol
 _atom_site_label
 _atom_site_symmetry_multiplicity
 _atom_site_fract_x
 _atom_site_fract_y
 _atom_site_fract_z
 _atom_site_occupancy
  Gd  Gd0  1  0.315865  0.500000  0.750000  1
  Gd  Gd1  1  0.684135  0.500000  0.250000  1
  Lu  Lu2  1  0.257492  0.000000  0.750000  1
  Lu  Lu3  1  0.183155  0.798429  0.078731  1
  Lu  Lu4  1  0.183155  0.201571  0.421269  1
  Lu  Lu5  1  0.742508  0.000000  0.250000  1
  Lu  Lu6  1  0.816845  0.201571  0.921269  1
  Lu  Lu7  1  0.816845  0.798429  0.578731  1
  Mo  Mo8  1  0.744539  0.725760  0.885809  1
  Mo  Mo9  1  0.255461  0.725760  0.385809  1
  Mo  Mo10  1  0.744539  0.274240  0.614191  1
  Mo  Mo11  1  0.255461  0.274240  0.114191  1
  O  O12  1  0.539008  0.154306  0.069863  1
  O  O13  1  0.038502  0.056881  0.103587  1
  O  O14  1  0.016250  0.718862  0.767761  1
  O  O15  1  0.460992  0.154306  0.569863  1
  O  O16  1  0.349223  0.489835  0.386955  1
  O  O17  1  0.961498  0.056881  0.603587  1
  O  O18  1  0.538847  0.796368  0.723142  1
  O  O19  1  0.461153  0.796368  0.223142  1
  O  O20  1  0.147071  0.638007  0.548125  1
  O  O21  1  0.038502  0.943119  0.396413  1
  O  O22  1  0.460992  0.845694  0.930137  1
  O  O23  1  0.461153  0.203632  0.276858  1
  O  O24  1  0.852929  0.361993  0.451875  1
  O  O25  1  0.650777  0.489835  0.886955  1
  O  O26  1  0.349223  0.510165  0.113045  1
  O  O27  1  0.961498  0.943119  0.896413  1
  O  O28  1  0.539008  0.845694  0.430137  1
  O  O29  1  0.983750  0.281138  0.232239  1
  O  O30  1  0.538847  0.203632  0.776858  1
  O  O31  1  0.852929  0.638007  0.048125  1
  O  O32  1  0.016250  0.281138  0.732239  1
  O  O33  1  0.147071  0.361993  0.951875  1
  O  O34  1  0.983750  0.718862  0.267761  1
  O  O35  1  0.650777  0.510165  0.613045  1
