# generated using pymatgen
data_Tb16Dy4Si15Au
_symmetry_space_group_name_H-M   'P 1'
_cell_length_a   7.49157463
_cell_length_b   7.73271391
_cell_length_c   14.71212616
_cell_angle_alpha   90.13121600
_cell_angle_beta   90.47685488
_cell_angle_gamma   90.19255348
_symmetry_Int_Tables_number   1
_chemical_formula_structural   Tb16Dy4Si15Au
_chemical_formula_sum   'Tb16 Dy4 Si15 Au1'
_cell_volume   852.23983974
_cell_formula_units_Z   1
loop_
 _symmetry_equiv_pos_site_id
 _symmetry_equiv_pos_as_xyz
  1  'x, y, z'
loop_
 _atom_site_type_symbol
 _atom_site_label
 _atom_site_symmetry_multiplicity
 _atom_site_fract_x
 _atom_site_fract_y
 _atom_site_fract_z
 _atom_site_occupancy
  Tb  Tb0  1  0.319721  0.823628  0.377750  1
  Tb  Tb1  1  0.818727  0.679557  0.122393  1
  Tb  Tb2  1  0.680096  0.180491  0.877522  1
  Tb  Tb3  1  0.177244  0.320930  0.623291  1
  Tb  Tb4  1  0.525357  0.679640  0.600429  1
  Tb  Tb5  1  0.028807  0.816150  0.901370  1
  Tb  Tb6  1  0.470013  0.316911  0.099068  1
  Tb  Tb7  1  0.976539  0.182941  0.399436  1
  Tb  Tb8  1  0.470266  0.321313  0.399775  1
  Tb  Tb9  1  0.970323  0.183850  0.098800  1
  Tb  Tb10  1  0.530472  0.683586  0.900345  1
  Tb  Tb11  1  0.025997  0.817412  0.600493  1
  Tb  Tb12  1  0.850991  0.509598  0.749832  1
  Tb  Tb13  1  0.349433  0.987872  0.748486  1
  Tb  Tb14  1  0.150494  0.487907  0.250363  1
  Tb  Tb15  1  0.652596  0.011386  0.251375  1
  Dy  Dy16  1  0.679219  0.175057  0.622868  1
  Dy  Dy17  1  0.181788  0.320944  0.877368  1
  Dy  Dy18  1  0.319225  0.819025  0.121842  1
  Dy  Dy19  1  0.823701  0.677189  0.377402  1
  Si  Si20  1  0.145510  0.528115  0.039947  1
  Si  Si21  1  0.353446  0.029355  0.960489  1
  Si  Si22  1  0.851167  0.472231  0.541399  1
  Si  Si23  1  0.342122  0.028355  0.542370  1
  Si  Si24  1  0.855347  0.471388  0.959648  1
  Si  Si25  1  0.644225  0.970642  0.039218  1
  Si  Si26  1  0.147549  0.530789  0.461168  1
  Si  Si27  1  0.476614  0.395448  0.750131  1
  Si  Si28  1  0.975029  0.103912  0.751802  1
  Si  Si29  1  0.524328  0.606348  0.248509  1
  Si  Si30  1  0.026565  0.895534  0.247552  1
  Si  Si31  1  0.734500  0.872942  0.751772  1
  Si  Si32  1  0.233854  0.625310  0.751216  1
  Si  Si33  1  0.267877  0.125061  0.247226  1
  Si  Si34  1  0.765865  0.375682  0.248844  1
  Au  Au35  1  0.654991  0.973505  0.458500  1
