# generated using pymatgen
data_Ca6TaCo17P12
_symmetry_space_group_name_H-M   'P 1'
_cell_length_a   3.71164700
_cell_length_b   10.59722400
_cell_length_c   12.30132600
_cell_angle_alpha   90.00000000
_cell_angle_beta   90.00000000
_cell_angle_gamma   90.00000000
_symmetry_Int_Tables_number   1
_chemical_formula_structural   Ca6TaCo17P12
_chemical_formula_sum   'Ca6 Ta1 Co17 P12'
_cell_volume   483.84995818
_cell_formula_units_Z   1
loop_
 _symmetry_equiv_pos_site_id
 _symmetry_equiv_pos_as_xyz
  1  'x, y, z'
loop_
 _atom_site_type_symbol
 _atom_site_label
 _atom_site_symmetry_multiplicity
 _atom_site_fract_x
 _atom_site_fract_y
 _atom_site_fract_z
 _atom_site_occupancy
  Ca  Ca0  1  0.000000  0.500000  0.527844  1
  Ca  Ca1  1  0.500000  0.000000  0.475046  1
  Ca  Ca2  1  0.500000  0.821891  0.207371  1
  Ca  Ca3  1  0.500000  0.178109  0.207371  1
  Ca  Ca4  1  0.000000  0.680667  0.795470  1
  Ca  Ca5  1  0.000000  0.319333  0.795470  1
  Ta  Ta6  1  0.500000  0.500000  0.152120  1
  Co  Co7  1  0.000000  0.000000  0.838050  1
  Co  Co8  1  0.500000  0.500000  0.701709  1
  Co  Co9  1  0.000000  0.000000  0.298030  1
  Co  Co10  1  0.000000  0.500000  0.985137  1
  Co  Co11  1  0.500000  0.000000  0.012740  1
  Co  Co12  1  0.500000  0.328409  0.990796  1
  Co  Co13  1  0.500000  0.671591  0.990796  1
  Co  Co14  1  0.000000  0.163423  0.002839  1
  Co  Co15  1  0.000000  0.836577  0.002839  1
  Co  Co16  1  0.500000  0.295329  0.434269  1
  Co  Co17  1  0.500000  0.704671  0.434269  1
  Co  Co18  1  0.000000  0.201616  0.570813  1
  Co  Co19  1  0.000000  0.798384  0.570813  1
  Co  Co20  1  0.500000  0.881338  0.708357  1
  Co  Co21  1  0.500000  0.118662  0.708357  1
  Co  Co22  1  0.000000  0.621523  0.294425  1
  Co  Co23  1  0.000000  0.378477  0.294425  1
  P  P24  1  0.500000  0.500000  0.881503  1
  P  P25  1  0.000000  0.000000  0.116525  1
  P  P26  1  0.500000  0.500000  0.353032  1
  P  P27  1  0.000000  0.000000  0.657521  1
  P  P28  1  0.500000  0.307897  0.618256  1
  P  P29  1  0.500000  0.692103  0.618256  1
  P  P30  1  0.000000  0.191236  0.385307  1
  P  P31  1  0.000000  0.808764  0.385307  1
  P  P32  1  0.500000  0.851426  0.890283  1
  P  P33  1  0.500000  0.148574  0.890283  1
  P  P34  1  0.000000  0.660349  0.102187  1
  P  P35  1  0.000000  0.339651  0.102187  1
