# generated using pymatgen
data_LiCe4Sn3
_symmetry_space_group_name_H-M   'P 1'
_cell_length_a   9.00504490
_cell_length_b   9.00504410
_cell_length_c   9.00504501
_cell_angle_alpha   96.47363560
_cell_angle_beta   96.47362101
_cell_angle_gamma   140.76047800
_symmetry_Int_Tables_number   1
_chemical_formula_structural   LiCe4Sn3
_chemical_formula_sum   'Li2 Ce8 Sn6'
_cell_volume   435.09678877
_cell_formula_units_Z   2
loop_
 _symmetry_equiv_pos_site_id
 _symmetry_equiv_pos_as_xyz
  1  'x, y, z'
loop_
 _atom_site_type_symbol
 _atom_site_label
 _atom_site_symmetry_multiplicity
 _atom_site_fract_x
 _atom_site_fract_y
 _atom_site_fract_z
 _atom_site_occupancy
  Li  Li0  1  0.250000  0.750000  0.500000  1
  Li  Li1  1  0.750000  0.250000  0.500000  1
  Ce  Ce2  1  0.097472  0.233246  0.330717  1
  Ce  Ce3  1  0.902528  0.766754  0.669283  1
  Ce  Ce4  1  0.766754  0.097472  0.864226  1
  Ce  Ce5  1  0.402528  0.733246  0.135774  1
  Ce  Ce6  1  0.233246  0.902528  0.135774  1
  Ce  Ce7  1  0.597472  0.266754  0.864226  1
  Ce  Ce8  1  0.733246  0.597472  0.330717  1
  Ce  Ce9  1  0.266754  0.402528  0.669283  1
  Sn  Sn10  1  0.147268  0.647268  0.794536  1
  Sn  Sn11  1  0.852732  0.352732  0.205464  1
  Sn  Sn12  1  0.352732  0.147268  0.500000  1
  Sn  Sn13  1  0.647268  0.852732  0.500000  1
  Sn  Sn14  1  0.250000  0.250000  0.000000  1
  Sn  Sn15  1  0.750000  0.750000  0.000000  1
