# generated using pymatgen
data_Np4Al24IrPt8
_symmetry_space_group_name_H-M   'P 1'
_cell_length_a   7.54983148
_cell_length_b   7.56806772
_cell_length_c   13.19618045
_cell_angle_alpha   84.53022974
_cell_angle_beta   79.10696401
_cell_angle_gamma   59.88949792
_symmetry_Int_Tables_number   1
_chemical_formula_structural   Np4Al24IrPt8
_chemical_formula_sum   'Np4 Al24 Ir1 Pt8'
_cell_volume   640.50097106
_cell_formula_units_Z   1
loop_
 _symmetry_equiv_pos_site_id
 _symmetry_equiv_pos_as_xyz
  1  'x, y, z'
loop_
 _atom_site_type_symbol
 _atom_site_label
 _atom_site_symmetry_multiplicity
 _atom_site_fract_x
 _atom_site_fract_y
 _atom_site_fract_z
 _atom_site_occupancy
  Np  Np0  1  0.395194  0.167473  0.806541  1
  Np  Np1  1  0.604806  0.832527  0.193459  1
  Np  Np2  1  0.733392  0.498574  0.806647  1
  Np  Np3  1  0.266608  0.501426  0.193353  1
  Al  Al4  1  0.684465  0.831003  0.946900  1
  Al  Al5  1  0.315535  0.168997  0.053100  1
  Al  Al6  1  0.146054  0.832906  0.560649  1
  Al  Al7  1  0.853946  0.167094  0.439351  1
  Al  Al8  1  0.480353  0.166802  0.558702  1
  Al  Al9  1  0.519647  0.833198  0.441298  1
  Al  Al10  1  0.216654  0.164992  0.328063  1
  Al  Al11  1  0.783346  0.835008  0.671937  1
  Al  Al12  1  0.435392  0.507949  0.672343  1
  Al  Al13  1  0.564608  0.492051  0.327657  1
  Al  Al14  1  0.109341  0.158709  0.670023  1
  Al  Al15  1  0.890659  0.841291  0.329977  1
  Al  Al16  1  0.350827  0.497894  0.946784  1
  Al  Al17  1  0.649173  0.502106  0.053216  1
  Al  Al18  1  0.015173  0.172418  0.954249  1
  Al  Al19  1  0.984827  0.827582  0.045751  1
  Al  Al20  1  0.186465  0.499610  0.441601  1
  Al  Al21  1  0.813535  0.500390  0.558399  1
  Al  Al22  1  0.736395  0.162601  0.181833  1
  Al  Al23  1  0.263605  0.837399  0.818167  1
  Al  Al24  1  0.060723  0.630294  0.818557  1
  Al  Al25  1  0.939277  0.369706  0.181443  1
  Al  Al26  1  0.855383  0.041036  0.818057  1
  Al  Al27  1  0.144617  0.958964  0.181943  1
  Ir  Ir28  1  0.000000  0.500000  0.000000  1
  Pt  Pt29  1  0.120227  0.493178  0.638418  1
  Pt  Pt30  1  0.879773  0.506822  0.361582  1
  Pt  Pt31  1  0.659857  0.169925  0.000066  1
  Pt  Pt32  1  0.340143  0.830075  0.999934  1
  Pt  Pt33  1  0.538501  0.166869  0.362144  1
  Pt  Pt34  1  0.461499  0.833131  0.637856  1
  Pt  Pt35  1  0.779893  0.174158  0.637021  1
  Pt  Pt36  1  0.220107  0.825842  0.362979  1
