# generated using pymatgen
data_Ca7Nd(OsC2)4
_symmetry_space_group_name_H-M   'P 1'
_cell_length_a   5.18657700
_cell_length_b   6.54177586
_cell_length_c   10.47676283
_cell_angle_alpha   90.29923268
_cell_angle_beta   90.00000000
_cell_angle_gamma   90.00000000
_symmetry_Int_Tables_number   1
_chemical_formula_structural   Ca7Nd(OsC2)4
_chemical_formula_sum   'Ca7 Nd1 Os4 C8'
_cell_volume   355.46568299
_cell_formula_units_Z   1
loop_
 _symmetry_equiv_pos_site_id
 _symmetry_equiv_pos_as_xyz
  1  'x, y, z'
loop_
 _atom_site_type_symbol
 _atom_site_label
 _atom_site_symmetry_multiplicity
 _atom_site_fract_x
 _atom_site_fract_y
 _atom_site_fract_z
 _atom_site_occupancy
  Ca  Ca0  1  0.750000  0.302813  0.448272  1
  Ca  Ca1  1  0.750000  0.807637  0.049982  1
  Ca  Ca2  1  0.250000  0.189713  0.950536  1
  Ca  Ca3  1  0.250000  0.539313  0.212028  1
  Ca  Ca4  1  0.750000  0.460578  0.786117  1
  Ca  Ca5  1  0.750000  0.966527  0.728068  1
  Ca  Ca6  1  0.250000  0.038913  0.275163  1
  Nd  Nd7  1  0.250000  0.689599  0.549709  1
  Os  Os8  1  0.250000  0.730264  0.851621  1
  Os  Os9  1  0.750000  0.267208  0.149138  1
  Os  Os10  1  0.750000  0.768892  0.347112  1
  Os  Os11  1  0.250000  0.228558  0.653341  1
  C  C12  1  0.250000  0.469685  0.757902  1
  C  C13  1  0.750000  0.530470  0.239760  1
  C  C14  1  0.750000  0.029661  0.256889  1
  C  C15  1  0.250000  0.964577  0.740816  1
  C  C16  1  0.250000  0.791987  0.023770  1
  C  C17  1  0.750000  0.209517  0.975954  1
  C  C18  1  0.750000  0.717843  0.522533  1
  C  C19  1  0.250000  0.296244  0.481289  1
