# generated using pymatgen
data_Er8Ti(Pd7Pt)3
_symmetry_space_group_name_H-M   'P 1'
_cell_length_a   8.30568900
_cell_length_b   8.30820200
_cell_length_c   8.31251800
_cell_angle_alpha   90.00000000
_cell_angle_beta   90.00000000
_cell_angle_gamma   90.00000000
_symmetry_Int_Tables_number   1
_chemical_formula_structural   Er8Ti(Pd7Pt)3
_chemical_formula_sum   'Er8 Ti1 Pd21 Pt3'
_cell_volume   573.60814715
_cell_formula_units_Z   1
loop_
 _symmetry_equiv_pos_site_id
 _symmetry_equiv_pos_as_xyz
  1  'x, y, z'
loop_
 _atom_site_type_symbol
 _atom_site_label
 _atom_site_symmetry_multiplicity
 _atom_site_fract_x
 _atom_site_fract_y
 _atom_site_fract_z
 _atom_site_occupancy
  Er  Er0  1  0.251204  0.251414  0.251317  1
  Er  Er1  1  0.747611  0.747809  0.747393  1
  Er  Er2  1  0.747611  0.747809  0.252607  1
  Er  Er3  1  0.748796  0.251414  0.748683  1
  Er  Er4  1  0.251204  0.251414  0.748683  1
  Er  Er5  1  0.252389  0.747809  0.252607  1
  Er  Er6  1  0.252389  0.747809  0.747393  1
  Er  Er7  1  0.748796  0.251414  0.251317  1
  Ti  Ti8  1  0.000000  0.007219  0.000000  1
  Pd  Pd9  1  0.263050  0.500214  0.000000  1
  Pd  Pd10  1  0.736950  0.500214  0.000000  1
  Pd  Pd11  1  0.000000  0.262076  0.500000  1
  Pd  Pd12  1  0.500000  0.261630  0.000000  1
  Pd  Pd13  1  0.000000  0.736271  0.500000  1
  Pd  Pd14  1  0.500000  0.736058  0.000000  1
  Pd  Pd15  1  0.500000  0.999981  0.262761  1
  Pd  Pd16  1  0.262888  0.000054  0.500000  1
  Pd  Pd17  1  0.500000  0.999981  0.737239  1
  Pd  Pd18  1  0.737112  0.000054  0.500000  1
  Pd  Pd19  1  0.000000  0.500336  0.263045  1
  Pd  Pd20  1  0.000000  0.500336  0.736955  1
  Pd  Pd21  1  0.253998  0.499616  0.500000  1
  Pd  Pd22  1  0.746002  0.499616  0.500000  1
  Pd  Pd23  1  0.500000  0.253982  0.500000  1
  Pd  Pd24  1  0.500000  0.745913  0.500000  1
  Pd  Pd25  1  0.500000  0.499586  0.254079  1
  Pd  Pd26  1  0.500000  0.499586  0.745921  1
  Pd  Pd27  1  0.000000  0.706648  0.000000  1
  Pd  Pd28  1  0.000000  0.998345  0.298032  1
  Pd  Pd29  1  0.000000  0.998345  0.701968  1
  Pt  Pt30  1  0.295976  0.997791  0.000000  1
  Pt  Pt31  1  0.704024  0.997791  0.000000  1
  Pt  Pt32  1  0.000000  0.301465  0.000000  1
