# generated using pymatgen
data_Pr2SmV(Co4P3)2
_symmetry_space_group_name_H-M   'P 1'
_cell_length_a   3.77469200
_cell_length_b   10.73633800
_cell_length_c   12.46276200
_cell_angle_alpha   90.00000000
_cell_angle_beta   90.00000000
_cell_angle_gamma   90.00000000
_symmetry_Int_Tables_number   1
_chemical_formula_structural   Pr2SmV(Co4P3)2
_chemical_formula_sum   'Pr4 Sm2 V2 Co16 P12'
_cell_volume   505.07049354
_cell_formula_units_Z   2
loop_
 _symmetry_equiv_pos_site_id
 _symmetry_equiv_pos_as_xyz
  1  'x, y, z'
loop_
 _atom_site_type_symbol
 _atom_site_label
 _atom_site_symmetry_multiplicity
 _atom_site_fract_x
 _atom_site_fract_y
 _atom_site_fract_z
 _atom_site_occupancy
  Pr  Pr0  1  0.000000  0.500000  0.523513  1
  Pr  Pr1  1  0.500000  0.000000  0.477527  1
  Pr  Pr2  1  0.500000  0.818603  0.204710  1
  Pr  Pr3  1  0.500000  0.181397  0.204710  1
  Sm  Sm4  1  0.000000  0.681408  0.795807  1
  Sm  Sm5  1  0.000000  0.318592  0.795807  1
  V  V6  1  0.500000  0.500000  0.151208  1
  V  V7  1  0.000000  0.000000  0.847919  1
  Co  Co8  1  0.500000  0.500000  0.705181  1
  Co  Co9  1  0.000000  0.000000  0.296091  1
  Co  Co10  1  0.000000  0.500000  0.986498  1
  Co  Co11  1  0.500000  0.000000  0.010132  1
  Co  Co12  1  0.500000  0.333103  0.992450  1
  Co  Co13  1  0.500000  0.666897  0.992450  1
  Co  Co14  1  0.000000  0.168082  0.004375  1
  Co  Co15  1  0.000000  0.831918  0.004375  1
  Co  Co16  1  0.500000  0.295925  0.432011  1
  Co  Co17  1  0.500000  0.704075  0.432011  1
  Co  Co18  1  0.000000  0.204935  0.570869  1
  Co  Co19  1  0.000000  0.795065  0.570869  1
  Co  Co20  1  0.500000  0.880302  0.710129  1
  Co  Co21  1  0.500000  0.119698  0.710129  1
  Co  Co22  1  0.000000  0.618688  0.291004  1
  Co  Co23  1  0.000000  0.381312  0.291004  1
  P  P24  1  0.500000  0.500000  0.884626  1
  P  P25  1  0.000000  0.000000  0.111628  1
  P  P26  1  0.500000  0.500000  0.341392  1
  P  P27  1  0.000000  0.000000  0.658995  1
  P  P28  1  0.500000  0.306657  0.616583  1
  P  P29  1  0.500000  0.693343  0.616583  1
  P  P30  1  0.000000  0.194623  0.386906  1
  P  P31  1  0.000000  0.805377  0.386906  1
  P  P32  1  0.500000  0.846699  0.893363  1
  P  P33  1  0.500000  0.153301  0.893363  1
  P  P34  1  0.000000  0.651505  0.104437  1
  P  P35  1  0.000000  0.348495  0.104437  1
