# generated using pymatgen
data_Os3Ru2PtW2
_symmetry_space_group_name_H-M   'P 1'
_cell_length_a   5.57312000
_cell_length_b   5.55541270
_cell_length_c   4.39809200
_cell_angle_alpha   90.00000000
_cell_angle_beta   90.00000000
_cell_angle_gamma   120.10549432
_symmetry_Int_Tables_number   1
_chemical_formula_structural   Os3Ru2PtW2
_chemical_formula_sum   'Os3 Ru2 Pt1 W2'
_cell_volume   117.80046717
_cell_formula_units_Z   1
loop_
 _symmetry_equiv_pos_site_id
 _symmetry_equiv_pos_as_xyz
  1  'x, y, z'
loop_
 _atom_site_type_symbol
 _atom_site_label
 _atom_site_symmetry_multiplicity
 _atom_site_fract_x
 _atom_site_fract_y
 _atom_site_fract_z
 _atom_site_occupancy
  Os  Os0  1  0.665099  0.837249  0.250000  1
  Os  Os1  1  0.172150  0.837249  0.250000  1
  Os  Os2  1  0.832898  0.665796  0.750000  1
  Ru  Ru3  1  0.331601  0.165428  0.750000  1
  Ru  Ru4  1  0.833825  0.165428  0.750000  1
  Pt  Pt5  1  0.164209  0.328418  0.250000  1
  W  W6  1  0.336429  0.672859  0.750000  1
  W  W7  1  0.663787  0.327572  0.250000  1
