# generated using pymatgen
data_YTm3(Si5Pt3)2
_symmetry_space_group_name_H-M   'P 1'
_cell_length_a   8.12976586
_cell_length_b   8.13558911
_cell_length_c   8.13559063
_cell_angle_alpha   136.36253009
_cell_angle_beta   104.19859029
_cell_angle_gamma   91.78755543
_symmetry_Int_Tables_number   1
_chemical_formula_structural   YTm3(Si5Pt3)2
_chemical_formula_sum   'Y1 Tm3 Si10 Pt6'
_cell_volume   342.02328098
_cell_formula_units_Z   1
loop_
 _symmetry_equiv_pos_site_id
 _symmetry_equiv_pos_as_xyz
  1  'x, y, z'
loop_
 _atom_site_type_symbol
 _atom_site_label
 _atom_site_symmetry_multiplicity
 _atom_site_fract_x
 _atom_site_fract_y
 _atom_site_fract_z
 _atom_site_occupancy
  Y  Y0  1  0.099637  0.870948  0.228688  1
  Tm  Tm1  1  0.901483  0.129696  0.771787  1
  Tm  Tm2  1  0.642173  0.370336  0.271837  1
  Tm  Tm3  1  0.357571  0.629426  0.728145  1
  Si  Si4  1  0.000008  0.750209  0.749841  1
  Si  Si5  1  0.000008  0.250166  0.249798  1
  Si  Si6  1  0.271324  0.020903  0.749659  1
  Si  Si7  1  0.728135  0.478202  0.749493  1
  Si  Si8  1  0.728135  0.978640  0.249932  1
  Si  Si9  1  0.271324  0.521665  0.250422  1
  Si  Si10  1  0.762621  0.611491  0.151130  1
  Si  Si11  1  0.236625  0.387793  0.848832  1
  Si  Si12  1  0.462066  0.113060  0.349006  1
  Si  Si13  1  0.539090  0.887808  0.651282  1
  Pt  Pt14  1  0.500132  0.749986  0.250349  1
  Pt  Pt15  1  0.500132  0.249784  0.750146  1
  Pt  Pt16  1  0.022759  0.636860  0.385899  1
  Pt  Pt17  1  0.976284  0.362436  0.613848  1
  Pt  Pt18  1  0.252097  0.138086  0.114011  1
  Pt  Pt19  1  0.748398  0.862505  0.885893  1
