# generated using pymatgen
data_Er8Re(B8Os)3
_symmetry_space_group_name_H-M   'P 1'
_cell_length_a   3.63849600
_cell_length_b   9.10296342
_cell_length_c   11.47844306
_cell_angle_alpha   90.08363192
_cell_angle_beta   90.00000000
_cell_angle_gamma   90.00000000
_symmetry_Int_Tables_number   1
_chemical_formula_structural   Er8Re(B8Os)3
_chemical_formula_sum   'Er8 Re1 B24 Os3'
_cell_volume   380.17820951
_cell_formula_units_Z   1
loop_
 _symmetry_equiv_pos_site_id
 _symmetry_equiv_pos_as_xyz
  1  'x, y, z'
loop_
 _atom_site_type_symbol
 _atom_site_label
 _atom_site_symmetry_multiplicity
 _atom_site_fract_x
 _atom_site_fract_y
 _atom_site_fract_z
 _atom_site_occupancy
  Er  Er0  1  0.000000  0.322007  0.414995  1
  Er  Er1  1  0.000000  0.680257  0.588039  1
  Er  Er2  1  0.000000  0.822353  0.083525  1
  Er  Er3  1  0.000000  0.176581  0.913276  1
  Er  Er4  1  0.000000  0.943505  0.371897  1
  Er  Er5  1  0.000000  0.055649  0.627804  1
  Er  Er6  1  0.000000  0.443139  0.127855  1
  Er  Er7  1  0.000000  0.556431  0.872641  1
  Re  Re8  1  0.000000  0.862361  0.821407  1
  B  B9  1  0.500000  0.553818  0.433522  1
  B  B10  1  0.500000  0.446195  0.566658  1
  B  B11  1  0.500000  0.053772  0.066983  1
  B  B12  1  0.500000  0.947061  0.933542  1
  B  B13  1  0.500000  0.748880  0.419655  1
  B  B14  1  0.500000  0.251110  0.580236  1
  B  B15  1  0.500000  0.248628  0.080477  1
  B  B16  1  0.500000  0.751060  0.919505  1
  B  B17  1  0.500000  0.791025  0.265790  1
  B  B18  1  0.500000  0.208668  0.733569  1
  B  B19  1  0.500000  0.291488  0.234214  1
  B  B20  1  0.500000  0.707921  0.765752  1
  B  B21  1  0.500000  0.631061  0.185066  1
  B  B22  1  0.500000  0.368577  0.814516  1
  B  B23  1  0.500000  0.131601  0.315087  1
  B  B24  1  0.500000  0.868735  0.685270  1
  B  B25  1  0.500000  0.983008  0.212631  1
  B  B26  1  0.500000  0.018022  0.787349  1
  B  B27  1  0.500000  0.482727  0.287728  1
  B  B28  1  0.500000  0.517237  0.712642  1
  B  B29  1  0.500000  0.605068  0.029770  1
  B  B30  1  0.500000  0.393598  0.970846  1
  B  B31  1  0.500000  0.106343  0.470251  1
  B  B32  1  0.500000  0.894153  0.528787  1
  Os  Os33  1  0.000000  0.637466  0.321458  1
  Os  Os34  1  0.000000  0.362518  0.678070  1
  Os  Os35  1  0.000000  0.137975  0.179186  1
