# generated using pymatgen
data_ThCuSi2Pt
_symmetry_space_group_name_H-M   'P 1'
_cell_length_a   4.22897000
_cell_length_b   4.22897000
_cell_length_c   9.85642100
_cell_angle_alpha   90.00000000
_cell_angle_beta   90.00000000
_cell_angle_gamma   90.00000000
_symmetry_Int_Tables_number   1
_chemical_formula_structural   ThCuSi2Pt
_chemical_formula_sum   'Th2 Cu2 Si4 Pt2'
_cell_volume   176.27407889
_cell_formula_units_Z   2
loop_
 _symmetry_equiv_pos_site_id
 _symmetry_equiv_pos_as_xyz
  1  'x, y, z'
loop_
 _atom_site_type_symbol
 _atom_site_label
 _atom_site_symmetry_multiplicity
 _atom_site_fract_x
 _atom_site_fract_y
 _atom_site_fract_z
 _atom_site_occupancy
  Th  Th0  1  0.000000  0.500000  0.246687  1
  Th  Th1  1  0.500000  0.000000  0.753313  1
  Cu  Cu2  1  0.000000  0.000000  0.000000  1
  Cu  Cu3  1  0.500000  0.500000  0.000000  1
  Si  Si4  1  0.000000  0.000000  0.500000  1
  Si  Si5  1  0.500000  0.500000  0.500000  1
  Si  Si6  1  0.000000  0.500000  0.873114  1
  Si  Si7  1  0.500000  0.000000  0.126886  1
  Pt  Pt8  1  0.000000  0.500000  0.623151  1
  Pt  Pt9  1  0.500000  0.000000  0.376849  1
