# generated using pymatgen
data_CaSm3FeSb3O14
_symmetry_space_group_name_H-M   'P 1'
_cell_length_a   7.27653464
_cell_length_b   7.27801447
_cell_length_c   7.27546500
_cell_angle_alpha   118.51386466
_cell_angle_beta   61.48394501
_cell_angle_gamma   118.51217372
_symmetry_Int_Tables_number   1
_chemical_formula_structural   CaSm3FeSb3O14
_chemical_formula_sum   'Ca1 Sm3 Fe1 Sb3 O14'
_cell_volume   281.53649284
_cell_formula_units_Z   1
loop_
 _symmetry_equiv_pos_site_id
 _symmetry_equiv_pos_as_xyz
  1  'x, y, z'
loop_
 _atom_site_type_symbol
 _atom_site_label
 _atom_site_symmetry_multiplicity
 _atom_site_fract_x
 _atom_site_fract_y
 _atom_site_fract_z
 _atom_site_occupancy
  Ca  Ca0  1  0.500007  0.500005  0.999997  1
  Sm  Sm1  1  0.999998  0.500009  0.000027  1
  Sm  Sm2  1  0.500003  0.000000  0.999983  1
  Sm  Sm3  1  0.500023  0.500017  0.499999  1
  Fe  Fe4  1  0.999931  0.999945  0.500000  1
  Sb  Sb5  1  0.500039  0.999972  0.500043  1
  Sb  Sb6  1  0.999967  0.500050  0.499941  1
  Sb  Sb7  1  0.000023  0.000021  0.000007  1
  O  O8  1  0.624720  0.375135  0.124747  1
  O  O9  1  0.375280  0.624868  0.875253  1
  O  O10  1  0.082820  0.324493  0.175465  1
  O  O11  1  0.675406  0.917425  0.175550  1
  O  O12  1  0.675468  0.324357  0.583326  1
  O  O13  1  0.917188  0.675512  0.824543  1
  O  O14  1  0.324597  0.082574  0.824437  1
  O  O15  1  0.324565  0.675666  0.416673  1
  O  O16  1  0.651301  0.910149  0.589341  1
  O  O17  1  0.090055  0.349215  0.589671  1
  O  O18  1  0.089675  0.910197  0.150956  1
  O  O19  1  0.348629  0.089872  0.410643  1
  O  O20  1  0.909976  0.650706  0.410353  1
  O  O21  1  0.910327  0.089815  0.849043  1
