# generated using pymatgen
data_Tb12NbRe12Ru7N48
_symmetry_space_group_name_H-M   'P 1'
_cell_length_a   11.04598976
_cell_length_b   11.04599017
_cell_length_c   11.07032300
_cell_angle_alpha   109.51584682
_cell_angle_beta   109.51584757
_cell_angle_gamma   109.42655610
_symmetry_Int_Tables_number   1
_chemical_formula_structural   Tb12NbRe12Ru7N48
_chemical_formula_sum   'Tb12 Nb1 Re12 Ru7 N48'
_cell_volume   1039.22171186
_cell_formula_units_Z   1
loop_
 _symmetry_equiv_pos_site_id
 _symmetry_equiv_pos_as_xyz
  1  'x, y, z'
loop_
 _atom_site_type_symbol
 _atom_site_label
 _atom_site_symmetry_multiplicity
 _atom_site_fract_x
 _atom_site_fract_y
 _atom_site_fract_z
 _atom_site_occupancy
  Tb  Tb0  1  0.374467  0.748786  0.121126  1
  Tb  Tb1  1  0.249835  0.374055  0.124964  1
  Tb  Tb2  1  0.374319  0.125533  0.246659  1
  Tb  Tb3  1  0.874055  0.624220  0.249091  1
  Tb  Tb4  1  0.751214  0.125681  0.372340  1
  Tb  Tb5  1  0.124220  0.250165  0.375129  1
  Tb  Tb6  1  0.875780  0.749835  0.624872  1
  Tb  Tb7  1  0.248786  0.874319  0.627660  1
  Tb  Tb8  1  0.125945  0.375780  0.750909  1
  Tb  Tb9  1  0.625682  0.874467  0.753341  1
  Tb  Tb10  1  0.625533  0.251214  0.878874  1
  Tb  Tb11  1  0.750165  0.625946  0.875036  1
  Nb  Nb12  1  0.500000  0.000000  0.500000  1
  Re  Re13  1  0.875383  0.250213  0.125275  1
  Re  Re14  1  0.750214  0.874831  0.124939  1
  Re  Re15  1  0.625170  0.375383  0.250108  1
  Re  Re16  1  0.123018  0.873543  0.247756  1
  Re  Re17  1  0.249475  0.623019  0.375261  1
  Re  Re18  1  0.626457  0.749475  0.374214  1
  Re  Re19  1  0.373543  0.250525  0.625787  1
  Re  Re20  1  0.750525  0.376982  0.624739  1
  Re  Re21  1  0.876982  0.126457  0.752243  1
  Re  Re22  1  0.374831  0.624617  0.749892  1
  Re  Re23  1  0.249785  0.125169  0.875061  1
  Re  Re24  1  0.124617  0.749786  0.874725  1
  Ru  Ru25  1  0.000000  0.000000  0.000000  1
  Ru  Ru26  1  0.500000  0.000000  0.000000  1
  Ru  Ru27  1  0.000000  0.500000  0.000000  1
  Ru  Ru28  1  0.500000  0.500000  0.000000  1
  Ru  Ru29  1  0.000000  0.000000  0.500000  1
  Ru  Ru30  1  0.000000  0.500000  0.500000  1
  Ru  Ru31  1  0.500000  0.500000  0.500000  1
  N  N32  1  0.316225  0.899872  0.016881  1
  N  N33  1  0.201052  0.117269  0.017156  1
  N  N34  1  0.882779  0.400155  0.083813  1
  N  N35  1  0.700627  0.683173  0.083184  1
  N  N36  1  0.617268  0.416217  0.100113  1
  N  N37  1  0.981529  0.683748  0.098976  1
  N  N38  1  0.017455  0.200628  0.117444  1
  N  N39  1  0.600127  0.916352  0.117009  1
  N  N40  1  0.201229  0.583567  0.184691  1
  N  N41  1  0.485404  0.599730  0.185118  1
  N  N42  1  0.114327  0.014597  0.199715  1
  N  N43  1  0.583647  0.183775  0.200656  1
  N  N44  1  0.316119  0.914566  0.294022  1
  N  N45  1  0.482624  0.382779  0.298966  1
  N  N46  1  0.916217  0.298949  0.316104  1
  N  N47  1  0.900155  0.017376  0.316342  1
  N  N48  1  0.297782  0.481530  0.382554  1
  N  N49  1  0.585434  0.901554  0.379457  1
  N  N50  1  0.816827  0.517455  0.400012  1
  N  N51  1  0.083567  0.882338  0.398876  1
  N  N52  1  0.099730  0.614326  0.414612  1
  N  N53  1  0.816251  0.797781  0.415228  1
  N  N54  1  0.598446  0.183881  0.477903  1
  N  N55  1  0.382338  0.298771  0.483462  1
  N  N56  1  0.617661  0.701229  0.516538  1
  N  N57  1  0.401555  0.816119  0.522098  1
  N  N58  1  0.183748  0.202218  0.584772  1
  N  N59  1  0.900270  0.385674  0.585388  1
  N  N60  1  0.916432  0.117662  0.601123  1
  N  N61  1  0.183173  0.482546  0.599989  1
  N  N62  1  0.414566  0.098446  0.620543  1
  N  N63  1  0.702218  0.518470  0.617445  1
  N  N64  1  0.083783  0.701051  0.683896  1
  N  N65  1  0.099845  0.982623  0.683658  1
  N  N66  1  0.517376  0.617220  0.701034  1
  N  N67  1  0.683881  0.085434  0.705978  1
  N  N68  1  0.885674  0.985404  0.800286  1
  N  N69  1  0.416353  0.816224  0.799343  1
  N  N70  1  0.514597  0.400271  0.814882  1
  N  N71  1  0.798770  0.416433  0.815308  1
  N  N72  1  0.399872  0.083647  0.882991  1
  N  N73  1  0.982546  0.799373  0.882557  1
  N  N74  1  0.018470  0.316252  0.901024  1
  N  N75  1  0.382732  0.583783  0.899887  1
  N  N76  1  0.299373  0.316827  0.916816  1
  N  N77  1  0.117221  0.599844  0.916186  1
  N  N78  1  0.683775  0.100128  0.983118  1
  N  N79  1  0.798949  0.882732  0.982845  1
