# generated using pymatgen
data_ErTm7Sc12Si15Ru
_symmetry_space_group_name_H-M   'P 1'
_cell_length_a   7.02337900
_cell_length_b   7.39793050
_cell_length_c   13.85468809
_cell_angle_alpha   90.01290540
_cell_angle_beta   90.00317875
_cell_angle_gamma   90.20357736
_symmetry_Int_Tables_number   1
_chemical_formula_structural   ErTm7Sc12Si15Ru
_chemical_formula_sum   'Er1 Tm7 Sc12 Si15 Ru1'
_cell_volume   719.86382845
_cell_formula_units_Z   1
loop_
 _symmetry_equiv_pos_site_id
 _symmetry_equiv_pos_as_xyz
  1  'x, y, z'
loop_
 _atom_site_type_symbol
 _atom_site_label
 _atom_site_symmetry_multiplicity
 _atom_site_fract_x
 _atom_site_fract_y
 _atom_site_fract_z
 _atom_site_occupancy
  Er  Er0  1  0.011019  0.179332  0.095680  1
  Tm  Tm1  1  0.991422  0.826671  0.905110  1
  Tm  Tm2  1  0.489236  0.678005  0.904723  1
  Tm  Tm3  1  0.991442  0.826715  0.594858  1
  Tm  Tm4  1  0.510939  0.321692  0.095884  1
  Tm  Tm5  1  0.011153  0.179439  0.404222  1
  Tm  Tm6  1  0.510987  0.321671  0.404115  1
  Tm  Tm7  1  0.489224  0.677989  0.595266  1
  Sc  Sc8  1  0.158497  0.504441  0.750012  1
  Sc  Sc9  1  0.837584  0.494202  0.250044  1
  Sc  Sc10  1  0.339209  0.006307  0.250031  1
  Sc  Sc11  1  0.670123  0.997366  0.750020  1
  Sc  Sc12  1  0.316260  0.171860  0.627866  1
  Sc  Sc13  1  0.671645  0.825426  0.374120  1
  Sc  Sc14  1  0.171107  0.677963  0.374140  1
  Sc  Sc15  1  0.671607  0.825369  0.125876  1
  Sc  Sc16  1  0.838103  0.319910  0.627652  1
  Sc  Sc17  1  0.316340  0.171826  0.872106  1
  Sc  Sc18  1  0.838035  0.319997  0.872314  1
  Sc  Sc19  1  0.171116  0.677953  0.125876  1
  Si  Si20  1  0.968797  0.886990  0.250059  1
  Si  Si21  1  0.469446  0.611976  0.250014  1
  Si  Si22  1  0.529466  0.390044  0.749994  1
  Si  Si23  1  0.286646  0.864590  0.750000  1
  Si  Si24  1  0.713343  0.131739  0.250117  1
  Si  Si25  1  0.214080  0.368854  0.250129  1
  Si  Si26  1  0.779825  0.629148  0.749995  1
  Si  Si27  1  0.161463  0.468649  0.537371  1
  Si  Si28  1  0.842121  0.535079  0.461599  1
  Si  Si29  1  0.342642  0.966474  0.460268  1
  Si  Si30  1  0.842032  0.535303  0.038334  1
  Si  Si31  1  0.657327  0.034494  0.538700  1
  Si  Si32  1  0.161517  0.468835  0.962557  1
  Si  Si33  1  0.657231  0.034447  0.961271  1
  Si  Si34  1  0.342954  0.966326  0.039676  1
  Ru  Ru35  1  0.026058  0.102921  0.750003  1
