# generated using pymatgen
data_CeBiPt2F14
_symmetry_space_group_name_H-M   'P 1'
_cell_length_a   5.67821631
_cell_length_b   9.16841905
_cell_length_c   12.24689756
_cell_angle_alpha   61.86563124
_cell_angle_beta   90.25917511
_cell_angle_gamma   89.73998658
_symmetry_Int_Tables_number   1
_chemical_formula_structural   CeBiPt2F14
_chemical_formula_sum   'Ce2 Bi2 Pt4 F28'
_cell_volume   562.22150214
_cell_formula_units_Z   2
loop_
 _symmetry_equiv_pos_site_id
 _symmetry_equiv_pos_as_xyz
  1  'x, y, z'
loop_
 _atom_site_type_symbol
 _atom_site_label
 _atom_site_symmetry_multiplicity
 _atom_site_fract_x
 _atom_site_fract_y
 _atom_site_fract_z
 _atom_site_occupancy
  Ce  Ce0  1  0.759510  0.192218  0.234470  1
  Ce  Ce1  1  0.240490  0.807782  0.765530  1
  Bi  Bi2  1  0.264433  0.815784  0.259998  1
  Bi  Bi3  1  0.735567  0.184216  0.740002  1
  Pt  Pt4  1  0.758056  0.728052  0.041657  1
  Pt  Pt5  1  0.241944  0.271948  0.958343  1
  Pt  Pt6  1  0.258831  0.271651  0.458385  1
  Pt  Pt7  1  0.741169  0.728349  0.541615  1
  F  F8  1  0.929865  0.708156  0.415459  1
  F  F9  1  0.070135  0.291844  0.584541  1
  F  F10  1  0.433291  0.292035  0.087084  1
  F  F11  1  0.566709  0.707965  0.912916  1
  F  F12  1  0.463332  0.728345  0.132881  1
  F  F13  1  0.536668  0.271655  0.867119  1
  F  F14  1  0.970416  0.271258  0.366913  1
  F  F15  1  0.029584  0.728742  0.633087  1
  F  F16  1  0.942011  0.741591  0.174254  1
  F  F17  1  0.057989  0.258409  0.825746  1
  F  F18  1  0.444985  0.256102  0.327180  1
  F  F19  1  0.555015  0.743898  0.672820  1
  F  F20  1  0.769193  0.482357  0.138878  1
  F  F21  1  0.230807  0.517643  0.861122  1
  F  F22  1  0.268057  0.513854  0.361190  1
  F  F23  1  0.731943  0.486146  0.638810  1
  F  F24  1  0.941943  0.277429  0.045593  1
  F  F25  1  0.058057  0.722571  0.954407  1
  F  F26  1  0.445155  0.721513  0.458671  1
  F  F27  1  0.554845  0.278487  0.541329  1
  F  F28  1  0.741008  0.973436  0.447574  1
  F  F29  1  0.258992  0.026564  0.552426  1
  F  F30  1  0.241819  0.025980  0.051179  1
  F  F31  1  0.758181  0.974020  0.948821  1
  F  F32  1  0.590452  0.970128  0.229908  1
  F  F33  1  0.409548  0.029872  0.770092  1
  F  F34  1  0.094524  0.032718  0.269030  1
  F  F35  1  0.905476  0.967282  0.730970  1
