# generated using pymatgen
data_Pr3In3Ag2Pt
_symmetry_space_group_name_H-M   'P 1'
_cell_length_a   7.91822000
_cell_length_b   7.91821992
_cell_length_c   4.14964200
_cell_angle_alpha   90.00000000
_cell_angle_beta   90.00000000
_cell_angle_gamma   120.00000870
_symmetry_Int_Tables_number   1
_chemical_formula_structural   Pr3In3Ag2Pt
_chemical_formula_sum   'Pr3 In3 Ag2 Pt1'
_cell_volume   225.31823875
_cell_formula_units_Z   1
loop_
 _symmetry_equiv_pos_site_id
 _symmetry_equiv_pos_as_xyz
  1  'x, y, z'
loop_
 _atom_site_type_symbol
 _atom_site_label
 _atom_site_symmetry_multiplicity
 _atom_site_fract_x
 _atom_site_fract_y
 _atom_site_fract_z
 _atom_site_occupancy
  Pr  Pr0  1  0.593235  0.015514  0.000000  1
  Pr  Pr1  1  0.984486  0.577720  0.000000  1
  Pr  Pr2  1  0.422280  0.406765  0.000000  1
  In  In3  1  0.253820  0.998983  0.500000  1
  In  In4  1  0.001017  0.254837  0.500000  1
  In  In5  1  0.745163  0.746180  0.500000  1
  Ag  Ag6  1  0.333333  0.666667  0.500000  1
  Ag  Ag7  1  0.000000  0.000000  0.000000  1
  Pt  Pt8  1  0.666667  0.333333  0.500000  1
