# generated using pymatgen
data_Hf8Nb11Si16Mo
_symmetry_space_group_name_H-M   'P 1'
_cell_length_a   6.67994100
_cell_length_b   6.80717506
_cell_length_c   13.03463400
_cell_angle_alpha   90.00000000
_cell_angle_beta   90.00000000
_cell_angle_gamma   89.99266040
_symmetry_Int_Tables_number   1
_chemical_formula_structural   Hf8Nb11Si16Mo
_chemical_formula_sum   'Hf8 Nb11 Si16 Mo1'
_cell_volume   592.70471678
_cell_formula_units_Z   1
loop_
 _symmetry_equiv_pos_site_id
 _symmetry_equiv_pos_as_xyz
  1  'x, y, z'
loop_
 _atom_site_type_symbol
 _atom_site_label
 _atom_site_symmetry_multiplicity
 _atom_site_fract_x
 _atom_site_fract_y
 _atom_site_fract_z
 _atom_site_occupancy
  Hf  Hf0  1  0.995307  0.171875  0.093238  1
  Hf  Hf1  1  0.005993  0.827280  0.906748  1
  Hf  Hf2  1  0.504030  0.671933  0.907167  1
  Hf  Hf3  1  0.005993  0.827280  0.593252  1
  Hf  Hf4  1  0.495440  0.326771  0.093491  1
  Hf  Hf5  1  0.995307  0.171875  0.406762  1
  Hf  Hf6  1  0.495440  0.326771  0.406509  1
  Hf  Hf7  1  0.504030  0.671933  0.592833  1
  Nb  Nb8  1  0.163593  0.500207  0.750000  1
  Nb  Nb9  1  0.836452  0.501850  0.250000  1
  Nb  Nb10  1  0.336471  0.997899  0.250000  1
  Nb  Nb11  1  0.335290  0.170386  0.623984  1
  Nb  Nb12  1  0.663272  0.829925  0.377532  1
  Nb  Nb13  1  0.163472  0.671088  0.376635  1
  Nb  Nb14  1  0.663272  0.829925  0.122468  1
  Nb  Nb15  1  0.836477  0.330840  0.623845  1
  Nb  Nb16  1  0.335290  0.170386  0.876016  1
  Nb  Nb17  1  0.836477  0.330840  0.876155  1
  Nb  Nb18  1  0.163472  0.671088  0.123365  1
  Si  Si19  1  0.033901  0.111063  0.750000  1
  Si  Si20  1  0.960841  0.887206  0.250000  1
  Si  Si21  1  0.461992  0.613085  0.250000  1
  Si  Si22  1  0.539570  0.385493  0.750000  1
  Si  Si23  1  0.302080  0.862363  0.750000  1
  Si  Si24  1  0.702859  0.138907  0.250000  1
  Si  Si25  1  0.202548  0.361114  0.250000  1
  Si  Si26  1  0.796425  0.643473  0.750000  1
  Si  Si27  1  0.172005  0.463343  0.538748  1
  Si  Si28  1  0.827839  0.536105  0.461155  1
  Si  Si29  1  0.328028  0.963619  0.461759  1
  Si  Si30  1  0.827839  0.536105  0.038845  1
  Si  Si31  1  0.672338  0.036404  0.541217  1
  Si  Si32  1  0.172005  0.463343  0.961252  1
  Si  Si33  1  0.672338  0.036404  0.958783  1
  Si  Si34  1  0.328028  0.963619  0.038241  1
  Mo  Mo35  1  0.664283  0.998203  0.750000  1
