# generated using pymatgen
data_Ho8FeSi16Tc11
_symmetry_space_group_name_H-M   'P 1'
_cell_length_a   6.77519091
_cell_length_b   6.75770297
_cell_length_c   12.59983200
_cell_angle_alpha   90.35582319
_cell_angle_beta   90.09799633
_cell_angle_gamma   90.19567930
_symmetry_Int_Tables_number   1
_chemical_formula_structural   Ho8FeSi16Tc11
_chemical_formula_sum   'Ho8 Fe1 Si16 Tc11'
_cell_volume   576.86452415
_cell_formula_units_Z   1
loop_
 _symmetry_equiv_pos_site_id
 _symmetry_equiv_pos_as_xyz
  1  'x, y, z'
loop_
 _atom_site_type_symbol
 _atom_site_label
 _atom_site_symmetry_multiplicity
 _atom_site_fract_x
 _atom_site_fract_y
 _atom_site_fract_z
 _atom_site_occupancy
  Ho  Ho0  1  0.343859  0.995593  0.468674  1
  Ho  Ho1  1  0.503957  0.837049  0.719345  1
  Ho  Ho2  1  0.496648  0.164989  0.218990  1
  Ho  Ho3  1  0.842264  0.509161  0.283094  1
  Ho  Ho4  1  0.159892  0.490667  0.779208  1
  Ho  Ho5  1  0.663808  0.000592  0.968763  1
  Ho  Ho6  1  0.999501  0.336353  0.528151  1
  Ho  Ho7  1  0.006667  0.659917  0.030509  1
  Fe  Fe8  1  0.033707  0.806114  0.633898  1
  Si  Si9  1  0.188483  0.105046  0.684092  1
  Si  Si10  1  0.383754  0.690807  0.934738  1
  Si  Si11  1  0.612882  0.310416  0.439353  1
  Si  Si12  1  0.691439  0.386130  0.061393  1
  Si  Si13  1  0.299948  0.621425  0.566461  1
  Si  Si14  1  0.806401  0.885574  0.184974  1
  Si  Si15  1  0.116790  0.195935  0.314514  1
  Si  Si16  1  0.885724  0.803942  0.808841  1
  Si  Si17  1  0.273681  0.979473  0.062582  1
  Si  Si18  1  0.518573  0.771163  0.310111  1
  Si  Si19  1  0.469502  0.216482  0.814886  1
  Si  Si20  1  0.781122  0.524111  0.682452  1
  Si  Si21  1  0.230774  0.483862  0.189617  1
  Si  Si22  1  0.741374  0.014829  0.564541  1
  Si  Si23  1  0.975989  0.273158  0.936316  1
  Si  Si24  1  0.014797  0.741473  0.446323  1
  Tc  Tc25  1  0.333574  0.332566  0.999592  1
  Tc  Tc26  1  0.166885  0.837312  0.249928  1
  Tc  Tc27  1  0.835080  0.160453  0.744781  1
  Tc  Tc28  1  0.668080  0.666332  0.503861  1
  Tc  Tc29  1  0.180444  0.975373  0.870296  1
  Tc  Tc30  1  0.520611  0.687803  0.117722  1
  Tc  Tc31  1  0.474735  0.326223  0.626781  1
  Tc  Tc32  1  0.675538  0.511660  0.871368  1
  Tc  Tc33  1  0.312995  0.486055  0.384320  1
  Tc  Tc34  1  0.813684  0.026464  0.370153  1
  Tc  Tc35  1  0.976834  0.185495  0.129369  1
