# generated using pymatgen
data_NdEu7Be3Si12Pd
_symmetry_space_group_name_H-M   'P 1'
_cell_length_a   8.07275200
_cell_length_b   8.07275210
_cell_length_c   8.80053100
_cell_angle_alpha   90.00000000
_cell_angle_beta   90.00000000
_cell_angle_gamma   119.99999141
_symmetry_Int_Tables_number   1
_chemical_formula_structural   NdEu7Be3Si12Pd
_chemical_formula_sum   'Nd1 Eu7 Be3 Si12 Pd1'
_cell_volume   496.68697738
_cell_formula_units_Z   1
loop_
 _symmetry_equiv_pos_site_id
 _symmetry_equiv_pos_as_xyz
  1  'x, y, z'
loop_
 _atom_site_type_symbol
 _atom_site_label
 _atom_site_symmetry_multiplicity
 _atom_site_fract_x
 _atom_site_fract_y
 _atom_site_fract_z
 _atom_site_occupancy
  Nd  Nd0  1  0.000000  0.000000  0.250022  1
  Eu  Eu1  1  0.499684  0.500316  0.749614  1
  Eu  Eu2  1  0.499741  0.500259  0.250206  1
  Eu  Eu3  1  0.000632  0.500316  0.749614  1
  Eu  Eu4  1  0.000519  0.500259  0.250206  1
  Eu  Eu5  1  0.499684  0.999368  0.749614  1
  Eu  Eu6  1  0.499741  0.999481  0.250206  1
  Eu  Eu7  1  0.000000  0.000000  0.750669  1
  Be  Be8  1  0.666667  0.333333  0.000280  1
  Be  Be9  1  0.333333  0.666667  0.001628  1
  Be  Be10  1  0.333333  0.666667  0.499239  1
  Si  Si11  1  0.827732  0.172268  0.000086  1
  Si  Si12  1  0.171970  0.828030  0.000249  1
  Si  Si13  1  0.344537  0.172268  0.000086  1
  Si  Si14  1  0.170488  0.829512  0.499794  1
  Si  Si15  1  0.656060  0.828030  0.000249  1
  Si  Si16  1  0.834277  0.165723  0.499726  1
  Si  Si17  1  0.827732  0.655463  0.000086  1
  Si  Si18  1  0.659025  0.829512  0.499794  1
  Si  Si19  1  0.171970  0.343940  0.000249  1
  Si  Si20  1  0.331446  0.165723  0.499726  1
  Si  Si21  1  0.170488  0.340975  0.499794  1
  Si  Si22  1  0.834277  0.668554  0.499726  1
  Pd  Pd23  1  0.666667  0.333333  0.499137  1
