# generated using pymatgen
data_Lu7Pa(Ta3Ge4)4
_symmetry_space_group_name_H-M   'P 1'
_cell_length_a   6.98301828
_cell_length_b   7.13102656
_cell_length_c   13.49239000
_cell_angle_alpha   90.04125827
_cell_angle_beta   90.16873641
_cell_angle_gamma   89.96021930
_symmetry_Int_Tables_number   1
_chemical_formula_structural   Lu7Pa(Ta3Ge4)4
_chemical_formula_sum   'Lu7 Pa1 Ta12 Ge16'
_cell_volume   671.86500209
_cell_formula_units_Z   1
loop_
 _symmetry_equiv_pos_site_id
 _symmetry_equiv_pos_as_xyz
  1  'x, y, z'
loop_
 _atom_site_type_symbol
 _atom_site_label
 _atom_site_symmetry_multiplicity
 _atom_site_fract_x
 _atom_site_fract_y
 _atom_site_fract_z
 _atom_site_occupancy
  Lu  Lu0  1  0.993946  0.825320  0.907966  1
  Lu  Lu1  1  0.505849  0.324667  0.093958  1
  Lu  Lu2  1  0.007029  0.175032  0.403930  1
  Lu  Lu3  1  0.505880  0.325723  0.405041  1
  Lu  Lu4  1  0.006486  0.174822  0.094010  1
  Lu  Lu5  1  0.493140  0.675224  0.906955  1
  Lu  Lu6  1  0.990736  0.824476  0.593803  1
  Pa  Pa7  1  0.495110  0.674851  0.593669  1
  Ta  Ta8  1  0.656080  0.166799  0.626789  1
  Ta  Ta9  1  0.156393  0.329220  0.873525  1
  Ta  Ta10  1  0.341289  0.831456  0.126005  1
  Ta  Ta11  1  0.839720  0.667405  0.374026  1
  Ta  Ta12  1  0.344207  0.830808  0.375013  1
  Ta  Ta13  1  0.842081  0.668757  0.126368  1
  Ta  Ta14  1  0.660954  0.168026  0.874542  1
  Ta  Ta15  1  0.162640  0.335763  0.626013  1
  Ta  Ta16  1  0.831714  0.488547  0.749643  1
  Ta  Ta17  1  0.334466  0.009465  0.748784  1
  Ta  Ta18  1  0.164856  0.512272  0.249281  1
  Ta  Ta19  1  0.667095  0.987372  0.250043  1
  Ge  Ge20  1  0.680736  0.964099  0.456455  1
  Ge  Ge21  1  0.178463  0.537347  0.042068  1
  Ge  Ge22  1  0.322167  0.038014  0.957861  1
  Ge  Ge23  1  0.826095  0.455701  0.540967  1
  Ge  Ge24  1  0.316314  0.042614  0.541276  1
  Ge  Ge25  1  0.821288  0.462955  0.958230  1
  Ge  Ge26  1  0.678606  0.962369  0.042751  1
  Ge  Ge27  1  0.177589  0.539080  0.455845  1
  Ge  Ge28  1  0.459572  0.379639  0.752261  1
  Ge  Ge29  1  0.959954  0.120118  0.748715  1
  Ge  Ge30  1  0.539719  0.618610  0.249359  1
  Ge  Ge31  1  0.041622  0.880473  0.250431  1
  Ge  Ge32  1  0.695693  0.859072  0.753948  1
  Ge  Ge33  1  0.188539  0.643901  0.752080  1
  Ge  Ge34  1  0.307831  0.143750  0.249139  1
  Ge  Ge35  1  0.806143  0.356258  0.249250  1
