# generated using pymatgen
data_Yb3ErSb3
_symmetry_space_group_name_H-M   'P 1'
_cell_length_a   8.09730459
_cell_length_b   8.09730492
_cell_length_c   8.15102534
_cell_angle_alpha   70.54076987
_cell_angle_beta   70.54077147
_cell_angle_gamma   109.11186660
_symmetry_Int_Tables_number   1
_chemical_formula_structural   Yb3ErSb3
_chemical_formula_sum   'Yb6 Er2 Sb6'
_cell_volume   413.33772571
_cell_formula_units_Z   2
loop_
 _symmetry_equiv_pos_site_id
 _symmetry_equiv_pos_as_xyz
  1  'x, y, z'
loop_
 _atom_site_type_symbol
 _atom_site_label
 _atom_site_symmetry_multiplicity
 _atom_site_fract_x
 _atom_site_fract_y
 _atom_site_fract_z
 _atom_site_occupancy
  Yb  Yb0  1  0.001195  0.358931  0.495217  1
  Yb  Yb1  1  0.495747  0.495610  0.148812  1
  Yb  Yb2  1  0.645048  0.148731  0.356710  1
  Yb  Yb3  1  0.358931  0.001195  0.995217  1
  Yb  Yb4  1  0.495610  0.495747  0.648812  1
  Yb  Yb5  1  0.148731  0.645048  0.856710  1
  Er  Er6  1  0.854377  0.000822  0.999175  1
  Er  Er7  1  0.000822  0.854377  0.499175  1
  Sb  Sb8  1  0.635111  0.873877  0.749642  1
  Sb  Sb9  1  0.873877  0.635111  0.249642  1
  Sb  Sb10  1  0.237838  0.117290  0.629677  1
  Sb  Sb11  1  0.757313  0.378111  0.870766  1
  Sb  Sb12  1  0.378111  0.757313  0.370766  1
  Sb  Sb13  1  0.117290  0.237838  0.129677  1
