# generated using pymatgen
data_NaEr(SiAu)2
_symmetry_space_group_name_H-M   'P 1'
_cell_length_a   5.62337622
_cell_length_b   5.62337660
_cell_length_c   5.62337666
_cell_angle_alpha   134.18883600
_cell_angle_beta   101.40854398
_cell_angle_gamma   96.03702529
_symmetry_Int_Tables_number   1
_chemical_formula_structural   NaEr(SiAu)2
_chemical_formula_sum   'Na1 Er1 Si2 Au2'
_cell_volume   117.27892201
_cell_formula_units_Z   1
loop_
 _symmetry_equiv_pos_site_id
 _symmetry_equiv_pos_as_xyz
  1  'x, y, z'
loop_
 _atom_site_type_symbol
 _atom_site_label
 _atom_site_symmetry_multiplicity
 _atom_site_fract_x
 _atom_site_fract_y
 _atom_site_fract_z
 _atom_site_occupancy
  Na  Na0  1  0.202817  0.702817  0.500000  1
  Er  Er1  1  0.619961  0.619961  0.000000  1
  Si  Si2  1  0.648338  0.325275  0.323063  1
  Si  Si3  1  0.002214  0.325275  0.676938  1
  Au  Au4  1  0.216324  0.992271  0.224052  1
  Au  Au5  1  0.768220  0.992271  0.775949  1
