# generated using pymatgen
data_Tb2Tm2Al17GaIr6
_symmetry_space_group_name_H-M   'P 1'
_cell_length_a   7.53648060
_cell_length_b   7.53647972
_cell_length_c   9.48922500
_cell_angle_alpha   90.00000000
_cell_angle_beta   90.00000000
_cell_angle_gamma   119.40705704
_symmetry_Int_Tables_number   1
_chemical_formula_structural   Tb2Tm2Al17GaIr6
_chemical_formula_sum   'Tb2 Tm2 Al17 Ga1 Ir6'
_cell_volume   469.52905392
_cell_formula_units_Z   1
loop_
 _symmetry_equiv_pos_site_id
 _symmetry_equiv_pos_as_xyz
  1  'x, y, z'
loop_
 _atom_site_type_symbol
 _atom_site_label
 _atom_site_symmetry_multiplicity
 _atom_site_fract_x
 _atom_site_fract_y
 _atom_site_fract_z
 _atom_site_occupancy
  Tb  Tb0  1  0.993961  0.674870  0.250000  1
  Tb  Tb1  1  0.674870  0.993961  0.250000  1
  Tm  Tm2  1  0.005005  0.327153  0.750000  1
  Tm  Tm3  1  0.327153  0.005005  0.750000  1
  Al  Al4  1  0.870314  0.870314  0.750000  1
  Al  Al5  1  0.001741  0.335923  0.072268  1
  Al  Al6  1  0.998913  0.664122  0.924410  1
  Al  Al7  1  0.998913  0.664122  0.575590  1
  Al  Al8  1  0.335923  0.001741  0.427732  1
  Al  Al9  1  0.001741  0.335923  0.427732  1
  Al  Al10  1  0.664122  0.998913  0.575590  1
  Al  Al11  1  0.664122  0.998913  0.924410  1
  Al  Al12  1  0.335923  0.001741  0.072268  1
  Al  Al13  1  0.332799  0.332799  0.555180  1
  Al  Al14  1  0.665299  0.665299  0.450191  1
  Al  Al15  1  0.665299  0.665299  0.049809  1
  Al  Al16  1  0.332799  0.332799  0.944820  1
  Al  Al17  1  0.338679  0.549482  0.250000  1
  Al  Al18  1  0.660457  0.450100  0.750000  1
  Al  Al19  1  0.549482  0.338679  0.250000  1
  Al  Al20  1  0.450100  0.660457  0.750000  1
  Ga  Ga21  1  0.136083  0.136083  0.250000  1
  Ir  Ir22  1  0.671080  0.327190  0.999527  1
  Ir  Ir23  1  0.327190  0.671080  0.999527  1
  Ir  Ir24  1  0.327190  0.671080  0.500473  1
  Ir  Ir25  1  0.671080  0.327190  0.500473  1
  Ir  Ir26  1  0.999882  0.999882  0.996900  1
  Ir  Ir27  1  0.999882  0.999882  0.503100  1
