# generated using pymatgen
data_ZrU6Co17P12
_symmetry_space_group_name_H-M   'P 1'
_cell_length_a   3.71952400
_cell_length_b   10.54646000
_cell_length_c   12.32353400
_cell_angle_alpha   90.00000000
_cell_angle_beta   90.00000000
_cell_angle_gamma   90.00000000
_symmetry_Int_Tables_number   1
_chemical_formula_structural   ZrU6Co17P12
_chemical_formula_sum   'Zr1 U6 Co17 P12'
_cell_volume   483.42526365
_cell_formula_units_Z   1
loop_
 _symmetry_equiv_pos_site_id
 _symmetry_equiv_pos_as_xyz
  1  'x, y, z'
loop_
 _atom_site_type_symbol
 _atom_site_label
 _atom_site_symmetry_multiplicity
 _atom_site_fract_x
 _atom_site_fract_y
 _atom_site_fract_z
 _atom_site_occupancy
  Zr  Zr0  1  0.500000  0.500000  0.155462  1
  U  U1  1  0.000000  0.500000  0.533050  1
  U  U2  1  0.500000  0.000000  0.475223  1
  U  U3  1  0.500000  0.823822  0.208965  1
  U  U4  1  0.500000  0.176178  0.208965  1
  U  U5  1  0.000000  0.682420  0.795515  1
  U  U6  1  0.000000  0.317580  0.795515  1
  Co  Co7  1  0.000000  0.500000  0.984876  1
  Co  Co8  1  0.500000  0.000000  0.015387  1
  Co  Co9  1  0.500000  0.296331  0.435228  1
  Co  Co10  1  0.500000  0.703669  0.435228  1
  Co  Co11  1  0.000000  0.199141  0.570581  1
  Co  Co12  1  0.000000  0.800859  0.570581  1
  Co  Co13  1  0.500000  0.878867  0.706846  1
  Co  Co14  1  0.500000  0.121133  0.706846  1
  Co  Co15  1  0.000000  0.623495  0.297072  1
  Co  Co16  1  0.000000  0.376505  0.297072  1
  Co  Co17  1  0.500000  0.327104  0.988677  1
  Co  Co18  1  0.500000  0.672896  0.988677  1
  Co  Co19  1  0.000000  0.162456  0.997557  1
  Co  Co20  1  0.000000  0.837544  0.997557  1
  Co  Co21  1  0.000000  0.000000  0.833392  1
  Co  Co22  1  0.500000  0.500000  0.699889  1
  Co  Co23  1  0.000000  0.000000  0.298728  1
  P  P24  1  0.500000  0.307462  0.615954  1
  P  P25  1  0.500000  0.692538  0.615954  1
  P  P26  1  0.000000  0.189604  0.388359  1
  P  P27  1  0.000000  0.810396  0.388359  1
  P  P28  1  0.500000  0.500000  0.883177  1
  P  P29  1  0.000000  0.000000  0.114695  1
  P  P30  1  0.500000  0.853213  0.888707  1
  P  P31  1  0.500000  0.146787  0.888707  1
  P  P32  1  0.000000  0.668231  0.101228  1
  P  P33  1  0.000000  0.331769  0.101228  1
  P  P34  1  0.500000  0.500000  0.364108  1
  P  P35  1  0.000000  0.000000  0.652635  1
