# generated using pymatgen
data_Zr4TiV3As4
_symmetry_space_group_name_H-M   'P 1'
_cell_length_a   3.60821700
_cell_length_b   6.86315860
_cell_length_c   8.24026626
_cell_angle_alpha   90.08067587
_cell_angle_beta   90.00000000
_cell_angle_gamma   90.00000000
_symmetry_Int_Tables_number   1
_chemical_formula_structural   Zr4TiV3As4
_chemical_formula_sum   'Zr4 Ti1 V3 As4'
_cell_volume   204.05981932
_cell_formula_units_Z   1
loop_
 _symmetry_equiv_pos_site_id
 _symmetry_equiv_pos_as_xyz
  1  'x, y, z'
loop_
 _atom_site_type_symbol
 _atom_site_label
 _atom_site_symmetry_multiplicity
 _atom_site_fract_x
 _atom_site_fract_y
 _atom_site_fract_z
 _atom_site_occupancy
  Zr  Zr0  1  0.250000  0.045102  0.833546  1
  Zr  Zr1  1  0.250000  0.547346  0.668219  1
  Zr  Zr2  1  0.750000  0.952745  0.166601  1
  Zr  Zr3  1  0.750000  0.458977  0.328598  1
  Ti  Ti4  1  0.250000  0.127701  0.441149  1
  V  V5  1  0.250000  0.626821  0.056598  1
  V  V6  1  0.750000  0.866076  0.560724  1
  V  V7  1  0.750000  0.375453  0.942791  1
  As  As8  1  0.250000  0.756496  0.362319  1
  As  As9  1  0.250000  0.258113  0.134881  1
  As  As10  1  0.750000  0.242567  0.641259  1
  As  As11  1  0.750000  0.742603  0.863316  1
