# generated using pymatgen
data_Hf6Ti4Al12Os6Pd
_symmetry_space_group_name_H-M   'P 1'
_cell_length_a   8.80199391
_cell_length_b   8.76266369
_cell_length_c   8.76266560
_cell_angle_alpha   60.41226978
_cell_angle_beta   59.85141239
_cell_angle_gamma   59.85141284
_symmetry_Int_Tables_number   1
_chemical_formula_structural   Hf6Ti4Al12Os6Pd
_chemical_formula_sum   'Hf6 Ti4 Al12 Os6 Pd1'
_cell_volume   478.28651696
_cell_formula_units_Z   1
loop_
 _symmetry_equiv_pos_site_id
 _symmetry_equiv_pos_as_xyz
  1  'x, y, z'
loop_
 _atom_site_type_symbol
 _atom_site_label
 _atom_site_symmetry_multiplicity
 _atom_site_fract_x
 _atom_site_fract_y
 _atom_site_fract_z
 _atom_site_occupancy
  Hf  Hf0  1  0.710405  0.698652  0.304228  1
  Hf  Hf1  1  0.286716  0.698652  0.304228  1
  Hf  Hf2  1  0.701175  0.298825  0.298825  1
  Hf  Hf3  1  0.286716  0.304228  0.698652  1
  Hf  Hf4  1  0.710405  0.304228  0.698652  1
  Hf  Hf5  1  0.306519  0.693481  0.693481  1
  Ti  Ti6  1  0.878102  0.882531  0.361264  1
  Ti  Ti7  1  0.878102  0.361264  0.882531  1
  Ti  Ti8  1  0.358303  0.877075  0.877075  1
  Ti  Ti9  1  0.887548  0.877075  0.877075  1
  Al  Al10  1  0.121128  0.116118  0.641626  1
  Al  Al11  1  0.121128  0.641626  0.116118  1
  Al  Al12  1  0.643268  0.120433  0.120433  1
  Al  Al13  1  0.115865  0.120433  0.120433  1
  Al  Al14  1  0.660401  0.665482  0.013718  1
  Al  Al15  1  0.660401  0.013718  0.665482  1
  Al  Al16  1  0.004309  0.665723  0.665723  1
  Al  Al17  1  0.664246  0.665723  0.665723  1
  Al  Al18  1  0.336415  0.335684  0.991484  1
  Al  Al19  1  0.336415  0.991484  0.335684  1
  Al  Al20  1  0.001743  0.332112  0.332112  1
  Al  Al21  1  0.334032  0.332112  0.332112  1
  Os  Os22  1  0.999422  0.000578  0.000578  1
  Os  Os23  1  0.998624  0.999530  0.501448  1
  Os  Os24  1  0.500398  0.999530  0.501448  1
  Os  Os25  1  0.999763  0.500237  0.500237  1
  Os  Os26  1  0.500398  0.501448  0.999530  1
  Os  Os27  1  0.998624  0.501448  0.999530  1
  Pd  Pd28  1  0.499430  0.000570  0.000570  1
