# generated using pymatgen
data_Er2Tm2LuBi3
_symmetry_space_group_name_H-M   'P 1'
_cell_length_a   8.16541600
_cell_length_b   9.45455800
_cell_length_c   11.91395200
_cell_angle_alpha   90.00000000
_cell_angle_beta   90.00000000
_cell_angle_gamma   90.00000000
_symmetry_Int_Tables_number   1
_chemical_formula_structural   Er2Tm2LuBi3
_chemical_formula_sum   'Er8 Tm8 Lu4 Bi12'
_cell_volume   919.76185005
_cell_formula_units_Z   4
loop_
 _symmetry_equiv_pos_site_id
 _symmetry_equiv_pos_as_xyz
  1  'x, y, z'
loop_
 _atom_site_type_symbol
 _atom_site_label
 _atom_site_symmetry_multiplicity
 _atom_site_fract_x
 _atom_site_fract_y
 _atom_site_fract_z
 _atom_site_occupancy
  Er  Er0  1  0.355473  0.250000  0.283128  1
  Er  Er1  1  0.644527  0.750000  0.716872  1
  Er  Er2  1  0.144527  0.750000  0.783128  1
  Er  Er3  1  0.855473  0.250000  0.216872  1
  Er  Er4  1  0.187565  0.250000  0.781762  1
  Er  Er5  1  0.812435  0.750000  0.218238  1
  Er  Er6  1  0.312435  0.750000  0.281762  1
  Er  Er7  1  0.687565  0.250000  0.718238  1
  Tm  Tm8  1  0.193643  0.065588  0.059646  1
  Tm  Tm9  1  0.806357  0.934412  0.940354  1
  Tm  Tm10  1  0.306357  0.934412  0.559646  1
  Tm  Tm11  1  0.806357  0.565588  0.940354  1
  Tm  Tm12  1  0.693643  0.065588  0.440354  1
  Tm  Tm13  1  0.193643  0.434412  0.059646  1
  Tm  Tm14  1  0.693643  0.434412  0.440354  1
  Tm  Tm15  1  0.306357  0.565588  0.559646  1
  Lu  Lu16  1  0.024955  0.250000  0.511048  1
  Lu  Lu17  1  0.975045  0.750000  0.488952  1
  Lu  Lu18  1  0.475045  0.750000  0.011048  1
  Lu  Lu19  1  0.524955  0.250000  0.988952  1
  Bi  Bi20  1  0.405577  0.250000  0.542710  1
  Bi  Bi21  1  0.594423  0.750000  0.457290  1
  Bi  Bi22  1  0.094423  0.750000  0.042710  1
  Bi  Bi23  1  0.905577  0.250000  0.957290  1
  Bi  Bi24  1  0.066413  0.003625  0.326911  1
  Bi  Bi25  1  0.933587  0.996375  0.673089  1
  Bi  Bi26  1  0.433587  0.996375  0.826911  1
  Bi  Bi27  1  0.933587  0.503625  0.673089  1
  Bi  Bi28  1  0.566413  0.003625  0.173089  1
  Bi  Bi29  1  0.066413  0.496375  0.326911  1
  Bi  Bi30  1  0.566413  0.496375  0.173089  1
  Bi  Bi31  1  0.433587  0.503625  0.826911  1
