# generated using pymatgen
data_Pr8Lu12Si7Ge9
_symmetry_space_group_name_H-M   'P 1'
_cell_length_a   7.52047100
_cell_length_b   7.77232374
_cell_length_c   14.70223400
_cell_angle_alpha   90.00000000
_cell_angle_beta   90.00000000
_cell_angle_gamma   90.19657599
_symmetry_Int_Tables_number   1
_chemical_formula_structural   Pr8Lu12Si7Ge9
_chemical_formula_sum   'Pr8 Lu12 Si7 Ge9'
_cell_volume   859.36309211
_cell_formula_units_Z   1
loop_
 _symmetry_equiv_pos_site_id
 _symmetry_equiv_pos_as_xyz
  1  'x, y, z'
loop_
 _atom_site_type_symbol
 _atom_site_label
 _atom_site_symmetry_multiplicity
 _atom_site_fract_x
 _atom_site_fract_y
 _atom_site_fract_z
 _atom_site_occupancy
  Pr  Pr0  1  0.004389  0.174775  0.099451  1
  Pr  Pr1  1  0.996473  0.823713  0.900859  1
  Pr  Pr2  1  0.496479  0.674160  0.901057  1
  Pr  Pr3  1  0.996473  0.823713  0.599141  1
  Pr  Pr4  1  0.503730  0.325573  0.099551  1
  Pr  Pr5  1  0.004389  0.174775  0.400549  1
  Pr  Pr6  1  0.503730  0.325573  0.400449  1
  Pr  Pr7  1  0.496479  0.674160  0.598943  1
  Lu  Lu8  1  0.172966  0.505516  0.750000  1
  Lu  Lu9  1  0.827540  0.496736  0.250000  1
  Lu  Lu10  1  0.327592  0.003232  0.250000  1
  Lu  Lu11  1  0.670255  0.996127  0.750000  1
  Lu  Lu12  1  0.341069  0.171612  0.625000  1
  Lu  Lu13  1  0.659992  0.827943  0.374795  1
  Lu  Lu14  1  0.159912  0.672046  0.375280  1
  Lu  Lu15  1  0.659992  0.827943  0.125205  1
  Lu  Lu16  1  0.837318  0.330399  0.623301  1
  Lu  Lu17  1  0.341069  0.171612  0.875000  1
  Lu  Lu18  1  0.837318  0.330399  0.876699  1
  Lu  Lu19  1  0.159912  0.672046  0.124720  1
  Si  Si20  1  0.955908  0.879282  0.250000  1
  Si  Si21  1  0.454931  0.620543  0.250000  1
  Si  Si22  1  0.544423  0.378576  0.750000  1
  Si  Si23  1  0.299940  0.871271  0.750000  1
  Si  Si24  1  0.704834  0.124146  0.250000  1
  Si  Si25  1  0.204771  0.376626  0.250000  1
  Si  Si26  1  0.795950  0.624328  0.750000  1
  Ge  Ge27  1  0.040152  0.124708  0.750000  1
  Ge  Ge28  1  0.171323  0.459163  0.541123  1
  Ge  Ge29  1  0.828891  0.540426  0.458184  1
  Ge  Ge30  1  0.330143  0.960095  0.459095  1
  Ge  Ge31  1  0.828891  0.540426  0.041816  1
  Ge  Ge32  1  0.670650  0.039546  0.540547  1
  Ge  Ge33  1  0.171323  0.459163  0.958877  1
  Ge  Ge34  1  0.670650  0.039546  0.959453  1
  Ge  Ge35  1  0.330143  0.960095  0.040905  1
