# generated using pymatgen
data_Sr(Cd2Pd)2
_symmetry_space_group_name_H-M   'P 1'
_cell_length_a   8.40334800
_cell_length_b   8.40334800
_cell_length_c   4.54335100
_cell_angle_alpha   90.00000000
_cell_angle_beta   90.00000000
_cell_angle_gamma   90.00000000
_symmetry_Int_Tables_number   1
_chemical_formula_structural   Sr(Cd2Pd)2
_chemical_formula_sum   'Sr2 Cd8 Pd4'
_cell_volume   320.83444462
_cell_formula_units_Z   2
loop_
 _symmetry_equiv_pos_site_id
 _symmetry_equiv_pos_as_xyz
  1  'x, y, z'
loop_
 _atom_site_type_symbol
 _atom_site_label
 _atom_site_symmetry_multiplicity
 _atom_site_fract_x
 _atom_site_fract_y
 _atom_site_fract_z
 _atom_site_occupancy
  Sr  Sr0  1  0.500000  0.500000  0.500000  1
  Sr  Sr1  1  0.000000  0.000000  0.000000  1
  Cd  Cd2  1  0.343023  0.092470  0.500000  1
  Cd  Cd3  1  0.656977  0.907530  0.500000  1
  Cd  Cd4  1  0.843023  0.407530  0.000000  1
  Cd  Cd5  1  0.156977  0.592470  0.000000  1
  Cd  Cd6  1  0.092470  0.343023  0.500000  1
  Cd  Cd7  1  0.907530  0.656977  0.500000  1
  Cd  Cd8  1  0.407530  0.843023  0.000000  1
  Cd  Cd9  1  0.592470  0.156977  0.000000  1
  Pd  Pd10  1  0.780207  0.219793  0.500000  1
  Pd  Pd11  1  0.219793  0.780207  0.500000  1
  Pd  Pd12  1  0.280207  0.280207  0.000000  1
  Pd  Pd13  1  0.719793  0.719793  0.000000  1
