# generated using pymatgen
data_Yb3Eu2Sn3H
_symmetry_space_group_name_H-M   'P 1'
_cell_length_a   9.51960293
_cell_length_b   9.51960311
_cell_length_c   9.51960222
_cell_angle_alpha   128.52207612
_cell_angle_beta   128.52207320
_cell_angle_gamma   75.78079524
_symmetry_Int_Tables_number   1
_chemical_formula_structural   Yb3Eu2Sn3H
_chemical_formula_sum   'Yb6 Eu4 Sn6 H2'
_cell_volume   513.59352992
_cell_formula_units_Z   2
loop_
 _symmetry_equiv_pos_site_id
 _symmetry_equiv_pos_as_xyz
  1  'x, y, z'
loop_
 _atom_site_type_symbol
 _atom_site_label
 _atom_site_symmetry_multiplicity
 _atom_site_fract_x
 _atom_site_fract_y
 _atom_site_fract_z
 _atom_site_occupancy
  Yb  Yb0  1  0.496901  0.496901  0.000000  1
  Yb  Yb1  1  0.996901  0.996901  0.000000  1
  Yb  Yb2  1  0.510294  0.010294  0.821979  1
  Yb  Yb3  1  0.188314  0.688314  0.178021  1
  Yb  Yb4  1  0.010294  0.188314  0.500000  1
  Yb  Yb5  1  0.688314  0.510294  0.500000  1
  Eu  Eu6  1  0.488995  0.988995  0.172701  1
  Eu  Eu7  1  0.816294  0.316294  0.827299  1
  Eu  Eu8  1  0.988995  0.816294  0.500000  1
  Eu  Eu9  1  0.316294  0.488995  0.500000  1
  Sn  Sn10  1  0.250174  0.250174  0.000000  1
  Sn  Sn11  1  0.750174  0.750174  0.000000  1
  Sn  Sn12  1  0.872030  0.372030  0.247542  1
  Sn  Sn13  1  0.124488  0.624488  0.752458  1
  Sn  Sn14  1  0.372030  0.124488  0.500000  1
  Sn  Sn15  1  0.624488  0.872030  0.500000  1
  H  H16  1  0.252509  0.752509  0.500000  1
  H  H17  1  0.752509  0.252509  0.500000  1
