# generated using pymatgen
data_Hf8Ni2Ir2N
_symmetry_space_group_name_H-M   'P 1'
_cell_length_a   8.61577178
_cell_length_b   8.61577235
_cell_length_c   8.61577182
_cell_angle_alpha   120.19432113
_cell_angle_beta   119.85010916
_cell_angle_gamma   89.96178732
_symmetry_Int_Tables_number   1
_chemical_formula_structural   Hf8Ni2Ir2N
_chemical_formula_sum   'Hf16 Ni4 Ir4 N2'
_cell_volume   452.08148954
_cell_formula_units_Z   2
loop_
 _symmetry_equiv_pos_site_id
 _symmetry_equiv_pos_as_xyz
  1  'x, y, z'
loop_
 _atom_site_type_symbol
 _atom_site_label
 _atom_site_symmetry_multiplicity
 _atom_site_fract_x
 _atom_site_fract_y
 _atom_site_fract_z
 _atom_site_occupancy
  Hf  Hf0  1  0.938655  0.188655  0.750000  1
  Hf  Hf1  1  0.321192  0.571192  0.750000  1
  Hf  Hf2  1  0.933466  0.567657  0.756314  1
  Hf  Hf3  1  0.311343  0.177152  0.743686  1
  Hf  Hf4  1  0.933466  0.177152  0.365809  1
  Hf  Hf5  1  0.311343  0.567657  0.134191  1
  Hf  Hf6  1  0.058545  0.808545  0.250000  1
  Hf  Hf7  1  0.689372  0.439372  0.250000  1
  Hf  Hf8  1  0.059892  0.439255  0.245813  1
  Hf  Hf9  1  0.693442  0.814079  0.254187  1
  Hf  Hf10  1  0.059892  0.814079  0.620637  1
  Hf  Hf11  1  0.693442  0.439255  0.879363  1
  Hf  Hf12  1  0.485068  0.015717  0.030649  1
  Hf  Hf13  1  0.485068  0.454418  0.469351  1
  Hf  Hf14  1  0.485621  0.013902  0.471720  1
  Hf  Hf15  1  0.042182  0.013902  0.028280  1
  Ni  Ni16  1  0.272868  0.231276  0.458408  1
  Ni  Ni17  1  0.272868  0.814460  0.041592  1
  Ni  Ni18  1  0.273718  0.228255  0.045463  1
  Ni  Ni19  1  0.682791  0.228255  0.454537  1
  Ir  Ir20  1  0.708053  0.784172  0.576120  1
  Ir  Ir21  1  0.708053  0.131933  0.923880  1
  Ir  Ir22  1  0.705243  0.790040  0.915203  1
  Ir  Ir23  1  0.374838  0.790040  0.584797  1
  N  N24  1  0.999791  0.499819  0.000028  1
  N  N25  1  0.999791  0.999762  0.499972  1
