# generated using pymatgen
data_Hf18Ta2Co2RuW5
_symmetry_space_group_name_H-M   'P 1'
_cell_length_a   8.69589300
_cell_length_b   8.69589396
_cell_length_c   8.50494500
_cell_angle_alpha   90.00000000
_cell_angle_beta   90.00000000
_cell_angle_gamma   119.82190289
_symmetry_Int_Tables_number   1
_chemical_formula_structural   Hf18Ta2Co2RuW5
_chemical_formula_sum   'Hf18 Ta2 Co2 Ru1 W5'
_cell_volume   557.96526687
_cell_formula_units_Z   1
loop_
 _symmetry_equiv_pos_site_id
 _symmetry_equiv_pos_as_xyz
  1  'x, y, z'
loop_
 _atom_site_type_symbol
 _atom_site_label
 _atom_site_symmetry_multiplicity
 _atom_site_fract_x
 _atom_site_fract_y
 _atom_site_fract_z
 _atom_site_occupancy
  Hf  Hf0  1  0.202124  0.797876  0.440138  1
  Hf  Hf1  1  0.203354  0.404781  0.440361  1
  Hf  Hf2  1  0.595219  0.796646  0.440361  1
  Hf  Hf3  1  0.798480  0.201520  0.560958  1
  Hf  Hf4  1  0.799064  0.596824  0.559148  1
  Hf  Hf5  1  0.403176  0.200936  0.559148  1
  Hf  Hf6  1  0.798480  0.201520  0.939042  1
  Hf  Hf7  1  0.799064  0.596824  0.940852  1
  Hf  Hf8  1  0.403176  0.200936  0.940852  1
  Hf  Hf9  1  0.202124  0.797876  0.059862  1
  Hf  Hf10  1  0.203354  0.404781  0.059639  1
  Hf  Hf11  1  0.595219  0.796646  0.059639  1
  Hf  Hf12  1  0.542806  0.457194  0.250000  1
  Hf  Hf13  1  0.542547  0.086284  0.250000  1
  Hf  Hf14  1  0.913716  0.457453  0.250000  1
  Hf  Hf15  1  0.457738  0.542262  0.750000  1
  Hf  Hf16  1  0.457176  0.914936  0.750000  1
  Hf  Hf17  1  0.085064  0.542824  0.750000  1
  Ta  Ta18  1  0.998645  0.001355  0.497160  1
  Ta  Ta19  1  0.998645  0.001355  0.002840  1
  Co  Co20  1  0.333856  0.666144  0.250000  1
  Co  Co21  1  0.667203  0.332797  0.750000  1
  Ru  Ru22  1  0.886193  0.113807  0.250000  1
  W  W23  1  0.885401  0.769672  0.250000  1
  W  W24  1  0.230328  0.114599  0.250000  1
  W  W25  1  0.113669  0.886331  0.750000  1
  W  W26  1  0.112451  0.228272  0.750000  1
  W  W27  1  0.771728  0.887549  0.750000  1
