# generated using pymatgen
data_Be3Pt2Rh
_symmetry_space_group_name_H-M   'P 1'
_cell_length_a   3.98949200
_cell_length_b   3.98949300
_cell_length_c   4.89774400
_cell_angle_alpha   90.00000000
_cell_angle_beta   90.00000000
_cell_angle_gamma   120.00000827
_symmetry_Int_Tables_number   1
_chemical_formula_structural   Be3Pt2Rh
_chemical_formula_sum   'Be3 Pt2 Rh1'
_cell_volume   67.50904788
_cell_formula_units_Z   1
loop_
 _symmetry_equiv_pos_site_id
 _symmetry_equiv_pos_as_xyz
  1  'x, y, z'
loop_
 _atom_site_type_symbol
 _atom_site_label
 _atom_site_symmetry_multiplicity
 _atom_site_fract_x
 _atom_site_fract_y
 _atom_site_fract_z
 _atom_site_occupancy
  Be  Be0  1  0.333334  0.666668  0.160602  1
  Be  Be1  1  0.000000  0.000000  0.500000  1
  Be  Be2  1  0.666667  0.333334  0.839397  1
  Pt  Pt3  1  0.666667  0.333334  0.332484  1
  Pt  Pt4  1  0.333334  0.666668  0.667515  1
  Rh  Rh5  1  0.000000  0.000000  0.000000  1
