# generated using pymatgen
data_YScCoB6
_symmetry_space_group_name_H-M   'P 1'
_cell_length_a   3.44293300
_cell_length_b   8.93810200
_cell_length_c   11.29534500
_cell_angle_alpha   90.00000000
_cell_angle_beta   90.00000000
_cell_angle_gamma   90.00000000
_symmetry_Int_Tables_number   1
_chemical_formula_structural   YScCoB6
_chemical_formula_sum   'Y4 Sc4 Co4 B24'
_cell_volume   347.59488592
_cell_formula_units_Z   4
loop_
 _symmetry_equiv_pos_site_id
 _symmetry_equiv_pos_as_xyz
  1  'x, y, z'
loop_
 _atom_site_type_symbol
 _atom_site_label
 _atom_site_symmetry_multiplicity
 _atom_site_fract_x
 _atom_site_fract_y
 _atom_site_fract_z
 _atom_site_occupancy
  Y  Y0  1  0.000000  0.822216  0.085752  1
  Y  Y1  1  0.000000  0.177784  0.914248  1
  Y  Y2  1  0.000000  0.322216  0.414248  1
  Y  Y3  1  0.000000  0.677784  0.585752  1
  Sc  Sc4  1  0.000000  0.444247  0.128081  1
  Sc  Sc5  1  0.000000  0.555753  0.871919  1
  Sc  Sc6  1  0.000000  0.944247  0.371919  1
  Sc  Sc7  1  0.000000  0.055753  0.628081  1
  Co  Co8  1  0.000000  0.141984  0.182314  1
  Co  Co9  1  0.000000  0.858016  0.817686  1
  Co  Co10  1  0.000000  0.641984  0.317686  1
  Co  Co11  1  0.000000  0.358016  0.682314  1
  B  B12  1  0.500000  0.055739  0.068075  1
  B  B13  1  0.500000  0.944261  0.931925  1
  B  B14  1  0.500000  0.555739  0.431925  1
  B  B15  1  0.500000  0.444261  0.568075  1
  B  B16  1  0.500000  0.251948  0.082647  1
  B  B17  1  0.500000  0.748052  0.917353  1
  B  B18  1  0.500000  0.751948  0.417353  1
  B  B19  1  0.500000  0.248052  0.582647  1
  B  B20  1  0.500000  0.294184  0.235024  1
  B  B21  1  0.500000  0.705816  0.764976  1
  B  B22  1  0.500000  0.794184  0.264976  1
  B  B23  1  0.500000  0.205816  0.735024  1
  B  B24  1  0.500000  0.130739  0.316952  1
  B  B25  1  0.500000  0.869261  0.683048  1
  B  B26  1  0.500000  0.630739  0.183048  1
  B  B27  1  0.500000  0.369261  0.816952  1
  B  B28  1  0.500000  0.484665  0.285793  1
  B  B29  1  0.500000  0.515335  0.714207  1
  B  B30  1  0.500000  0.984665  0.214207  1
  B  B31  1  0.500000  0.015335  0.785793  1
  B  B32  1  0.500000  0.099514  0.473430  1
  B  B33  1  0.500000  0.900486  0.526570  1
  B  B34  1  0.500000  0.599514  0.026570  1
  B  B35  1  0.500000  0.400486  0.973430  1
