# generated using pymatgen
data_Nd4Al24Pt8Rh
_symmetry_space_group_name_H-M   'P 1'
_cell_length_a   7.53158148
_cell_length_b   7.59861641
_cell_length_c   13.35968167
_cell_angle_alpha   84.62684755
_cell_angle_beta   79.24884656
_cell_angle_gamma   59.94911694
_symmetry_Int_Tables_number   1
_chemical_formula_structural   Nd4Al24Pt8Rh
_chemical_formula_sum   'Nd4 Al24 Pt8 Rh1'
_cell_volume   650.17983306
_cell_formula_units_Z   1
loop_
 _symmetry_equiv_pos_site_id
 _symmetry_equiv_pos_as_xyz
  1  'x, y, z'
loop_
 _atom_site_type_symbol
 _atom_site_label
 _atom_site_symmetry_multiplicity
 _atom_site_fract_x
 _atom_site_fract_y
 _atom_site_fract_z
 _atom_site_occupancy
  Nd  Nd0  1  0.394052  0.168357  0.808280  1
  Nd  Nd1  1  0.605948  0.831643  0.191720  1
  Nd  Nd2  1  0.733502  0.498134  0.808621  1
  Nd  Nd3  1  0.266498  0.501866  0.191379  1
  Al  Al4  1  0.689443  0.830415  0.946938  1
  Al  Al5  1  0.310557  0.169585  0.053062  1
  Al  Al6  1  0.146753  0.831704  0.559542  1
  Al  Al7  1  0.853247  0.168296  0.440458  1
  Al  Al8  1  0.478972  0.166249  0.557538  1
  Al  Al9  1  0.521028  0.833751  0.442462  1
  Al  Al10  1  0.214867  0.165508  0.331278  1
  Al  Al11  1  0.785133  0.834492  0.668722  1
  Al  Al12  1  0.436485  0.507803  0.668219  1
  Al  Al13  1  0.563515  0.492197  0.331781  1
  Al  Al14  1  0.109953  0.159508  0.666315  1
  Al  Al15  1  0.890047  0.840492  0.333685  1
  Al  Al16  1  0.346925  0.501469  0.947520  1
  Al  Al17  1  0.653075  0.498531  0.052480  1
  Al  Al18  1  0.014700  0.170026  0.957044  1
  Al  Al19  1  0.985300  0.829974  0.042956  1
  Al  Al20  1  0.186371  0.499521  0.442015  1
  Al  Al21  1  0.813629  0.500479  0.557985  1
  Al  Al22  1  0.735418  0.164116  0.183549  1
  Al  Al23  1  0.264582  0.835884  0.816451  1
  Al  Al24  1  0.061461  0.630919  0.817396  1
  Al  Al25  1  0.938539  0.369081  0.182604  1
  Al  Al26  1  0.858380  0.038737  0.815839  1
  Al  Al27  1  0.141620  0.961263  0.184162  1
  Pt  Pt28  1  0.120364  0.494818  0.636260  1
  Pt  Pt29  1  0.879636  0.505182  0.363740  1
  Pt  Pt30  1  0.658028  0.170704  0.999603  1
  Pt  Pt31  1  0.341972  0.829296  0.000397  1
  Pt  Pt32  1  0.539271  0.166954  0.363388  1
  Pt  Pt33  1  0.460729  0.833046  0.636612  1
  Pt  Pt34  1  0.780688  0.172428  0.634951  1
  Pt  Pt35  1  0.219312  0.827572  0.365049  1
  Rh  Rh36  1  0.000000  0.500000  0.000000  1
