# generated using pymatgen
data_YHf(NbS2)8
_symmetry_space_group_name_H-M   'P 1'
_cell_length_a   6.71623000
_cell_length_b   6.71623018
_cell_length_c   13.36378800
_cell_angle_alpha   90.00000000
_cell_angle_beta   90.00000000
_cell_angle_gamma   119.99999914
_symmetry_Int_Tables_number   1
_chemical_formula_structural   YHf(NbS2)8
_chemical_formula_sum   'Y1 Hf1 Nb8 S16'
_cell_volume   522.04909220
_cell_formula_units_Z   1
loop_
 _symmetry_equiv_pos_site_id
 _symmetry_equiv_pos_as_xyz
  1  'x, y, z'
loop_
 _atom_site_type_symbol
 _atom_site_label
 _atom_site_symmetry_multiplicity
 _atom_site_fract_x
 _atom_site_fract_y
 _atom_site_fract_z
 _atom_site_occupancy
  Y  Y0  1  0.000000  0.000000  0.000000  1
  Hf  Hf1  1  0.000000  0.000000  0.500000  1
  Nb  Nb2  1  0.989911  0.494955  0.261117  1
  Nb  Nb3  1  0.010089  0.505045  0.738883  1
  Nb  Nb4  1  0.494955  0.505045  0.738883  1
  Nb  Nb5  1  0.505045  0.010089  0.261117  1
  Nb  Nb6  1  0.000000  0.000000  0.739669  1
  Nb  Nb7  1  0.000000  0.000000  0.260331  1
  Nb  Nb8  1  0.505045  0.494955  0.261117  1
  Nb  Nb9  1  0.494955  0.989911  0.738883  1
  S  S10  1  0.333333  0.666667  0.619120  1
  S  S11  1  0.666667  0.333333  0.140654  1
  S  S12  1  0.666667  0.333333  0.380880  1
  S  S13  1  0.333333  0.666667  0.859346  1
  S  S14  1  0.168285  0.336569  0.379627  1
  S  S15  1  0.831319  0.168681  0.857196  1
  S  S16  1  0.337362  0.168681  0.857196  1
  S  S17  1  0.663431  0.831715  0.379627  1
  S  S18  1  0.168285  0.831715  0.379627  1
  S  S19  1  0.831319  0.662638  0.857196  1
  S  S20  1  0.168681  0.337362  0.142804  1
  S  S21  1  0.831715  0.168285  0.620373  1
  S  S22  1  0.336569  0.168285  0.620373  1
  S  S23  1  0.662638  0.831319  0.142804  1
  S  S24  1  0.168681  0.831319  0.142804  1
  S  S25  1  0.831715  0.663431  0.620373  1
