# generated using pymatgen
data_Lu3Sc3Al7Ni16
_symmetry_space_group_name_H-M   'P 1'
_cell_length_a   8.36993249
_cell_length_b   8.35769291
_cell_length_c   8.34646101
_cell_angle_alpha   60.14144705
_cell_angle_beta   59.99582976
_cell_angle_gamma   59.86273847
_symmetry_Int_Tables_number   1
_chemical_formula_structural   Lu3Sc3Al7Ni16
_chemical_formula_sum   'Lu3 Sc3 Al7 Ni16'
_cell_volume   412.84843630
_cell_formula_units_Z   1
loop_
 _symmetry_equiv_pos_site_id
 _symmetry_equiv_pos_as_xyz
  1  'x, y, z'
loop_
 _atom_site_type_symbol
 _atom_site_label
 _atom_site_symmetry_multiplicity
 _atom_site_fract_x
 _atom_site_fract_y
 _atom_site_fract_z
 _atom_site_occupancy
  Lu  Lu0  1  0.209985  0.790015  0.788320  1
  Lu  Lu1  1  0.215336  0.784664  0.215336  1
  Lu  Lu2  1  0.788320  0.211680  0.209985  1
  Sc  Sc3  1  0.780749  0.219251  0.780749  1
  Sc  Sc4  1  0.778496  0.779374  0.220626  1
  Sc  Sc5  1  0.220626  0.221504  0.778496  1
  Al  Al6  1  0.997399  0.002601  0.501804  1
  Al  Al7  1  0.500387  0.999613  0.500387  1
  Al  Al8  1  0.499462  0.500538  0.499462  1
  Al  Al9  1  0.000387  0.499613  0.000387  1
  Al  Al10  1  0.501804  0.498196  0.997399  1
  Al  Al11  1  0.502609  0.002219  0.997781  1
  Al  Al12  1  0.997781  0.497391  0.502609  1
  Ni  Ni13  1  0.376865  0.374910  0.379777  1
  Ni  Ni14  1  0.514921  0.829110  0.828487  1
  Ni  Ni15  1  0.625090  0.623135  0.131553  1
  Ni  Ni16  1  0.170998  0.170494  0.487392  1
  Ni  Ni17  1  0.828487  0.827482  0.514921  1
  Ni  Ni18  1  0.172518  0.171513  0.170890  1
  Ni  Ni19  1  0.829506  0.829002  0.828883  1
  Ni  Ni20  1  0.378565  0.376753  0.866322  1
  Ni  Ni21  1  0.828883  0.512608  0.829506  1
  Ni  Ni22  1  0.623247  0.621435  0.621643  1
  Ni  Ni23  1  0.379777  0.868447  0.376865  1
  Ni  Ni24  1  0.131553  0.620223  0.625090  1
  Ni  Ni25  1  0.621643  0.133678  0.623247  1
  Ni  Ni26  1  0.170890  0.485079  0.172518  1
  Ni  Ni27  1  0.866322  0.378357  0.378565  1
  Ni  Ni28  1  0.487392  0.171117  0.170998  1
