# generated using pymatgen
data_Tb2Mn3Fe9P7
_symmetry_space_group_name_H-M   'P 1'
_cell_length_a   9.06660800
_cell_length_b   9.06660863
_cell_length_c   3.64238800
_cell_angle_alpha   90.00000000
_cell_angle_beta   90.00000000
_cell_angle_gamma   119.99999869
_symmetry_Int_Tables_number   1
_chemical_formula_structural   Tb2Mn3Fe9P7
_chemical_formula_sum   'Tb2 Mn3 Fe9 P7'
_cell_volume   259.30240944
_cell_formula_units_Z   1
loop_
 _symmetry_equiv_pos_site_id
 _symmetry_equiv_pos_as_xyz
  1  'x, y, z'
loop_
 _atom_site_type_symbol
 _atom_site_label
 _atom_site_symmetry_multiplicity
 _atom_site_fract_x
 _atom_site_fract_y
 _atom_site_fract_z
 _atom_site_occupancy
  Tb  Tb0  1  0.666667  0.333333  0.000000  1
  Tb  Tb1  1  0.333333  0.666667  0.500000  1
  Mn  Mn2  1  0.102210  0.884945  0.500000  1
  Mn  Mn3  1  0.782734  0.897790  0.500000  1
  Mn  Mn4  1  0.115055  0.217266  0.500000  1
  Fe  Fe5  1  0.055491  0.631067  0.000000  1
  Fe  Fe6  1  0.575576  0.944509  0.000000  1
  Fe  Fe7  1  0.368933  0.424424  0.000000  1
  Fe  Fe8  1  0.275153  0.119921  0.000000  1
  Fe  Fe9  1  0.844767  0.724847  0.000000  1
  Fe  Fe10  1  0.880079  0.155233  0.000000  1
  Fe  Fe11  1  0.433695  0.048719  0.500000  1
  Fe  Fe12  1  0.615024  0.566305  0.500000  1
  Fe  Fe13  1  0.951281  0.384976  0.500000  1
  P  P14  1  0.302217  0.888769  0.000000  1
  P  P15  1  0.586553  0.697783  0.000000  1
  P  P16  1  0.111231  0.413447  0.000000  1
  P  P17  1  0.406044  0.289557  0.500000  1
  P  P18  1  0.883513  0.593956  0.500000  1
  P  P19  1  0.710443  0.116487  0.500000  1
  P  P20  1  0.000000  0.000000  0.000000  1
