# generated using pymatgen
data_Ac16In4RuPtRh2
_symmetry_space_group_name_H-M   'P 1'
_cell_length_a   10.52487376
_cell_length_b   10.57593933
_cell_length_c   10.52487276
_cell_angle_alpha   59.89842756
_cell_angle_beta   59.81044417
_cell_angle_gamma   59.89842544
_symmetry_Int_Tables_number   1
_chemical_formula_structural   Ac16In4RuPtRh2
_chemical_formula_sum   'Ac16 In4 Ru1 Pt1 Rh2'
_cell_volume   825.93357034
_cell_formula_units_Z   1
loop_
 _symmetry_equiv_pos_site_id
 _symmetry_equiv_pos_as_xyz
  1  'x, y, z'
loop_
 _atom_site_type_symbol
 _atom_site_label
 _atom_site_symmetry_multiplicity
 _atom_site_fract_x
 _atom_site_fract_y
 _atom_site_fract_z
 _atom_site_occupancy
  Ac  Ac0  1  0.809314  0.807334  0.196168  1
  Ac  Ac1  1  0.809682  0.195733  0.809682  1
  Ac  Ac2  1  0.188491  0.191987  0.809623  1
  Ac  Ac3  1  0.648785  0.046931  0.648785  1
  Ac  Ac4  1  0.062499  0.063068  0.434616  1
  Ac  Ac5  1  0.440778  0.433580  0.061492  1
  Ac  Ac6  1  0.653737  0.654029  0.653737  1
  Ac  Ac7  1  0.809623  0.191987  0.188491  1
  Ac  Ac8  1  0.196168  0.807334  0.809314  1
  Ac  Ac9  1  0.042730  0.650308  0.651249  1
  Ac  Ac10  1  0.434616  0.063068  0.062499  1
  Ac  Ac11  1  0.434662  0.063569  0.434662  1
  Ac  Ac12  1  0.062396  0.432671  0.062396  1
  Ac  Ac13  1  0.651249  0.650308  0.042730  1
  Ac  Ac14  1  0.191559  0.807693  0.191559  1
  Ac  Ac15  1  0.061492  0.433580  0.440778  1
  In  In16  1  0.421046  0.422484  0.421046  1
  In  In17  1  0.423052  0.423064  0.733231  1
  In  In18  1  0.423413  0.731703  0.423413  1
  In  In19  1  0.733231  0.423064  0.423052  1
  Ru  Ru20  1  0.860771  0.423407  0.860771  1
  Pt  Pt21  1  0.857412  0.859178  0.857412  1
  Rh  Rh22  1  0.858892  0.861959  0.424401  1
  Rh  Rh23  1  0.424401  0.861959  0.858892  1
