# generated using pymatgen
data_Ho2ErTm5(ReB6)4
_symmetry_space_group_name_H-M   'P 1'
_cell_length_a   3.64979600
_cell_length_b   9.11515600
_cell_length_c   11.48827400
_cell_angle_alpha   89.99926640
_cell_angle_beta   90.00081531
_cell_angle_gamma   90.00078805
_symmetry_Int_Tables_number   1
_chemical_formula_structural   Ho2ErTm5(ReB6)4
_chemical_formula_sum   'Ho2 Er1 Tm5 Re4 B24'
_cell_volume   382.19718300
_cell_formula_units_Z   1
loop_
 _symmetry_equiv_pos_site_id
 _symmetry_equiv_pos_as_xyz
  1  'x, y, z'
loop_
 _atom_site_type_symbol
 _atom_site_label
 _atom_site_symmetry_multiplicity
 _atom_site_fract_x
 _atom_site_fract_y
 _atom_site_fract_z
 _atom_site_occupancy
  Ho  Ho0  1  0.999989  0.323260  0.413876  1
  Ho  Ho1  1  0.999994  0.676706  0.586146  1
  Er  Er2  1  0.999980  0.823362  0.086052  1
  Tm  Tm3  1  0.999998  0.176578  0.913940  1
  Tm  Tm4  1  0.000018  0.943285  0.370146  1
  Tm  Tm5  1  0.999989  0.056774  0.629864  1
  Tm  Tm6  1  0.000005  0.443226  0.129583  1
  Tm  Tm7  1  0.999998  0.556685  0.870381  1
  Re  Re8  1  0.000026  0.639027  0.320403  1
  Re  Re9  1  0.999994  0.360871  0.679753  1
  Re  Re10  1  0.999987  0.138827  0.179093  1
  Re  Re11  1  0.000007  0.861379  0.820781  1
  B  B12  1  0.500001  0.553344  0.433004  1
  B  B13  1  0.499993  0.446575  0.567075  1
  B  B14  1  0.500000  0.053346  0.066611  1
  B  B15  1  0.499993  0.946981  0.933190  1
  B  B16  1  0.500006  0.750134  0.418787  1
  B  B17  1  0.499994  0.249863  0.581319  1
  B  B18  1  0.500006  0.250004  0.080700  1
  B  B19  1  0.500004  0.750029  0.918986  1
  B  B20  1  0.499997  0.792816  0.265164  1
  B  B21  1  0.499991  0.207084  0.735038  1
  B  B22  1  0.499994  0.292709  0.234494  1
  B  B23  1  0.499999  0.707300  0.765415  1
  B  B24  1  0.500002  0.630648  0.184908  1
  B  B25  1  0.500015  0.369129  0.815254  1
  B  B26  1  0.499994  0.130573  0.314838  1
  B  B27  1  0.500003  0.869544  0.685165  1
  B  B28  1  0.500001  0.981683  0.212018  1
  B  B29  1  0.500019  0.018624  0.788045  1
  B  B30  1  0.499988  0.481758  0.287689  1
  B  B31  1  0.500010  0.518143  0.712356  1
  B  B32  1  0.500010  0.599372  0.027719  1
  B  B33  1  0.499994  0.400316  0.972179  1
  B  B34  1  0.500002  0.099143  0.472351  1
  B  B35  1  0.500001  0.900902  0.527675  1
