# generated using pymatgen
data_NaErSc2(B6Ir)2
_symmetry_space_group_name_H-M   'P 1'
_cell_length_a   3.52563200
_cell_length_b   8.97747614
_cell_length_c   11.34148405
_cell_angle_alpha   89.81957499
_cell_angle_beta   90.00000000
_cell_angle_gamma   90.00000000
_symmetry_Int_Tables_number   1
_chemical_formula_structural   NaErSc2(B6Ir)2
_chemical_formula_sum   'Na2 Er2 Sc4 B24 Ir4'
_cell_volume   358.97067500
_cell_formula_units_Z   2
loop_
 _symmetry_equiv_pos_site_id
 _symmetry_equiv_pos_as_xyz
  1  'x, y, z'
loop_
 _atom_site_type_symbol
 _atom_site_label
 _atom_site_symmetry_multiplicity
 _atom_site_fract_x
 _atom_site_fract_y
 _atom_site_fract_z
 _atom_site_occupancy
  Na  Na0  1  0.500000  0.320882  0.414772  1
  Na  Na1  1  0.500000  0.679118  0.585228  1
  Er  Er2  1  0.500000  0.181652  0.912810  1
  Er  Er3  1  0.500000  0.818348  0.087190  1
  Sc  Sc4  1  0.500000  0.445803  0.126728  1
  Sc  Sc5  1  0.500000  0.554197  0.873272  1
  Sc  Sc6  1  0.500000  0.055538  0.623709  1
  Sc  Sc7  1  0.500000  0.944462  0.376291  1
  B  B8  1  0.000000  0.098507  0.473497  1
  B  B9  1  0.000000  0.901493  0.526503  1
  B  B10  1  0.000000  0.399305  0.972930  1
  B  B11  1  0.000000  0.600695  0.027070  1
  B  B12  1  0.000000  0.130895  0.318595  1
  B  B13  1  0.000000  0.869105  0.681405  1
  B  B14  1  0.000000  0.369558  0.818167  1
  B  B15  1  0.000000  0.630442  0.181833  1
  B  B16  1  0.000000  0.054712  0.066026  1
  B  B17  1  0.000000  0.945288  0.933974  1
  B  B18  1  0.000000  0.445213  0.565891  1
  B  B19  1  0.000000  0.554787  0.434109  1
  B  B20  1  0.000000  0.482175  0.286811  1
  B  B21  1  0.000000  0.517825  0.713189  1
  B  B22  1  0.000000  0.017198  0.784816  1
  B  B23  1  0.000000  0.982802  0.215184  1
  B  B24  1  0.000000  0.253901  0.080472  1
  B  B25  1  0.000000  0.746099  0.919528  1
  B  B26  1  0.000000  0.248078  0.580042  1
  B  B27  1  0.000000  0.751922  0.419958  1
  B  B28  1  0.000000  0.294104  0.235930  1
  B  B29  1  0.000000  0.705896  0.764070  1
  B  B30  1  0.000000  0.205342  0.735176  1
  B  B31  1  0.000000  0.794658  0.264824  1
  Ir  Ir32  1  0.500000  0.139181  0.178898  1
  Ir  Ir33  1  0.500000  0.860819  0.821102  1
  Ir  Ir34  1  0.500000  0.358353  0.683066  1
  Ir  Ir35  1  0.500000  0.641647  0.316934  1
