# generated using pymatgen
data_TbHo(ReO4)6
_symmetry_space_group_name_H-M   'P 1'
_cell_length_a   10.24232003
_cell_length_b   10.23933551
_cell_length_c   6.21118700
_cell_angle_alpha   90.00000000
_cell_angle_beta   90.00000000
_cell_angle_gamma   119.97103744
_symmetry_Int_Tables_number   1
_chemical_formula_structural   TbHo(ReO4)6
_chemical_formula_sum   'Tb1 Ho1 Re6 O24'
_cell_volume   564.28957242
_cell_formula_units_Z   1
loop_
 _symmetry_equiv_pos_site_id
 _symmetry_equiv_pos_as_xyz
  1  'x, y, z'
loop_
 _atom_site_type_symbol
 _atom_site_label
 _atom_site_symmetry_multiplicity
 _atom_site_fract_x
 _atom_site_fract_y
 _atom_site_fract_z
 _atom_site_occupancy
  Tb  Tb0  1  0.333236  0.666665  0.250000  1
  Ho  Ho1  1  0.666766  0.333338  0.750000  1
  Re  Re2  1  0.089848  0.395292  0.750000  1
  Re  Re3  1  0.396806  0.305201  0.250000  1
  Re  Re4  1  0.604502  0.694366  0.750000  1
  Re  Re5  1  0.908437  0.603411  0.250000  1
  Re  Re6  1  0.305544  0.910386  0.750000  1
  Re  Re7  1  0.694873  0.091355  0.250000  1
  O  O8  1  0.488915  0.648414  0.519818  1
  O  O9  1  0.351400  0.840612  0.519804  1
  O  O10  1  0.846332  0.732056  0.250000  1
  O  O11  1  0.114772  0.847935  0.750000  1
  O  O12  1  0.268292  0.114510  0.250000  1
  O  O13  1  0.152588  0.267095  0.750000  1
  O  O14  1  0.512166  0.351029  0.019286  1
  O  O15  1  0.885453  0.153138  0.250000  1
  O  O16  1  0.106198  0.698285  0.250000  1
  O  O17  1  0.159419  0.510896  0.980190  1
  O  O18  1  0.159419  0.510896  0.519810  1
  O  O19  1  0.891999  0.301120  0.750000  1
  O  O20  1  0.301855  0.408114  0.250000  1
  O  O21  1  0.698739  0.590665  0.750000  1
  O  O22  1  0.838953  0.488029  0.480735  1
  O  O23  1  0.409394  0.108277  0.750000  1
  O  O24  1  0.649140  0.161020  0.019255  1
  O  O25  1  0.488915  0.648414  0.980182  1
  O  O26  1  0.351400  0.840612  0.980196  1
  O  O27  1  0.649140  0.161020  0.480745  1
  O  O28  1  0.512166  0.351029  0.480714  1
  O  O29  1  0.838953  0.488029  0.019265  1
  O  O30  1  0.732564  0.885246  0.750000  1
  O  O31  1  0.591817  0.893545  0.250000  1
