# generated using pymatgen
data_CsSm6Y4(C2I9)2
_symmetry_space_group_name_H-M   'P 1'
_cell_length_a   11.53050890
_cell_length_b   11.57169514
_cell_length_c   11.63515070
_cell_angle_alpha   113.22023802
_cell_angle_beta   87.04443131
_cell_angle_gamma   119.64365571
_symmetry_Int_Tables_number   1
_chemical_formula_structural   CsSm6Y4(C2I9)2
_chemical_formula_sum   'Cs1 Sm6 Y4 C4 I18'
_cell_volume   1219.80605424
_cell_formula_units_Z   1
loop_
 _symmetry_equiv_pos_site_id
 _symmetry_equiv_pos_as_xyz
  1  'x, y, z'
loop_
 _atom_site_type_symbol
 _atom_site_label
 _atom_site_symmetry_multiplicity
 _atom_site_fract_x
 _atom_site_fract_y
 _atom_site_fract_z
 _atom_site_occupancy
  Cs  Cs0  1  0.499755  0.999259  0.499631  1
  Sm  Sm1  1  0.907133  0.603357  0.704324  1
  Sm  Sm2  1  0.107054  0.944505  0.000812  1
  Sm  Sm3  1  0.035163  0.961842  0.673854  1
  Sm  Sm4  1  0.327788  0.278208  0.292622  1
  Sm  Sm5  1  0.721261  0.644845  0.984257  1
  Sm  Sm6  1  0.892978  0.056373  0.999737  1
  Y  Y7  1  0.675733  0.723278  0.710060  1
  Y  Y8  1  0.275172  0.351839  0.017670  1
  Y  Y9  1  0.094193  0.392525  0.292826  1
  Y  Y10  1  0.966338  0.039928  0.322620  1
  C  C11  1  0.152435  0.222707  0.124237  1
  C  C12  1  0.846231  0.777566  0.875353  1
  C  C13  1  0.920511  0.852414  0.800926  1
  C  C14  1  0.077865  0.147713  0.198806  1
  I  I15  1  0.446444  0.529287  0.829802  1
  I  I16  1  0.387213  0.037738  0.158480  1
  I  I17  1  0.773807  0.854949  0.499386  1
  I  I18  1  0.838674  0.314229  0.156655  1
  I  I19  1  0.549479  0.470014  0.167281  1
  I  I20  1  0.221103  0.144025  0.498688  1
  I  I21  1  0.319204  0.099667  0.833172  1
  I  I22  1  0.684288  0.906740  0.172569  1
  I  I23  1  0.977735  0.760087  0.172657  1
  I  I24  1  0.934431  0.298110  0.499545  1
  I  I25  1  0.026232  0.246644  0.833074  1
  I  I26  1  0.068963  0.699812  0.495780  1
  I  I27  1  0.260824  0.620283  0.183578  1
  I  I28  1  0.737541  0.372829  0.815206  1
  I  I29  1  0.638160  0.434423  0.499023  1
  I  I30  1  0.165908  0.688260  0.846582  1
  I  I31  1  0.613801  0.957467  0.839146  1
  I  I32  1  0.356583  0.569077  0.501639  1
