# generated using pymatgen
data_YZnCdPd3
_symmetry_space_group_name_H-M   'P 1'
_cell_length_a   5.53607428
_cell_length_b   5.53607504
_cell_length_c   5.18923359
_cell_angle_alpha   57.76321805
_cell_angle_beta   57.76322772
_cell_angle_gamma   59.99999719
_symmetry_Int_Tables_number   1
_chemical_formula_structural   YZnCdPd3
_chemical_formula_sum   'Y1 Zn1 Cd1 Pd3'
_cell_volume   108.50507638
_cell_formula_units_Z   1
loop_
 _symmetry_equiv_pos_site_id
 _symmetry_equiv_pos_as_xyz
  1  'x, y, z'
loop_
 _atom_site_type_symbol
 _atom_site_label
 _atom_site_symmetry_multiplicity
 _atom_site_fract_x
 _atom_site_fract_y
 _atom_site_fract_z
 _atom_site_occupancy
  Y  Y0  1  0.750971  0.750971  0.747088  1
  Zn  Zn1  1  0.374010  0.374010  0.877970  1
  Cd  Cd2  1  0.003270  0.003270  0.990191  1
  Pd  Pd3  1  0.373416  0.874918  0.378250  1
  Pd  Pd4  1  0.373416  0.373416  0.378250  1
  Pd  Pd5  1  0.874918  0.373416  0.378250  1
