# generated using pymatgen
data_Rb2Li3MnO4
_symmetry_space_group_name_H-M   'P 1'
_cell_length_a   7.96352600
_cell_length_b   7.96361983
_cell_length_c   7.96364231
_cell_angle_alpha   142.63880329
_cell_angle_beta   100.87304236
_cell_angle_gamma   90.94779847
_symmetry_Int_Tables_number   1
_chemical_formula_structural   Rb2Li3MnO4
_chemical_formula_sum   'Rb4 Li6 Mn2 O8'
_cell_volume   288.99521354
_cell_formula_units_Z   2
loop_
 _symmetry_equiv_pos_site_id
 _symmetry_equiv_pos_as_xyz
  1  'x, y, z'
loop_
 _atom_site_type_symbol
 _atom_site_label
 _atom_site_symmetry_multiplicity
 _atom_site_fract_x
 _atom_site_fract_y
 _atom_site_fract_z
 _atom_site_occupancy
  Rb  Rb0  1  0.131069  0.230644  0.361712  1
  Rb  Rb1  1  0.868931  0.769356  0.638288  1
  Rb  Rb2  1  0.631067  0.269355  0.900426  1
  Rb  Rb3  1  0.368933  0.730645  0.099574  1
  Li  Li4  1  0.491986  0.250001  0.241986  1
  Li  Li5  1  0.508014  0.749999  0.758014  1
  Li  Li6  1  0.008016  0.250000  0.758015  1
  Li  Li7  1  0.991984  0.750000  0.241985  1
  Li  Li8  1  0.249999  0.250000  0.000002  1
  Li  Li9  1  0.750001  0.750000  0.999998  1
  Mn  Mn10  1  0.249981  0.750005  0.499992  1
  Mn  Mn11  1  0.750019  0.249995  0.500008  1
  O  O12  1  0.443538  0.580077  0.380241  1
  O  O13  1  0.556462  0.419923  0.619759  1
  O  O14  1  0.199834  0.063300  0.619756  1
  O  O15  1  0.300164  0.919919  0.863456  1
  O  O16  1  0.800166  0.936700  0.380244  1
  O  O17  1  0.699836  0.080081  0.136544  1
  O  O18  1  0.056457  0.436706  0.136540  1
  O  O19  1  0.943543  0.563294  0.863460  1
