# generated using pymatgen
data_La13NdRh6
_symmetry_space_group_name_H-M   'P 1'
_cell_length_a   6.61310101
_cell_length_b   10.19924466
_cell_length_c   10.16882291
_cell_angle_alpha   120.09861327
_cell_angle_beta   89.99334468
_cell_angle_gamma   89.99917603
_symmetry_Int_Tables_number   1
_chemical_formula_structural   La13NdRh6
_chemical_formula_sum   'La13 Nd1 Rh6'
_cell_volume   593.39251578
_cell_formula_units_Z   1
loop_
 _symmetry_equiv_pos_site_id
 _symmetry_equiv_pos_as_xyz
  1  'x, y, z'
loop_
 _atom_site_type_symbol
 _atom_site_label
 _atom_site_symmetry_multiplicity
 _atom_site_fract_x
 _atom_site_fract_y
 _atom_site_fract_z
 _atom_site_occupancy
  La  La0  1  0.472476  0.334583  0.669153  1
  La  La1  1  0.971378  0.666297  0.332594  1
  La  La2  1  0.239900  0.125215  0.874567  1
  La  La3  1  0.239862  0.749354  0.874548  1
  La  La4  1  0.242512  0.124249  0.248532  1
  La  La5  1  0.741670  0.873711  0.125177  1
  La  La6  1  0.741699  0.251429  0.125167  1
  La  La7  1  0.740369  0.875929  0.751859  1
  La  La8  1  0.432613  0.536997  0.462088  1
  La  La9  1  0.432604  0.925052  0.462092  1
  La  La10  1  0.434558  0.537371  0.074758  1
  La  La11  1  0.932540  0.463176  0.539852  1
  La  La12  1  0.932525  0.076725  0.539872  1
  Nd  Nd13  1  0.937663  0.461838  0.923668  1
  Rh  Rh14  1  0.199555  0.812239  0.187023  1
  Rh  Rh15  1  0.199525  0.374779  0.187034  1
  Rh  Rh16  1  0.198199  0.812106  0.624264  1
  Rh  Rh17  1  0.698261  0.184132  0.811242  1
  Rh  Rh18  1  0.698283  0.627131  0.811203  1
  Rh  Rh19  1  0.699809  0.187688  0.375308  1
