# generated using pymatgen
data_Ti8Al15Ir5Ru2
_symmetry_space_group_name_H-M   'P 1'
_cell_length_a   8.65698364
_cell_length_b   8.65698405
_cell_length_c   8.65698411
_cell_angle_alpha   120.16197793
_cell_angle_beta   119.83126043
_cell_angle_gamma   90.00609729
_symmetry_Int_Tables_number   1
_chemical_formula_structural   Ti8Al15Ir5Ru2
_chemical_formula_sum   'Ti8 Al15 Ir5 Ru2'
_cell_volume   458.77790542
_cell_formula_units_Z   1
loop_
 _symmetry_equiv_pos_site_id
 _symmetry_equiv_pos_as_xyz
  1  'x, y, z'
loop_
 _atom_site_type_symbol
 _atom_site_label
 _atom_site_symmetry_multiplicity
 _atom_site_fract_x
 _atom_site_fract_y
 _atom_site_fract_z
 _atom_site_occupancy
  Ti  Ti0  1  0.791227  0.288554  0.072113  1
  Ti  Ti1  1  0.216440  0.288554  0.497328  1
  Ti  Ti2  1  0.208823  0.708823  0.500000  1
  Ti  Ti3  1  0.216440  0.719113  0.927887  1
  Ti  Ti4  1  0.791227  0.719113  0.502672  1
  Ti  Ti5  1  0.781593  0.281593  0.500000  1
  Ti  Ti6  1  0.379683  0.121448  0.741765  1
  Ti  Ti7  1  0.379683  0.637918  0.258235  1
  Al  Al8  1  0.996078  0.496078  0.500000  1
  Al  Al9  1  0.153770  0.341986  0.188215  1
  Al  Al10  1  0.153770  0.965554  0.811785  1
  Al  Al11  1  0.150419  0.347060  0.803359  1
  Al  Al12  1  0.543700  0.347060  0.196641  1
  Al  Al13  1  0.846933  0.653918  0.806986  1
  Al  Al14  1  0.846933  0.039947  0.193014  1
  Al  Al15  1  0.843845  0.654285  0.189560  1
  Al  Al16  1  0.464724  0.654285  0.810440  1
  Al  Al17  1  0.378565  0.120318  0.258247  1
  Al  Al18  1  0.862071  0.120318  0.741753  1
  Al  Al19  1  0.620714  0.878757  0.258044  1
  Al  Al20  1  0.620714  0.362671  0.741956  1
  Al  Al21  1  0.622346  0.879318  0.743027  1
  Al  Al22  1  0.136290  0.879318  0.256973  1
  Ir  Ir23  1  0.000670  0.999448  0.500989  1
  Ir  Ir24  1  0.498460  0.999448  0.998779  1
  Ir  Ir25  1  0.497906  0.497906  0.000000  1
  Ir  Ir26  1  0.498460  0.499680  0.499011  1
  Ir  Ir27  1  0.000670  0.499680  0.001221  1
  Ru  Ru28  1  0.999438  0.999438  0.000000  1
  Ru  Ru29  1  0.498409  0.998409  0.500000  1
