# generated using pymatgen
data_LiV(AgSe2)2
_symmetry_space_group_name_H-M   'P 1'
_cell_length_a   6.19993900
_cell_length_b   6.03803500
_cell_length_c   6.03803500
_cell_angle_alpha   90.00000000
_cell_angle_beta   90.00000000
_cell_angle_gamma   90.00000000
_symmetry_Int_Tables_number   1
_chemical_formula_structural   LiV(AgSe2)2
_chemical_formula_sum   'Li1 V1 Ag2 Se4'
_cell_volume   226.03654937
_cell_formula_units_Z   1
loop_
 _symmetry_equiv_pos_site_id
 _symmetry_equiv_pos_as_xyz
  1  'x, y, z'
loop_
 _atom_site_type_symbol
 _atom_site_label
 _atom_site_symmetry_multiplicity
 _atom_site_fract_x
 _atom_site_fract_y
 _atom_site_fract_z
 _atom_site_occupancy
  Li  Li0  1  0.500000  0.000000  0.000000  1
  V  V1  1  0.000000  0.000000  0.000000  1
  Ag  Ag2  1  0.000000  0.000000  0.500000  1
  Ag  Ag3  1  0.000000  0.500000  0.000000  1
  Se  Se4  1  0.234325  0.218951  0.218951  1
  Se  Se5  1  0.234325  0.781049  0.781049  1
  Se  Se6  1  0.765675  0.218951  0.781049  1
  Se  Se7  1  0.765675  0.781049  0.218951  1
