# generated using pymatgen
data_Sr2Ca(TmSn2)2
_symmetry_space_group_name_H-M   'P 1'
_cell_length_a   8.20545400
_cell_length_b   8.59534800
_cell_length_c   16.06018600
_cell_angle_alpha   90.00000000
_cell_angle_beta   90.00000000
_cell_angle_gamma   90.00000000
_symmetry_Int_Tables_number   1
_chemical_formula_structural   Sr2Ca(TmSn2)2
_chemical_formula_sum   'Sr8 Ca4 Tm8 Sn16'
_cell_volume   1132.70456435
_cell_formula_units_Z   4
loop_
 _symmetry_equiv_pos_site_id
 _symmetry_equiv_pos_as_xyz
  1  'x, y, z'
loop_
 _atom_site_type_symbol
 _atom_site_label
 _atom_site_symmetry_multiplicity
 _atom_site_fract_x
 _atom_site_fract_y
 _atom_site_fract_z
 _atom_site_occupancy
  Sr  Sr0  1  0.496384  0.320271  0.906040  1
  Sr  Sr1  1  0.996384  0.179729  0.593960  1
  Sr  Sr2  1  0.503616  0.679729  0.406040  1
  Sr  Sr3  1  0.003616  0.820271  0.093960  1
  Sr  Sr4  1  0.503616  0.679729  0.093960  1
  Sr  Sr5  1  0.003616  0.820271  0.406040  1
  Sr  Sr6  1  0.496384  0.320271  0.593960  1
  Sr  Sr7  1  0.996384  0.179729  0.906040  1
  Ca  Ca8  1  0.167303  0.495489  0.750000  1
  Ca  Ca9  1  0.667303  0.004511  0.750000  1
  Ca  Ca10  1  0.832697  0.504511  0.250000  1
  Ca  Ca11  1  0.332697  0.995489  0.250000  1
  Tm  Tm12  1  0.331162  0.832133  0.877424  1
  Tm  Tm13  1  0.831162  0.667867  0.622576  1
  Tm  Tm14  1  0.668838  0.167867  0.377424  1
  Tm  Tm15  1  0.168838  0.332133  0.122576  1
  Tm  Tm16  1  0.668838  0.167867  0.122576  1
  Tm  Tm17  1  0.168838  0.332133  0.377424  1
  Tm  Tm18  1  0.331162  0.832133  0.622576  1
  Tm  Tm19  1  0.831162  0.667867  0.877424  1
  Sn  Sn20  1  0.336488  0.040961  0.040232  1
  Sn  Sn21  1  0.836488  0.459039  0.459768  1
  Sn  Sn22  1  0.663512  0.959039  0.540232  1
  Sn  Sn23  1  0.163512  0.540961  0.959768  1
  Sn  Sn24  1  0.663512  0.959039  0.959768  1
  Sn  Sn25  1  0.163512  0.540961  0.540232  1
  Sn  Sn26  1  0.336488  0.040961  0.459768  1
  Sn  Sn27  1  0.836488  0.459039  0.040232  1
  Sn  Sn28  1  0.534666  0.628269  0.750000  1
  Sn  Sn29  1  0.034666  0.871731  0.750000  1
  Sn  Sn30  1  0.465334  0.371731  0.250000  1
  Sn  Sn31  1  0.965334  0.128269  0.250000  1
  Sn  Sn32  1  0.288979  0.116202  0.750000  1
  Sn  Sn33  1  0.788979  0.383798  0.750000  1
  Sn  Sn34  1  0.711021  0.883798  0.250000  1
  Sn  Sn35  1  0.211021  0.616202  0.250000  1
