# generated using pymatgen
data_Lu2Ta3Sn(B2Ru5)2
_symmetry_space_group_name_H-M   'P 1'
_cell_length_a   9.49974237
_cell_length_b   9.59006850
_cell_length_c   3.08897700
_cell_angle_alpha   90.00000000
_cell_angle_beta   90.00000000
_cell_angle_gamma   90.84580610
_symmetry_Int_Tables_number   1
_chemical_formula_structural   Lu2Ta3Sn(B2Ru5)2
_chemical_formula_sum   'Lu2 Ta3 Sn1 B4 Ru10'
_cell_volume   281.38496535
_cell_formula_units_Z   1
loop_
 _symmetry_equiv_pos_site_id
 _symmetry_equiv_pos_as_xyz
  1  'x, y, z'
loop_
 _atom_site_type_symbol
 _atom_site_label
 _atom_site_symmetry_multiplicity
 _atom_site_fract_x
 _atom_site_fract_y
 _atom_site_fract_z
 _atom_site_occupancy
  Lu  Lu0  1  0.822358  0.674670  0.000000  1
  Lu  Lu1  1  0.177642  0.325330  0.000000  1
  Ta  Ta2  1  0.321250  0.827842  0.000000  1
  Ta  Ta3  1  0.678750  0.172158  0.000000  1
  Ta  Ta4  1  0.000000  0.000000  0.000000  1
  Sn  Sn5  1  0.500000  0.500000  0.000000  1
  B  B6  1  0.619825  0.878606  0.000000  1
  B  B7  1  0.380175  0.121394  0.000000  1
  B  B8  1  0.120464  0.621377  0.000000  1
  B  B9  1  0.879536  0.378623  0.000000  1
  Ru  Ru10  1  0.557026  0.727793  0.500000  1
  Ru  Ru11  1  0.442974  0.272207  0.500000  1
  Ru  Ru12  1  0.077520  0.785686  0.500000  1
  Ru  Ru13  1  0.922480  0.214314  0.500000  1
  Ru  Ru14  1  0.283004  0.589280  0.500000  1
  Ru  Ru15  1  0.716996  0.410720  0.500000  1
  Ru  Ru16  1  0.221976  0.061166  0.500000  1
  Ru  Ru17  1  0.778024  0.938834  0.500000  1
  Ru  Ru18  1  0.500000  0.000000  0.500000  1
  Ru  Ru19  1  0.000000  0.500000  0.500000  1
