# generated using pymatgen
data_Tb5Er5Tl5In3Pd4
_symmetry_space_group_name_H-M   'P 1'
_cell_length_a   3.62145200
_cell_length_b   8.19485409
_cell_length_c   18.34973303
_cell_angle_alpha   89.97359793
_cell_angle_beta   90.00000000
_cell_angle_gamma   90.00000000
_symmetry_Int_Tables_number   1
_chemical_formula_structural   Tb5Er5Tl5In3Pd4
_chemical_formula_sum   'Tb5 Er5 Tl5 In3 Pd4'
_cell_volume   544.56993678
_cell_formula_units_Z   1
loop_
 _symmetry_equiv_pos_site_id
 _symmetry_equiv_pos_as_xyz
  1  'x, y, z'
loop_
 _atom_site_type_symbol
 _atom_site_label
 _atom_site_symmetry_multiplicity
 _atom_site_fract_x
 _atom_site_fract_y
 _atom_site_fract_z
 _atom_site_occupancy
  Tb  Tb0  1  0.000000  0.499706  0.498247  1
  Tb  Tb1  1  0.000000  0.998886  0.000119  1
  Tb  Tb2  1  0.000000  0.739777  0.283187  1
  Tb  Tb3  1  0.000000  0.261494  0.716744  1
  Tb  Tb4  1  0.000000  0.759884  0.783588  1
  Er  Er5  1  0.000000  0.240419  0.216941  1
  Er  Er6  1  0.000000  0.617128  0.086617  1
  Er  Er7  1  0.000000  0.381006  0.915129  1
  Er  Er8  1  0.000000  0.883410  0.586336  1
  Er  Er9  1  0.000000  0.117901  0.413026  1
  Tl  Tl10  1  0.500000  0.704356  0.935907  1
  Tl  Tl11  1  0.500000  0.293699  0.065965  1
  Tl  Tl12  1  0.500000  0.796460  0.434976  1
  Tl  Tl13  1  0.500000  0.203050  0.563365  1
  Tl  Tl14  1  0.500000  0.585656  0.650381  1
  In  In15  1  0.500000  0.413169  0.347653  1
  In  In16  1  0.500000  0.915392  0.151579  1
  In  In17  1  0.500000  0.085702  0.848903  1
  Pd  Pd18  1  0.500000  0.526201  0.197309  1
  Pd  Pd19  1  0.500000  0.469990  0.805034  1
  Pd  Pd20  1  0.500000  0.975209  0.697172  1
  Pd  Pd21  1  0.500000  0.031504  0.301821  1
