# generated using pymatgen
data_Sr3La5(USe5)4
_symmetry_space_group_name_H-M   'P 1'
_cell_length_a   7.99201747
_cell_length_b   8.57450061
_cell_length_c   12.58088698
_cell_angle_alpha   89.98227288
_cell_angle_beta   89.90032687
_cell_angle_gamma   90.21065191
_symmetry_Int_Tables_number   1
_chemical_formula_structural   Sr3La5(USe5)4
_chemical_formula_sum   'Sr3 La5 U4 Se20'
_cell_volume   862.13029638
_cell_formula_units_Z   1
loop_
 _symmetry_equiv_pos_site_id
 _symmetry_equiv_pos_as_xyz
  1  'x, y, z'
loop_
 _atom_site_type_symbol
 _atom_site_label
 _atom_site_symmetry_multiplicity
 _atom_site_fract_x
 _atom_site_fract_y
 _atom_site_fract_z
 _atom_site_occupancy
  Sr  Sr0  1  0.533928  0.501758  0.323752  1
  Sr  Sr1  1  0.965642  0.997786  0.822976  1
  Sr  Sr2  1  0.465896  0.002053  0.677929  1
  La  La3  1  0.030295  0.499300  0.177405  1
  La  La4  1  0.467164  0.498835  0.674550  1
  La  La5  1  0.035835  0.000779  0.172871  1
  La  La6  1  0.531804  0.998831  0.326704  1
  La  La7  1  0.965483  0.500531  0.824722  1
  U  U8  1  0.068123  0.751707  0.494447  1
  U  U9  1  0.436762  0.748682  0.993134  1
  U  U10  1  0.932716  0.251183  0.506527  1
  U  U11  1  0.564820  0.249953  0.006487  1
  Se  Se12  1  0.838235  0.957602  0.582973  1
  Se  Se13  1  0.666653  0.541417  0.085609  1
  Se  Se14  1  0.158198  0.461445  0.409562  1
  Se  Se15  1  0.335666  0.039232  0.917830  1
  Se  Se16  1  0.167247  0.042252  0.409693  1
  Se  Se17  1  0.332993  0.457406  0.911687  1
  Se  Se18  1  0.833313  0.543066  0.588755  1
  Se  Se19  1  0.666292  0.959282  0.090853  1
  Se  Se20  1  0.847913  0.755346  0.312512  1
  Se  Se21  1  0.657937  0.739621  0.816161  1
  Se  Se22  1  0.156729  0.261303  0.683094  1
  Se  Se23  1  0.337837  0.244609  0.184008  1
  Se  Se24  1  0.445002  0.751254  0.495642  1
  Se  Se25  1  0.052626  0.741991  0.999841  1
  Se  Se26  1  0.556569  0.250669  0.503398  1
  Se  Se27  1  0.947441  0.254243  0.007053  1
  Se  Se28  1  0.183765  0.739302  0.709913  1
  Se  Se29  1  0.313853  0.756298  0.208283  1
  Se  Se30  1  0.819371  0.242212  0.289393  1
  Se  Se31  1  0.683891  0.260053  0.792235  1
