# generated using pymatgen
data_Te12RuRh2
_symmetry_space_group_name_H-M   'P 1'
_cell_length_a   7.88566030
_cell_length_b   7.63194598
_cell_length_c   8.24458592
_cell_angle_alpha   104.87187677
_cell_angle_beta   94.81593998
_cell_angle_gamma   90.18876561
_symmetry_Int_Tables_number   1
_chemical_formula_structural   Te12RuRh2
_chemical_formula_sum   'Te12 Ru1 Rh2'
_cell_volume   477.71022474
_cell_formula_units_Z   1
loop_
 _symmetry_equiv_pos_site_id
 _symmetry_equiv_pos_as_xyz
  1  'x, y, z'
loop_
 _atom_site_type_symbol
 _atom_site_label
 _atom_site_symmetry_multiplicity
 _atom_site_fract_x
 _atom_site_fract_y
 _atom_site_fract_z
 _atom_site_occupancy
  Te  Te0  1  0.279812  0.536722  0.112041  1
  Te  Te1  1  0.840772  0.296956  0.148936  1
  Te  Te2  1  0.828912  0.802885  0.165555  1
  Te  Te3  1  0.256228  0.070569  0.236190  1
  Te  Te4  1  0.216487  0.404394  0.486513  1
  Te  Te5  1  0.237015  0.869952  0.485173  1
  Te  Te6  1  0.762986  0.130048  0.514828  1
  Te  Te7  1  0.783513  0.595605  0.513487  1
  Te  Te8  1  0.743772  0.929431  0.763811  1
  Te  Te9  1  0.171088  0.197115  0.834445  1
  Te  Te10  1  0.159227  0.703044  0.851064  1
  Te  Te11  1  0.720188  0.463278  0.887960  1
  Ru  Ru12  1  0.000000  0.000000  0.000000  1
  Rh  Rh13  1  0.033573  0.594810  0.310937  1
  Rh  Rh14  1  0.966428  0.405190  0.689063  1
