# generated using pymatgen
data_Dy3YReOsC4
_symmetry_space_group_name_H-M   'P 1'
_cell_length_a   5.12084500
_cell_length_b   6.54064522
_cell_length_c   9.83790105
_cell_angle_alpha   89.78144779
_cell_angle_beta   90.00000000
_cell_angle_gamma   90.00000000
_symmetry_Int_Tables_number   1
_chemical_formula_structural   Dy3YReOsC4
_chemical_formula_sum   'Dy6 Y2 Re2 Os2 C8'
_cell_volume   329.50462417
_cell_formula_units_Z   2
loop_
 _symmetry_equiv_pos_site_id
 _symmetry_equiv_pos_as_xyz
  1  'x, y, z'
loop_
 _atom_site_type_symbol
 _atom_site_label
 _atom_site_symmetry_multiplicity
 _atom_site_fract_x
 _atom_site_fract_y
 _atom_site_fract_z
 _atom_site_occupancy
  Dy  Dy0  1  0.250000  0.679019  0.554727  1
  Dy  Dy1  1  0.750000  0.320981  0.445273  1
  Dy  Dy2  1  0.750000  0.819628  0.055287  1
  Dy  Dy3  1  0.250000  0.180372  0.944713  1
  Dy  Dy4  1  0.250000  0.531662  0.215532  1
  Dy  Dy5  1  0.750000  0.468338  0.784468  1
  Y  Y6  1  0.750000  0.969986  0.714239  1
  Y  Y7  1  0.250000  0.030014  0.285761  1
  Re  Re8  1  0.250000  0.722875  0.864637  1
  Re  Re9  1  0.750000  0.277125  0.135363  1
  Os  Os10  1  0.750000  0.775622  0.364185  1
  Os  Os11  1  0.250000  0.224378  0.635815  1
  C  C12  1  0.250000  0.457228  0.759836  1
  C  C13  1  0.750000  0.542772  0.240164  1
  C  C14  1  0.750000  0.042249  0.258638  1
  C  C15  1  0.250000  0.957751  0.741362  1
  C  C16  1  0.250000  0.821975  0.050162  1
  C  C17  1  0.750000  0.178025  0.949838  1
  C  C18  1  0.750000  0.676859  0.549186  1
  C  C19  1  0.250000  0.323141  0.450814  1
