# generated using pymatgen
data_Er4Hf4IrPt3
_symmetry_space_group_name_H-M   'P 1'
_cell_length_a   4.65060600
_cell_length_b   6.99544131
_cell_length_c   8.21533893
_cell_angle_alpha   90.20537851
_cell_angle_beta   90.00000000
_cell_angle_gamma   90.00000000
_symmetry_Int_Tables_number   1
_chemical_formula_structural   Er4Hf4IrPt3
_chemical_formula_sum   'Er4 Hf4 Ir1 Pt3'
_cell_volume   267.26824393
_cell_formula_units_Z   1
loop_
 _symmetry_equiv_pos_site_id
 _symmetry_equiv_pos_as_xyz
  1  'x, y, z'
loop_
 _atom_site_type_symbol
 _atom_site_label
 _atom_site_symmetry_multiplicity
 _atom_site_fract_x
 _atom_site_fract_y
 _atom_site_fract_z
 _atom_site_occupancy
  Er  Er0  1  0.250000  0.986059  0.323492  1
  Er  Er1  1  0.250000  0.480748  0.180424  1
  Er  Er2  1  0.750000  0.018576  0.676494  1
  Er  Er3  1  0.750000  0.516428  0.819248  1
  Hf  Hf4  1  0.250000  0.352847  0.573319  1
  Hf  Hf5  1  0.250000  0.853344  0.923941  1
  Hf  Hf6  1  0.750000  0.642253  0.422155  1
  Hf  Hf7  1  0.750000  0.147057  0.077496  1
  Ir  Ir8  1  0.750000  0.270421  0.406090  1
  Pt  Pt9  1  0.250000  0.230187  0.903959  1
  Pt  Pt10  1  0.250000  0.731744  0.597398  1
  Pt  Pt11  1  0.750000  0.770337  0.095982  1
