# generated using pymatgen
data_Sm2Ho3Er(SbO7)2
_symmetry_space_group_name_H-M   'P 1'
_cell_length_a   6.48415038
_cell_length_b   6.48145334
_cell_length_c   7.56585900
_cell_angle_alpha   90.00000000
_cell_angle_beta   90.00000000
_cell_angle_gamma   109.25823278
_symmetry_Int_Tables_number   1
_chemical_formula_structural   Sm2Ho3Er(SbO7)2
_chemical_formula_sum   'Sm2 Ho3 Er1 Sb2 O14'
_cell_volume   300.17524241
_cell_formula_units_Z   1
loop_
 _symmetry_equiv_pos_site_id
 _symmetry_equiv_pos_as_xyz
  1  'x, y, z'
loop_
 _atom_site_type_symbol
 _atom_site_label
 _atom_site_symmetry_multiplicity
 _atom_site_fract_x
 _atom_site_fract_y
 _atom_site_fract_z
 _atom_site_occupancy
  Sm  Sm0  1  0.499783  0.499964  0.500221  1
  Sm  Sm1  1  0.499783  0.499964  0.999779  1
  Ho  Ho2  1  0.531456  0.000940  0.750000  1
  Ho  Ho3  1  0.000986  0.531334  0.250000  1
  Ho  Ho4  1  0.468569  0.999070  0.250000  1
  Er  Er5  1  0.998870  0.468716  0.750000  1
  Sb  Sb6  1  0.999973  0.999870  0.500338  1
  Sb  Sb7  1  0.999973  0.999870  0.999662  1
  O  O8  1  0.677960  0.929456  0.470250  1
  O  O9  1  0.930023  0.678007  0.530403  1
  O  O10  1  0.677960  0.929456  0.029750  1
  O  O11  1  0.930023  0.678007  0.969597  1
  O  O12  1  0.322234  0.070509  0.529790  1
  O  O13  1  0.070183  0.322162  0.470862  1
  O  O14  1  0.322234  0.070509  0.970210  1
  O  O15  1  0.070183  0.322162  0.029138  1
  O  O16  1  0.930341  0.070379  0.750000  1
  O  O17  1  0.069626  0.930167  0.250000  1
  O  O18  1  0.363537  0.634339  0.750000  1
  O  O19  1  0.634902  0.365019  0.250000  1
  O  O20  1  0.641943  0.359479  0.750000  1
  O  O21  1  0.359458  0.640620  0.250000  1
