# generated using pymatgen
data_Dy2Y3Tm3(CdPt)2
_symmetry_space_group_name_H-M   'P 1'
_cell_length_a   9.64195477
_cell_length_b   9.64195461
_cell_length_c   9.64195400
_cell_angle_alpha   60.00000210
_cell_angle_beta   60.00000266
_cell_angle_gamma   59.99999923
_symmetry_Int_Tables_number   1
_chemical_formula_structural   Dy2Y3Tm3(CdPt)2
_chemical_formula_sum   'Dy4 Y6 Tm6 Cd4 Pt4'
_cell_volume   633.84087622
_cell_formula_units_Z   2
loop_
 _symmetry_equiv_pos_site_id
 _symmetry_equiv_pos_as_xyz
  1  'x, y, z'
loop_
 _atom_site_type_symbol
 _atom_site_label
 _atom_site_symmetry_multiplicity
 _atom_site_fract_x
 _atom_site_fract_y
 _atom_site_fract_z
 _atom_site_occupancy
  Dy  Dy0  1  0.352691  0.352691  0.352691  1
  Dy  Dy1  1  0.352691  0.352691  0.941925  1
  Dy  Dy2  1  0.352691  0.941925  0.352691  1
  Dy  Dy3  1  0.941925  0.352691  0.352691  1
  Y  Y4  1  0.936183  0.563817  0.563817  1
  Y  Y5  1  0.563817  0.936183  0.936183  1
  Y  Y6  1  0.563817  0.936183  0.563817  1
  Y  Y7  1  0.936183  0.563817  0.936183  1
  Y  Y8  1  0.563817  0.563817  0.936183  1
  Y  Y9  1  0.936183  0.936183  0.563817  1
  Tm  Tm10  1  0.812208  0.187792  0.187792  1
  Tm  Tm11  1  0.187792  0.812208  0.812208  1
  Tm  Tm12  1  0.187792  0.812208  0.187792  1
  Tm  Tm13  1  0.812208  0.187792  0.812208  1
  Tm  Tm14  1  0.187792  0.187792  0.812208  1
  Tm  Tm15  1  0.812208  0.812208  0.187792  1
  Cd  Cd16  1  0.581800  0.581800  0.581800  1
  Cd  Cd17  1  0.581800  0.581800  0.254600  1
  Cd  Cd18  1  0.581800  0.254600  0.581800  1
  Cd  Cd19  1  0.254600  0.581800  0.581800  1
  Pt  Pt20  1  0.142432  0.142432  0.142432  1
  Pt  Pt21  1  0.142432  0.142432  0.572704  1
  Pt  Pt22  1  0.142432  0.572704  0.142432  1
  Pt  Pt23  1  0.572704  0.142432  0.142432  1
