# generated using pymatgen
data_Yb4Cu4Pd3Pt
_symmetry_space_group_name_H-M   'P 1'
_cell_length_a   5.27609221
_cell_length_b   5.27609224
_cell_length_c   8.92290900
_cell_angle_alpha   90.00000000
_cell_angle_beta   90.00000000
_cell_angle_gamma   122.81123004
_symmetry_Int_Tables_number   1
_chemical_formula_structural   Yb4Cu4Pd3Pt
_chemical_formula_sum   'Yb4 Cu4 Pd3 Pt1'
_cell_volume   208.76057396
_cell_formula_units_Z   1
loop_
 _symmetry_equiv_pos_site_id
 _symmetry_equiv_pos_as_xyz
  1  'x, y, z'
loop_
 _atom_site_type_symbol
 _atom_site_label
 _atom_site_symmetry_multiplicity
 _atom_site_fract_x
 _atom_site_fract_y
 _atom_site_fract_z
 _atom_site_occupancy
  Yb  Yb0  1  0.333168  0.666832  0.435170  1
  Yb  Yb1  1  0.667528  0.332472  0.567107  1
  Yb  Yb2  1  0.667528  0.332472  0.932893  1
  Yb  Yb3  1  0.333168  0.666832  0.064830  1
  Cu  Cu4  1  0.823144  0.670762  0.250000  1
  Cu  Cu5  1  0.329238  0.176856  0.250000  1
  Cu  Cu6  1  0.176386  0.329425  0.750000  1
  Cu  Cu7  1  0.670575  0.823614  0.750000  1
  Pd  Pd8  1  0.999884  0.000116  0.499089  1
  Pd  Pd9  1  0.999884  0.000116  0.000911  1
  Pd  Pd10  1  0.819487  0.180513  0.250000  1
  Pt  Pt11  1  0.180010  0.819990  0.750000  1
