# generated using pymatgen
data_DyY3Ga18(Co2Pt)2
_symmetry_space_group_name_H-M   'P 1'
_cell_length_a   7.46856435
_cell_length_b   7.46921038
_cell_length_c   9.46428606
_cell_angle_alpha   89.99748788
_cell_angle_beta   89.99029595
_cell_angle_gamma   119.81316050
_symmetry_Int_Tables_number   1
_chemical_formula_structural   DyY3Ga18(Co2Pt)2
_chemical_formula_sum   'Dy1 Y3 Ga18 Co4 Pt2'
_cell_volume   458.08374137
_cell_formula_units_Z   1
loop_
 _symmetry_equiv_pos_site_id
 _symmetry_equiv_pos_as_xyz
  1  'x, y, z'
loop_
 _atom_site_type_symbol
 _atom_site_label
 _atom_site_symmetry_multiplicity
 _atom_site_fract_x
 _atom_site_fract_y
 _atom_site_fract_z
 _atom_site_occupancy
  Dy  Dy0  1  0.664442  0.996455  0.750560  1
  Y  Y1  1  0.335693  0.003638  0.250556  1
  Y  Y2  1  0.996371  0.664370  0.749403  1
  Y  Y3  1  0.003629  0.335641  0.249519  1
  Ga  Ga4  1  0.011361  0.676199  0.074994  1
  Ga  Ga5  1  0.676243  0.011343  0.425226  1
  Ga  Ga6  1  0.990564  0.667453  0.425056  1
  Ga  Ga7  1  0.009197  0.332405  0.924782  1
  Ga  Ga8  1  0.667428  0.990589  0.074701  1
  Ga  Ga9  1  0.323971  0.988505  0.924676  1
  Ga  Ga10  1  0.676344  0.670710  0.561795  1
  Ga  Ga11  1  0.323667  0.329521  0.061375  1
  Ga  Ga12  1  0.670557  0.676536  0.938190  1
  Ga  Ga13  1  0.329523  0.323682  0.438617  1
  Ga  Ga14  1  0.114878  0.115132  0.749997  1
  Ga  Ga15  1  0.884782  0.884868  0.250005  1
  Ga  Ga16  1  0.660139  0.455499  0.258096  1
  Ga  Ga17  1  0.340260  0.544862  0.758095  1
  Ga  Ga18  1  0.455534  0.660217  0.241877  1
  Ga  Ga19  1  0.544377  0.339488  0.741900  1
  Ga  Ga20  1  0.332796  0.009372  0.575250  1
  Ga  Ga21  1  0.988415  0.323639  0.575360  1
  Co  Co22  1  0.330005  0.669904  0.999897  1
  Co  Co23  1  0.669931  0.329972  0.500093  1
  Co  Co24  1  0.000433  0.999509  0.999912  1
  Co  Co25  1  0.999478  0.000469  0.500113  1
  Pt  Pt26  1  0.671628  0.328380  0.999911  1
  Pt  Pt27  1  0.328352  0.671640  0.500044  1
