# generated using pymatgen
data_Cs4Na2YInAs4
_symmetry_space_group_name_H-M   'P 1'
_cell_length_a   9.91128095
_cell_length_b   9.91128125
_cell_length_c   9.91128213
_cell_angle_alpha   137.76880973
_cell_angle_beta   60.53935871
_cell_angle_gamma   138.71064549
_symmetry_Int_Tables_number   1
_chemical_formula_structural   Cs4Na2YInAs4
_chemical_formula_sum   'Cs4 Na2 Y1 In1 As4'
_cell_volume   427.21397741
_cell_formula_units_Z   1
loop_
 _symmetry_equiv_pos_site_id
 _symmetry_equiv_pos_as_xyz
  1  'x, y, z'
loop_
 _atom_site_type_symbol
 _atom_site_label
 _atom_site_symmetry_multiplicity
 _atom_site_fract_x
 _atom_site_fract_y
 _atom_site_fract_z
 _atom_site_occupancy
  Cs  Cs0  1  0.330514  0.776930  0.094670  1
  Cs  Cs1  1  0.169486  0.264157  0.446415  1
  Cs  Cs2  1  0.817741  0.723071  0.553585  1
  Cs  Cs3  1  0.682260  0.235844  0.905331  1
  Na  Na4  1  0.750000  0.250000  0.500000  1
  Na  Na5  1  0.250000  0.750000  0.500000  1
  Y  Y6  1  0.250000  0.250000  0.000000  1
  In  In7  1  0.750000  0.750000  0.000000  1
  As  As8  1  0.904040  0.214684  0.128838  1
  As  As9  1  0.595961  0.724799  0.310644  1
  As  As10  1  0.414155  0.285317  0.689357  1
  As  As11  1  0.085845  0.775201  0.871161  1
