# generated using pymatgen
data_Sm3AlAu5
_symmetry_space_group_name_H-M   'P 1'
_cell_length_a   8.64895429
_cell_length_b   8.64895451
_cell_length_c   8.64895400
_cell_angle_alpha   128.21522507
_cell_angle_beta   126.53167589
_cell_angle_gamma   77.64991942
_symmetry_Int_Tables_number   1
_chemical_formula_structural   Sm3AlAu5
_chemical_formula_sum   'Sm6 Al2 Au10'
_cell_volume   396.05842226
_cell_formula_units_Z   2
loop_
 _symmetry_equiv_pos_site_id
 _symmetry_equiv_pos_as_xyz
  1  'x, y, z'
loop_
 _atom_site_type_symbol
 _atom_site_label
 _atom_site_symmetry_multiplicity
 _atom_site_fract_x
 _atom_site_fract_y
 _atom_site_fract_z
 _atom_site_occupancy
  Sm  Sm0  1  0.826273  0.048100  0.778173  1
  Sm  Sm1  1  0.230072  0.451900  0.778173  1
  Sm  Sm2  1  0.173727  0.951900  0.221827  1
  Sm  Sm3  1  0.377379  0.250000  0.127379  1
  Sm  Sm4  1  0.769928  0.548100  0.221827  1
  Sm  Sm5  1  0.622621  0.750000  0.872621  1
  Al  Al6  1  0.219856  0.750000  0.469856  1
  Al  Al7  1  0.780144  0.250000  0.530144  1
  Au  Au8  1  0.833343  0.602801  0.641128  1
  Au  Au9  1  0.538327  0.307785  0.641128  1
  Au  Au10  1  0.461673  0.102801  0.769458  1
  Au  Au11  1  0.833343  0.192215  0.230542  1
  Au  Au12  1  0.166657  0.397199  0.358872  1
  Au  Au13  1  0.461673  0.692215  0.358872  1
  Au  Au14  1  0.538327  0.897199  0.230542  1
  Au  Au15  1  0.166657  0.807785  0.769458  1
  Au  Au16  1  0.000000  0.000000  0.500000  1
  Au  Au17  1  0.000000  0.500000  0.000000  1
