# generated using pymatgen
data_DyEr5(SbO7)2
_symmetry_space_group_name_H-M   'P 1'
_cell_length_a   6.43355234
_cell_length_b   6.43355349
_cell_length_c   7.47162414
_cell_angle_alpha   90.01786859
_cell_angle_beta   89.98212950
_cell_angle_gamma   109.24792652
_symmetry_Int_Tables_number   1
_chemical_formula_structural   DyEr5(SbO7)2
_chemical_formula_sum   'Dy1 Er5 Sb2 O14'
_cell_volume   291.96794542
_cell_formula_units_Z   1
loop_
 _symmetry_equiv_pos_site_id
 _symmetry_equiv_pos_as_xyz
  1  'x, y, z'
loop_
 _atom_site_type_symbol
 _atom_site_label
 _atom_site_symmetry_multiplicity
 _atom_site_fract_x
 _atom_site_fract_y
 _atom_site_fract_z
 _atom_site_occupancy
  Dy  Dy0  1  0.488706  0.488706  0.000000  1
  Er  Er1  1  0.999464  0.468178  0.746838  1
  Er  Er2  1  0.000737  0.531528  0.247976  1
  Er  Er3  1  0.531528  0.000737  0.752024  1
  Er  Er4  1  0.468178  0.999464  0.253162  1
  Er  Er5  1  0.514116  0.514116  0.500000  1
  Sb  Sb6  1  0.999598  0.999598  0.500000  1
  Sb  Sb7  1  0.000351  0.000351  0.000000  1
  O  O8  1  0.638357  0.361679  0.748146  1
  O  O9  1  0.361679  0.638357  0.251854  1
  O  O10  1  0.927711  0.072180  0.750048  1
  O  O11  1  0.072180  0.927711  0.249952  1
  O  O12  1  0.921255  0.673710  0.528277  1
  O  O13  1  0.077496  0.326151  0.028330  1
  O  O14  1  0.326151  0.077496  0.971670  1
  O  O15  1  0.673710  0.921255  0.471723  1
  O  O16  1  0.369344  0.630794  0.748035  1
  O  O17  1  0.630794  0.369344  0.251965  1
  O  O18  1  0.934182  0.679306  0.966932  1
  O  O19  1  0.065130  0.320027  0.466883  1
  O  O20  1  0.320027  0.065130  0.533117  1
  O  O21  1  0.679306  0.934182  0.033068  1
