# generated using pymatgen
data_Rb4RuO4
_symmetry_space_group_name_H-M   'P 1'
_cell_length_a   5.94699598
_cell_length_b   5.94699625
_cell_length_c   6.44219843
_cell_angle_alpha   75.32577263
_cell_angle_beta   75.32576892
_cell_angle_gamma   67.04815909
_symmetry_Int_Tables_number   1
_chemical_formula_structural   Rb4RuO4
_chemical_formula_sum   'Rb4 Ru1 O4'
_cell_volume   199.88145231
_cell_formula_units_Z   1
loop_
 _symmetry_equiv_pos_site_id
 _symmetry_equiv_pos_as_xyz
  1  'x, y, z'
loop_
 _atom_site_type_symbol
 _atom_site_label
 _atom_site_symmetry_multiplicity
 _atom_site_fract_x
 _atom_site_fract_y
 _atom_site_fract_z
 _atom_site_occupancy
  Rb  Rb0  1  0.189905  0.189905  0.413050  1
  Rb  Rb1  1  0.382068  0.382068  0.852068  1
  Rb  Rb2  1  0.617932  0.617932  0.147932  1
  Rb  Rb3  1  0.810095  0.810095  0.586950  1
  Ru  Ru4  1  0.000000  0.000000  0.000000  1
  O  O5  1  0.685188  0.098109  0.190050  1
  O  O6  1  0.314812  0.901891  0.809950  1
  O  O7  1  0.098109  0.685188  0.190050  1
  O  O8  1  0.901891  0.314812  0.809950  1
