# generated using pymatgen
data_Ho2Mn4SiGeC2
_symmetry_space_group_name_H-M   'P 1'
_cell_length_a   5.64121667
_cell_length_b   5.64121744
_cell_length_c   7.07909900
_cell_angle_alpha   90.00000000
_cell_angle_beta   90.00000000
_cell_angle_gamma   141.64546060
_symmetry_Int_Tables_number   1
_chemical_formula_structural   Ho2Mn4SiGeC2
_chemical_formula_sum   'Ho2 Mn4 Si1 Ge1 C2'
_cell_volume   139.79235810
_cell_formula_units_Z   1
loop_
 _symmetry_equiv_pos_site_id
 _symmetry_equiv_pos_as_xyz
  1  'x, y, z'
loop_
 _atom_site_type_symbol
 _atom_site_label
 _atom_site_symmetry_multiplicity
 _atom_site_fract_x
 _atom_site_fract_y
 _atom_site_fract_z
 _atom_site_occupancy
  Ho  Ho0  1  0.541824  0.458176  0.250000  1
  Ho  Ho1  1  0.457568  0.542432  0.750000  1
  Mn  Mn2  1  0.833474  0.166526  0.055066  1
  Mn  Mn3  1  0.166635  0.833365  0.933530  1
  Mn  Mn4  1  0.166635  0.833365  0.566470  1
  Mn  Mn5  1  0.833474  0.166526  0.444934  1
  Si  Si6  1  0.736213  0.263787  0.750000  1
  Ge  Ge7  1  0.263093  0.736907  0.250000  1
  C  C8  1  0.000543  0.999457  0.998652  1
  C  C9  1  0.000543  0.999457  0.501348  1
