# generated using pymatgen
data_Dy4Sc4Ga3Co
_symmetry_space_group_name_H-M   'P 1'
_cell_length_a   9.59927400
_cell_length_b   9.59892197
_cell_length_c   7.01141600
_cell_angle_alpha   90.00000000
_cell_angle_beta   90.00000000
_cell_angle_gamma   120.01247610
_symmetry_Int_Tables_number   1
_chemical_formula_structural   Dy4Sc4Ga3Co
_chemical_formula_sum   'Dy8 Sc8 Ga6 Co2'
_cell_volume   559.42594542
_cell_formula_units_Z   2
loop_
 _symmetry_equiv_pos_site_id
 _symmetry_equiv_pos_as_xyz
  1  'x, y, z'
loop_
 _atom_site_type_symbol
 _atom_site_label
 _atom_site_symmetry_multiplicity
 _atom_site_fract_x
 _atom_site_fract_y
 _atom_site_fract_z
 _atom_site_occupancy
  Dy  Dy0  1  0.465811  0.534179  0.213085  1
  Dy  Dy1  1  0.068362  0.534168  0.213087  1
  Dy  Dy2  1  0.465826  0.931637  0.213086  1
  Dy  Dy3  1  0.534189  0.465821  0.713085  1
  Dy  Dy4  1  0.931638  0.465832  0.713087  1
  Dy  Dy5  1  0.534174  0.068363  0.713086  1
  Dy  Dy6  1  0.999999  0.000019  0.228364  1
  Dy  Dy7  1  0.000001  0.999981  0.728364  1
  Sc  Sc8  1  0.174650  0.825354  0.515018  1
  Sc  Sc9  1  0.650700  0.825363  0.515016  1
  Sc  Sc10  1  0.174636  0.349294  0.515027  1
  Sc  Sc11  1  0.825350  0.174646  0.015018  1
  Sc  Sc12  1  0.349300  0.174637  0.015016  1
  Sc  Sc13  1  0.825364  0.650706  0.015027  1
  Sc  Sc14  1  0.333344  0.666650  0.822982  1
  Sc  Sc15  1  0.666656  0.333350  0.322982  1
  Ga  Ga16  1  0.164336  0.835655  0.946518  1
  Ga  Ga17  1  0.671369  0.835661  0.946593  1
  Ga  Ga18  1  0.164330  0.328620  0.946596  1
  Ga  Ga19  1  0.835664  0.164345  0.446518  1
  Ga  Ga20  1  0.328631  0.164339  0.446593  1
  Ga  Ga21  1  0.835670  0.671380  0.446596  1
  Co  Co22  1  0.333329  0.666673  0.462047  1
  Co  Co23  1  0.666671  0.333327  0.962047  1
