# generated using pymatgen
data_Hf13Ti3(Mn2N)4
_symmetry_space_group_name_H-M   'P 1'
_cell_length_a   8.43409098
_cell_length_b   8.43409085
_cell_length_c   8.41376957
_cell_angle_alpha   59.92008198
_cell_angle_beta   59.92007843
_cell_angle_gamma   59.99999987
_symmetry_Int_Tables_number   1
_chemical_formula_structural   Hf13Ti3(Mn2N)4
_chemical_formula_sum   'Hf13 Ti3 Mn8 N4'
_cell_volume   422.69439842
_cell_formula_units_Z   1
loop_
 _symmetry_equiv_pos_site_id
 _symmetry_equiv_pos_as_xyz
  1  'x, y, z'
loop_
 _atom_site_type_symbol
 _atom_site_label
 _atom_site_symmetry_multiplicity
 _atom_site_fract_x
 _atom_site_fract_y
 _atom_site_fract_z
 _atom_site_occupancy
  Hf  Hf0  1  0.625000  0.625000  0.125000  1
  Hf  Hf1  1  0.812220  0.812220  0.189686  1
  Hf  Hf2  1  0.188777  0.188777  0.810394  1
  Hf  Hf3  1  0.812052  0.188777  0.810394  1
  Hf  Hf4  1  0.185875  0.812220  0.189686  1
  Hf  Hf5  1  0.188777  0.812052  0.810394  1
  Hf  Hf6  1  0.812220  0.185875  0.189686  1
  Hf  Hf7  1  0.437780  0.437780  0.060314  1
  Hf  Hf8  1  0.061223  0.061223  0.439606  1
  Hf  Hf9  1  0.437948  0.061223  0.439606  1
  Hf  Hf10  1  0.064125  0.437780  0.060314  1
  Hf  Hf11  1  0.061223  0.437948  0.439606  1
  Hf  Hf12  1  0.437780  0.064125  0.060314  1
  Ti  Ti13  1  0.125000  0.625000  0.625000  1
  Ti  Ti14  1  0.625000  0.125000  0.625000  1
  Ti  Ti15  1  0.625000  0.625000  0.625000  1
  Mn  Mn16  1  0.739591  0.416752  0.426906  1
  Mn  Mn17  1  0.416752  0.739591  0.426906  1
  Mn  Mn18  1  0.420440  0.420440  0.738682  1
  Mn  Mn19  1  0.416752  0.416752  0.426906  1
  Mn  Mn20  1  0.510409  0.833248  0.823094  1
  Mn  Mn21  1  0.833248  0.510409  0.823094  1
  Mn  Mn22  1  0.829560  0.829560  0.511318  1
  Mn  Mn23  1  0.833248  0.833248  0.823094  1
  N  N24  1  0.625000  0.125000  0.125000  1
  N  N25  1  0.125000  0.625000  0.125000  1
  N  N26  1  0.125000  0.125000  0.625000  1
  N  N27  1  0.125000  0.125000  0.125000  1
