# generated using pymatgen
data_Tm3Zr5(Ta3Si4)4
_symmetry_space_group_name_H-M   'P 1'
_cell_length_a   6.91720890
_cell_length_b   6.91580943
_cell_length_c   12.81937685
_cell_angle_alpha   89.96817908
_cell_angle_beta   90.05278817
_cell_angle_gamma   89.87427407
_symmetry_Int_Tables_number   1
_chemical_formula_structural   Tm3Zr5(Ta3Si4)4
_chemical_formula_sum   'Tm3 Zr5 Ta12 Si16'
_cell_volume   613.25278115
_cell_formula_units_Z   1
loop_
 _symmetry_equiv_pos_site_id
 _symmetry_equiv_pos_as_xyz
  1  'x, y, z'
loop_
 _atom_site_type_symbol
 _atom_site_label
 _atom_site_symmetry_multiplicity
 _atom_site_fract_x
 _atom_site_fract_y
 _atom_site_fract_z
 _atom_site_occupancy
  Tm  Tm0  1  0.999211  0.660369  0.031185  1
  Tm  Tm1  1  0.001275  0.338542  0.530642  1
  Tm  Tm2  1  0.660526  0.999261  0.968938  1
  Zr  Zr3  1  0.160340  0.497927  0.781618  1
  Zr  Zr4  1  0.839833  0.501916  0.282377  1
  Zr  Zr5  1  0.497982  0.160762  0.218670  1
  Zr  Zr6  1  0.501778  0.840622  0.718111  1
  Zr  Zr7  1  0.342583  0.995673  0.468401  1
  Ta  Ta8  1  0.347080  0.506268  0.375790  1
  Ta  Ta9  1  0.844903  0.996087  0.373604  1
  Ta  Ta10  1  0.005248  0.154479  0.127878  1
  Ta  Ta11  1  0.994947  0.847417  0.625773  1
  Ta  Ta12  1  0.652150  0.493488  0.874498  1
  Ta  Ta13  1  0.504272  0.347798  0.623704  1
  Ta  Ta14  1  0.493750  0.652438  0.125531  1
  Ta  Ta15  1  0.154782  0.004371  0.872366  1
  Ta  Ta16  1  0.668365  0.671192  0.500203  1
  Ta  Ta17  1  0.829887  0.169912  0.749297  1
  Ta  Ta18  1  0.170492  0.830547  0.250876  1
  Ta  Ta19  1  0.330472  0.330555  0.000135  1
  Si  Si20  1  0.044072  0.703711  0.436466  1
  Si  Si21  1  0.957122  0.297064  0.936295  1
  Si  Si22  1  0.700386  0.044130  0.563442  1
  Si  Si23  1  0.201719  0.455751  0.187359  1
  Si  Si24  1  0.798425  0.543608  0.686599  1
  Si  Si25  1  0.455803  0.201805  0.812986  1
  Si  Si26  1  0.543376  0.798929  0.313430  1
  Si  Si27  1  0.297708  0.957081  0.063647  1
  Si  Si28  1  0.866093  0.792466  0.819362  1
  Si  Si29  1  0.136009  0.205860  0.321432  1
  Si  Si30  1  0.792441  0.866105  0.180810  1
  Si  Si31  1  0.294047  0.637483  0.572495  1
  Si  Si32  1  0.705795  0.364616  0.072849  1
  Si  Si33  1  0.633314  0.293057  0.426851  1
  Si  Si34  1  0.364644  0.705356  0.927270  1
  Si  Si35  1  0.209171  0.133357  0.679110  1
