# generated using pymatgen
data_Ac16Cd4IrOs2Rh
_symmetry_space_group_name_H-M   'P 1'
_cell_length_a   10.55142350
_cell_length_b   10.53741113
_cell_length_c   10.63164600
_cell_angle_alpha   59.70426536
_cell_angle_beta   59.75168953
_cell_angle_gamma   59.51842278
_symmetry_Int_Tables_number   1
_chemical_formula_structural   Ac16Cd4IrOs2Rh
_chemical_formula_sum   'Ac16 Cd4 Ir1 Os2 Rh1'
_cell_volume   829.35376327
_cell_formula_units_Z   1
loop_
 _symmetry_equiv_pos_site_id
 _symmetry_equiv_pos_as_xyz
  1  'x, y, z'
loop_
 _atom_site_type_symbol
 _atom_site_label
 _atom_site_symmetry_multiplicity
 _atom_site_fract_x
 _atom_site_fract_y
 _atom_site_fract_z
 _atom_site_occupancy
  Ac  Ac0  1  0.596087  0.595066  0.597296  1
  Ac  Ac1  1  0.596091  0.595076  0.211546  1
  Ac  Ac2  1  0.595366  0.213921  0.595364  1
  Ac  Ac3  1  0.213613  0.594525  0.595936  1
  Ac  Ac4  1  0.062077  0.439054  0.440259  1
  Ac  Ac5  1  0.439645  0.062717  0.057725  1
  Ac  Ac6  1  0.439657  0.062704  0.439911  1
  Ac  Ac7  1  0.062083  0.439054  0.058608  1
  Ac  Ac8  1  0.439960  0.439472  0.060279  1
  Ac  Ac9  1  0.058685  0.059890  0.440712  1
  Ac  Ac10  1  0.188538  0.807137  0.813827  1
  Ac  Ac11  1  0.807332  0.188539  0.190950  1
  Ac  Ac12  1  0.807327  0.188539  0.813179  1
  Ac  Ac13  1  0.188533  0.807139  0.190501  1
  Ac  Ac14  1  0.812813  0.810775  0.188206  1
  Ac  Ac15  1  0.190449  0.190208  0.809665  1
  Cd  Cd16  1  0.828611  0.828372  0.829254  1
  Cd  Cd17  1  0.828610  0.828375  0.513761  1
  Cd  Cd18  1  0.828487  0.512927  0.829291  1
  Cd  Cd19  1  0.512700  0.828291  0.829506  1
  Ir  Ir20  1  0.830443  0.392824  0.388368  1
  Os  Os21  1  0.391143  0.391048  0.387339  1
  Os  Os22  1  0.391144  0.391049  0.830474  1
  Rh  Rh23  1  0.390607  0.833299  0.388044  1
