# generated using pymatgen
data_La2Al14Rh3
_symmetry_space_group_name_H-M   'P 1'
_cell_length_a   6.93063225
_cell_length_b   6.93063257
_cell_length_c   6.93063235
_cell_angle_alpha   83.87542419
_cell_angle_beta   83.87542717
_cell_angle_gamma   83.87541998
_symmetry_Int_Tables_number   1
_chemical_formula_structural   La2Al14Rh3
_chemical_formula_sum   'La2 Al14 Rh3'
_cell_volume   327.58132121
_cell_formula_units_Z   1
loop_
 _symmetry_equiv_pos_site_id
 _symmetry_equiv_pos_as_xyz
  1  'x, y, z'
loop_
 _atom_site_type_symbol
 _atom_site_label
 _atom_site_symmetry_multiplicity
 _atom_site_fract_x
 _atom_site_fract_y
 _atom_site_fract_z
 _atom_site_occupancy
  La  La0  1  0.345827  0.345827  0.345827  1
  La  La1  1  0.654174  0.654174  0.654174  1
  Al  Al2  1  0.704597  0.295404  0.000000  1
  Al  Al3  1  0.295404  0.704597  0.000000  1
  Al  Al4  1  0.103252  0.103252  0.103252  1
  Al  Al5  1  0.656116  0.656116  0.148426  1
  Al  Al6  1  0.704597  0.000000  0.295404  1
  Al  Al7  1  0.000000  0.704597  0.295404  1
  Al  Al8  1  0.851575  0.343884  0.343883  1
  Al  Al9  1  0.343884  0.851575  0.343883  1
  Al  Al10  1  0.656116  0.148426  0.656117  1
  Al  Al11  1  0.148426  0.656116  0.656117  1
  Al  Al12  1  0.295404  0.000000  0.704597  1
  Al  Al13  1  0.000000  0.295404  0.704597  1
  Al  Al14  1  0.343884  0.343884  0.851574  1
  Al  Al15  1  0.896748  0.896748  0.896748  1
  Rh  Rh16  1  0.500001  0.000000  0.000000  1
  Rh  Rh17  1  0.000000  0.500001  0.000000  1
  Rh  Rh18  1  0.000000  0.000000  0.500000  1
