# generated using pymatgen
data_Gd4Hf5ZrSi8
_symmetry_space_group_name_H-M   'P 1'
_cell_length_a   7.22409600
_cell_length_b   7.22409637
_cell_length_c   13.25254200
_cell_angle_alpha   90.00000000
_cell_angle_beta   90.00000000
_cell_angle_gamma   89.98159168
_symmetry_Int_Tables_number   1
_chemical_formula_structural   Gd4Hf5ZrSi8
_chemical_formula_sum   'Gd8 Hf10 Zr2 Si16'
_cell_volume   691.61787076
_cell_formula_units_Z   2
loop_
 _symmetry_equiv_pos_site_id
 _symmetry_equiv_pos_as_xyz
  1  'x, y, z'
loop_
 _atom_site_type_symbol
 _atom_site_label
 _atom_site_symmetry_multiplicity
 _atom_site_fract_x
 _atom_site_fract_y
 _atom_site_fract_z
 _atom_site_occupancy
  Gd  Gd0  1  0.995476  0.341429  0.214849  1
  Gd  Gd1  1  0.004524  0.658571  0.714849  1
  Gd  Gd2  1  0.158335  0.495784  0.465131  1
  Gd  Gd3  1  0.504216  0.841665  0.034869  1
  Gd  Gd4  1  0.841665  0.504216  0.965131  1
  Gd  Gd5  1  0.495784  0.158335  0.534869  1
  Gd  Gd6  1  0.341429  0.995476  0.785151  1
  Gd  Gd7  1  0.658571  0.004524  0.285151  1
  Hf  Hf8  1  0.325956  0.674044  0.250000  1
  Hf  Hf9  1  0.674044  0.325956  0.750000  1
  Hf  Hf10  1  0.149143  0.996123  0.374384  1
  Hf  Hf11  1  0.850857  0.003877  0.874384  1
  Hf  Hf12  1  0.504106  0.649352  0.624078  1
  Hf  Hf13  1  0.350648  0.495894  0.875922  1
  Hf  Hf14  1  0.495894  0.350648  0.124078  1
  Hf  Hf15  1  0.649352  0.504106  0.375922  1
  Hf  Hf16  1  0.996123  0.149143  0.625616  1
  Hf  Hf17  1  0.003877  0.850857  0.125616  1
  Zr  Zr18  1  0.174082  0.174082  0.000000  1
  Zr  Zr19  1  0.825918  0.825918  0.500000  1
  Si  Si20  1  0.364093  0.293872  0.316716  1
  Si  Si21  1  0.635907  0.706128  0.816716  1
  Si  Si22  1  0.207649  0.864496  0.566855  1
  Si  Si23  1  0.135504  0.792351  0.933145  1
  Si  Si24  1  0.792351  0.135504  0.066855  1
  Si  Si25  1  0.864496  0.207649  0.433145  1
  Si  Si26  1  0.293872  0.364093  0.683284  1
  Si  Si27  1  0.706128  0.635907  0.183284  1
  Si  Si28  1  0.296802  0.047506  0.186360  1
  Si  Si29  1  0.703198  0.952494  0.686360  1
  Si  Si30  1  0.450462  0.795851  0.435375  1
  Si  Si31  1  0.204149  0.549538  0.064625  1
  Si  Si32  1  0.549538  0.204149  0.935375  1
  Si  Si33  1  0.795851  0.450462  0.564625  1
  Si  Si34  1  0.047506  0.296802  0.813640  1
  Si  Si35  1  0.952494  0.703198  0.313640  1
