# generated using pymatgen
data_Ce4MnFeBiB6
_symmetry_space_group_name_H-M   'P 1'
_cell_length_a   5.31033546
_cell_length_b   5.31033144
_cell_length_c   8.47436664
_cell_angle_alpha   71.74083299
_cell_angle_beta   71.74127171
_cell_angle_gamma   60.00087975
_symmetry_Int_Tables_number   1
_chemical_formula_structural   Ce4MnFeBiB6
_chemical_formula_sum   'Ce4 Mn1 Fe1 Bi1 B6'
_cell_volume   192.94050266
_cell_formula_units_Z   1
loop_
 _symmetry_equiv_pos_site_id
 _symmetry_equiv_pos_as_xyz
  1  'x, y, z'
loop_
 _atom_site_type_symbol
 _atom_site_label
 _atom_site_symmetry_multiplicity
 _atom_site_fract_x
 _atom_site_fract_y
 _atom_site_fract_z
 _atom_site_occupancy
  Ce  Ce0  1  0.747262  0.747253  0.758132  1
  Ce  Ce1  1  0.252826  0.252838  0.241600  1
  Ce  Ce2  1  0.585955  0.585965  0.242004  1
  Ce  Ce3  1  0.413809  0.413786  0.758723  1
  Mn  Mn4  1  0.882658  0.882660  0.352047  1
  Fe  Fe5  1  0.117432  0.117438  0.647675  1
  Bi  Bi6  1  0.000127  0.000126  0.999614  1
  B  B7  1  0.499994  0.168169  0.500052  1
  B  B8  1  0.831796  0.500000  0.500018  1
  B  B9  1  0.168191  0.831784  0.500032  1
  B  B10  1  0.168168  0.499994  0.500053  1
  B  B11  1  0.831782  0.168191  0.500032  1
  B  B12  1  0.499999  0.831796  0.500019  1
