# generated using pymatgen
data_Pr3SnBi2Rh3
_symmetry_space_group_name_H-M   'P 1'
_cell_length_a   7.75197697
_cell_length_b   7.68977259
_cell_length_c   4.14629300
_cell_angle_alpha   90.00000000
_cell_angle_beta   90.00000000
_cell_angle_gamma   119.73491529
_symmetry_Int_Tables_number   1
_chemical_formula_structural   Pr3SnBi2Rh3
_chemical_formula_sum   'Pr3 Sn1 Bi2 Rh3'
_cell_volume   214.62014205
_cell_formula_units_Z   1
loop_
 _symmetry_equiv_pos_site_id
 _symmetry_equiv_pos_as_xyz
  1  'x, y, z'
loop_
 _atom_site_type_symbol
 _atom_site_label
 _atom_site_symmetry_multiplicity
 _atom_site_fract_x
 _atom_site_fract_y
 _atom_site_fract_z
 _atom_site_occupancy
  Pr  Pr0  1  0.597943  0.006727  0.500000  1
  Pr  Pr1  1  0.402057  0.408784  0.500000  1
  Pr  Pr2  1  0.000000  0.585666  0.500000  1
  Sn  Sn3  1  0.000000  0.257381  0.000000  1
  Bi  Bi4  1  0.258595  0.002613  0.000000  1
  Bi  Bi5  1  0.741405  0.744018  0.000000  1
  Rh  Rh6  1  0.000000  0.006995  0.500000  1
  Rh  Rh7  1  0.326976  0.657396  0.000000  1
  Rh  Rh8  1  0.673024  0.330419  0.000000  1
