# generated using pymatgen
data_BaLi2Sm2Al7
_symmetry_space_group_name_H-M   'P 1'
_cell_length_a   9.60112441
_cell_length_b   9.60112331
_cell_length_c   9.60112400
_cell_angle_alpha   34.38800356
_cell_angle_beta   34.38801312
_cell_angle_gamma   34.38800389
_symmetry_Int_Tables_number   1
_chemical_formula_structural   BaLi2Sm2Al7
_chemical_formula_sum   'Ba1 Li2 Sm2 Al7'
_cell_volume   251.81969910
_cell_formula_units_Z   1
loop_
 _symmetry_equiv_pos_site_id
 _symmetry_equiv_pos_as_xyz
  1  'x, y, z'
loop_
 _atom_site_type_symbol
 _atom_site_label
 _atom_site_symmetry_multiplicity
 _atom_site_fract_x
 _atom_site_fract_y
 _atom_site_fract_z
 _atom_site_occupancy
  Ba  Ba0  1  0.000000  0.000000  0.000000  1
  Li  Li1  1  0.335643  0.335643  0.335643  1
  Li  Li2  1  0.664357  0.664357  0.664357  1
  Sm  Sm3  1  0.141684  0.141684  0.141684  1
  Sm  Sm4  1  0.858316  0.858316  0.858316  1
  Al  Al5  1  0.589703  0.589703  0.077573  1
  Al  Al6  1  0.410297  0.922427  0.410297  1
  Al  Al7  1  0.589703  0.077573  0.589703  1
  Al  Al8  1  0.077573  0.589703  0.589703  1
  Al  Al9  1  0.410297  0.410297  0.922427  1
  Al  Al10  1  0.500000  0.500000  0.500000  1
  Al  Al11  1  0.922427  0.410297  0.410297  1
