# generated using pymatgen
data_HoErGa9NiIr2
_symmetry_space_group_name_H-M   'P 1'
_cell_length_a   7.53802079
_cell_length_b   7.53794967
_cell_length_c   9.41410000
_cell_angle_alpha   90.00000000
_cell_angle_beta   90.00000000
_cell_angle_gamma   120.02237188
_symmetry_Int_Tables_number   1
_chemical_formula_structural   HoErGa9NiIr2
_chemical_formula_sum   'Ho2 Er2 Ga18 Ni2 Ir4'
_cell_volume   463.15041155
_cell_formula_units_Z   2
loop_
 _symmetry_equiv_pos_site_id
 _symmetry_equiv_pos_as_xyz
  1  'x, y, z'
loop_
 _atom_site_type_symbol
 _atom_site_label
 _atom_site_symmetry_multiplicity
 _atom_site_fract_x
 _atom_site_fract_y
 _atom_site_fract_z
 _atom_site_occupancy
  Ho  Ho0  1  0.996766  0.663748  0.750000  1
  Ho  Ho1  1  0.003234  0.336252  0.250000  1
  Er  Er2  1  0.663762  0.996768  0.750000  1
  Er  Er3  1  0.336238  0.003232  0.250000  1
  Ga  Ga4  1  0.114258  0.114373  0.750000  1
  Ga  Ga5  1  0.885742  0.885627  0.250000  1
  Ga  Ga6  1  0.999052  0.328293  0.579152  1
  Ga  Ga7  1  0.000948  0.671707  0.420848  1
  Ga  Ga8  1  0.000948  0.671707  0.079152  1
  Ga  Ga9  1  0.328808  0.999296  0.921014  1
  Ga  Ga10  1  0.999052  0.328293  0.920848  1
  Ga  Ga11  1  0.671192  0.000704  0.078986  1
  Ga  Ga12  1  0.671192  0.000704  0.421014  1
  Ga  Ga13  1  0.328808  0.999296  0.578986  1
  Ga  Ga14  1  0.326595  0.326375  0.065710  1
  Ga  Ga15  1  0.673405  0.673625  0.934290  1
  Ga  Ga16  1  0.673405  0.673625  0.565710  1
  Ga  Ga17  1  0.326595  0.326375  0.434290  1
  Ga  Ga18  1  0.338442  0.543028  0.750000  1
  Ga  Ga19  1  0.661558  0.456972  0.250000  1
  Ga  Ga20  1  0.542807  0.338136  0.750000  1
  Ga  Ga21  1  0.457193  0.661864  0.250000  1
  Ni  Ni22  1  0.000000  0.000000  0.500000  1
  Ni  Ni23  1  0.000000  0.000000  0.000000  1
  Ir  Ir24  1  0.671744  0.328160  0.499996  1
  Ir  Ir25  1  0.328256  0.671840  0.500004  1
  Ir  Ir26  1  0.328256  0.671840  0.999996  1
  Ir  Ir27  1  0.671744  0.328160  0.000004  1
