# generated using pymatgen
data_POsCl10
_symmetry_space_group_name_H-M   'P 1'
_cell_length_a   10.08880300
_cell_length_b   10.08880300
_cell_length_c   7.86892500
_cell_angle_alpha   90.00000000
_cell_angle_beta   90.00000000
_cell_angle_gamma   90.00000000
_symmetry_Int_Tables_number   1
_chemical_formula_structural   POsCl10
_chemical_formula_sum   'P2 Os2 Cl20'
_cell_volume   800.93023706
_cell_formula_units_Z   2
loop_
 _symmetry_equiv_pos_site_id
 _symmetry_equiv_pos_as_xyz
  1  'x, y, z'
loop_
 _atom_site_type_symbol
 _atom_site_label
 _atom_site_symmetry_multiplicity
 _atom_site_fract_x
 _atom_site_fract_y
 _atom_site_fract_z
 _atom_site_occupancy
  P  P0  1  0.000000  0.000000  0.000000  1
  P  P1  1  0.500000  0.500000  0.000000  1
  Os  Os2  1  0.000000  0.500000  0.619742  1
  Os  Os3  1  0.500000  0.000000  0.380258  1
  Cl  Cl4  1  0.348264  0.545085  0.144393  1
  Cl  Cl5  1  0.045085  0.151736  0.144393  1
  Cl  Cl6  1  0.954915  0.848264  0.144393  1
  Cl  Cl7  1  0.651736  0.454915  0.144393  1
  Cl  Cl8  1  0.151736  0.954915  0.855607  1
  Cl  Cl9  1  0.454915  0.348264  0.855607  1
  Cl  Cl10  1  0.545085  0.651736  0.855607  1
  Cl  Cl11  1  0.848264  0.045085  0.855607  1
  Cl  Cl12  1  0.000000  0.500000  0.913832  1
  Cl  Cl13  1  0.500000  0.000000  0.086168  1
  Cl  Cl14  1  0.000000  0.500000  0.323318  1
  Cl  Cl15  1  0.500000  0.000000  0.676682  1
  Cl  Cl16  1  0.211206  0.591267  0.617843  1
  Cl  Cl17  1  0.091267  0.288794  0.617843  1
  Cl  Cl18  1  0.908733  0.711206  0.617843  1
  Cl  Cl19  1  0.788794  0.408733  0.617843  1
  Cl  Cl20  1  0.288794  0.908733  0.382157  1
  Cl  Cl21  1  0.408733  0.211206  0.382157  1
  Cl  Cl22  1  0.591267  0.788794  0.382157  1
  Cl  Cl23  1  0.711206  0.091267  0.382157  1
