# generated using pymatgen
data_Hf6Ti4Si6C
_symmetry_space_group_name_H-M   'P 1'
_cell_length_a   7.73951400
_cell_length_b   7.73951423
_cell_length_c   5.32600400
_cell_angle_alpha   90.00000000
_cell_angle_beta   90.00000000
_cell_angle_gamma   119.99999903
_symmetry_Int_Tables_number   1
_chemical_formula_structural   Hf6Ti4Si6C
_chemical_formula_sum   'Hf6 Ti4 Si6 C1'
_cell_volume   276.28640620
_cell_formula_units_Z   1
loop_
 _symmetry_equiv_pos_site_id
 _symmetry_equiv_pos_as_xyz
  1  'x, y, z'
loop_
 _atom_site_type_symbol
 _atom_site_label
 _atom_site_symmetry_multiplicity
 _atom_site_fract_x
 _atom_site_fract_y
 _atom_site_fract_z
 _atom_site_occupancy
  Hf  Hf0  1  0.000000  0.756512  0.255251  1
  Hf  Hf1  1  0.243488  0.243488  0.255251  1
  Hf  Hf2  1  0.756512  0.000000  0.255251  1
  Hf  Hf3  1  0.000000  0.243488  0.744749  1
  Hf  Hf4  1  0.756512  0.756512  0.744749  1
  Hf  Hf5  1  0.243488  0.000000  0.744749  1
  Ti  Ti6  1  0.333333  0.666667  0.000000  1
  Ti  Ti7  1  0.666667  0.333333  0.000000  1
  Ti  Ti8  1  0.666667  0.333333  0.500000  1
  Ti  Ti9  1  0.333333  0.666667  0.500000  1
  Si  Si10  1  0.000000  0.403139  0.247442  1
  Si  Si11  1  0.596861  0.596861  0.247442  1
  Si  Si12  1  0.403139  0.000000  0.247442  1
  Si  Si13  1  0.000000  0.596861  0.752558  1
  Si  Si14  1  0.403139  0.403139  0.752558  1
  Si  Si15  1  0.596861  0.000000  0.752558  1
  C  C16  1  0.000000  0.000000  0.500000  1
