# generated using pymatgen
data_Be3VCo4
_symmetry_space_group_name_H-M   'P 1'
_cell_length_a   6.50625215
_cell_length_b   6.50625169
_cell_length_c   6.50625179
_cell_angle_alpha   33.90663596
_cell_angle_beta   33.90664365
_cell_angle_gamma   33.90664636
_symmetry_Int_Tables_number   1
_chemical_formula_structural   Be3VCo4
_chemical_formula_sum   'Be3 V1 Co4'
_cell_volume   76.38491312
_cell_formula_units_Z   1
loop_
 _symmetry_equiv_pos_site_id
 _symmetry_equiv_pos_as_xyz
  1  'x, y, z'
loop_
 _atom_site_type_symbol
 _atom_site_label
 _atom_site_symmetry_multiplicity
 _atom_site_fract_x
 _atom_site_fract_y
 _atom_site_fract_z
 _atom_site_occupancy
  Be  Be0  1  0.250288  0.250288  0.250288  1
  Be  Be1  1  0.749712  0.749712  0.749712  1
  Be  Be2  1  0.000000  0.000000  0.000000  1
  V  V3  1  0.500000  0.500000  0.500000  1
  Co  Co4  1  0.878268  0.878268  0.878268  1
  Co  Co5  1  0.373150  0.373150  0.373150  1
  Co  Co6  1  0.121732  0.121732  0.121732  1
  Co  Co7  1  0.626850  0.626850  0.626850  1
