# generated using pymatgen
data_Al3GaI12
_symmetry_space_group_name_H-M   'P 1'
_cell_length_a   6.84457441
_cell_length_b   10.24732040
_cell_length_c   12.89620540
_cell_angle_alpha   71.53018552
_cell_angle_beta   89.75433374
_cell_angle_gamma   89.96902078
_symmetry_Int_Tables_number   1
_chemical_formula_structural   Al3GaI12
_chemical_formula_sum   'Al3 Ga1 I12'
_cell_volume   857.92164584
_cell_formula_units_Z   1
loop_
 _symmetry_equiv_pos_site_id
 _symmetry_equiv_pos_as_xyz
  1  'x, y, z'
loop_
 _atom_site_type_symbol
 _atom_site_label
 _atom_site_symmetry_multiplicity
 _atom_site_fract_x
 _atom_site_fract_y
 _atom_site_fract_z
 _atom_site_occupancy
  Al  Al0  1  0.003776  0.184822  0.954126  1
  Al  Al1  1  0.503644  0.814524  0.545674  1
  Al  Al2  1  0.996261  0.814951  0.045746  1
  Ga  Ga3  1  0.495819  0.189694  0.453334  1
  I  I4  1  0.788680  0.318775  0.801862  1
  I  I5  1  0.286768  0.678412  0.697836  1
  I  I6  1  0.212856  0.681879  0.197540  1
  I  I7  1  0.717385  0.320411  0.299469  1
  I  I8  1  0.225663  0.310491  0.042860  1
  I  I9  1  0.726910  0.686977  0.457935  1
  I  I10  1  0.773013  0.689346  0.957750  1
  I  I11  1  0.269210  0.312085  0.545593  1
  I  I12  1  0.792228  0.001150  0.107794  1
  I  I13  1  0.293237  0.997761  0.392294  1
  I  I14  1  0.207851  0.998705  0.892093  1
  I  I15  1  0.706700  0.000019  0.608094  1
