# generated using pymatgen
data_Lu4Al6ReIr
_symmetry_space_group_name_H-M   'P 1'
_cell_length_a   5.42886600
_cell_length_b   5.42886661
_cell_length_c   8.80511300
_cell_angle_alpha   90.00000000
_cell_angle_beta   90.00000000
_cell_angle_gamma   120.00000845
_symmetry_Int_Tables_number   1
_chemical_formula_structural   Lu4Al6ReIr
_chemical_formula_sum   'Lu4 Al6 Re1 Ir1'
_cell_volume   224.74178291
_cell_formula_units_Z   1
loop_
 _symmetry_equiv_pos_site_id
 _symmetry_equiv_pos_as_xyz
  1  'x, y, z'
loop_
 _atom_site_type_symbol
 _atom_site_label
 _atom_site_symmetry_multiplicity
 _atom_site_fract_x
 _atom_site_fract_y
 _atom_site_fract_z
 _atom_site_occupancy
  Lu  Lu0  1  0.666668  0.333334  0.055745  1
  Lu  Lu1  1  0.666668  0.333334  0.446309  1
  Lu  Lu2  1  0.333333  0.666666  0.553691  1
  Lu  Lu3  1  0.333333  0.666666  0.944255  1
  Al  Al4  1  0.163730  0.327459  0.251935  1
  Al  Al5  1  0.163731  0.836271  0.251935  1
  Al  Al6  1  0.672541  0.836271  0.251935  1
  Al  Al7  1  0.327458  0.163730  0.748064  1
  Al  Al8  1  0.836270  0.163730  0.748064  1
  Al  Al9  1  0.836271  0.672542  0.748064  1
  Re  Re10  1  0.000000  0.000000  0.000000  1
  Ir  Ir11  1  0.000000  0.000000  0.500000  1
