# generated using pymatgen
data_Ho2CoSn2Ru
_symmetry_space_group_name_H-M   'P 1'
_cell_length_a   4.67066100
_cell_length_b   7.28852976
_cell_length_c   7.34678316
_cell_angle_alpha   90.27427511
_cell_angle_beta   90.00000000
_cell_angle_gamma   90.00000000
_symmetry_Int_Tables_number   1
_chemical_formula_structural   Ho2CoSn2Ru
_chemical_formula_sum   'Ho4 Co2 Sn4 Ru2'
_cell_volume   250.09817602
_cell_formula_units_Z   2
loop_
 _symmetry_equiv_pos_site_id
 _symmetry_equiv_pos_as_xyz
  1  'x, y, z'
loop_
 _atom_site_type_symbol
 _atom_site_label
 _atom_site_symmetry_multiplicity
 _atom_site_fract_x
 _atom_site_fract_y
 _atom_site_fract_z
 _atom_site_occupancy
  Ho  Ho0  1  0.250000  0.480703  0.699135  1
  Ho  Ho1  1  0.250000  0.972525  0.800652  1
  Ho  Ho2  1  0.750000  0.027475  0.199348  1
  Ho  Ho3  1  0.750000  0.519297  0.300865  1
  Co  Co4  1  0.750000  0.342781  0.945709  1
  Co  Co5  1  0.250000  0.657219  0.054291  1
  Sn  Sn6  1  0.750000  0.697809  0.897029  1
  Sn  Sn7  1  0.250000  0.790031  0.384152  1
  Sn  Sn8  1  0.250000  0.302191  0.102971  1
  Sn  Sn9  1  0.750000  0.209969  0.615848  1
  Ru  Ru10  1  0.750000  0.843041  0.558751  1
  Ru  Ru11  1  0.250000  0.156959  0.441249  1
