# generated using pymatgen
data_MgPd(PtO3)2
_symmetry_space_group_name_H-M   'P 1'
_cell_length_a   6.15941193
_cell_length_b   6.15941197
_cell_length_c   3.22341800
_cell_angle_alpha   90.00000000
_cell_angle_beta   90.00000000
_cell_angle_gamma   108.86221965
_symmetry_Int_Tables_number   1
_chemical_formula_structural   MgPd(PtO3)2
_chemical_formula_sum   'Mg1 Pd1 Pt2 O6'
_cell_volume   115.72398790
_cell_formula_units_Z   1
loop_
 _symmetry_equiv_pos_site_id
 _symmetry_equiv_pos_as_xyz
  1  'x, y, z'
loop_
 _atom_site_type_symbol
 _atom_site_label
 _atom_site_symmetry_multiplicity
 _atom_site_fract_x
 _atom_site_fract_y
 _atom_site_fract_z
 _atom_site_occupancy
  Mg  Mg0  1  0.500000  0.500000  0.000000  1
  Pd  Pd1  1  0.000000  0.000000  0.000000  1
  Pt  Pt2  1  0.500000  0.000000  0.500000  1
  Pt  Pt3  1  0.000000  0.500000  0.500000  1
  O  O4  1  0.086413  0.340982  0.000000  1
  O  O5  1  0.913587  0.659018  0.000000  1
  O  O6  1  0.340982  0.086413  0.000000  1
  O  O7  1  0.659018  0.913587  0.000000  1
  O  O8  1  0.647613  0.352387  0.500000  1
  O  O9  1  0.352387  0.647613  0.500000  1
