# generated using pymatgen
data_Y4TmGa2Pb
_symmetry_space_group_name_H-M   'P 1'
_cell_length_a   7.86374500
_cell_length_b   7.86374500
_cell_length_c   13.96056600
_cell_angle_alpha   90.00000000
_cell_angle_beta   90.00000000
_cell_angle_gamma   90.00000000
_symmetry_Int_Tables_number   1
_chemical_formula_structural   Y4TmGa2Pb
_chemical_formula_sum   'Y16 Tm4 Ga8 Pb4'
_cell_volume   863.30025712
_cell_formula_units_Z   4
loop_
 _symmetry_equiv_pos_site_id
 _symmetry_equiv_pos_as_xyz
  1  'x, y, z'
loop_
 _atom_site_type_symbol
 _atom_site_label
 _atom_site_symmetry_multiplicity
 _atom_site_fract_x
 _atom_site_fract_y
 _atom_site_fract_z
 _atom_site_occupancy
  Y  Y0  1  0.838533  0.836938  0.891768  1
  Y  Y1  1  0.163062  0.161467  0.608232  1
  Y  Y2  1  0.838533  0.163062  0.391768  1
  Y  Y3  1  0.161467  0.836938  0.391768  1
  Y  Y4  1  0.336938  0.338533  0.391768  1
  Y  Y5  1  0.836938  0.161467  0.108232  1
  Y  Y6  1  0.336938  0.661467  0.891768  1
  Y  Y7  1  0.163062  0.838533  0.108232  1
  Y  Y8  1  0.338533  0.663062  0.608232  1
  Y  Y9  1  0.661467  0.663062  0.108232  1
  Y  Y10  1  0.661467  0.336938  0.608232  1
  Y  Y11  1  0.836938  0.838533  0.608232  1
  Y  Y12  1  0.663062  0.338533  0.891768  1
  Y  Y13  1  0.161467  0.163062  0.891768  1
  Y  Y14  1  0.663062  0.661467  0.391768  1
  Y  Y15  1  0.338533  0.336938  0.108232  1
  Tm  Tm16  1  0.500000  0.000000  0.751940  1
  Tm  Tm17  1  0.000000  0.500000  0.248060  1
  Tm  Tm18  1  0.000000  0.500000  0.748060  1
  Tm  Tm19  1  0.500000  0.000000  0.251940  1
  Ga  Ga20  1  0.632309  0.367691  0.250000  1
  Ga  Ga21  1  0.367691  0.632309  0.250000  1
  Ga  Ga22  1  0.132309  0.132309  0.250000  1
  Ga  Ga23  1  0.367691  0.367691  0.750000  1
  Ga  Ga24  1  0.132309  0.867691  0.750000  1
  Ga  Ga25  1  0.867691  0.867691  0.250000  1
  Ga  Ga26  1  0.632309  0.632309  0.750000  1
  Ga  Ga27  1  0.867691  0.132309  0.750000  1
  Pb  Pb28  1  0.000000  0.500000  0.999828  1
  Pb  Pb29  1  0.500000  0.000000  0.000172  1
  Pb  Pb30  1  0.500000  0.000000  0.500172  1
  Pb  Pb31  1  0.000000  0.500000  0.499828  1
