# generated using pymatgen
data_Ac2Y2LuSi4
_symmetry_space_group_name_H-M   'P 1'
_cell_length_a   7.91835000
_cell_length_b   7.91835000
_cell_length_c   14.78752700
_cell_angle_alpha   90.00000000
_cell_angle_beta   90.00000000
_cell_angle_gamma   90.00000000
_symmetry_Int_Tables_number   1
_chemical_formula_structural   Ac2Y2LuSi4
_chemical_formula_sum   'Ac8 Y8 Lu4 Si16'
_cell_volume   927.18188707
_cell_formula_units_Z   4
loop_
 _symmetry_equiv_pos_site_id
 _symmetry_equiv_pos_as_xyz
  1  'x, y, z'
loop_
 _atom_site_type_symbol
 _atom_site_label
 _atom_site_symmetry_multiplicity
 _atom_site_fract_x
 _atom_site_fract_y
 _atom_site_fract_z
 _atom_site_occupancy
  Ac  Ac0  1  0.639852  0.987140  0.457635  1
  Ac  Ac1  1  0.360148  0.012860  0.957635  1
  Ac  Ac2  1  0.987140  0.639852  0.542365  1
  Ac  Ac3  1  0.487140  0.860148  0.207635  1
  Ac  Ac4  1  0.512860  0.139852  0.707635  1
  Ac  Ac5  1  0.860148  0.487140  0.792365  1
  Ac  Ac6  1  0.139852  0.512860  0.292365  1
  Ac  Ac7  1  0.012860  0.360148  0.042365  1
  Y  Y8  1  0.492179  0.363511  0.126336  1
  Y  Y9  1  0.992179  0.136489  0.623664  1
  Y  Y10  1  0.863511  0.007821  0.876336  1
  Y  Y11  1  0.136489  0.992179  0.376336  1
  Y  Y12  1  0.507821  0.636489  0.626336  1
  Y  Y13  1  0.363511  0.492179  0.873664  1
  Y  Y14  1  0.636489  0.507821  0.373664  1
  Y  Y15  1  0.007821  0.863511  0.123664  1
  Lu  Lu16  1  0.315722  0.315722  0.500000  1
  Lu  Lu17  1  0.184278  0.815722  0.750000  1
  Lu  Lu18  1  0.815722  0.184278  0.250000  1
  Lu  Lu19  1  0.684278  0.684278  0.000000  1
  Si  Si20  1  0.284039  0.931306  0.564189  1
  Si  Si21  1  0.715961  0.068694  0.064189  1
  Si  Si22  1  0.931306  0.284039  0.435811  1
  Si  Si23  1  0.431306  0.215961  0.314189  1
  Si  Si24  1  0.568694  0.784039  0.814189  1
  Si  Si25  1  0.215961  0.431306  0.685811  1
  Si  Si26  1  0.784039  0.568694  0.185811  1
  Si  Si27  1  0.068694  0.715961  0.935811  1
  Si  Si28  1  0.800825  0.845135  0.696132  1
  Si  Si29  1  0.199175  0.154865  0.196132  1
  Si  Si30  1  0.845135  0.800825  0.303868  1
  Si  Si31  1  0.345135  0.699175  0.446132  1
  Si  Si32  1  0.654865  0.300825  0.946132  1
  Si  Si33  1  0.699175  0.345135  0.553868  1
  Si  Si34  1  0.300825  0.654865  0.053868  1
  Si  Si35  1  0.154865  0.199175  0.803868  1
