# generated using pymatgen
data_CdIn8Hg3Ir4
_symmetry_space_group_name_H-M   'P 1'
_cell_length_a   7.20271909
_cell_length_b   7.22830988
_cell_length_c   7.13905900
_cell_angle_alpha   90.00000000
_cell_angle_beta   90.00000000
_cell_angle_gamma   90.16789880
_symmetry_Int_Tables_number   1
_chemical_formula_structural   CdIn8Hg3Ir4
_chemical_formula_sum   'Cd1 In8 Hg3 Ir4'
_cell_volume   371.68269953
_cell_formula_units_Z   1
loop_
 _symmetry_equiv_pos_site_id
 _symmetry_equiv_pos_as_xyz
  1  'x, y, z'
loop_
 _atom_site_type_symbol
 _atom_site_label
 _atom_site_symmetry_multiplicity
 _atom_site_fract_x
 _atom_site_fract_y
 _atom_site_fract_z
 _atom_site_occupancy
  Cd  Cd0  1  0.500000  0.000000  0.500000  1
  In  In1  1  0.339877  0.341372  0.265779  1
  In  In2  1  0.159682  0.841310  0.764696  1
  In  In3  1  0.159682  0.841310  0.235304  1
  In  In4  1  0.840318  0.158690  0.235304  1
  In  In5  1  0.840318  0.158690  0.764696  1
  In  In6  1  0.660123  0.658628  0.265779  1
  In  In7  1  0.660123  0.658628  0.734221  1
  In  In8  1  0.339877  0.341372  0.734221  1
  Hg  Hg9  1  0.000000  0.500000  0.000000  1
  Hg  Hg10  1  0.500000  0.000000  0.000000  1
  Hg  Hg11  1  0.000000  0.500000  0.500000  1
  Ir  Ir12  1  0.151952  0.153219  0.000000  1
  Ir  Ir13  1  0.650414  0.345197  0.500000  1
  Ir  Ir14  1  0.349586  0.654803  0.500000  1
  Ir  Ir15  1  0.848048  0.846781  0.000000  1
