# generated using pymatgen
data_HoTh3Al4(Ga7Ir3)2
_symmetry_space_group_name_H-M   'P 1'
_cell_length_a   7.66969877
_cell_length_b   7.68340459
_cell_length_c   9.48617200
_cell_angle_alpha   90.00000000
_cell_angle_beta   90.00000000
_cell_angle_gamma   119.72701514
_symmetry_Int_Tables_number   1
_chemical_formula_structural   HoTh3Al4(Ga7Ir3)2
_chemical_formula_sum   'Ho1 Th3 Al4 Ga14 Ir6'
_cell_volume   485.44689020
_cell_formula_units_Z   1
loop_
 _symmetry_equiv_pos_site_id
 _symmetry_equiv_pos_as_xyz
  1  'x, y, z'
loop_
 _atom_site_type_symbol
 _atom_site_label
 _atom_site_symmetry_multiplicity
 _atom_site_fract_x
 _atom_site_fract_y
 _atom_site_fract_z
 _atom_site_occupancy
  Ho  Ho0  1  0.328628  0.001555  0.750000  1
  Th  Th1  1  0.998762  0.670210  0.250000  1
  Th  Th2  1  0.999722  0.330128  0.750000  1
  Th  Th3  1  0.669738  0.997859  0.250000  1
  Al  Al4  1  0.334671  0.330953  0.555493  1
  Al  Al5  1  0.664621  0.664452  0.451008  1
  Al  Al6  1  0.664621  0.664452  0.048992  1
  Al  Al7  1  0.334671  0.330953  0.944507  1
  Ga  Ga8  1  0.135615  0.132307  0.250000  1
  Ga  Ga9  1  0.872100  0.870046  0.750000  1
  Ga  Ga10  1  0.005197  0.335248  0.079246  1
  Ga  Ga11  1  0.001680  0.670735  0.917947  1
  Ga  Ga12  1  0.001680  0.670735  0.582053  1
  Ga  Ga13  1  0.335177  0.003584  0.427206  1
  Ga  Ga14  1  0.005197  0.335248  0.420754  1
  Ga  Ga15  1  0.658484  0.995920  0.582179  1
  Ga  Ga16  1  0.658484  0.995920  0.917821  1
  Ga  Ga17  1  0.335177  0.003584  0.072794  1
  Ga  Ga18  1  0.350007  0.546703  0.250000  1
  Ga  Ga19  1  0.647731  0.446879  0.750000  1
  Ga  Ga20  1  0.546489  0.346321  0.250000  1
  Ga  Ga21  1  0.452146  0.655386  0.750000  1
  Ir  Ir22  1  0.673007  0.331674  0.000188  1
  Ir  Ir23  1  0.329006  0.668393  0.000403  1
  Ir  Ir24  1  0.329006  0.668393  0.499597  1
  Ir  Ir25  1  0.673007  0.331674  0.499812  1
  Ir  Ir26  1  0.997688  0.000344  0.000668  1
  Ir  Ir27  1  0.997688  0.000344  0.499332  1
