# generated using pymatgen
data_LaNd9IrOs3
_symmetry_space_group_name_H-M   'P 1'
_cell_length_a   8.92405655
_cell_length_b   8.91015292
_cell_length_c   7.43655328
_cell_angle_alpha   83.82733623
_cell_angle_beta   83.58303451
_cell_angle_gamma   43.89317753
_symmetry_Int_Tables_number   1
_chemical_formula_structural   LaNd9IrOs3
_chemical_formula_sum   'La1 Nd9 Ir1 Os3'
_cell_volume   407.08731305
_cell_formula_units_Z   1
loop_
 _symmetry_equiv_pos_site_id
 _symmetry_equiv_pos_as_xyz
  1  'x, y, z'
loop_
 _atom_site_type_symbol
 _atom_site_label
 _atom_site_symmetry_multiplicity
 _atom_site_fract_x
 _atom_site_fract_y
 _atom_site_fract_z
 _atom_site_occupancy
  La  La0  1  0.021107  0.795854  0.909409  1
  Nd  Nd1  1  0.202794  0.981392  0.584609  1
  Nd  Nd2  1  0.982543  0.203543  0.085295  1
  Nd  Nd3  1  0.798618  0.019721  0.415732  1
  Nd  Nd4  1  0.354462  0.208136  0.816900  1
  Nd  Nd5  1  0.788869  0.645768  0.682652  1
  Nd  Nd6  1  0.644821  0.786454  0.183971  1
  Nd  Nd7  1  0.208024  0.355904  0.319345  1
  Nd  Nd8  1  0.571878  0.430971  0.747188  1
  Nd  Nd9  1  0.429548  0.570955  0.250784  1
  Ir  Ir10  1  0.601095  0.175139  0.075080  1
  Os  Os11  1  0.174839  0.604895  0.577809  1
  Os  Os12  1  0.397472  0.824300  0.926413  1
  Os  Os13  1  0.823929  0.396967  0.424811  1
