# generated using pymatgen
data_Cs2ZnSi3O8
_symmetry_space_group_name_H-M   'P 1'
_cell_length_a   5.45758270
_cell_length_b   7.06636196
_cell_length_c   7.22304271
_cell_angle_alpha   79.18794680
_cell_angle_beta   67.86353216
_cell_angle_gamma   67.34191260
_symmetry_Int_Tables_number   1
_chemical_formula_structural   Cs2ZnSi3O8
_chemical_formula_sum   'Cs2 Zn1 Si3 O8'
_cell_volume   237.81778414
_cell_formula_units_Z   1
loop_
 _symmetry_equiv_pos_site_id
 _symmetry_equiv_pos_as_xyz
  1  'x, y, z'
loop_
 _atom_site_type_symbol
 _atom_site_label
 _atom_site_symmetry_multiplicity
 _atom_site_fract_x
 _atom_site_fract_y
 _atom_site_fract_z
 _atom_site_occupancy
  Cs  Cs0  1  0.946378  0.291474  0.819578  1
  Cs  Cs1  1  0.072824  0.691721  0.160877  1
  Zn  Zn2  1  0.666369  0.893766  0.771239  1
  Si  Si3  1  0.327973  0.085207  0.259335  1
  Si  Si4  1  0.655465  0.280084  0.410560  1
  Si  Si5  1  0.345656  0.711166  0.596877  1
  O  O6  1  0.996694  0.237280  0.276968  1
  O  O7  1  0.531071  0.691938  0.731833  1
  O  O8  1  0.504080  0.229480  0.271142  1
  O  O9  1  0.043821  0.696611  0.736491  1
  O  O10  1  0.305866  0.930648  0.458809  1
  O  O11  1  0.608003  0.160391  0.624019  1
  O  O12  1  0.479687  0.970487  0.055318  1
  O  O13  1  0.516111  0.531748  0.424953  1
