# generated using pymatgen
data_Zr3Ga2PtN
_symmetry_space_group_name_H-M   'P 1'
_cell_length_a   8.62606798
_cell_length_b   8.62606898
_cell_length_c   8.62606900
_cell_angle_alpha   60.00000377
_cell_angle_beta   59.99999992
_cell_angle_gamma   59.99999937
_symmetry_Int_Tables_number   1
_chemical_formula_structural   Zr3Ga2PtN
_chemical_formula_sum   'Zr12 Ga8 Pt4 N4'
_cell_volume   453.86191714
_cell_formula_units_Z   4
loop_
 _symmetry_equiv_pos_site_id
 _symmetry_equiv_pos_as_xyz
  1  'x, y, z'
loop_
 _atom_site_type_symbol
 _atom_site_label
 _atom_site_symmetry_multiplicity
 _atom_site_fract_x
 _atom_site_fract_y
 _atom_site_fract_z
 _atom_site_occupancy
  Zr  Zr0  1  0.810410  0.189590  0.189590  1
  Zr  Zr1  1  0.189590  0.810410  0.189590  1
  Zr  Zr2  1  0.810410  0.810410  0.189590  1
  Zr  Zr3  1  0.189590  0.810410  0.810410  1
  Zr  Zr4  1  0.810410  0.189590  0.810410  1
  Zr  Zr5  1  0.189590  0.189590  0.810410  1
  Zr  Zr6  1  0.439590  0.060410  0.060410  1
  Zr  Zr7  1  0.060410  0.439590  0.060410  1
  Zr  Zr8  1  0.439590  0.439590  0.060410  1
  Zr  Zr9  1  0.060410  0.439590  0.439590  1
  Zr  Zr10  1  0.439590  0.060410  0.439590  1
  Zr  Zr11  1  0.060410  0.060410  0.439590  1
  Ga  Ga12  1  0.415730  0.415730  0.752809  1
  Ga  Ga13  1  0.415730  0.415730  0.415730  1
  Ga  Ga14  1  0.752809  0.415730  0.415730  1
  Ga  Ga15  1  0.415730  0.752809  0.415730  1
  Ga  Ga16  1  0.834270  0.834270  0.497191  1
  Ga  Ga17  1  0.834270  0.834270  0.834270  1
  Ga  Ga18  1  0.497191  0.834270  0.834270  1
  Ga  Ga19  1  0.834270  0.497191  0.834270  1
  Pt  Pt20  1  0.625000  0.625000  0.125000  1
  Pt  Pt21  1  0.625000  0.625000  0.625000  1
  Pt  Pt22  1  0.125000  0.625000  0.625000  1
  Pt  Pt23  1  0.625000  0.125000  0.625000  1
  N  N24  1  0.125000  0.125000  0.625000  1
  N  N25  1  0.125000  0.125000  0.125000  1
  N  N26  1  0.625000  0.125000  0.125000  1
  N  N27  1  0.125000  0.625000  0.125000  1
