# generated using pymatgen
data_Pr8Ho12BiSb15
_symmetry_space_group_name_H-M   'P 1'
_cell_length_a   8.09974893
_cell_length_b   8.20188465
_cell_length_c   15.40099500
_cell_angle_alpha   89.92763527
_cell_angle_beta   90.29164582
_cell_angle_gamma   90.09464597
_symmetry_Int_Tables_number   1
_chemical_formula_structural   Pr8Ho12BiSb15
_chemical_formula_sum   'Pr8 Ho12 Bi1 Sb15'
_cell_volume   1023.12202371
_cell_formula_units_Z   1
loop_
 _symmetry_equiv_pos_site_id
 _symmetry_equiv_pos_as_xyz
  1  'x, y, z'
loop_
 _atom_site_type_symbol
 _atom_site_label
 _atom_site_symmetry_multiplicity
 _atom_site_fract_x
 _atom_site_fract_y
 _atom_site_fract_z
 _atom_site_occupancy
  Pr  Pr0  1  0.477090  0.676948  0.595312  1
  Pr  Pr1  1  0.979918  0.822133  0.906789  1
  Pr  Pr2  1  0.519774  0.320911  0.092312  1
  Pr  Pr3  1  0.025464  0.180497  0.404638  1
  Pr  Pr4  1  0.519972  0.324522  0.405540  1
  Pr  Pr5  1  0.019918  0.177830  0.092634  1
  Pr  Pr6  1  0.479880  0.678514  0.907118  1
  Pr  Pr7  1  0.981957  0.820705  0.595360  1
  Ho  Ho8  1  0.648924  0.151321  0.625216  1
  Ho  Ho9  1  0.150428  0.351648  0.877910  1
  Ho  Ho10  1  0.349107  0.851705  0.122537  1
  Ho  Ho11  1  0.852754  0.644389  0.376083  1
  Ho  Ho12  1  0.346105  0.850889  0.376204  1
  Ho  Ho13  1  0.848900  0.648169  0.122323  1
  Ho  Ho14  1  0.650660  0.148459  0.877049  1
  Ho  Ho15  1  0.149046  0.350559  0.623291  1
  Ho  Ho16  1  0.809965  0.501685  0.750320  1
  Ho  Ho17  1  0.310000  0.998471  0.750364  1
  Ho  Ho18  1  0.190346  0.498753  0.249397  1
  Ho  Ho19  1  0.689786  0.001515  0.248082  1
  Bi  Bi20  1  0.702676  0.956679  0.453748  1
  Sb  Sb21  1  0.201517  0.543149  0.047340  1
  Sb  Sb22  1  0.298798  0.043087  0.952683  1
  Sb  Sb23  1  0.796951  0.458474  0.547463  1
  Sb  Sb24  1  0.298248  0.042812  0.547346  1
  Sb  Sb25  1  0.798507  0.456987  0.952549  1
  Sb  Sb26  1  0.701230  0.956367  0.046514  1
  Sb  Sb27  1  0.202527  0.542533  0.453209  1
  Sb  Sb28  1  0.450367  0.363514  0.751016  1
  Sb  Sb29  1  0.951814  0.137217  0.750755  1
  Sb  Sb30  1  0.548749  0.638110  0.249927  1
  Sb  Sb31  1  0.047743  0.862675  0.249096  1
  Sb  Sb32  1  0.663716  0.847617  0.750671  1
  Sb  Sb33  1  0.164098  0.651554  0.751366  1
  Sb  Sb34  1  0.336750  0.152660  0.249091  1
  Sb  Sb35  1  0.836313  0.346943  0.248744  1
