# generated using pymatgen
data_SrYb2(Al3Pd2)3
_symmetry_space_group_name_H-M   'P 1'
_cell_length_a   4.24578400
_cell_length_b   9.49612151
_cell_length_c   9.49160768
_cell_angle_alpha   120.01597571
_cell_angle_beta   90.00000000
_cell_angle_gamma   90.00000000
_symmetry_Int_Tables_number   1
_chemical_formula_structural   SrYb2(Al3Pd2)3
_chemical_formula_sum   'Sr1 Yb2 Al9 Pd6'
_cell_volume   331.36347322
_cell_formula_units_Z   1
loop_
 _symmetry_equiv_pos_site_id
 _symmetry_equiv_pos_as_xyz
  1  'x, y, z'
loop_
 _atom_site_type_symbol
 _atom_site_label
 _atom_site_symmetry_multiplicity
 _atom_site_fract_x
 _atom_site_fract_y
 _atom_site_fract_z
 _atom_site_occupancy
  Sr  Sr0  1  0.000000  0.999965  0.999974  1
  Yb  Yb1  1  0.500000  0.333362  0.666723  1
  Yb  Yb2  1  0.500000  0.666651  0.333300  1
  Al  Al3  1  0.500000  0.307271  0.999976  1
  Al  Al4  1  0.500000  0.692875  0.692829  1
  Al  Al5  1  0.500000  0.000016  0.307178  1
  Al  Al6  1  0.500000  0.692686  0.999975  1
  Al  Al7  1  0.500000  0.307142  0.307180  1
  Al  Al8  1  0.500000  0.999937  0.692820  1
  Al  Al9  1  0.000000  0.499996  0.999995  1
  Al  Al10  1  0.000000  0.500027  0.500017  1
  Al  Al11  1  0.000000  0.000003  0.500027  1
  Pd  Pd12  1  0.000000  0.189034  0.378057  1
  Pd  Pd13  1  0.000000  0.188872  0.810985  1
  Pd  Pd14  1  0.000000  0.622081  0.810968  1
  Pd  Pd15  1  0.000000  0.810970  0.621931  1
  Pd  Pd16  1  0.000000  0.377880  0.189026  1
  Pd  Pd17  1  0.000000  0.811132  0.189040  1
