# generated using pymatgen
data_Be8AlVRe2
_symmetry_space_group_name_H-M   'P 1'
_cell_length_a   4.36575100
_cell_length_b   4.36575015
_cell_length_c   7.13085500
_cell_angle_alpha   90.00000000
_cell_angle_beta   90.00000000
_cell_angle_gamma   120.00001403
_symmetry_Int_Tables_number   1
_chemical_formula_structural   Be8AlVRe2
_chemical_formula_sum   'Be8 Al1 V1 Re2'
_cell_volume   117.70367298
_cell_formula_units_Z   1
loop_
 _symmetry_equiv_pos_site_id
 _symmetry_equiv_pos_as_xyz
  1  'x, y, z'
loop_
 _atom_site_type_symbol
 _atom_site_label
 _atom_site_symmetry_multiplicity
 _atom_site_fract_x
 _atom_site_fract_y
 _atom_site_fract_z
 _atom_site_occupancy
  Be  Be0  1  0.000000  0.000000  0.996538  1
  Be  Be1  1  0.000000  0.000000  0.487732  1
  Be  Be2  1  0.829072  0.658145  0.248921  1
  Be  Be3  1  0.169806  0.830194  0.751906  1
  Be  Be4  1  0.660388  0.830194  0.751906  1
  Be  Be5  1  0.341855  0.170928  0.248921  1
  Be  Be6  1  0.829072  0.170928  0.248921  1
  Be  Be7  1  0.169806  0.339612  0.751906  1
  Al  Al8  1  0.333333  0.666667  0.067828  1
  V  V9  1  0.666667  0.333333  0.564883  1
  Re  Re10  1  0.666667  0.333333  0.930427  1
  Re  Re11  1  0.333333  0.666667  0.450115  1
