# generated using pymatgen
data_Y5Ho2Sn23Os6
_symmetry_space_group_name_H-M   'P 1'
_cell_length_a   9.86629504
_cell_length_b   9.86747063
_cell_length_c   10.13046302
_cell_angle_alpha   89.99999867
_cell_angle_beta   89.99397163
_cell_angle_gamma   120.00393423
_symmetry_Int_Tables_number   1
_chemical_formula_structural   Y5Ho2Sn23Os6
_chemical_formula_sum   'Y5 Ho2 Sn23 Os6'
_cell_volume   854.08805168
_cell_formula_units_Z   1
loop_
 _symmetry_equiv_pos_site_id
 _symmetry_equiv_pos_as_xyz
  1  'x, y, z'
loop_
 _atom_site_type_symbol
 _atom_site_label
 _atom_site_symmetry_multiplicity
 _atom_site_fract_x
 _atom_site_fract_y
 _atom_site_fract_z
 _atom_site_occupancy
  Y  Y0  1  0.999998  0.999999  0.999995  1
  Y  Y1  1  0.514977  0.484999  0.697766  1
  Y  Y2  1  0.514977  0.029976  0.697766  1
  Y  Y3  1  0.970008  0.485004  0.697818  1
  Y  Y4  1  0.029959  0.514980  0.302185  1
  Ho  Ho5  1  0.485358  0.970716  0.301923  1
  Ho  Ho6  1  0.485358  0.514643  0.301923  1
  Sn  Sn7  1  0.666551  0.333275  0.175205  1
  Sn  Sn8  1  0.666689  0.333344  0.870534  1
  Sn  Sn9  1  0.333686  0.666844  0.129879  1
  Sn  Sn10  1  0.349772  0.349809  0.000100  1
  Sn  Sn11  1  0.999992  0.650289  0.000032  1
  Sn  Sn12  1  0.650180  0.999956  0.000074  1
  Sn  Sn13  1  0.650180  0.650223  0.000074  1
  Sn  Sn14  1  0.333338  0.666669  0.824838  1
  Sn  Sn15  1  0.439702  0.219851  0.462787  1
  Sn  Sn16  1  0.219949  0.780314  0.536910  1
  Sn  Sn17  1  0.219949  0.439634  0.536910  1
  Sn  Sn18  1  0.560333  0.780166  0.536755  1
  Sn  Sn19  1  0.117814  0.882334  0.275740  1
  Sn  Sn20  1  0.779950  0.560336  0.462855  1
  Sn  Sn21  1  0.779950  0.219615  0.462855  1
  Sn  Sn22  1  0.349772  0.999963  0.000100  1
  Sn  Sn23  1  0.117814  0.235481  0.275740  1
  Sn  Sn24  1  0.764347  0.882174  0.275781  1
  Sn  Sn25  1  0.235350  0.117674  0.724318  1
  Sn  Sn26  1  0.882332  0.764683  0.724299  1
  Sn  Sn27  1  0.882332  0.117648  0.724299  1
  Sn  Sn28  1  0.000001  0.000001  0.500006  1
  Sn  Sn29  1  0.999992  0.349703  0.000032  1
  Os  Os30  1  0.170159  0.829843  0.797860  1
  Os  Os31  1  0.170159  0.340315  0.797860  1
  Os  Os32  1  0.659679  0.829839  0.797857  1
  Os  Os33  1  0.340775  0.170388  0.202391  1
  Os  Os34  1  0.829308  0.659468  0.202267  1
  Os  Os35  1  0.829308  0.169842  0.202267  1
