# generated using pymatgen
data_Pr3VMoC6
_symmetry_space_group_name_H-M   'P 1'
_cell_length_a   8.66726600
_cell_length_b   8.66726540
_cell_length_c   5.19064800
_cell_angle_alpha   90.00000000
_cell_angle_beta   90.00000000
_cell_angle_gamma   119.99998702
_symmetry_Int_Tables_number   1
_chemical_formula_structural   Pr3VMoC6
_chemical_formula_sum   'Pr6 V2 Mo2 C12'
_cell_volume   337.68866850
_cell_formula_units_Z   2
loop_
 _symmetry_equiv_pos_site_id
 _symmetry_equiv_pos_as_xyz
  1  'x, y, z'
loop_
 _atom_site_type_symbol
 _atom_site_label
 _atom_site_symmetry_multiplicity
 _atom_site_fract_x
 _atom_site_fract_y
 _atom_site_fract_z
 _atom_site_occupancy
  Pr  Pr0  1  0.620126  0.696967  0.750000  1
  Pr  Pr1  1  0.923159  0.620126  0.250000  1
  Pr  Pr2  1  0.696967  0.076841  0.250000  1
  Pr  Pr3  1  0.303033  0.923159  0.750000  1
  Pr  Pr4  1  0.076841  0.379874  0.750000  1
  Pr  Pr5  1  0.379874  0.303033  0.250000  1
  V  V6  1  0.000000  0.000000  0.500000  1
  V  V7  1  0.000000  0.000000  0.000000  1
  Mo  Mo8  1  0.666667  0.333333  0.750000  1
  Mo  Mo9  1  0.333333  0.666667  0.250000  1
  C  C10  1  0.953125  0.773834  0.750000  1
  C  C11  1  0.179291  0.953125  0.250000  1
  C  C12  1  0.773834  0.820709  0.250000  1
  C  C13  1  0.226166  0.179291  0.750000  1
  C  C14  1  0.820709  0.046875  0.750000  1
  C  C15  1  0.046875  0.226166  0.250000  1
  C  C16  1  0.858763  0.589688  0.750000  1
  C  C17  1  0.269074  0.858763  0.250000  1
  C  C18  1  0.589688  0.730926  0.250000  1
  C  C19  1  0.410312  0.269074  0.750000  1
  C  C20  1  0.141237  0.410312  0.250000  1
  C  C21  1  0.730926  0.141237  0.750000  1
