# generated using pymatgen
data_Nb12Al7CoSiTc3C4
_symmetry_space_group_name_H-M   'P 1'
_cell_length_a   8.23202179
_cell_length_b   8.23202159
_cell_length_c   8.23202200
_cell_angle_alpha   60.09771046
_cell_angle_beta   60.09771126
_cell_angle_gamma   60.09770506
_symmetry_Int_Tables_number   1
_chemical_formula_structural   Nb12Al7CoSiTc3C4
_chemical_formula_sum   'Nb12 Al7 Co1 Si1 Tc3 C4'
_cell_volume   395.33473545
_cell_formula_units_Z   1
loop_
 _symmetry_equiv_pos_site_id
 _symmetry_equiv_pos_as_xyz
  1  'x, y, z'
loop_
 _atom_site_type_symbol
 _atom_site_label
 _atom_site_symmetry_multiplicity
 _atom_site_fract_x
 _atom_site_fract_y
 _atom_site_fract_z
 _atom_site_occupancy
  Nb  Nb0  1  0.688184  0.307638  0.697531  1
  Nb  Nb1  1  0.942916  0.560736  0.552891  1
  Nb  Nb2  1  0.554672  0.945445  0.946715  1
  Nb  Nb3  1  0.945445  0.554672  0.946715  1
  Nb  Nb4  1  0.555171  0.555171  0.944878  1
  Nb  Nb5  1  0.942835  0.942835  0.552787  1
  Nb  Nb6  1  0.695821  0.695821  0.304275  1
  Nb  Nb7  1  0.307638  0.688184  0.697531  1
  Nb  Nb8  1  0.690241  0.306690  0.305764  1
  Nb  Nb9  1  0.307778  0.307778  0.691730  1
  Nb  Nb10  1  0.560736  0.942916  0.552891  1
  Nb  Nb11  1  0.306690  0.690241  0.305764  1
  Al  Al12  1  0.251397  0.920968  0.906105  1
  Al  Al13  1  0.920968  0.251397  0.906105  1
  Al  Al14  1  0.916626  0.916626  0.248462  1
  Al  Al15  1  0.327616  0.998033  0.343950  1
  Al  Al16  1  0.332022  0.332022  0.999375  1
  Al  Al17  1  0.998033  0.327616  0.343950  1
  Al  Al18  1  0.921924  0.921924  0.906459  1
  Co  Co19  1  0.130056  0.130056  0.619926  1
  Si  Si20  1  0.329075  0.329075  0.344305  1
  Tc  Tc21  1  0.124231  0.124231  0.125386  1
  Tc  Tc22  1  0.620767  0.128764  0.127821  1
  Tc  Tc23  1  0.128764  0.620767  0.127821  1
  C  C24  1  0.625408  0.625408  0.625077  1
  C  C25  1  0.124201  0.625328  0.625756  1
  C  C26  1  0.625328  0.124201  0.625756  1
  C  C27  1  0.625461  0.625461  0.124277  1
