# generated using pymatgen
data_KAc(NdB12)2
_symmetry_space_group_name_H-M   'P 1'
_cell_length_a   7.20517709
_cell_length_b   7.20517701
_cell_length_c   5.92346700
_cell_angle_alpha   90.00000000
_cell_angle_beta   90.00000000
_cell_angle_gamma   109.24061959
_symmetry_Int_Tables_number   1
_chemical_formula_structural   KAc(NdB12)2
_chemical_formula_sum   'K1 Ac1 Nd2 B24'
_cell_volume   290.33744964
_cell_formula_units_Z   1
loop_
 _symmetry_equiv_pos_site_id
 _symmetry_equiv_pos_as_xyz
  1  'x, y, z'
loop_
 _atom_site_type_symbol
 _atom_site_label
 _atom_site_symmetry_multiplicity
 _atom_site_fract_x
 _atom_site_fract_y
 _atom_site_fract_z
 _atom_site_occupancy
  K  K0  1  0.000238  0.999762  0.000000  1
  Ac  Ac1  1  0.751486  0.248514  0.500000  1
  Nd  Nd2  1  0.498997  0.501003  0.000000  1
  Nd  Nd3  1  0.249177  0.750823  0.500000  1
  B  B4  1  0.176667  0.325953  0.649563  1
  B  B5  1  0.924978  0.575532  0.148135  1
  B  B6  1  0.674047  0.823333  0.649563  1
  B  B7  1  0.424468  0.075022  0.148135  1
  B  B8  1  0.176667  0.325953  0.350437  1
  B  B9  1  0.924978  0.575532  0.851865  1
  B  B10  1  0.674047  0.823333  0.350437  1
  B  B11  1  0.424468  0.075022  0.851865  1
  B  B12  1  0.399906  0.400260  0.500000  1
  B  B13  1  0.148646  0.651139  0.000000  1
  B  B14  1  0.898936  0.898193  0.500000  1
  B  B15  1  0.650027  0.147844  0.000000  1
  B  B16  1  0.325207  0.175931  0.649545  1
  B  B17  1  0.076557  0.425981  0.148131  1
  B  B18  1  0.824069  0.674793  0.649545  1
  B  B19  1  0.574019  0.923443  0.148131  1
  B  B20  1  0.101807  0.101064  0.500000  1
  B  B21  1  0.852156  0.349973  0.000000  1
  B  B22  1  0.599740  0.600094  0.500000  1
  B  B23  1  0.348861  0.851354  0.000000  1
  B  B24  1  0.325207  0.175931  0.350455  1
  B  B25  1  0.076557  0.425981  0.851869  1
  B  B26  1  0.824069  0.674793  0.350455  1
  B  B27  1  0.574019  0.923443  0.851869  1
