# generated using pymatgen
data_Ho2Tm8Tl3In5Ni4
_symmetry_space_group_name_H-M   'P 1'
_cell_length_a   3.60274500
_cell_length_b   8.01943438
_cell_length_c   17.94699999
_cell_angle_alpha   89.96336929
_cell_angle_beta   90.00000000
_cell_angle_gamma   90.00000000
_symmetry_Int_Tables_number   1
_chemical_formula_structural   Ho2Tm8Tl3In5Ni4
_chemical_formula_sum   'Ho2 Tm8 Tl3 In5 Ni4'
_cell_volume   518.52420692
_cell_formula_units_Z   1
loop_
 _symmetry_equiv_pos_site_id
 _symmetry_equiv_pos_as_xyz
  1  'x, y, z'
loop_
 _atom_site_type_symbol
 _atom_site_label
 _atom_site_symmetry_multiplicity
 _atom_site_fract_x
 _atom_site_fract_y
 _atom_site_fract_z
 _atom_site_occupancy
  Ho  Ho0  1  0.000000  0.498458  0.499878  1
  Ho  Ho1  1  0.000000  0.999470  0.000032  1
  Tm  Tm2  1  0.000000  0.747070  0.279820  1
  Tm  Tm3  1  0.000000  0.252939  0.720397  1
  Tm  Tm4  1  0.000000  0.752221  0.778260  1
  Tm  Tm5  1  0.000000  0.246761  0.221138  1
  Tm  Tm6  1  0.000000  0.615747  0.091639  1
  Tm  Tm7  1  0.000000  0.383804  0.908444  1
  Tm  Tm8  1  0.000000  0.883996  0.591032  1
  Tm  Tm9  1  0.000000  0.116776  0.409890  1
  Tl  Tl10  1  0.500000  0.703434  0.932637  1
  Tl  Tl11  1  0.500000  0.296310  0.066883  1
  Tl  Tl12  1  0.500000  0.796806  0.433814  1
  In  In13  1  0.500000  0.203746  0.568104  1
  In  In14  1  0.500000  0.573253  0.652065  1
  In  In15  1  0.500000  0.423594  0.347103  1
  In  In16  1  0.500000  0.923701  0.153035  1
  In  In17  1  0.500000  0.075815  0.846810  1
  Ni  Ni18  1  0.500000  0.530465  0.198010  1
  Ni  Ni19  1  0.500000  0.469865  0.802084  1
  Ni  Ni20  1  0.500000  0.974372  0.696406  1
  Ni  Ni21  1  0.500000  0.031398  0.302519  1
