# generated using pymatgen
data_Li3La4Dy(P3Ir4)4
_symmetry_space_group_name_H-M   'P 1'
_cell_length_a   12.85817300
_cell_length_b   12.85817371
_cell_length_c   4.02118700
_cell_angle_alpha   90.00000000
_cell_angle_beta   90.00000000
_cell_angle_gamma   119.99999628
_symmetry_Int_Tables_number   1
_chemical_formula_structural   Li3La4Dy(P3Ir4)4
_chemical_formula_sum   'Li3 La4 Dy1 P12 Ir16'
_cell_volume   575.76262711
_cell_formula_units_Z   1
loop_
 _symmetry_equiv_pos_site_id
 _symmetry_equiv_pos_as_xyz
  1  'x, y, z'
loop_
 _atom_site_type_symbol
 _atom_site_label
 _atom_site_symmetry_multiplicity
 _atom_site_fract_x
 _atom_site_fract_y
 _atom_site_fract_z
 _atom_site_occupancy
  Li  Li0  1  0.997777  0.438333  0.500000  1
  Li  Li1  1  0.561667  0.559444  0.500000  1
  Li  Li2  1  0.440556  0.002223  0.500000  1
  La  La3  1  0.333333  0.666667  0.500000  1
  La  La4  1  0.001011  0.809108  0.000000  1
  La  La5  1  0.190892  0.191904  0.000000  1
  La  La6  1  0.808096  0.998989  0.000000  1
  Dy  Dy7  1  0.666667  0.333333  0.500000  1
  P  P8  1  0.002678  0.626395  0.500000  1
  P  P9  1  0.373605  0.376283  0.500000  1
  P  P10  1  0.623717  0.997322  0.500000  1
  P  P11  1  0.518653  0.687675  0.000000  1
  P  P12  1  0.312325  0.830977  0.000000  1
  P  P13  1  0.169023  0.481347  0.000000  1
  P  P14  1  0.484403  0.174391  0.000000  1
  P  P15  1  0.689988  0.515597  0.000000  1
  P  P16  1  0.825609  0.310012  0.000000  1
  P  P17  1  0.997892  0.183171  0.500000  1
  P  P18  1  0.816829  0.814721  0.500000  1
  P  P19  1  0.185279  0.002108  0.500000  1
  Ir  Ir20  1  0.512802  0.871653  0.000000  1
  Ir  Ir21  1  0.128347  0.641150  0.000000  1
  Ir  Ir22  1  0.358850  0.487198  0.000000  1
  Ir  Ir23  1  0.494673  0.361158  0.000000  1
  Ir  Ir24  1  0.866486  0.505327  0.000000  1
  Ir  Ir25  1  0.638842  0.133514  0.000000  1
  Ir  Ir26  1  0.997302  0.282527  0.000000  1
  Ir  Ir27  1  0.717473  0.714775  0.000000  1
  Ir  Ir28  1  0.285225  0.002698  0.000000  1
  Ir  Ir29  1  0.623371  0.800197  0.500000  1
  Ir  Ir30  1  0.199803  0.823174  0.500000  1
  Ir  Ir31  1  0.176826  0.376629  0.500000  1
  Ir  Ir32  1  0.377700  0.183170  0.500000  1
  Ir  Ir33  1  0.805470  0.622300  0.500000  1
  Ir  Ir34  1  0.816830  0.194530  0.500000  1
  Ir  Ir35  1  0.000000  0.000000  0.500000  1
