# generated using pymatgen
data_Gd2(AlAu2)3
_symmetry_space_group_name_H-M   'P 1'
_cell_length_a   8.74247067
_cell_length_b   8.74247087
_cell_length_c   8.74247257
_cell_angle_alpha   56.76629998
_cell_angle_beta   56.76632130
_cell_angle_gamma   56.76626197
_symmetry_Int_Tables_number   1
_chemical_formula_structural   Gd2(AlAu2)3
_chemical_formula_sum   'Gd4 Al6 Au12'
_cell_volume   437.21494078
_cell_formula_units_Z   2
loop_
 _symmetry_equiv_pos_site_id
 _symmetry_equiv_pos_as_xyz
  1  'x, y, z'
loop_
 _atom_site_type_symbol
 _atom_site_label
 _atom_site_symmetry_multiplicity
 _atom_site_fract_x
 _atom_site_fract_y
 _atom_site_fract_z
 _atom_site_occupancy
  Gd  Gd0  1  0.909645  0.909645  0.909645  1
  Gd  Gd1  1  0.409645  0.409645  0.409645  1
  Gd  Gd2  1  0.090355  0.090355  0.090355  1
  Gd  Gd3  1  0.590355  0.590355  0.590355  1
  Al  Al4  1  0.553989  0.750000  0.946011  1
  Al  Al5  1  0.946011  0.553989  0.750000  1
  Al  Al6  1  0.750000  0.946011  0.553989  1
  Al  Al7  1  0.446011  0.250000  0.053989  1
  Al  Al8  1  0.053989  0.446011  0.250000  1
  Al  Al9  1  0.250000  0.053989  0.446011  1
  Au  Au10  1  0.484052  0.864159  0.201862  1
  Au  Au11  1  0.201862  0.484052  0.864159  1
  Au  Au12  1  0.864159  0.201862  0.484052  1
  Au  Au13  1  0.701862  0.364159  0.984052  1
  Au  Au14  1  0.984052  0.701862  0.364159  1
  Au  Au15  1  0.364159  0.984052  0.701862  1
  Au  Au16  1  0.515948  0.135841  0.798138  1
  Au  Au17  1  0.798138  0.515948  0.135841  1
  Au  Au18  1  0.135841  0.798138  0.515948  1
  Au  Au19  1  0.298138  0.635841  0.015948  1
  Au  Au20  1  0.015948  0.298138  0.635841  1
  Au  Au21  1  0.635841  0.015948  0.298138  1
