# generated using pymatgen
data_Ho3In3SnPdRu
_symmetry_space_group_name_H-M   'P 1'
_cell_length_a   7.89273900
_cell_length_b   7.89274007
_cell_length_c   3.82484800
_cell_angle_alpha   90.00000000
_cell_angle_beta   90.00000000
_cell_angle_gamma   119.99999134
_symmetry_Int_Tables_number   1
_chemical_formula_structural   Ho3In3SnPdRu
_chemical_formula_sum   'Ho3 In3 Sn1 Pd1 Ru1'
_cell_volume   206.34806110
_cell_formula_units_Z   1
loop_
 _symmetry_equiv_pos_site_id
 _symmetry_equiv_pos_as_xyz
  1  'x, y, z'
loop_
 _atom_site_type_symbol
 _atom_site_label
 _atom_site_symmetry_multiplicity
 _atom_site_fract_x
 _atom_site_fract_y
 _atom_site_fract_z
 _atom_site_occupancy
  Ho  Ho0  1  0.031863  0.611507  0.000000  1
  Ho  Ho1  1  0.388493  0.420355  0.000000  1
  Ho  Ho2  1  0.579645  0.968137  0.000000  1
  In  In3  1  0.735562  0.746419  0.500000  1
  In  In4  1  0.010857  0.264438  0.500000  1
  In  In5  1  0.253581  0.989143  0.500000  1
  Sn  Sn6  1  0.666667  0.333333  0.500000  1
  Pd  Pd7  1  0.000000  0.000000  0.000000  1
  Ru  Ru8  1  0.333333  0.666667  0.500000  1
