# generated using pymatgen
data_Sm3Co(P3Rh4)2
_symmetry_space_group_name_H-M   'P 1'
_cell_length_a   3.89827100
_cell_length_b   11.18924800
_cell_length_c   12.87928400
_cell_angle_alpha   90.00000000
_cell_angle_beta   90.00000000
_cell_angle_gamma   90.00000000
_symmetry_Int_Tables_number   1
_chemical_formula_structural   Sm3Co(P3Rh4)2
_chemical_formula_sum   'Sm6 Co2 P12 Rh16'
_cell_volume   561.77789535
_cell_formula_units_Z   2
loop_
 _symmetry_equiv_pos_site_id
 _symmetry_equiv_pos_as_xyz
  1  'x, y, z'
loop_
 _atom_site_type_symbol
 _atom_site_label
 _atom_site_symmetry_multiplicity
 _atom_site_fract_x
 _atom_site_fract_y
 _atom_site_fract_z
 _atom_site_occupancy
  Sm  Sm0  1  0.000000  0.500000  0.521397  1
  Sm  Sm1  1  0.500000  0.000000  0.478603  1
  Sm  Sm2  1  0.500000  0.815165  0.201767  1
  Sm  Sm3  1  0.500000  0.184835  0.201767  1
  Sm  Sm4  1  0.000000  0.684835  0.798233  1
  Sm  Sm5  1  0.000000  0.315165  0.798233  1
  Co  Co6  1  0.000000  0.500000  0.981125  1
  Co  Co7  1  0.500000  0.000000  0.018875  1
  P  P8  1  0.500000  0.500000  0.882966  1
  P  P9  1  0.000000  0.000000  0.117034  1
  P  P10  1  0.500000  0.500000  0.349123  1
  P  P11  1  0.000000  0.000000  0.650877  1
  P  P12  1  0.500000  0.314243  0.618738  1
  P  P13  1  0.500000  0.685757  0.618738  1
  P  P14  1  0.000000  0.185757  0.381262  1
  P  P15  1  0.000000  0.814243  0.381262  1
  P  P16  1  0.500000  0.854041  0.896564  1
  P  P17  1  0.500000  0.145959  0.896564  1
  P  P18  1  0.000000  0.645959  0.103436  1
  P  P19  1  0.000000  0.354041  0.103436  1
  Rh  Rh20  1  0.500000  0.500000  0.168041  1
  Rh  Rh21  1  0.000000  0.000000  0.831959  1
  Rh  Rh22  1  0.500000  0.500000  0.703669  1
  Rh  Rh23  1  0.000000  0.000000  0.296331  1
  Rh  Rh24  1  0.500000  0.336843  0.995131  1
  Rh  Rh25  1  0.500000  0.663157  0.995131  1
  Rh  Rh26  1  0.000000  0.163157  0.004869  1
  Rh  Rh27  1  0.000000  0.836843  0.004869  1
  Rh  Rh28  1  0.500000  0.293553  0.430189  1
  Rh  Rh29  1  0.500000  0.706447  0.430189  1
  Rh  Rh30  1  0.000000  0.206447  0.569811  1
  Rh  Rh31  1  0.000000  0.793553  0.569811  1
  Rh  Rh32  1  0.500000  0.874462  0.712002  1
  Rh  Rh33  1  0.500000  0.125538  0.712002  1
  Rh  Rh34  1  0.000000  0.625538  0.287998  1
  Rh  Rh35  1  0.000000  0.374462  0.287998  1
