# generated using pymatgen
data_Tm8B24MoOs2Ru
_symmetry_space_group_name_H-M   'P 1'
_cell_length_a   3.61902600
_cell_length_b   9.09837639
_cell_length_c   11.47488506
_cell_angle_alpha   89.93862339
_cell_angle_beta   90.00000000
_cell_angle_gamma   90.00000000
_symmetry_Int_Tables_number   1
_chemical_formula_structural   Tm8B24MoOs2Ru
_chemical_formula_sum   'Tm8 B24 Mo1 Os2 Ru1'
_cell_volume   377.83631532
_cell_formula_units_Z   1
loop_
 _symmetry_equiv_pos_site_id
 _symmetry_equiv_pos_as_xyz
  1  'x, y, z'
loop_
 _atom_site_type_symbol
 _atom_site_label
 _atom_site_symmetry_multiplicity
 _atom_site_fract_x
 _atom_site_fract_y
 _atom_site_fract_z
 _atom_site_occupancy
  Tm  Tm0  1  0.000000  0.322146  0.415324  1
  Tm  Tm1  1  0.000000  0.678429  0.586839  1
  Tm  Tm2  1  0.000000  0.822251  0.085059  1
  Tm  Tm3  1  0.000000  0.180397  0.912639  1
  Tm  Tm4  1  0.000000  0.941574  0.371394  1
  Tm  Tm5  1  0.000000  0.055180  0.627160  1
  Tm  Tm6  1  0.000000  0.443439  0.129282  1
  Tm  Tm7  1  0.000000  0.556737  0.873279  1
  B  B8  1  0.500000  0.553826  0.432180  1
  B  B9  1  0.500000  0.449138  0.563983  1
  B  B10  1  0.500000  0.053489  0.066449  1
  B  B11  1  0.500000  0.946833  0.933380  1
  B  B12  1  0.500000  0.747923  0.419165  1
  B  B13  1  0.500000  0.248949  0.577963  1
  B  B14  1  0.500000  0.248957  0.080973  1
  B  B15  1  0.500000  0.751338  0.919961  1
  B  B16  1  0.500000  0.791201  0.265077  1
  B  B17  1  0.500000  0.205552  0.735716  1
  B  B18  1  0.500000  0.290874  0.234827  1
  B  B19  1  0.500000  0.709096  0.766630  1
  B  B20  1  0.500000  0.631518  0.184687  1
  B  B21  1  0.500000  0.368748  0.817215  1
  B  B22  1  0.500000  0.130002  0.314767  1
  B  B23  1  0.500000  0.868927  0.685686  1
  B  B24  1  0.500000  0.981645  0.211798  1
  B  B25  1  0.500000  0.017667  0.787350  1
  B  B26  1  0.500000  0.482897  0.287255  1
  B  B27  1  0.500000  0.522422  0.713222  1
  B  B28  1  0.500000  0.605510  0.030030  1
  B  B29  1  0.500000  0.395363  0.972634  1
  B  B30  1  0.500000  0.102685  0.469735  1
  B  B31  1  0.500000  0.893834  0.528701  1
  Mo  Mo32  1  0.000000  0.362856  0.678568  1
  Os  Os33  1  0.000000  0.137089  0.179031  1
  Os  Os34  1  0.000000  0.862901  0.822567  1
  Ru  Ru35  1  0.000000  0.638604  0.319474  1
