# generated using pymatgen
data_Rb4U3Ti5Se16
_symmetry_space_group_name_H-M   'P 1'
_cell_length_a   6.58324264
_cell_length_b   7.66013500
_cell_length_c   17.09965004
_cell_angle_alpha   90.00000000
_cell_angle_beta   90.11024593
_cell_angle_gamma   90.00000000
_symmetry_Int_Tables_number   1
_chemical_formula_structural   Rb4U3Ti5Se16
_chemical_formula_sum   'Rb4 U3 Ti5 Se16'
_cell_volume   862.30857383
_cell_formula_units_Z   1
loop_
 _symmetry_equiv_pos_site_id
 _symmetry_equiv_pos_as_xyz
  1  'x, y, z'
loop_
 _atom_site_type_symbol
 _atom_site_label
 _atom_site_symmetry_multiplicity
 _atom_site_fract_x
 _atom_site_fract_y
 _atom_site_fract_z
 _atom_site_occupancy
  Rb  Rb0  1  0.350491  0.000000  0.996524  1
  Rb  Rb1  1  0.642891  0.500000  0.503563  1
  Rb  Rb2  1  0.036253  0.000000  0.502497  1
  Rb  Rb3  1  0.963031  0.500000  0.997186  1
  U  U4  1  0.001272  0.000000  0.248404  1
  U  U5  1  0.000551  0.000000  0.751854  1
  U  U6  1  0.998515  0.500000  0.251564  1
  Ti  Ti7  1  0.003021  0.500000  0.749207  1
  Ti  Ti8  1  0.499994  0.250125  0.249939  1
  Ti  Ti9  1  0.500180  0.732053  0.749531  1
  Ti  Ti10  1  0.499994  0.749875  0.249939  1
  Ti  Ti11  1  0.500180  0.267947  0.749531  1
  Se  Se12  1  0.813718  0.247106  0.347320  1
  Se  Se13  1  0.826100  0.737299  0.659701  1
  Se  Se14  1  0.186110  0.746830  0.152661  1
  Se  Se15  1  0.177367  0.266200  0.841064  1
  Se  Se16  1  0.186110  0.253170  0.152661  1
  Se  Se17  1  0.177367  0.733800  0.841064  1
  Se  Se18  1  0.813718  0.752894  0.347320  1
  Se  Se19  1  0.826100  0.262701  0.659701  1
  Se  Se20  1  0.650770  0.000000  0.159335  1
  Se  Se21  1  0.647916  0.000000  0.837117  1
  Se  Se22  1  0.348827  0.500000  0.340413  1
  Se  Se23  1  0.328639  0.500000  0.661879  1
  Se  Se24  1  0.351286  0.000000  0.339821  1
  Se  Se25  1  0.354169  0.000000  0.663647  1
  Se  Se26  1  0.648739  0.500000  0.160151  1
  Se  Se27  1  0.666689  0.500000  0.836404  1
