# generated using pymatgen
data_Pm4Cu3RuO12
_symmetry_space_group_name_H-M   'P 1'
_cell_length_a   5.38285605
_cell_length_b   5.80298234
_cell_length_c   7.71897241
_cell_angle_alpha   90.14543034
_cell_angle_beta   89.59950193
_cell_angle_gamma   91.29726814
_symmetry_Int_Tables_number   1
_chemical_formula_structural   Pm4Cu3RuO12
_chemical_formula_sum   'Pm4 Cu3 Ru1 O12'
_cell_volume   241.04622532
_cell_formula_units_Z   1
loop_
 _symmetry_equiv_pos_site_id
 _symmetry_equiv_pos_as_xyz
  1  'x, y, z'
loop_
 _atom_site_type_symbol
 _atom_site_label
 _atom_site_symmetry_multiplicity
 _atom_site_fract_x
 _atom_site_fract_y
 _atom_site_fract_z
 _atom_site_occupancy
  Pm  Pm0  1  0.978355  0.080814  0.260787  1
  Pm  Pm1  1  0.518639  0.569329  0.262330  1
  Pm  Pm2  1  0.481363  0.430671  0.737670  1
  Pm  Pm3  1  0.021646  0.919185  0.739213  1
  Cu  Cu4  1  0.000000  0.500000  0.000000  1
  Cu  Cu5  1  0.500001  0.000000  0.500000  1
  Cu  Cu6  1  0.000000  0.500000  0.500000  1
  Ru  Ru7  1  0.500001  0.000000  0.000000  1
  O  O8  1  0.684726  0.293799  0.061782  1
  O  O9  1  0.793994  0.814906  0.057210  1
  O  O10  1  0.092960  0.476681  0.247271  1
  O  O11  1  0.388019  0.962263  0.240596  1
  O  O12  1  0.702249  0.307317  0.455894  1
  O  O13  1  0.786489  0.814071  0.456258  1
  O  O14  1  0.213510  0.185928  0.543742  1
  O  O15  1  0.297751  0.692681  0.544106  1
  O  O16  1  0.611983  0.037737  0.759404  1
  O  O17  1  0.907040  0.523318  0.752729  1
  O  O18  1  0.206005  0.185093  0.942790  1
  O  O19  1  0.315274  0.706199  0.938218  1
