# generated using pymatgen
data_Na4ScMoO6
_symmetry_space_group_name_H-M   'P 1'
_cell_length_a   5.56836331
_cell_length_b   5.56830842
_cell_length_c   5.76833884
_cell_angle_alpha   99.16762906
_cell_angle_beta   99.16667855
_cell_angle_gamma   120.40627540
_symmetry_Int_Tables_number   1
_chemical_formula_structural   Na4ScMoO6
_chemical_formula_sum   'Na4 Sc1 Mo1 O6'
_cell_volume   146.11267809
_cell_formula_units_Z   1
loop_
 _symmetry_equiv_pos_site_id
 _symmetry_equiv_pos_as_xyz
  1  'x, y, z'
loop_
 _atom_site_type_symbol
 _atom_site_label
 _atom_site_symmetry_multiplicity
 _atom_site_fract_x
 _atom_site_fract_y
 _atom_site_fract_z
 _atom_site_occupancy
  Na  Na0  1  0.497968  0.502039  0.000005  1
  Na  Na1  1  0.659642  0.340369  0.500001  1
  Na  Na2  1  0.341713  0.658285  0.500000  1
  Na  Na3  1  0.998043  0.001971  0.500011  1
  Sc  Sc4  1  0.837184  0.162814  0.999988  1
  Mo  Mo5  1  0.166860  0.833142  0.999997  1
  O  O6  1  0.954749  0.593377  0.202059  1
  O  O7  1  0.562138  0.936829  0.210321  1
  O  O8  1  0.208200  0.196294  0.211826  1
  O  O9  1  0.803702  0.791790  0.788180  1
  O  O10  1  0.063176  0.437859  0.789677  1
  O  O11  1  0.406636  0.045240  0.797937  1
