# generated using pymatgen
data_Ac3Sm(Sn2Pd)4
_symmetry_space_group_name_H-M   'P 1'
_cell_length_a   9.44116200
_cell_length_b   9.44116029
_cell_length_c   9.81102900
_cell_angle_alpha   90.00000000
_cell_angle_beta   90.00000000
_cell_angle_gamma   151.02439589
_symmetry_Int_Tables_number   1
_chemical_formula_structural   Ac3Sm(Sn2Pd)4
_chemical_formula_sum   'Ac3 Sm1 Sn8 Pd4'
_cell_volume   423.64573758
_cell_formula_units_Z   1
loop_
 _symmetry_equiv_pos_site_id
 _symmetry_equiv_pos_as_xyz
  1  'x, y, z'
loop_
 _atom_site_type_symbol
 _atom_site_label
 _atom_site_symmetry_multiplicity
 _atom_site_fract_x
 _atom_site_fract_y
 _atom_site_fract_z
 _atom_site_occupancy
  Ac  Ac0  1  0.499779  0.500221  0.498452  1
  Ac  Ac1  1  0.499779  0.500221  0.001548  1
  Ac  Ac2  1  0.702682  0.297318  0.750000  1
  Sm  Sm3  1  0.298305  0.701695  0.250000  1
  Sn  Sn4  1  0.912806  0.087194  0.750000  1
  Sn  Sn5  1  0.923333  0.076667  0.250000  1
  Sn  Sn6  1  0.085490  0.914510  0.250000  1
  Sn  Sn7  1  0.071710  0.928290  0.750000  1
  Sn  Sn8  1  0.700474  0.299526  0.404136  1
  Sn  Sn9  1  0.302416  0.697584  0.586928  1
  Sn  Sn10  1  0.302416  0.697584  0.913072  1
  Sn  Sn11  1  0.700474  0.299526  0.095864  1
  Pd  Pd12  1  0.147737  0.852263  0.503685  1
  Pd  Pd13  1  0.852431  0.147569  0.006873  1
  Pd  Pd14  1  0.147737  0.852263  0.996315  1
  Pd  Pd15  1  0.852431  0.147569  0.493127  1
