# generated using pymatgen
data_Sc12InCoNi4
_symmetry_space_group_name_H-M   'P 1'
_cell_length_a   7.80054704
_cell_length_b   7.80054557
_cell_length_c   7.80054600
_cell_angle_alpha   110.03130258
_cell_angle_beta   111.19414285
_cell_angle_gamma   107.21374754
_symmetry_Int_Tables_number   1
_chemical_formula_structural   Sc12InCoNi4
_chemical_formula_sum   'Sc12 In1 Co1 Ni4'
_cell_volume   364.92451863
_cell_formula_units_Z   1
loop_
 _symmetry_equiv_pos_site_id
 _symmetry_equiv_pos_as_xyz
  1  'x, y, z'
loop_
 _atom_site_type_symbol
 _atom_site_label
 _atom_site_symmetry_multiplicity
 _atom_site_fract_x
 _atom_site_fract_y
 _atom_site_fract_z
 _atom_site_occupancy
  Sc  Sc0  1  0.288698  0.186088  0.470838  1
  Sc  Sc1  1  0.715251  0.817860  0.529162  1
  Sc  Sc2  1  0.288698  0.817860  0.102609  1
  Sc  Sc3  1  0.715251  0.186088  0.897391  1
  Sc  Sc4  1  0.621625  0.318265  0.303362  1
  Sc  Sc5  1  0.376467  0.677655  0.698812  1
  Sc  Sc6  1  0.014904  0.318265  0.696638  1
  Sc  Sc7  1  0.978841  0.677655  0.301188  1
  Sc  Sc8  1  0.220570  0.415321  0.194749  1
  Sc  Sc9  1  0.779161  0.584185  0.805024  1
  Sc  Sc10  1  0.220570  0.025821  0.805251  1
  Sc  Sc11  1  0.779161  0.974137  0.194976  1
  In  In12  1  0.500030  0.500030  0.000000  1
  Co  Co13  1  0.623359  0.123359  0.500000  1
  Ni  Ni14  1  0.000429  0.358577  0.358149  1
  Ni  Ni15  1  0.000429  0.642280  0.641851  1
  Ni  Ni16  1  0.375478  0.875478  0.500000  1
  Ni  Ni17  1  0.001078  0.001078  0.000000  1
