# generated using pymatgen
data_LiY12Co3NiBi
_symmetry_space_group_name_H-M   'P 1'
_cell_length_a   8.41818878
_cell_length_b   8.41818884
_cell_length_c   8.41818847
_cell_angle_alpha   109.42161766
_cell_angle_beta   111.45915350
_cell_angle_gamma   107.55643426
_symmetry_Int_Tables_number   1
_chemical_formula_structural   LiY12Co3NiBi
_chemical_formula_sum   'Li1 Y12 Co3 Ni1 Bi1'
_cell_volume   458.70064940
_cell_formula_units_Z   1
loop_
 _symmetry_equiv_pos_site_id
 _symmetry_equiv_pos_as_xyz
  1  'x, y, z'
loop_
 _atom_site_type_symbol
 _atom_site_label
 _atom_site_symmetry_multiplicity
 _atom_site_fract_x
 _atom_site_fract_y
 _atom_site_fract_z
 _atom_site_occupancy
  Li  Li0  1  0.000000  0.997903  0.997903  1
  Y  Y1  1  0.287894  0.179193  0.467087  1
  Y  Y2  1  0.716910  0.817500  0.534410  1
  Y  Y3  1  0.283090  0.817500  0.100592  1
  Y  Y4  1  0.712106  0.179193  0.891297  1
  Y  Y5  1  0.630489  0.320309  0.313754  1
  Y  Y6  1  0.369511  0.683266  0.689821  1
  Y  Y7  1  0.006555  0.320309  0.689821  1
  Y  Y8  1  0.993445  0.683266  0.313754  1
  Y  Y9  1  0.226695  0.428027  0.201332  1
  Y  Y10  1  0.774493  0.573846  0.799354  1
  Y  Y11  1  0.225507  0.024863  0.799354  1
  Y  Y12  1  0.773305  0.974637  0.201332  1
  Co  Co13  1  0.000000  0.653569  0.653569  1
  Co  Co14  1  0.387154  0.884633  0.497478  1
  Co  Co15  1  0.612846  0.110325  0.497478  1
  Ni  Ni16  1  0.000000  0.352223  0.352223  1
  Bi  Bi17  1  0.500000  0.499435  0.999435  1
