# generated using pymatgen
data_Rb4HfZr7Se16
_symmetry_space_group_name_H-M   'P 1'
_cell_length_a   6.60536146
_cell_length_b   7.62292908
_cell_length_c   17.09201540
_cell_angle_alpha   89.98322156
_cell_angle_beta   89.95703270
_cell_angle_gamma   89.99746773
_symmetry_Int_Tables_number   1
_chemical_formula_structural   Rb4HfZr7Se16
_chemical_formula_sum   'Rb4 Hf1 Zr7 Se16'
_cell_volume   860.62033196
_cell_formula_units_Z   1
loop_
 _symmetry_equiv_pos_site_id
 _symmetry_equiv_pos_as_xyz
  1  'x, y, z'
loop_
 _atom_site_type_symbol
 _atom_site_label
 _atom_site_symmetry_multiplicity
 _atom_site_fract_x
 _atom_site_fract_y
 _atom_site_fract_z
 _atom_site_occupancy
  Rb  Rb0  1  0.347950  0.999977  0.999894  1
  Rb  Rb1  1  0.652050  0.500023  0.500106  1
  Rb  Rb2  1  0.031706  0.000033  0.500066  1
  Rb  Rb3  1  0.968294  0.499967  0.999934  1
  Hf  Hf4  1  0.500000  0.250000  0.250000  1
  Zr  Zr5  1  0.000897  0.998661  0.248957  1
  Zr  Zr6  1  0.000840  0.999987  0.751048  1
  Zr  Zr7  1  0.999103  0.501339  0.251043  1
  Zr  Zr8  1  0.999160  0.500013  0.748952  1
  Zr  Zr9  1  0.500000  0.750000  0.750000  1
  Zr  Zr10  1  0.500000  0.750000  0.250000  1
  Zr  Zr11  1  0.500000  0.250000  0.750000  1
  Se  Se12  1  0.829354  0.248366  0.344461  1
  Se  Se13  1  0.833825  0.751689  0.654424  1
  Se  Se14  1  0.165904  0.748339  0.154329  1
  Se  Se15  1  0.166167  0.251673  0.845578  1
  Se  Se16  1  0.170646  0.251634  0.155539  1
  Se  Se17  1  0.166175  0.748311  0.845576  1
  Se  Se18  1  0.834096  0.751661  0.345671  1
  Se  Se19  1  0.833833  0.248327  0.654422  1
  Se  Se20  1  0.667747  0.003243  0.156155  1
  Se  Se21  1  0.669752  0.999994  0.844842  1
  Se  Se22  1  0.332253  0.496757  0.343845  1
  Se  Se23  1  0.330248  0.500006  0.655158  1
  Se  Se24  1  0.338588  0.003286  0.342638  1
  Se  Se25  1  0.336621  0.000009  0.656394  1
  Se  Se26  1  0.661412  0.496714  0.157362  1
  Se  Se27  1  0.663379  0.499991  0.843606  1
