# generated using pymatgen
data_DyHo3Fe16(P3Ru)4
_symmetry_space_group_name_H-M   'P 1'
_cell_length_a   3.70647400
_cell_length_b   10.35528105
_cell_length_c   11.81007306
_cell_angle_alpha   89.98821840
_cell_angle_beta   90.00000000
_cell_angle_gamma   90.00000000
_symmetry_Int_Tables_number   1
_chemical_formula_structural   DyHo3Fe16(P3Ru)4
_chemical_formula_sum   'Dy1 Ho3 Fe16 P12 Ru4'
_cell_volume   453.28925437
_cell_formula_units_Z   1
loop_
 _symmetry_equiv_pos_site_id
 _symmetry_equiv_pos_as_xyz
  1  'x, y, z'
loop_
 _atom_site_type_symbol
 _atom_site_label
 _atom_site_symmetry_multiplicity
 _atom_site_fract_x
 _atom_site_fract_y
 _atom_site_fract_z
 _atom_site_occupancy
  Dy  Dy0  1  0.250000  0.581810  0.703851  1
  Ho  Ho1  1  0.250000  0.917861  0.203830  1
  Ho  Ho2  1  0.750000  0.418458  0.296053  1
  Ho  Ho3  1  0.750000  0.081918  0.796348  1
  Fe  Fe4  1  0.250000  0.405362  0.488935  1
  Fe  Fe5  1  0.250000  0.094615  0.989274  1
  Fe  Fe6  1  0.750000  0.594571  0.510348  1
  Fe  Fe7  1  0.750000  0.905317  0.010939  1
  Fe  Fe8  1  0.250000  0.219720  0.175248  1
  Fe  Fe9  1  0.250000  0.280177  0.675262  1
  Fe  Fe10  1  0.750000  0.780560  0.824857  1
  Fe  Fe11  1  0.750000  0.719904  0.324645  1
  Fe  Fe12  1  0.250000  0.877862  0.704145  1
  Fe  Fe13  1  0.250000  0.622265  0.204146  1
  Fe  Fe14  1  0.750000  0.122398  0.295714  1
  Fe  Fe15  1  0.750000  0.377348  0.796101  1
  Fe  Fe16  1  0.250000  0.462622  0.932898  1
  Fe  Fe17  1  0.250000  0.037223  0.432371  1
  Fe  Fe18  1  0.750000  0.537160  0.067792  1
  Fe  Fe19  1  0.750000  0.962963  0.567258  1
  P  P20  1  0.250000  0.424839  0.114805  1
  P  P21  1  0.250000  0.075300  0.614492  1
  P  P22  1  0.750000  0.575216  0.885966  1
  P  P23  1  0.750000  0.924674  0.385298  1
  P  P24  1  0.250000  0.266634  0.867346  1
  P  P25  1  0.250000  0.233534  0.367211  1
  P  P26  1  0.750000  0.733232  0.132915  1
  P  P27  1  0.750000  0.766977  0.632433  1
  P  P28  1  0.250000  0.595702  0.394955  1
  P  P29  1  0.250000  0.904410  0.895411  1
  P  P30  1  0.750000  0.404079  0.604513  1
  P  P31  1  0.750000  0.095446  0.104736  1
  Ru  Ru32  1  0.250000  0.707815  0.988501  1
  Ru  Ru33  1  0.250000  0.792255  0.488191  1
  Ru  Ru34  1  0.750000  0.292093  0.011786  1
  Ru  Ru35  1  0.750000  0.207681  0.511426  1
