# generated using pymatgen
data_HoTm3Pt4F28
_symmetry_space_group_name_H-M   'P 1'
_cell_length_a   5.50429529
_cell_length_b   8.79886948
_cell_length_c   11.90319034
_cell_angle_alpha   62.59102232
_cell_angle_beta   90.03725243
_cell_angle_gamma   90.01417576
_symmetry_Int_Tables_number   1
_chemical_formula_structural   HoTm3Pt4F28
_chemical_formula_sum   'Ho1 Tm3 Pt4 F28'
_cell_volume   511.77524192
_cell_formula_units_Z   1
loop_
 _symmetry_equiv_pos_site_id
 _symmetry_equiv_pos_as_xyz
  1  'x, y, z'
loop_
 _atom_site_type_symbol
 _atom_site_label
 _atom_site_symmetry_multiplicity
 _atom_site_fract_x
 _atom_site_fract_y
 _atom_site_fract_z
 _atom_site_occupancy
  Ho  Ho0  1  0.738960  0.815078  0.264333  1
  Tm  Tm1  1  0.761108  0.815249  0.764073  1
  Tm  Tm2  1  0.261203  0.184816  0.735964  1
  Tm  Tm3  1  0.238794  0.186214  0.235746  1
  Pt  Pt4  1  0.759412  0.272894  0.956426  1
  Pt  Pt5  1  0.259011  0.727366  0.543930  1
  Pt  Pt6  1  0.240950  0.727463  0.042402  1
  Pt  Pt7  1  0.740753  0.271552  0.457234  1
  F  F8  1  0.438708  0.702413  0.914523  1
  F  F9  1  0.938579  0.297303  0.584910  1
  F  F10  1  0.561897  0.297731  0.084545  1
  F  F11  1  0.062881  0.701855  0.415795  1
  F  F12  1  0.437912  0.277090  0.544144  1
  F  F13  1  0.937199  0.722737  0.955719  1
  F  F14  1  0.561590  0.721649  0.457654  1
  F  F15  1  0.062261  0.277691  0.043726  1
  F  F16  1  0.775198  0.524104  0.857332  1
  F  F17  1  0.274958  0.476027  0.642817  1
  F  F18  1  0.224860  0.476381  0.142311  1
  F  F19  1  0.724734  0.522147  0.357892  1
  F  F20  1  0.754254  0.022183  0.050099  1
  F  F21  1  0.254451  0.978320  0.449214  1
  F  F22  1  0.245821  0.978450  0.948610  1
  F  F23  1  0.745741  0.020640  0.551509  1
  F  F24  1  0.964090  0.725205  0.637831  1
  F  F25  1  0.464684  0.274908  0.862243  1
  F  F26  1  0.035234  0.274845  0.362621  1
  F  F27  1  0.535289  0.724289  0.136621  1
  F  F28  1  0.051355  0.745543  0.175941  1
  F  F29  1  0.548935  0.253497  0.323783  1
  F  F30  1  0.951357  0.253868  0.823497  1
  F  F31  1  0.451026  0.746332  0.676804  1
  F  F32  1  0.413797  0.972260  0.232350  1
  F  F33  1  0.918049  0.031778  0.267380  1
  F  F34  1  0.582427  0.029085  0.767196  1
  F  F35  1  0.082526  0.971039  0.732825  1
