# generated using pymatgen
data_Er6CrB14Ru
_symmetry_space_group_name_H-M   'P 1'
_cell_length_a   8.00612762
_cell_length_b   8.00612821
_cell_length_c   9.27678500
_cell_angle_alpha   90.00000000
_cell_angle_beta   90.00000000
_cell_angle_gamma   155.05517109
_symmetry_Int_Tables_number   1
_chemical_formula_structural   Er6CrB14Ru
_chemical_formula_sum   'Er6 Cr1 B14 Ru1'
_cell_volume   250.77997836
_cell_formula_units_Z   1
loop_
 _symmetry_equiv_pos_site_id
 _symmetry_equiv_pos_as_xyz
  1  'x, y, z'
loop_
 _atom_site_type_symbol
 _atom_site_label
 _atom_site_symmetry_multiplicity
 _atom_site_fract_x
 _atom_site_fract_y
 _atom_site_fract_z
 _atom_site_occupancy
  Er  Er0  1  0.756440  0.243560  0.250000  1
  Er  Er1  1  0.241915  0.758085  0.750000  1
  Er  Er2  1  0.894358  0.105642  0.561785  1
  Er  Er3  1  0.105690  0.894310  0.441031  1
  Er  Er4  1  0.105690  0.894310  0.058969  1
  Er  Er5  1  0.894358  0.105642  0.938215  1
  Cr  Cr6  1  0.052461  0.947539  0.750000  1
  B  B7  1  0.543515  0.456485  0.250000  1
  B  B8  1  0.457280  0.542720  0.750000  1
  B  B9  1  0.520781  0.479219  0.904345  1
  B  B10  1  0.479722  0.520278  0.094804  1
  B  B11  1  0.479722  0.520278  0.405196  1
  B  B12  1  0.520781  0.479219  0.595655  1
  B  B13  1  0.631338  0.368662  0.848559  1
  B  B14  1  0.368383  0.631617  0.149917  1
  B  B15  1  0.727914  0.272086  0.966604  1
  B  B16  1  0.272962  0.727038  0.034083  1
  B  B17  1  0.272962  0.727038  0.465917  1
  B  B18  1  0.727914  0.272086  0.533396  1
  B  B19  1  0.631338  0.368662  0.651441  1
  B  B20  1  0.368383  0.631617  0.350083  1
  Ru  Ru21  1  0.946093  0.053907  0.250000  1
