# generated using pymatgen
data_Pu2TcWC3
_symmetry_space_group_name_H-M   'P 1'
_cell_length_a   6.21545564
_cell_length_b   6.21545503
_cell_length_c   5.69079696
_cell_angle_alpha   66.41481945
_cell_angle_beta   66.41482414
_cell_angle_gamma   30.22983750
_symmetry_Int_Tables_number   1
_chemical_formula_structural   Pu2TcWC3
_chemical_formula_sum   'Pu2 Tc1 W1 C3'
_cell_volume   100.73220849
_cell_formula_units_Z   1
loop_
 _symmetry_equiv_pos_site_id
 _symmetry_equiv_pos_as_xyz
  1  'x, y, z'
loop_
 _atom_site_type_symbol
 _atom_site_label
 _atom_site_symmetry_multiplicity
 _atom_site_fract_x
 _atom_site_fract_y
 _atom_site_fract_z
 _atom_site_occupancy
  Pu  Pu0  1  0.604034  0.604034  0.197780  1
  Pu  Pu1  1  0.395505  0.395505  0.810232  1
  Tc  Tc2  1  0.842898  0.842898  0.323622  1
  W  W3  1  0.157945  0.157945  0.671205  1
  C  C4  1  0.749842  0.749842  0.745507  1
  C  C5  1  0.250611  0.250611  0.252733  1
  C  C6  1  0.999166  0.999166  0.998921  1
