# generated using pymatgen
data_KAg2AsS3
_symmetry_space_group_name_H-M   'P 1'
_cell_length_a   8.34853200
_cell_length_b   9.48625906
_cell_length_c   9.75942955
_cell_angle_alpha   70.36454657
_cell_angle_beta   90.00000000
_cell_angle_gamma   90.00000000
_symmetry_Int_Tables_number   1
_chemical_formula_structural   KAg2AsS3
_chemical_formula_sum   'K4 Ag8 As4 S12'
_cell_volume   727.96606527
_cell_formula_units_Z   4
loop_
 _symmetry_equiv_pos_site_id
 _symmetry_equiv_pos_as_xyz
  1  'x, y, z'
loop_
 _atom_site_type_symbol
 _atom_site_label
 _atom_site_symmetry_multiplicity
 _atom_site_fract_x
 _atom_site_fract_y
 _atom_site_fract_z
 _atom_site_occupancy
  K  K0  1  0.943983  0.248670  0.084057  1
  K  K1  1  0.443983  0.251330  0.915943  1
  K  K2  1  0.056017  0.751330  0.915943  1
  K  K3  1  0.556017  0.748670  0.084057  1
  Ag  Ag4  1  0.763271  0.938746  0.440571  1
  Ag  Ag5  1  0.263271  0.561254  0.559429  1
  Ag  Ag6  1  0.236729  0.061254  0.559429  1
  Ag  Ag7  1  0.736729  0.438746  0.440571  1
  Ag  Ag8  1  0.974899  0.211733  0.680120  1
  Ag  Ag9  1  0.474899  0.288267  0.319880  1
  Ag  Ag10  1  0.025101  0.788267  0.319880  1
  Ag  Ag11  1  0.525101  0.711733  0.680120  1
  As  As12  1  0.138569  0.448064  0.338239  1
  As  As13  1  0.638569  0.051936  0.661761  1
  As  As14  1  0.861431  0.551936  0.661761  1
  As  As15  1  0.361431  0.948064  0.338239  1
  S  S16  1  0.016103  0.213061  0.423856  1
  S  S17  1  0.516103  0.286939  0.576144  1
  S  S18  1  0.983897  0.786939  0.576144  1
  S  S19  1  0.483897  0.713061  0.423856  1
  S  S20  1  0.778427  0.048138  0.859609  1
  S  S21  1  0.278427  0.451862  0.140391  1
  S  S22  1  0.221573  0.951862  0.140391  1
  S  S23  1  0.721573  0.548138  0.859609  1
  S  S24  1  0.908115  0.579928  0.237912  1
  S  S25  1  0.408115  0.920072  0.762088  1
  S  S26  1  0.091885  0.420072  0.762088  1
  S  S27  1  0.591885  0.079928  0.237912  1
