# generated using pymatgen
data_Ce3Pr4Dy(AlRh)8
_symmetry_space_group_name_H-M   'P 1'
_cell_length_a   4.22535200
_cell_length_b   7.10400358
_cell_length_c   16.17513534
_cell_angle_alpha   90.63764351
_cell_angle_beta   90.00000000
_cell_angle_gamma   90.00000000
_symmetry_Int_Tables_number   1
_chemical_formula_structural   Ce3Pr4Dy(AlRh)8
_chemical_formula_sum   'Ce3 Pr4 Dy1 Al8 Rh8'
_cell_volume   485.49760740
_cell_formula_units_Z   1
loop_
 _symmetry_equiv_pos_site_id
 _symmetry_equiv_pos_as_xyz
  1  'x, y, z'
loop_
 _atom_site_type_symbol
 _atom_site_label
 _atom_site_symmetry_multiplicity
 _atom_site_fract_x
 _atom_site_fract_y
 _atom_site_fract_z
 _atom_site_occupancy
  Ce  Ce0  1  0.750000  0.970222  0.219715  1
  Ce  Ce1  1  0.250000  0.527123  0.721026  1
  Ce  Ce2  1  0.750000  0.470856  0.279775  1
  Pr  Pr3  1  0.250000  0.156051  0.560449  1
  Pr  Pr4  1  0.750000  0.844960  0.439608  1
  Pr  Pr5  1  0.250000  0.655801  0.938506  1
  Pr  Pr6  1  0.750000  0.343679  0.061423  1
  Dy  Dy7  1  0.250000  0.028903  0.780447  1
  Al  Al8  1  0.250000  0.145694  0.350143  1
  Al  Al9  1  0.750000  0.856951  0.652388  1
  Al  Al10  1  0.250000  0.647733  0.149923  1
  Al  Al11  1  0.750000  0.347522  0.849847  1
  Al  Al12  1  0.250000  0.006386  0.061619  1
  Al  Al13  1  0.750000  0.994253  0.935245  1
  Al  Al14  1  0.250000  0.507135  0.438253  1
  Al  Al15  1  0.750000  0.496550  0.561846  1
  Rh  Rh16  1  0.750000  0.287916  0.423424  1
  Rh  Rh17  1  0.250000  0.717032  0.576695  1
  Rh  Rh18  1  0.750000  0.786954  0.075024  1
  Rh  Rh19  1  0.250000  0.216809  0.927543  1
  Rh  Rh20  1  0.750000  0.732239  0.809555  1
  Rh  Rh21  1  0.250000  0.255374  0.190599  1
  Rh  Rh22  1  0.750000  0.250766  0.685974  1
  Rh  Rh23  1  0.250000  0.753093  0.310974  1
