# generated using pymatgen
data_Er3Lu5Si12IrRh3
_symmetry_space_group_name_H-M   'P 1'
_cell_length_a   8.12004100
_cell_length_b   8.12694070
_cell_length_c   7.73135104
_cell_angle_alpha   89.98973421
_cell_angle_beta   90.00000000
_cell_angle_gamma   119.97191549
_symmetry_Int_Tables_number   1
_chemical_formula_structural   Er3Lu5Si12IrRh3
_chemical_formula_sum   'Er3 Lu5 Si12 Ir1 Rh3'
_cell_volume   441.97139619
_cell_formula_units_Z   1
loop_
 _symmetry_equiv_pos_site_id
 _symmetry_equiv_pos_as_xyz
  1  'x, y, z'
loop_
 _atom_site_type_symbol
 _atom_site_label
 _atom_site_symmetry_multiplicity
 _atom_site_fract_x
 _atom_site_fract_y
 _atom_site_fract_z
 _atom_site_occupancy
  Er  Er0  1  0.509586  0.019174  0.249949  1
  Er  Er1  1  0.000121  0.000242  0.749626  1
  Er  Er2  1  0.999885  0.999771  0.251216  1
  Lu  Lu3  1  0.982027  0.491199  0.249814  1
  Lu  Lu4  1  0.509171  0.491199  0.249814  1
  Lu  Lu5  1  0.490002  0.980005  0.750232  1
  Lu  Lu6  1  0.019944  0.509939  0.750231  1
  Lu  Lu7  1  0.489994  0.509939  0.750231  1
  Si  Si8  1  0.167037  0.832812  0.500965  1
  Si  Si9  1  0.167043  0.334086  0.500774  1
  Si  Si10  1  0.665775  0.832812  0.500965  1
  Si  Si11  1  0.334722  0.167536  0.999224  1
  Si  Si12  1  0.832706  0.665413  0.500013  1
  Si  Si13  1  0.832813  0.167536  0.999224  1
  Si  Si14  1  0.832591  0.665183  0.999969  1
  Si  Si15  1  0.166256  0.332512  0.000377  1
  Si  Si16  1  0.667007  0.833443  0.000252  1
  Si  Si17  1  0.334452  0.167450  0.500719  1
  Si  Si18  1  0.832999  0.167450  0.500719  1
  Si  Si19  1  0.166437  0.833443  0.000252  1
  Ir  Ir20  1  0.332764  0.665529  0.031291  1
  Rh  Rh21  1  0.666955  0.333910  0.963764  1
  Rh  Rh22  1  0.666980  0.333959  0.537419  1
  Rh  Rh23  1  0.332730  0.665460  0.462963  1
