# generated using pymatgen
data_Ba2GaSn4Pt
_symmetry_space_group_name_H-M   'P 1'
_cell_length_a   10.04467315
_cell_length_b   10.04467264
_cell_length_c   4.88299200
_cell_angle_alpha   90.00000000
_cell_angle_beta   90.00000000
_cell_angle_gamma   151.34280950
_symmetry_Int_Tables_number   1
_chemical_formula_structural   Ba2GaSn4Pt
_chemical_formula_sum   'Ba2 Ga1 Sn4 Pt1'
_cell_volume   236.26957267
_cell_formula_units_Z   1
loop_
 _symmetry_equiv_pos_site_id
 _symmetry_equiv_pos_as_xyz
  1  'x, y, z'
loop_
 _atom_site_type_symbol
 _atom_site_label
 _atom_site_symmetry_multiplicity
 _atom_site_fract_x
 _atom_site_fract_y
 _atom_site_fract_z
 _atom_site_occupancy
  Ba  Ba0  1  0.396069  0.603931  0.250000  1
  Ba  Ba1  1  0.609164  0.390836  0.750000  1
  Ga  Ga2  1  0.177578  0.822422  0.250000  1
  Sn  Sn3  1  0.037176  0.962824  0.250000  1
  Sn  Sn4  1  0.955450  0.044550  0.750000  1
  Sn  Sn5  1  0.255387  0.744613  0.750000  1
  Sn  Sn6  1  0.752976  0.247024  0.250000  1
  Pt  Pt7  1  0.816201  0.183799  0.750000  1
