# generated using pymatgen
data_SrTm3(Pt2O7)2
_symmetry_space_group_name_H-M   'P 1'
_cell_length_a   7.28650852
_cell_length_b   7.26885595
_cell_length_c   7.26885600
_cell_angle_alpha   59.99999976
_cell_angle_beta   60.08010769
_cell_angle_gamma   60.08010545
_symmetry_Int_Tables_number   1
_chemical_formula_structural   SrTm3(Pt2O7)2
_chemical_formula_sum   'Sr1 Tm3 Pt4 O14'
_cell_volume   272.55954433
_cell_formula_units_Z   1
loop_
 _symmetry_equiv_pos_site_id
 _symmetry_equiv_pos_as_xyz
  1  'x, y, z'
loop_
 _atom_site_type_symbol
 _atom_site_label
 _atom_site_symmetry_multiplicity
 _atom_site_fract_x
 _atom_site_fract_y
 _atom_site_fract_z
 _atom_site_occupancy
  Sr  Sr0  1  0.125000  0.625000  0.625000  1
  Tm  Tm1  1  0.625000  0.625000  0.125000  1
  Tm  Tm2  1  0.625000  0.625000  0.625000  1
  Tm  Tm3  1  0.625000  0.125000  0.625000  1
  Pt  Pt4  1  0.125000  0.125000  0.125000  1
  Pt  Pt5  1  0.625000  0.125000  0.125000  1
  Pt  Pt6  1  0.125000  0.625000  0.125000  1
  Pt  Pt7  1  0.125000  0.125000  0.625000  1
  O  O8  1  0.024722  0.459800  0.459800  1
  O  O9  1  0.783997  0.785952  0.215026  1
  O  O10  1  0.783997  0.215026  0.215026  1
  O  O11  1  0.466003  0.034974  0.464048  1
  O  O12  1  0.024722  0.055677  0.459800  1
  O  O13  1  0.024722  0.459800  0.055677  1
  O  O14  1  0.723686  0.758771  0.758771  1
  O  O15  1  0.526314  0.491229  0.491229  1
  O  O16  1  0.783997  0.215026  0.785952  1
  O  O17  1  0.225278  0.790200  0.194323  1
  O  O18  1  0.225278  0.194323  0.790200  1
  O  O19  1  0.466003  0.034974  0.034974  1
  O  O20  1  0.466003  0.464048  0.034974  1
  O  O21  1  0.225278  0.790200  0.790200  1
