# generated using pymatgen
data_TmNp3Ga12Pt
_symmetry_space_group_name_H-M   'P 1'
_cell_length_a   7.51959496
_cell_length_b   7.44358636
_cell_length_c   7.44358657
_cell_angle_alpha   109.26344262
_cell_angle_beta   109.67821291
_cell_angle_gamma   109.67821161
_symmetry_Int_Tables_number   1
_chemical_formula_structural   TmNp3Ga12Pt
_chemical_formula_sum   'Tm1 Np3 Ga12 Pt1'
_cell_volume   319.90512527
_cell_formula_units_Z   1
loop_
 _symmetry_equiv_pos_site_id
 _symmetry_equiv_pos_as_xyz
  1  'x, y, z'
loop_
 _atom_site_type_symbol
 _atom_site_label
 _atom_site_symmetry_multiplicity
 _atom_site_fract_x
 _atom_site_fract_y
 _atom_site_fract_z
 _atom_site_occupancy
  Tm  Tm0  1  0.500000  0.000000  0.000000  1
  Np  Np1  1  0.000000  0.000000  0.500000  1
  Np  Np2  1  0.000000  0.500000  0.000000  1
  Np  Np3  1  0.500000  0.500000  0.500000  1
  Ga  Ga4  1  0.749680  0.249680  0.499361  1
  Ga  Ga5  1  0.749680  0.499361  0.249680  1
  Ga  Ga6  1  0.500000  0.249680  0.750320  1
  Ga  Ga7  1  0.250320  0.500639  0.750320  1
  Ga  Ga8  1  0.250320  0.750320  0.500639  1
  Ga  Ga9  1  0.500000  0.750320  0.249680  1
  Ga  Ga10  1  0.704455  0.704009  0.000000  1
  Ga  Ga11  1  0.295545  0.000000  0.295991  1
  Ga  Ga12  1  0.000446  0.295991  0.295991  1
  Ga  Ga13  1  0.295545  0.295991  0.000000  1
  Ga  Ga14  1  0.704455  0.000000  0.704009  1
  Ga  Ga15  1  0.999554  0.704009  0.704009  1
  Pt  Pt16  1  0.000000  0.000000  0.000000  1
