# generated using pymatgen
data_KAlGaAu3
_symmetry_space_group_name_H-M   'P 1'
_cell_length_a   5.63406100
_cell_length_b   7.12674700
_cell_length_c   13.47132800
_cell_angle_alpha   90.00000000
_cell_angle_beta   90.00000000
_cell_angle_gamma   90.00000000
_symmetry_Int_Tables_number   1
_chemical_formula_structural   KAlGaAu3
_chemical_formula_sum   'K4 Al4 Ga4 Au12'
_cell_volume   540.90786569
_cell_formula_units_Z   4
loop_
 _symmetry_equiv_pos_site_id
 _symmetry_equiv_pos_as_xyz
  1  'x, y, z'
loop_
 _atom_site_type_symbol
 _atom_site_label
 _atom_site_symmetry_multiplicity
 _atom_site_fract_x
 _atom_site_fract_y
 _atom_site_fract_z
 _atom_site_occupancy
  K  K0  1  0.248176  0.106811  0.076164  1
  K  K1  1  0.251824  0.393189  0.576164  1
  K  K2  1  0.748176  0.893189  0.923836  1
  K  K3  1  0.751824  0.606811  0.423836  1
  Al  Al4  1  0.999190  0.899456  0.656013  1
  Al  Al5  1  0.500810  0.600544  0.156013  1
  Al  Al6  1  0.499190  0.100544  0.343987  1
  Al  Al7  1  0.000810  0.399456  0.843987  1
  Ga  Ga8  1  0.001860  0.105031  0.345037  1
  Ga  Ga9  1  0.498140  0.394969  0.845037  1
  Ga  Ga10  1  0.501860  0.894969  0.654963  1
  Ga  Ga11  1  0.998140  0.605031  0.154963  1
  Au  Au12  1  0.243526  0.110064  0.788375  1
  Au  Au13  1  0.256474  0.389936  0.288375  1
  Au  Au14  1  0.743526  0.889936  0.211625  1
  Au  Au15  1  0.756474  0.610064  0.711625  1
  Au  Au16  1  0.244099  0.699468  0.789585  1
  Au  Au17  1  0.255901  0.800532  0.289585  1
  Au  Au18  1  0.744099  0.300532  0.210415  1
  Au  Au19  1  0.755901  0.199468  0.710415  1
  Au  Au20  1  0.256542  0.583409  0.994467  1
  Au  Au21  1  0.243458  0.916591  0.494467  1
  Au  Au22  1  0.756542  0.416591  0.005533  1
  Au  Au23  1  0.743458  0.083409  0.505533  1
