# generated using pymatgen
data_Sc10TcAg2
_symmetry_space_group_name_H-M   'P 1'
_cell_length_a   8.81526004
_cell_length_b   8.88810956
_cell_length_c   8.55798200
_cell_angle_alpha   89.99997796
_cell_angle_beta   90.00002623
_cell_angle_gamma   120.27760521
_symmetry_Int_Tables_number   1
_chemical_formula_structural   Sc10TcAg2
_chemical_formula_sum   'Sc20 Tc2 Ag4'
_cell_volume   579.06171343
_cell_formula_units_Z   2
loop_
 _symmetry_equiv_pos_site_id
 _symmetry_equiv_pos_as_xyz
  1  'x, y, z'
loop_
 _atom_site_type_symbol
 _atom_site_label
 _atom_site_symmetry_multiplicity
 _atom_site_fract_x
 _atom_site_fract_y
 _atom_site_fract_z
 _atom_site_occupancy
  Sc  Sc0  1  0.994986  0.997480  0.983164  1
  Sc  Sc1  1  0.423015  0.211501  0.064135  1
  Sc  Sc2  1  0.794445  0.204628  0.041148  1
  Sc  Sc3  1  0.794462  0.589838  0.041125  1
  Sc  Sc4  1  0.089725  0.544863  0.250000  1
  Sc  Sc5  1  0.455083  0.548876  0.250000  1
  Sc  Sc6  1  0.455079  0.906205  0.250000  1
  Sc  Sc7  1  0.423014  0.211502  0.435864  1
  Sc  Sc8  1  0.794445  0.204628  0.458852  1
  Sc  Sc9  1  0.794461  0.589837  0.458876  1
  Sc  Sc10  1  0.994986  0.997480  0.516838  1
  Sc  Sc11  1  0.205290  0.417029  0.567504  1
  Sc  Sc12  1  0.205269  0.788257  0.567508  1
  Sc  Sc13  1  0.582615  0.791295  0.573096  1
  Sc  Sc14  1  0.551903  0.093444  0.750000  1
  Sc  Sc15  1  0.551929  0.458477  0.750000  1
  Sc  Sc16  1  0.908263  0.454149  0.749999  1
  Sc  Sc17  1  0.205290  0.417029  0.932496  1
  Sc  Sc18  1  0.205270  0.788257  0.932493  1
  Sc  Sc19  1  0.582617  0.791297  0.926904  1
  Tc  Tc20  1  0.874156  0.118467  0.750002  1
  Tc  Tc21  1  0.874180  0.755714  0.750001  1
  Ag  Ag22  1  0.117589  0.234328  0.250001  1
  Ag  Ag23  1  0.117587  0.883257  0.250001  1
  Ag  Ag24  1  0.765002  0.882489  0.250000  1
  Ag  Ag25  1  0.239335  0.119673  0.750001  1
