# generated using pymatgen
data_Zr10AlCoBi6
_symmetry_space_group_name_H-M   'P 1'
_cell_length_a   5.93388800
_cell_length_b   8.85842777
_cell_length_c   8.85842700
_cell_angle_alpha   119.99999338
_cell_angle_beta   90.00000000
_cell_angle_gamma   90.00000000
_symmetry_Int_Tables_number   1
_chemical_formula_structural   Zr10AlCoBi6
_chemical_formula_sum   'Zr10 Al1 Co1 Bi6'
_cell_volume   403.25825330
_cell_formula_units_Z   1
loop_
 _symmetry_equiv_pos_site_id
 _symmetry_equiv_pos_as_xyz
  1  'x, y, z'
loop_
 _atom_site_type_symbol
 _atom_site_label
 _atom_site_symmetry_multiplicity
 _atom_site_fract_x
 _atom_site_fract_y
 _atom_site_fract_z
 _atom_site_occupancy
  Zr  Zr0  1  0.735173  0.744647  0.744647  1
  Zr  Zr1  1  0.264827  0.255353  0.255353  1
  Zr  Zr2  1  0.735173  0.000000  0.255353  1
  Zr  Zr3  1  0.264827  0.000000  0.744647  1
  Zr  Zr4  1  0.735173  0.255353  0.000000  1
  Zr  Zr5  1  0.264827  0.744647  0.000000  1
  Zr  Zr6  1  0.000000  0.666667  0.333333  1
  Zr  Zr7  1  0.000000  0.333333  0.666667  1
  Zr  Zr8  1  0.500000  0.333333  0.666667  1
  Zr  Zr9  1  0.500000  0.666667  0.333333  1
  Al  Al10  1  0.000000  0.000000  0.000000  1
  Co  Co11  1  0.500000  0.000000  0.000000  1
  Bi  Bi12  1  0.753418  0.388916  0.388916  1
  Bi  Bi13  1  0.246582  0.611084  0.611084  1
  Bi  Bi14  1  0.753418  0.000000  0.611084  1
  Bi  Bi15  1  0.246582  0.000000  0.388916  1
  Bi  Bi16  1  0.753418  0.611084  0.000000  1
  Bi  Bi17  1  0.246582  0.388916  0.000000  1
