# generated using pymatgen
data_Nd8YTmPb6
_symmetry_space_group_name_H-M   'P 1'
_cell_length_a   9.31698200
_cell_length_b   9.31698328
_cell_length_c   6.82110900
_cell_angle_alpha   90.00000000
_cell_angle_beta   90.00000000
_cell_angle_gamma   120.00000255
_symmetry_Int_Tables_number   1
_chemical_formula_structural   Nd8YTmPb6
_chemical_formula_sum   'Nd8 Y1 Tm1 Pb6'
_cell_volume   512.78602717
_cell_formula_units_Z   1
loop_
 _symmetry_equiv_pos_site_id
 _symmetry_equiv_pos_as_xyz
  1  'x, y, z'
loop_
 _atom_site_type_symbol
 _atom_site_label
 _atom_site_symmetry_multiplicity
 _atom_site_fract_x
 _atom_site_fract_y
 _atom_site_fract_z
 _atom_site_occupancy
  Nd  Nd0  1  0.666667  0.333333  0.500000  1
  Nd  Nd1  1  0.666667  0.333333  0.000000  1
  Nd  Nd2  1  0.239276  0.999903  0.249812  1
  Nd  Nd3  1  0.239276  0.239371  0.750188  1
  Nd  Nd4  1  0.000097  0.760724  0.750188  1
  Nd  Nd5  1  0.000097  0.239371  0.249812  1
  Nd  Nd6  1  0.760629  0.760724  0.249812  1
  Nd  Nd7  1  0.760629  0.999903  0.750188  1
  Y  Y8  1  0.333333  0.666667  0.500000  1
  Tm  Tm9  1  0.333333  0.666667  0.000000  1
  Pb  Pb10  1  0.599646  0.993532  0.249738  1
  Pb  Pb11  1  0.599646  0.606113  0.750262  1
  Pb  Pb12  1  0.006468  0.400354  0.750262  1
  Pb  Pb13  1  0.006468  0.606113  0.249738  1
  Pb  Pb14  1  0.393887  0.400354  0.249738  1
  Pb  Pb15  1  0.393887  0.993532  0.750262  1
