# generated using pymatgen
data_KRb3MgBr6
_symmetry_space_group_name_H-M   'P 1'
_cell_length_a   9.32296614
_cell_length_b   9.32296821
_cell_length_c   9.32296737
_cell_angle_alpha   90.64354098
_cell_angle_beta   90.64355128
_cell_angle_gamma   90.64353715
_symmetry_Int_Tables_number   1
_chemical_formula_structural   KRb3MgBr6
_chemical_formula_sum   'K2 Rb6 Mg2 Br12'
_cell_volume   810.17653961
_cell_formula_units_Z   2
loop_
 _symmetry_equiv_pos_site_id
 _symmetry_equiv_pos_as_xyz
  1  'x, y, z'
loop_
 _atom_site_type_symbol
 _atom_site_label
 _atom_site_symmetry_multiplicity
 _atom_site_fract_x
 _atom_site_fract_y
 _atom_site_fract_z
 _atom_site_occupancy
  K  K0  1  0.247959  0.247959  0.247959  1
  K  K1  1  0.747959  0.747959  0.747959  1
  Rb  Rb2  1  0.747229  0.371971  0.123644  1
  Rb  Rb3  1  0.623644  0.871971  0.247228  1
  Rb  Rb4  1  0.123645  0.747228  0.371972  1
  Rb  Rb5  1  0.871972  0.247228  0.623645  1
  Rb  Rb6  1  0.371972  0.123645  0.747228  1
  Rb  Rb7  1  0.247228  0.623644  0.871971  1
  Mg  Mg8  1  0.498115  0.498115  0.498115  1
  Mg  Mg9  1  0.998116  0.998115  0.998116  1
  Br  Br10  1  0.925050  0.716488  0.050533  1
  Br  Br11  1  0.278956  0.945087  0.071268  1
  Br  Br12  1  0.425051  0.550532  0.216488  1
  Br  Br13  1  0.945087  0.071268  0.278955  1
  Br  Br14  1  0.550532  0.216488  0.425051  1
  Br  Br15  1  0.778955  0.571268  0.445087  1
  Br  Br16  1  0.216488  0.425051  0.550532  1
  Br  Br17  1  0.445087  0.778955  0.571268  1
  Br  Br18  1  0.050533  0.925051  0.716487  1
  Br  Br19  1  0.571268  0.445087  0.778956  1
  Br  Br20  1  0.716488  0.050532  0.925051  1
  Br  Br21  1  0.071269  0.278955  0.945087  1
