# generated using pymatgen
data_Zr6Ga5(SiNi8)2
_symmetry_space_group_name_H-M   'P 1'
_cell_length_a   8.23769940
_cell_length_b   8.23769939
_cell_length_c   8.26773900
_cell_angle_alpha   59.87928583
_cell_angle_beta   59.87928585
_cell_angle_gamma   60.24141181
_symmetry_Int_Tables_number   1
_chemical_formula_structural   Zr6Ga5(SiNi8)2
_chemical_formula_sum   'Zr6 Ga5 Si2 Ni16'
_cell_volume   396.70894386
_cell_formula_units_Z   1
loop_
 _symmetry_equiv_pos_site_id
 _symmetry_equiv_pos_as_xyz
  1  'x, y, z'
loop_
 _atom_site_type_symbol
 _atom_site_label
 _atom_site_symmetry_multiplicity
 _atom_site_fract_x
 _atom_site_fract_y
 _atom_site_fract_z
 _atom_site_occupancy
  Zr  Zr0  1  0.793560  0.206440  0.793560  1
  Zr  Zr1  1  0.792681  0.792681  0.207319  1
  Zr  Zr2  1  0.206440  0.793560  0.793560  1
  Zr  Zr3  1  0.207319  0.207319  0.792681  1
  Zr  Zr4  1  0.793560  0.206440  0.206440  1
  Zr  Zr5  1  0.206440  0.793560  0.206440  1
  Ga  Ga6  1  0.000000  0.500000  0.000000  1
  Ga  Ga7  1  0.500000  0.500000  0.500000  1
  Ga  Ga8  1  0.500000  0.000000  0.500000  1
  Ga  Ga9  1  0.000000  0.500000  0.500000  1
  Ga  Ga10  1  0.500000  0.000000  0.000000  1
  Si  Si11  1  0.500000  0.500000  0.000000  1
  Si  Si12  1  0.000000  0.000000  0.500000  1
  Ni  Ni13  1  0.165830  0.165830  0.175383  1
  Ni  Ni14  1  0.618333  0.618333  0.139402  1
  Ni  Ni15  1  0.381667  0.381667  0.376071  1
  Ni  Ni16  1  0.175383  0.492956  0.165830  1
  Ni  Ni17  1  0.165830  0.165830  0.492956  1
  Ni  Ni18  1  0.139402  0.623929  0.618333  1
  Ni  Ni19  1  0.623929  0.139402  0.618333  1
  Ni  Ni20  1  0.834170  0.834170  0.824617  1
  Ni  Ni21  1  0.860598  0.376071  0.381667  1
  Ni  Ni22  1  0.381667  0.381667  0.860598  1
  Ni  Ni23  1  0.376071  0.860598  0.381667  1
  Ni  Ni24  1  0.507044  0.824617  0.834170  1
  Ni  Ni25  1  0.618333  0.618333  0.623929  1
  Ni  Ni26  1  0.834170  0.834170  0.507044  1
  Ni  Ni27  1  0.492956  0.175383  0.165830  1
  Ni  Ni28  1  0.824617  0.507044  0.834170  1
