# generated using pymatgen
data_IBr37
_symmetry_space_group_name_H-M   'P 1'
_cell_length_a   14.20848141
_cell_length_b   15.29732181
_cell_length_c   14.42416200
_cell_angle_alpha   103.00376457
_cell_angle_beta   48.80056783
_cell_angle_gamma   81.50743146
_symmetry_Int_Tables_number   1
_chemical_formula_structural   IBr37
_chemical_formula_sum   'I1 Br37'
_cell_volume   2102.91272627
_cell_formula_units_Z   1
loop_
 _symmetry_equiv_pos_site_id
 _symmetry_equiv_pos_as_xyz
  1  'x, y, z'
loop_
 _atom_site_type_symbol
 _atom_site_label
 _atom_site_symmetry_multiplicity
 _atom_site_fract_x
 _atom_site_fract_y
 _atom_site_fract_z
 _atom_site_occupancy
  I  I0  1  0.500000  0.000000  0.000000  1
  Br  Br1  1  0.813207  0.309039  0.132695  1
  Br  Br2  1  0.186793  0.690961  0.867305  1
  Br  Br3  1  0.755239  0.087022  0.348386  1
  Br  Br4  1  0.244761  0.912978  0.651614  1
  Br  Br5  1  0.122110  0.322308  0.142422  1
  Br  Br6  1  0.877890  0.677692  0.857578  1
  Br  Br7  1  0.870380  0.544623  0.248901  1
  Br  Br8  1  0.129620  0.455377  0.751099  1
  Br  Br9  1  0.692454  0.281992  0.515868  1
  Br  Br10  1  0.307546  0.718008  0.484132  1
  Br  Br11  1  0.945922  0.197110  0.647093  1
  Br  Br12  1  0.054078  0.802890  0.352907  1
  Br  Br13  1  0.006099  0.019296  0.238477  1
  Br  Br14  1  0.993901  0.980704  0.761523  1
  Br  Br15  1  0.899941  0.383554  0.686809  1
  Br  Br16  1  0.100059  0.616446  0.313191  1
  Br  Br17  1  0.598537  0.424745  0.230960  1
  Br  Br18  1  0.401463  0.575255  0.769040  1
  Br  Br19  1  0.162597  0.442275  0.274769  1
  Br  Br20  1  0.837403  0.557725  0.725231  1
  Br  Br21  1  0.000000  0.500000  0.000000  1
  Br  Br22  1  0.453198  0.980168  0.211223  1
  Br  Br23  1  0.546802  0.019832  0.788777  1
  Br  Br24  1  0.192054  0.094784  0.433240  1
  Br  Br25  1  0.807946  0.905216  0.566760  1
  Br  Br26  1  0.528763  0.120972  0.425443  1
  Br  Br27  1  0.471237  0.879028  0.574557  1
  Br  Br28  1  0.094492  0.200409  0.029418  1
  Br  Br29  1  0.905508  0.799591  0.970582  1
  Br  Br30  1  0.667720  0.704544  0.401190  1
  Br  Br31  1  0.332280  0.295456  0.598810  1
  Br  Br32  1  0.900057  0.142992  0.945072  1
  Br  Br33  1  0.099943  0.857008  0.054928  1
  Br  Br34  1  0.488012  0.180030  0.082812  1
  Br  Br35  1  0.511988  0.819970  0.917188  1
  Br  Br36  1  0.648996  0.436606  0.649432  1
  Br  Br37  1  0.351004  0.563394  0.350568  1
