# generated using pymatgen
data_Pa4Al24CoPt8
_symmetry_space_group_name_H-M   'P 1'
_cell_length_a   7.55388549
_cell_length_b   7.55044706
_cell_length_c   13.07795921
_cell_angle_alpha   84.49234664
_cell_angle_beta   101.07687753
_cell_angle_gamma   119.78785313
_symmetry_Int_Tables_number   1
_chemical_formula_structural   Pa4Al24CoPt8
_chemical_formula_sum   'Pa4 Al24 Co1 Pt8'
_cell_volume   635.28840899
_cell_formula_units_Z   1
loop_
 _symmetry_equiv_pos_site_id
 _symmetry_equiv_pos_as_xyz
  1  'x, y, z'
loop_
 _atom_site_type_symbol
 _atom_site_label
 _atom_site_symmetry_multiplicity
 _atom_site_fract_x
 _atom_site_fract_y
 _atom_site_fract_z
 _atom_site_occupancy
  Pa  Pa0  1  0.735105  0.999403  0.193610  1
  Pa  Pa1  1  0.266979  0.002242  0.806331  1
  Pa  Pa2  1  0.061940  0.668223  0.193771  1
  Pa  Pa3  1  0.936409  0.329711  0.806358  1
  Al  Al4  1  0.804395  0.864987  0.817832  1
  Al  Al5  1  0.195640  0.135070  0.182186  1
  Al  Al6  1  0.994978  0.665922  0.948390  1
  Al  Al7  1  0.024570  0.342711  0.050471  1
  Al  Al8  1  0.394026  0.662858  0.824750  1
  Al  Al9  1  0.598526  0.336592  0.180946  1
  Al  Al10  1  0.879621  0.665068  0.669680  1
  Al  Al11  1  0.121523  0.335161  0.330174  1
  Al  Al12  1  0.603500  0.461106  0.818922  1
  Al  Al13  1  0.395260  0.548197  0.175362  1
  Al  Al14  1  0.233686  0.344833  0.668254  1
  Al  Al15  1  0.765858  0.655828  0.331840  1
  Al  Al16  1  0.851541  0.333026  0.558013  1
  Al  Al17  1  0.186497  0.000239  0.557809  1
  Al  Al18  1  0.813767  0.999881  0.442165  1
  Al  Al19  1  0.351059  0.987724  0.051743  1
  Al  Al20  1  0.640706  0.992430  0.949227  1
  Al  Al21  1  0.555070  0.989065  0.670161  1
  Al  Al22  1  0.444795  0.009685  0.330122  1
  Al  Al23  1  0.520974  0.666587  0.560115  1
  Al  Al24  1  0.479215  0.333188  0.439422  1
  Al  Al25  1  0.675294  0.668098  0.042746  1
  Al  Al26  1  0.317403  0.338766  0.957113  1
  Al  Al27  1  0.148523  0.666638  0.442518  1
  Co  Co28  1  0.330432  0.669873  0.999979  1
  Pt  Pt29  1  0.546451  0.324598  0.638961  1
  Pt  Pt30  1  0.453162  0.674958  0.360092  1
  Pt  Pt31  1  0.888983  0.008786  0.640085  1
  Pt  Pt32  1  0.111130  0.991006  0.359906  1
  Pt  Pt33  1  0.671452  0.328196  0.000011  1
  Pt  Pt34  1  0.204975  0.667135  0.640540  1
  Pt  Pt35  1  0.795951  0.332995  0.360334  1
  Pt  Pt36  1  0.000604  0.999208  0.000058  1
