# generated using pymatgen
data_Tm4Al17GeIrRh5
_symmetry_space_group_name_H-M   'P 1'
_cell_length_a   7.52461877
_cell_length_b   7.52461832
_cell_length_c   9.41706435
_cell_angle_alpha   90.03090938
_cell_angle_beta   90.03091311
_cell_angle_gamma   119.49513489
_symmetry_Int_Tables_number   1
_chemical_formula_structural   Tm4Al17GeIrRh5
_chemical_formula_sum   'Tm4 Al17 Ge1 Ir1 Rh5'
_cell_volume   464.08967240
_cell_formula_units_Z   1
loop_
 _symmetry_equiv_pos_site_id
 _symmetry_equiv_pos_as_xyz
  1  'x, y, z'
loop_
 _atom_site_type_symbol
 _atom_site_label
 _atom_site_symmetry_multiplicity
 _atom_site_fract_x
 _atom_site_fract_y
 _atom_site_fract_z
 _atom_site_occupancy
  Tm  Tm0  1  0.994573  0.677515  0.250412  1
  Tm  Tm1  1  0.003153  0.328109  0.749654  1
  Tm  Tm2  1  0.677515  0.994573  0.250412  1
  Tm  Tm3  1  0.328109  0.003153  0.749654  1
  Al  Al4  1  0.872146  0.872146  0.750630  1
  Al  Al5  1  0.999845  0.338265  0.074691  1
  Al  Al6  1  0.998681  0.664464  0.924182  1
  Al  Al7  1  0.998873  0.664393  0.575633  1
  Al  Al8  1  0.338376  0.999787  0.425507  1
  Al  Al9  1  0.999787  0.338376  0.425507  1
  Al  Al10  1  0.664393  0.998873  0.575633  1
  Al  Al11  1  0.664464  0.998681  0.924182  1
  Al  Al12  1  0.338265  0.999845  0.074691  1
  Al  Al13  1  0.332279  0.332279  0.559728  1
  Al  Al14  1  0.663586  0.663586  0.447889  1
  Al  Al15  1  0.663813  0.663813  0.052265  1
  Al  Al16  1  0.331952  0.331952  0.940038  1
  Al  Al17  1  0.337418  0.555454  0.250126  1
  Al  Al18  1  0.661279  0.449529  0.749931  1
  Al  Al19  1  0.555454  0.337418  0.250126  1
  Al  Al20  1  0.449529  0.661279  0.749931  1
  Ge  Ge21  1  0.135952  0.135952  0.249028  1
  Ir  Ir22  1  0.999285  0.999285  0.498825  1
  Rh  Rh23  1  0.669658  0.326096  0.000176  1
  Rh  Rh24  1  0.326096  0.669658  0.000176  1
  Rh  Rh25  1  0.326311  0.669756  0.499843  1
  Rh  Rh26  1  0.669756  0.326311  0.499843  1
  Rh  Rh27  1  0.999452  0.999452  0.001287  1
