# generated using pymatgen
data_InNi2(Sb6Os)2
_symmetry_space_group_name_H-M   'P 1'
_cell_length_a   8.11848032
_cell_length_b   8.07714976
_cell_length_c   8.07715051
_cell_angle_alpha   109.09473927
_cell_angle_beta   109.67243459
_cell_angle_gamma   109.43887680
_symmetry_Int_Tables_number   1
_chemical_formula_structural   InNi2(Sb6Os)2
_chemical_formula_sum   'In1 Ni2 Sb12 Os2'
_cell_volume   408.76016009
_cell_formula_units_Z   1
loop_
 _symmetry_equiv_pos_site_id
 _symmetry_equiv_pos_as_xyz
  1  'x, y, z'
loop_
 _atom_site_type_symbol
 _atom_site_label
 _atom_site_symmetry_multiplicity
 _atom_site_fract_x
 _atom_site_fract_y
 _atom_site_fract_z
 _atom_site_occupancy
  In  In0  1  0.000000  0.000000  0.000000  1
  Ni  Ni1  1  0.500000  0.500000  0.500000  1
  Ni  Ni2  1  0.500000  0.000000  0.000000  1
  Sb  Sb3  1  0.839699  0.659019  0.504677  1
  Sb  Sb4  1  0.160301  0.340981  0.495323  1
  Sb  Sb5  1  0.160301  0.664978  0.819320  1
  Sb  Sb6  1  0.839699  0.335022  0.180680  1
  Sb  Sb7  1  0.659917  0.505804  0.840340  1
  Sb  Sb8  1  0.340083  0.494196  0.159660  1
  Sb  Sb9  1  0.659917  0.819578  0.154113  1
  Sb  Sb10  1  0.340083  0.180422  0.845887  1
  Sb  Sb11  1  0.506567  0.842277  0.664290  1
  Sb  Sb12  1  0.493433  0.157723  0.335710  1
  Sb  Sb13  1  0.184030  0.844272  0.339759  1
  Sb  Sb14  1  0.815970  0.155728  0.660241  1
  Os  Os15  1  0.000000  0.500000  0.000000  1
  Os  Os16  1  0.000000  0.000000  0.500000  1
