# generated using pymatgen
data_La4FeCoB6Pb
_symmetry_space_group_name_H-M   'P 1'
_cell_length_a   5.43704392
_cell_length_b   5.43704713
_cell_length_c   8.61000419
_cell_angle_alpha   71.59450449
_cell_angle_beta   71.59450471
_cell_angle_gamma   59.99998398
_symmetry_Int_Tables_number   1
_chemical_formula_structural   La4FeCoB6Pb
_chemical_formula_sum   'La4 Fe1 Co1 B6 Pb1'
_cell_volume   205.25269152
_cell_formula_units_Z   1
loop_
 _symmetry_equiv_pos_site_id
 _symmetry_equiv_pos_as_xyz
  1  'x, y, z'
loop_
 _atom_site_type_symbol
 _atom_site_label
 _atom_site_symmetry_multiplicity
 _atom_site_fract_x
 _atom_site_fract_y
 _atom_site_fract_z
 _atom_site_occupancy
  La  La0  1  0.746790  0.746790  0.759632  1
  La  La1  1  0.253353  0.253353  0.239940  1
  La  La2  1  0.586627  0.586627  0.240119  1
  La  La3  1  0.413652  0.413652  0.759043  1
  Fe  Fe4  1  0.120859  0.120859  0.637421  1
  Co  Co5  1  0.880083  0.880083  0.359753  1
  B  B6  1  0.499132  0.168570  0.500716  1
  B  B7  1  0.831582  0.499132  0.500716  1
  B  B8  1  0.168570  0.831582  0.500716  1
  B  B9  1  0.168570  0.499132  0.500716  1
  B  B10  1  0.831582  0.168570  0.500716  1
  B  B11  1  0.499132  0.831582  0.500716  1
  Pb  Pb12  1  0.000066  0.000066  0.999801  1
