# generated using pymatgen
data_Zr10In6CuAs
_symmetry_space_group_name_H-M   'P 1'
_cell_length_a   8.77772800
_cell_length_b   8.77772849
_cell_length_c   5.88265900
_cell_angle_alpha   90.00000000
_cell_angle_beta   90.00000000
_cell_angle_gamma   119.99999816
_symmetry_Int_Tables_number   1
_chemical_formula_structural   Zr10In6CuAs
_chemical_formula_sum   'Zr10 In6 Cu1 As1'
_cell_volume   392.52613346
_cell_formula_units_Z   1
loop_
 _symmetry_equiv_pos_site_id
 _symmetry_equiv_pos_as_xyz
  1  'x, y, z'
loop_
 _atom_site_type_symbol
 _atom_site_label
 _atom_site_symmetry_multiplicity
 _atom_site_fract_x
 _atom_site_fract_y
 _atom_site_fract_z
 _atom_site_occupancy
  Zr  Zr0  1  0.741782  0.741782  0.250018  1
  Zr  Zr1  1  0.258218  0.000000  0.250018  1
  Zr  Zr2  1  0.000000  0.258218  0.250018  1
  Zr  Zr3  1  0.258218  0.258218  0.749982  1
  Zr  Zr4  1  0.741782  0.000000  0.749982  1
  Zr  Zr5  1  0.000000  0.741782  0.749982  1
  Zr  Zr6  1  0.666667  0.333333  0.500000  1
  Zr  Zr7  1  0.333333  0.666667  0.500000  1
  Zr  Zr8  1  0.333333  0.666667  0.000000  1
  Zr  Zr9  1  0.666667  0.333333  0.000000  1
  In  In10  1  0.388143  0.388143  0.247547  1
  In  In11  1  0.611857  0.000000  0.247547  1
  In  In12  1  0.000000  0.611857  0.247547  1
  In  In13  1  0.611857  0.611857  0.752453  1
  In  In14  1  0.388143  0.000000  0.752453  1
  In  In15  1  0.000000  0.388143  0.752453  1
  Cu  Cu16  1  0.000000  0.000000  0.000000  1
  As  As17  1  0.000000  0.000000  0.500000  1
