# generated using pymatgen
data_Pr3Nd3Co2(P3Rh4)4
_symmetry_space_group_name_H-M   'P 1'
_cell_length_a   3.92943800
_cell_length_b   11.30718901
_cell_length_c   12.92969801
_cell_angle_alpha   90.00346120
_cell_angle_beta   90.00000000
_cell_angle_gamma   90.00000000
_symmetry_Int_Tables_number   1
_chemical_formula_structural   Pr3Nd3Co2(P3Rh4)4
_chemical_formula_sum   'Pr3 Nd3 Co2 P12 Rh16'
_cell_volume   574.47809416
_cell_formula_units_Z   1
loop_
 _symmetry_equiv_pos_site_id
 _symmetry_equiv_pos_as_xyz
  1  'x, y, z'
loop_
 _atom_site_type_symbol
 _atom_site_label
 _atom_site_symmetry_multiplicity
 _atom_site_fract_x
 _atom_site_fract_y
 _atom_site_fract_z
 _atom_site_occupancy
  Pr  Pr0  1  0.000000  0.500121  0.520703  1
  Pr  Pr1  1  0.500000  0.000012  0.478994  1
  Pr  Pr2  1  0.000000  0.316032  0.798589  1
  Nd  Nd3  1  0.500000  0.815688  0.201607  1
  Nd  Nd4  1  0.500000  0.184133  0.201490  1
  Nd  Nd5  1  0.000000  0.684083  0.798681  1
  Co  Co6  1  0.000000  0.500286  0.983882  1
  Co  Co7  1  0.500000  0.999740  0.016719  1
  P  P8  1  0.500000  0.500417  0.885603  1
  P  P9  1  0.000000  0.999840  0.114895  1
  P  P10  1  0.500000  0.499941  0.346088  1
  P  P11  1  0.000000  0.000047  0.654024  1
  P  P12  1  0.500000  0.312758  0.617789  1
  P  P13  1  0.500000  0.687515  0.618567  1
  P  P14  1  0.000000  0.187266  0.381138  1
  P  P15  1  0.000000  0.812667  0.381419  1
  P  P16  1  0.500000  0.853819  0.896811  1
  P  P17  1  0.500000  0.145283  0.896934  1
  P  P18  1  0.000000  0.646175  0.103380  1
  P  P19  1  0.000000  0.353798  0.103244  1
  Rh  Rh20  1  0.500000  0.500340  0.166598  1
  Rh  Rh21  1  0.000000  0.000107  0.833576  1
  Rh  Rh22  1  0.500000  0.500538  0.704702  1
  Rh  Rh23  1  0.000000  0.999895  0.295082  1
  Rh  Rh24  1  0.500000  0.337190  0.996884  1
  Rh  Rh25  1  0.500000  0.663210  0.996452  1
  Rh  Rh26  1  0.000000  0.162775  0.004078  1
  Rh  Rh27  1  0.000000  0.836993  0.003798  1
  Rh  Rh28  1  0.500000  0.292762  0.429279  1
  Rh  Rh29  1  0.500000  0.707426  0.429558  1
  Rh  Rh30  1  0.000000  0.207374  0.569756  1
  Rh  Rh31  1  0.000000  0.792583  0.570239  1
  Rh  Rh32  1  0.500000  0.875184  0.712536  1
  Rh  Rh33  1  0.500000  0.123994  0.711767  1
  Rh  Rh34  1  0.000000  0.624822  0.287695  1
  Rh  Rh35  1  0.000000  0.375187  0.287443  1
