# generated using pymatgen
data_YHo7(Si4W3)4
_symmetry_space_group_name_H-M   'P 1'
_cell_length_a   6.75770023
_cell_length_b   6.93227128
_cell_length_c   12.88688845
_cell_angle_alpha   89.99971804
_cell_angle_beta   89.99128704
_cell_angle_gamma   90.00794958
_symmetry_Int_Tables_number   1
_chemical_formula_structural   YHo7(Si4W3)4
_chemical_formula_sum   'Y1 Ho7 Si16 W12'
_cell_volume   603.70188546
_cell_formula_units_Z   1
loop_
 _symmetry_equiv_pos_site_id
 _symmetry_equiv_pos_as_xyz
  1  'x, y, z'
loop_
 _atom_site_type_symbol
 _atom_site_label
 _atom_site_symmetry_multiplicity
 _atom_site_fract_x
 _atom_site_fract_y
 _atom_site_fract_z
 _atom_site_occupancy
  Y  Y0  1  0.996765  0.167622  0.093121  1
  Ho  Ho1  1  0.496347  0.332188  0.093452  1
  Ho  Ho2  1  0.996300  0.167870  0.406576  1
  Ho  Ho3  1  0.503750  0.667850  0.593457  1
  Ho  Ho4  1  0.003689  0.832082  0.906385  1
  Ho  Ho5  1  0.503813  0.667679  0.906417  1
  Ho  Ho6  1  0.003697  0.832116  0.593434  1
  Ho  Ho7  1  0.496372  0.332247  0.406790  1
  Si  Si8  1  0.661429  0.041618  0.546901  1
  Si  Si9  1  0.161655  0.458848  0.952892  1
  Si  Si10  1  0.339562  0.957824  0.046696  1
  Si  Si11  1  0.838491  0.541613  0.453289  1
  Si  Si12  1  0.338553  0.958466  0.453225  1
  Si  Si13  1  0.838162  0.542336  0.046625  1
  Si  Si14  1  0.661056  0.041510  0.952850  1
  Si  Si15  1  0.161504  0.458296  0.546846  1
  Si  Si16  1  0.535175  0.370881  0.749939  1
  Si  Si17  1  0.035233  0.129000  0.749994  1
  Si  Si18  1  0.464681  0.629051  0.250072  1
  Si  Si19  1  0.964536  0.870502  0.250273  1
  Si  Si20  1  0.801872  0.633358  0.749926  1
  Si  Si21  1  0.301905  0.866504  0.749973  1
  Si  Si22  1  0.198484  0.367172  0.250328  1
  Si  Si23  1  0.697631  0.133359  0.250249  1
  W  W24  1  0.831279  0.336201  0.625439  1
  W  W25  1  0.331232  0.163808  0.874478  1
  W  W26  1  0.168652  0.663890  0.125442  1
  W  W27  1  0.668683  0.836001  0.374703  1
  W  W28  1  0.168765  0.663881  0.374815  1
  W  W29  1  0.668502  0.836003  0.125557  1
  W  W30  1  0.831098  0.336377  0.874319  1
  W  W31  1  0.331178  0.163820  0.625482  1
  W  W32  1  0.665348  0.999805  0.749885  1
  W  W33  1  0.165173  0.500117  0.749917  1
  W  W34  1  0.334656  0.999887  0.250154  1
  W  W35  1  0.834772  0.500221  0.250103  1
