# generated using pymatgen
data_Dy2Er6Ga12CoNi3
_symmetry_space_group_name_H-M   'P 1'
_cell_length_a   6.97807800
_cell_length_b   8.70405497
_cell_length_c   8.70405600
_cell_angle_alpha   119.99999631
_cell_angle_beta   90.00000000
_cell_angle_gamma   90.00000000
_symmetry_Int_Tables_number   1
_chemical_formula_structural   Dy2Er6Ga12CoNi3
_chemical_formula_sum   'Dy2 Er6 Ga12 Co1 Ni3'
_cell_volume   457.83582132
_cell_formula_units_Z   1
loop_
 _symmetry_equiv_pos_site_id
 _symmetry_equiv_pos_as_xyz
  1  'x, y, z'
loop_
 _atom_site_type_symbol
 _atom_site_label
 _atom_site_symmetry_multiplicity
 _atom_site_fract_x
 _atom_site_fract_y
 _atom_site_fract_z
 _atom_site_occupancy
  Dy  Dy0  1  0.748308  0.000000  0.000000  1
  Dy  Dy1  1  0.249760  0.000000  0.000000  1
  Er  Er2  1  0.750211  0.478580  0.521420  1
  Er  Er3  1  0.252973  0.524768  0.475232  1
  Er  Er4  1  0.750211  0.042840  0.521420  1
  Er  Er5  1  0.252973  0.950464  0.475232  1
  Er  Er6  1  0.750211  0.478580  0.957160  1
  Er  Er7  1  0.252973  0.524768  0.049536  1
  Ga  Ga8  1  0.955213  0.828549  0.171451  1
  Ga  Ga9  1  0.046682  0.172271  0.827729  1
  Ga  Ga10  1  0.955213  0.342903  0.171451  1
  Ga  Ga11  1  0.455162  0.171994  0.828006  1
  Ga  Ga12  1  0.046682  0.655456  0.827729  1
  Ga  Ga13  1  0.545124  0.826855  0.173145  1
  Ga  Ga14  1  0.955213  0.828549  0.657097  1
  Ga  Ga15  1  0.455162  0.656010  0.828006  1
  Ga  Ga16  1  0.046682  0.172271  0.344544  1
  Ga  Ga17  1  0.545124  0.346291  0.173145  1
  Ga  Ga18  1  0.455162  0.171994  0.343990  1
  Ga  Ga19  1  0.545124  0.826855  0.653709  1
  Co  Co20  1  0.516002  0.666667  0.333333  1
  Ni  Ni21  1  0.968173  0.666667  0.333333  1
  Ni  Ni22  1  0.024302  0.333333  0.666667  1
  Ni  Ni23  1  0.477360  0.333333  0.666667  1
