# generated using pymatgen
data_MnPbCl6
_symmetry_space_group_name_H-M   'P 1'
_cell_length_a   6.86818868
_cell_length_b   6.86832602
_cell_length_c   6.38719961
_cell_angle_alpha   89.97133899
_cell_angle_beta   89.97382831
_cell_angle_gamma   119.99539062
_symmetry_Int_Tables_number   1
_chemical_formula_structural   MnPbCl6
_chemical_formula_sum   'Mn1 Pb1 Cl6'
_cell_volume   260.94814281
_cell_formula_units_Z   1
loop_
 _symmetry_equiv_pos_site_id
 _symmetry_equiv_pos_as_xyz
  1  'x, y, z'
loop_
 _atom_site_type_symbol
 _atom_site_label
 _atom_site_symmetry_multiplicity
 _atom_site_fract_x
 _atom_site_fract_y
 _atom_site_fract_z
 _atom_site_occupancy
  Mn  Mn0  1  0.333326  0.666706  0.000011  1
  Pb  Pb1  1  0.666696  0.333296  0.999995  1
  Cl  Cl2  1  0.605781  0.672546  0.211569  1
  Cl  Cl3  1  0.066680  0.394005  0.211724  1
  Cl  Cl4  1  0.327145  0.933053  0.211708  1
  Cl  Cl5  1  0.605996  0.933324  0.788279  1
  Cl  Cl6  1  0.066933  0.672848  0.788285  1
  Cl  Cl7  1  0.327445  0.394224  0.788425  1
