# generated using pymatgen
data_Ce7PtF30
_symmetry_space_group_name_H-M   'P 1'
_cell_length_a   8.73618427
_cell_length_b   8.73618478
_cell_length_c   8.73618538
_cell_angle_alpha   100.39049193
_cell_angle_beta   100.39049561
_cell_angle_gamma   100.39048964
_symmetry_Int_Tables_number   1
_chemical_formula_structural   Ce7PtF30
_chemical_formula_sum   'Ce7 Pt1 F30'
_cell_volume   629.25510629
_cell_formula_units_Z   1
loop_
 _symmetry_equiv_pos_site_id
 _symmetry_equiv_pos_as_xyz
  1  'x, y, z'
loop_
 _atom_site_type_symbol
 _atom_site_label
 _atom_site_symmetry_multiplicity
 _atom_site_fract_x
 _atom_site_fract_y
 _atom_site_fract_z
 _atom_site_occupancy
  Ce  Ce0  1  0.176456  0.750000  0.323544  1
  Ce  Ce1  1  0.250000  0.677524  0.822476  1
  Ce  Ce2  1  0.677524  0.822476  0.250000  1
  Ce  Ce3  1  0.750000  0.750000  0.750000  1
  Ce  Ce4  1  0.323544  0.176456  0.750000  1
  Ce  Ce5  1  0.750000  0.323544  0.176456  1
  Ce  Ce6  1  0.822476  0.250000  0.677524  1
  Pt  Pt7  1  0.250000  0.250000  0.250000  1
  F  F8  1  0.964487  0.535513  0.250000  1
  F  F9  1  0.808353  0.341855  0.443115  1
  F  F10  1  0.491586  0.723805  0.724371  1
  F  F11  1  0.341855  0.443115  0.808353  1
  F  F12  1  0.008414  0.775629  0.776195  1
  F  F13  1  0.750000  0.034995  0.465005  1
  F  F14  1  0.946899  0.842895  0.314402  1
  F  F15  1  0.222687  0.226175  0.015301  1
  F  F16  1  0.776195  0.008414  0.775629  1
  F  F17  1  0.314402  0.946899  0.842895  1
  F  F18  1  0.273825  0.277313  0.484699  1
  F  F19  1  0.443115  0.808353  0.341855  1
  F  F20  1  0.535513  0.250000  0.964487  1
  F  F21  1  0.277313  0.484699  0.273825  1
  F  F22  1  0.158145  0.691647  0.056885  1
  F  F23  1  0.842895  0.314402  0.946899  1
  F  F24  1  0.724371  0.491586  0.723805  1
  F  F25  1  0.465005  0.750000  0.034995  1
  F  F26  1  0.553101  0.185598  0.657105  1
  F  F27  1  0.723805  0.724371  0.491586  1
  F  F28  1  0.691647  0.056885  0.158145  1
  F  F29  1  0.226175  0.015301  0.222687  1
  F  F30  1  0.775629  0.776195  0.008414  1
  F  F31  1  0.056885  0.158145  0.691647  1
  F  F32  1  0.250000  0.964487  0.535513  1
  F  F33  1  0.015301  0.222687  0.226175  1
  F  F34  1  0.657105  0.553101  0.185598  1
  F  F35  1  0.484699  0.273825  0.277313  1
  F  F36  1  0.185598  0.657105  0.553101  1
  F  F37  1  0.034995  0.465005  0.750000  1
