# generated using pymatgen
data_Ho3Pa5Co12
_symmetry_space_group_name_H-M   'P 1'
_cell_length_a   5.33328700
_cell_length_b   7.49634668
_cell_length_c   8.34428435
_cell_angle_alpha   88.74347887
_cell_angle_beta   90.00000000
_cell_angle_gamma   90.00000000
_symmetry_Int_Tables_number   1
_chemical_formula_structural   Ho3Pa5Co12
_chemical_formula_sum   'Ho3 Pa5 Co12'
_cell_volume   333.52567282
_cell_formula_units_Z   1
loop_
 _symmetry_equiv_pos_site_id
 _symmetry_equiv_pos_as_xyz
  1  'x, y, z'
loop_
 _atom_site_type_symbol
 _atom_site_label
 _atom_site_symmetry_multiplicity
 _atom_site_fract_x
 _atom_site_fract_y
 _atom_site_fract_z
 _atom_site_occupancy
  Ho  Ho0  1  0.750000  0.442912  0.091122  1
  Ho  Ho1  1  0.250000  0.059650  0.600513  1
  Ho  Ho2  1  0.250000  0.565375  0.893389  1
  Pa  Pa3  1  0.750000  0.902509  0.863018  1
  Pa  Pa4  1  0.750000  0.386545  0.640881  1
  Pa  Pa5  1  0.250000  0.112372  0.141695  1
  Pa  Pa6  1  0.250000  0.598935  0.351959  1
  Pa  Pa7  1  0.750000  0.924991  0.399797  1
  Co  Co8  1  0.750000  0.583459  0.384125  1
  Co  Co9  1  0.750000  0.082924  0.141833  1
  Co  Co10  1  0.250000  0.417725  0.601915  1
  Co  Co11  1  0.250000  0.923907  0.898831  1
  Co  Co12  1  0.993911  0.264145  0.366555  1
  Co  Co13  1  0.501503  0.776422  0.140834  1
  Co  Co14  1  0.505341  0.731851  0.623266  1
  Co  Co15  1  0.998719  0.226930  0.864806  1
  Co  Co16  1  0.994659  0.731851  0.623266  1
  Co  Co17  1  0.501281  0.226930  0.864806  1
  Co  Co18  1  0.506089  0.264145  0.366555  1
  Co  Co19  1  0.998497  0.776422  0.140834  1
