# generated using pymatgen
data_DyYHo2(OsC2)2
_symmetry_space_group_name_H-M   'P 1'
_cell_length_a   5.12538200
_cell_length_b   6.45273105
_cell_length_c   9.78340908
_cell_angle_alpha   90.01484904
_cell_angle_beta   90.00000000
_cell_angle_gamma   90.00000000
_symmetry_Int_Tables_number   1
_chemical_formula_structural   DyYHo2(OsC2)2
_chemical_formula_sum   'Dy2 Y2 Ho4 Os4 C8'
_cell_volume   323.56385613
_cell_formula_units_Z   2
loop_
 _symmetry_equiv_pos_site_id
 _symmetry_equiv_pos_as_xyz
  1  'x, y, z'
loop_
 _atom_site_type_symbol
 _atom_site_label
 _atom_site_symmetry_multiplicity
 _atom_site_fract_x
 _atom_site_fract_y
 _atom_site_fract_z
 _atom_site_occupancy
  Dy  Dy0  1  0.250000  0.526285  0.218767  1
  Dy  Dy1  1  0.750000  0.473715  0.781233  1
  Y  Y2  1  0.750000  0.973543  0.718793  1
  Y  Y3  1  0.250000  0.026457  0.281207  1
  Ho  Ho4  1  0.250000  0.682653  0.552806  1
  Ho  Ho5  1  0.750000  0.317347  0.447194  1
  Ho  Ho6  1  0.750000  0.817087  0.052956  1
  Ho  Ho7  1  0.250000  0.182913  0.947044  1
  Os  Os8  1  0.250000  0.726346  0.865079  1
  Os  Os9  1  0.750000  0.273654  0.134921  1
  Os  Os10  1  0.750000  0.773449  0.365101  1
  Os  Os11  1  0.250000  0.226551  0.634899  1
  C  C12  1  0.250000  0.462318  0.758301  1
  C  C13  1  0.750000  0.537682  0.241699  1
  C  C14  1  0.750000  0.037663  0.258299  1
  C  C15  1  0.250000  0.962337  0.741701  1
  C  C16  1  0.250000  0.826410  0.052584  1
  C  C17  1  0.750000  0.173590  0.947416  1
  C  C18  1  0.750000  0.673268  0.552604  1
  C  C19  1  0.250000  0.326732  0.447396  1
