# generated using pymatgen
data_Y4Al18Co5Au
_symmetry_space_group_name_H-M   'P 1'
_cell_length_a   7.44868875
_cell_length_b   7.44868798
_cell_length_c   9.37365520
_cell_angle_alpha   89.78729160
_cell_angle_beta   89.78729575
_cell_angle_gamma   119.15909515
_symmetry_Int_Tables_number   1
_chemical_formula_structural   Y4Al18Co5Au
_chemical_formula_sum   'Y4 Al18 Co5 Au1'
_cell_volume   454.15649113
_cell_formula_units_Z   1
loop_
 _symmetry_equiv_pos_site_id
 _symmetry_equiv_pos_as_xyz
  1  'x, y, z'
loop_
 _atom_site_type_symbol
 _atom_site_label
 _atom_site_symmetry_multiplicity
 _atom_site_fract_x
 _atom_site_fract_y
 _atom_site_fract_z
 _atom_site_occupancy
  Y  Y0  1  0.995521  0.677568  0.251307  1
  Y  Y1  1  0.004479  0.322432  0.748693  1
  Y  Y2  1  0.677568  0.995521  0.251307  1
  Y  Y3  1  0.322432  0.004479  0.748693  1
  Al  Al4  1  0.137451  0.137451  0.263326  1
  Al  Al5  1  0.862549  0.862549  0.736674  1
  Al  Al6  1  0.332291  0.332291  0.542415  1
  Al  Al7  1  0.655012  0.655012  0.051878  1
  Al  Al8  1  0.344988  0.344988  0.948122  1
  Al  Al9  1  0.667709  0.667709  0.457585  1
  Al  Al10  1  0.340017  0.557835  0.252379  1
  Al  Al11  1  0.659983  0.442165  0.747621  1
  Al  Al12  1  0.557835  0.340017  0.252379  1
  Al  Al13  1  0.442165  0.659983  0.747621  1
  Al  Al14  1  0.001334  0.349712  0.076438  1
  Al  Al15  1  0.003348  0.663114  0.569669  1
  Al  Al16  1  0.336886  0.996652  0.430331  1
  Al  Al17  1  0.650288  0.998666  0.923562  1
  Al  Al18  1  0.998666  0.650288  0.923562  1
  Al  Al19  1  0.996652  0.336886  0.430331  1
  Al  Al20  1  0.663114  0.003348  0.569669  1
  Al  Al21  1  0.349712  0.001334  0.076438  1
  Co  Co22  1  0.000000  0.000000  0.500000  1
  Co  Co23  1  0.671017  0.328983  0.000000  1
  Co  Co24  1  0.329031  0.670969  0.500000  1
  Co  Co25  1  0.328983  0.671017  0.000000  1
  Co  Co26  1  0.670969  0.329031  0.500000  1
  Au  Au27  1  0.000000  0.000000  0.000000  1
