# generated using pymatgen
data_Sr2La5P12Pd17
_symmetry_space_group_name_H-M   'P 1'
_cell_length_a   12.52265245
_cell_length_b   12.52265237
_cell_length_c   13.77474017
_cell_angle_alpha   68.16528295
_cell_angle_beta   68.16528350
_cell_angle_gamma   18.91520363
_symmetry_Int_Tables_number   1
_chemical_formula_structural   Sr2La5P12Pd17
_chemical_formula_sum   'Sr2 La5 P12 Pd17'
_cell_volume   648.55560607
_cell_formula_units_Z   1
loop_
 _symmetry_equiv_pos_site_id
 _symmetry_equiv_pos_as_xyz
  1  'x, y, z'
loop_
 _atom_site_type_symbol
 _atom_site_label
 _atom_site_symmetry_multiplicity
 _atom_site_fract_x
 _atom_site_fract_y
 _atom_site_fract_z
 _atom_site_occupancy
  Sr  Sr0  1  0.500087  0.500087  0.500162  1
  Sr  Sr1  1  0.365969  0.365969  0.000021  1
  La  La2  1  0.634013  0.634013  0.000482  1
  La  La3  1  0.233647  0.233647  0.313925  1
  La  La4  1  0.766347  0.766347  0.686000  1
  La  La5  1  0.417736  0.417736  0.261953  1
  La  La6  1  0.581904  0.581904  0.738228  1
  P  P7  1  0.060218  0.060218  0.926731  1
  P  P8  1  0.939975  0.939975  0.073551  1
  P  P9  1  0.887565  0.887565  0.824866  1
  P  P10  1  0.112983  0.112983  0.173567  1
  P  P11  1  0.188603  0.188603  0.618034  1
  P  P12  1  0.811208  0.811208  0.382292  1
  P  P13  1  0.364680  0.364680  0.580545  1
  P  P14  1  0.635329  0.635329  0.418988  1
  P  P15  1  0.010599  0.010599  0.676264  1
  P  P16  1  0.989435  0.989435  0.323887  1
  P  P17  1  0.233266  0.233266  0.883536  1
  P  P18  1  0.766164  0.766164  0.118100  1
  Pd  Pd19  1  0.838478  0.838478  0.193417  1
  Pd  Pd20  1  0.161580  0.161580  0.806341  1
  Pd  Pd21  1  0.025281  0.025281  0.125970  1
  Pd  Pd22  1  0.974745  0.974745  0.874172  1
  Pd  Pd23  1  0.888903  0.888903  0.459182  1
  Pd  Pd24  1  0.111221  0.111221  0.540623  1
  Pd  Pd25  1  0.500519  0.500519  0.000497  1
  Pd  Pd26  1  0.548101  0.548101  0.253471  1
  Pd  Pd27  1  0.451804  0.451804  0.745232  1
  Pd  Pd28  1  0.297313  0.297313  0.487911  1
  Pd  Pd29  1  0.702600  0.702600  0.512514  1
  Pd  Pd30  1  0.665993  0.665993  0.221867  1
  Pd  Pd31  1  0.333873  0.333873  0.777837  1
  Pd  Pd32  1  0.905298  0.905298  0.644087  1
  Pd  Pd33  1  0.094614  0.094614  0.355511  1
  Pd  Pd34  1  0.218977  0.218977  0.070623  1
  Pd  Pd35  1  0.780970  0.780970  0.929611  1
