# generated using pymatgen
data_Sm3Zr7(Si5Ir2)4
_symmetry_space_group_name_H-M   'P 1'
_cell_length_a   12.47539100
_cell_length_b   12.47539095
_cell_length_c   4.14822200
_cell_angle_alpha   90.00000000
_cell_angle_beta   90.00000000
_cell_angle_gamma   90.06862420
_symmetry_Int_Tables_number   1
_chemical_formula_structural   Sm3Zr7(Si5Ir2)4
_chemical_formula_sum   'Sm3 Zr7 Si20 Ir8'
_cell_volume   645.60964404
_cell_formula_units_Z   1
loop_
 _symmetry_equiv_pos_site_id
 _symmetry_equiv_pos_as_xyz
  1  'x, y, z'
loop_
 _atom_site_type_symbol
 _atom_site_label
 _atom_site_symmetry_multiplicity
 _atom_site_fract_x
 _atom_site_fract_y
 _atom_site_fract_z
 _atom_site_occupancy
  Sm  Sm0  1  0.114768  0.614768  0.500000  1
  Sm  Sm1  1  0.384405  0.115995  0.500000  1
  Sm  Sm2  1  0.615995  0.884405  0.500000  1
  Zr  Zr3  1  0.499951  0.500454  0.000000  1
  Zr  Zr4  1  0.000454  0.999951  0.000000  1
  Zr  Zr5  1  0.678198  0.178198  0.500000  1
  Zr  Zr6  1  0.324441  0.824441  0.500000  1
  Zr  Zr7  1  0.173800  0.323922  0.500000  1
  Zr  Zr8  1  0.823922  0.673800  0.500000  1
  Zr  Zr9  1  0.883280  0.383280  0.500000  1
  Si  Si10  1  0.568490  0.068490  0.000000  1
  Si  Si11  1  0.432702  0.932702  0.000000  1
  Si  Si12  1  0.064960  0.432182  0.000000  1
  Si  Si13  1  0.932182  0.564960  0.000000  1
  Si  Si14  1  0.664348  0.698443  0.000000  1
  Si  Si15  1  0.335992  0.300372  0.000000  1
  Si  Si16  1  0.163830  0.799975  0.000000  1
  Si  Si17  1  0.837158  0.202182  0.000000  1
  Si  Si18  1  0.299975  0.663830  0.000000  1
  Si  Si19  1  0.702182  0.337158  0.000000  1
  Si  Si20  1  0.198443  0.164348  0.000000  1
  Si  Si21  1  0.800372  0.835992  0.000000  1
  Si  Si22  1  0.654059  0.504493  0.500000  1
  Si  Si23  1  0.347158  0.491969  0.500000  1
  Si  Si24  1  0.152513  0.993294  0.500000  1
  Si  Si25  1  0.848006  0.007084  0.500000  1
  Si  Si26  1  0.493294  0.652513  0.500000  1
  Si  Si27  1  0.507084  0.348006  0.500000  1
  Si  Si28  1  0.004493  0.154059  0.500000  1
  Si  Si29  1  0.991969  0.847158  0.500000  1
  Ir  Ir30  1  0.744780  0.520371  0.000000  1
  Ir  Ir31  1  0.256488  0.477361  0.000000  1
  Ir  Ir32  1  0.242056  0.978171  0.000000  1
  Ir  Ir33  1  0.758766  0.023583  0.000000  1
  Ir  Ir34  1  0.478171  0.742056  0.000000  1
  Ir  Ir35  1  0.523583  0.258766  0.000000  1
  Ir  Ir36  1  0.020371  0.244780  0.000000  1
  Ir  Ir37  1  0.977361  0.756488  0.000000  1
