# generated using pymatgen
data_SrPu3O10
_symmetry_space_group_name_H-M   'P 1'
_cell_length_a   10.92415922
_cell_length_b   9.23683012
_cell_length_c   8.09033400
_cell_angle_alpha   77.85840643
_cell_angle_beta   55.75383011
_cell_angle_gamma   46.38776269
_symmetry_Int_Tables_number   1
_chemical_formula_structural   SrPu3O10
_chemical_formula_sum   'Sr2 Pu6 O20'
_cell_volume   466.51691170
_cell_formula_units_Z   2
loop_
 _symmetry_equiv_pos_site_id
 _symmetry_equiv_pos_as_xyz
  1  'x, y, z'
loop_
 _atom_site_type_symbol
 _atom_site_label
 _atom_site_symmetry_multiplicity
 _atom_site_fract_x
 _atom_site_fract_y
 _atom_site_fract_z
 _atom_site_occupancy
  Sr  Sr0  1  0.990966  0.009034  0.009034  1
  Sr  Sr1  1  0.240966  0.259034  0.259034  1
  Pu  Pu2  1  0.505705  0.494295  0.494295  1
  Pu  Pu3  1  0.755705  0.744295  0.744295  1
  Pu  Pu4  1  0.259327  0.244258  0.740862  1
  Pu  Pu5  1  0.755553  0.740862  0.244258  1
  Pu  Pu6  1  0.509138  0.494447  0.990673  1
  Pu  Pu7  1  0.005742  0.990673  0.494447  1
  O  O8  1  0.156858  0.127110  0.840743  1
  O  O9  1  0.875288  0.840743  0.127110  1
  O  O10  1  0.409257  0.374712  0.093142  1
  O  O11  1  0.122890  0.093142  0.374712  1
  O  O12  1  0.813312  0.194309  0.791588  1
  O  O13  1  0.200791  0.791588  0.194309  1
  O  O14  1  0.458412  0.049209  0.436688  1
  O  O15  1  0.055691  0.436688  0.049209  1
  O  O16  1  0.845849  0.652525  0.462622  1
  O  O17  1  0.039005  0.462622  0.652525  1
  O  O18  1  0.787378  0.210995  0.404151  1
  O  O19  1  0.597475  0.404151  0.210995  1
  O  O20  1  0.636755  0.636059  0.361352  1
  O  O21  1  0.365832  0.361352  0.636059  1
  O  O22  1  0.888648  0.884168  0.613245  1
  O  O23  1  0.613941  0.613245  0.884168  1
  O  O24  1  0.477934  0.024466  0.827976  1
  O  O25  1  0.669623  0.827976  0.024466  1
  O  O26  1  0.422024  0.580377  0.772066  1
  O  O27  1  0.225534  0.772066  0.580377  1
