# generated using pymatgen
data_Zr8Co3Tc4Ru
_symmetry_space_group_name_H-M   'P 1'
_cell_length_a   6.49968400
_cell_length_b   4.62227800
_cell_length_c   9.24880500
_cell_angle_alpha   90.00000000
_cell_angle_beta   90.00022349
_cell_angle_gamma   90.00000000
_symmetry_Int_Tables_number   1
_chemical_formula_structural   Zr8Co3Tc4Ru
_chemical_formula_sum   'Zr8 Co3 Tc4 Ru1'
_cell_volume   277.86505203
_cell_formula_units_Z   1
loop_
 _symmetry_equiv_pos_site_id
 _symmetry_equiv_pos_as_xyz
  1  'x, y, z'
loop_
 _atom_site_type_symbol
 _atom_site_label
 _atom_site_symmetry_multiplicity
 _atom_site_fract_x
 _atom_site_fract_y
 _atom_site_fract_z
 _atom_site_occupancy
  Zr  Zr0  1  0.498817  0.750000  0.125002  1
  Zr  Zr1  1  0.001245  0.750000  0.125008  1
  Zr  Zr2  1  0.499454  0.250000  0.375746  1
  Zr  Zr3  1  0.000602  0.250000  0.375753  1
  Zr  Zr4  1  0.000053  0.750000  0.625011  1
  Zr  Zr5  1  0.499890  0.750000  0.625016  1
  Zr  Zr6  1  0.000557  0.250000  0.874233  1
  Zr  Zr7  1  0.499393  0.250000  0.874241  1
  Co  Co8  1  0.250071  0.750000  0.375318  1
  Co  Co9  1  0.749928  0.250000  0.625009  1
  Co  Co10  1  0.249927  0.750000  0.874672  1
  Tc  Tc11  1  0.250031  0.250000  0.124997  1
  Tc  Tc12  1  0.750027  0.750000  0.376436  1
  Tc  Tc13  1  0.249974  0.250000  0.624999  1
  Tc  Tc14  1  0.749975  0.750000  0.873570  1
  Ru  Ru15  1  0.750055  0.250000  0.124989  1
