# generated using pymatgen
data_Dy3Co7(P3Rh)2
_symmetry_space_group_name_H-M   'P 1'
_cell_length_a   3.72335000
_cell_length_b   10.66218600
_cell_length_c   12.38985700
_cell_angle_alpha   90.00000000
_cell_angle_beta   90.00000000
_cell_angle_gamma   90.00000000
_symmetry_Int_Tables_number   1
_chemical_formula_structural   Dy3Co7(P3Rh)2
_chemical_formula_sum   'Dy6 Co14 P12 Rh4'
_cell_volume   491.86555555
_cell_formula_units_Z   2
loop_
 _symmetry_equiv_pos_site_id
 _symmetry_equiv_pos_as_xyz
  1  'x, y, z'
loop_
 _atom_site_type_symbol
 _atom_site_label
 _atom_site_symmetry_multiplicity
 _atom_site_fract_x
 _atom_site_fract_y
 _atom_site_fract_z
 _atom_site_occupancy
  Dy  Dy0  1  0.000000  0.500000  0.519977  1
  Dy  Dy1  1  0.500000  0.000000  0.480023  1
  Dy  Dy2  1  0.500000  0.813821  0.205441  1
  Dy  Dy3  1  0.500000  0.186179  0.205441  1
  Dy  Dy4  1  0.000000  0.686179  0.794559  1
  Dy  Dy5  1  0.000000  0.313821  0.794559  1
  Co  Co6  1  0.000000  0.500000  0.987632  1
  Co  Co7  1  0.500000  0.000000  0.012368  1
  Co  Co8  1  0.500000  0.332284  0.993450  1
  Co  Co9  1  0.500000  0.667716  0.993450  1
  Co  Co10  1  0.000000  0.167716  0.006550  1
  Co  Co11  1  0.000000  0.832284  0.006550  1
  Co  Co12  1  0.500000  0.299075  0.430126  1
  Co  Co13  1  0.500000  0.700925  0.430126  1
  Co  Co14  1  0.000000  0.200925  0.569874  1
  Co  Co15  1  0.000000  0.799075  0.569874  1
  Co  Co16  1  0.500000  0.880265  0.709195  1
  Co  Co17  1  0.500000  0.119735  0.709195  1
  Co  Co18  1  0.000000  0.619735  0.290805  1
  Co  Co19  1  0.000000  0.380265  0.290805  1
  P  P20  1  0.500000  0.500000  0.889336  1
  P  P21  1  0.000000  0.000000  0.110664  1
  P  P22  1  0.500000  0.500000  0.349517  1
  P  P23  1  0.000000  0.000000  0.650483  1
  P  P24  1  0.500000  0.302614  0.613510  1
  P  P25  1  0.500000  0.697386  0.613510  1
  P  P26  1  0.000000  0.197386  0.386490  1
  P  P27  1  0.000000  0.802614  0.386490  1
  P  P28  1  0.500000  0.844982  0.894991  1
  P  P29  1  0.500000  0.155018  0.894991  1
  P  P30  1  0.000000  0.655018  0.105009  1
  P  P31  1  0.000000  0.344982  0.105009  1
  Rh  Rh32  1  0.500000  0.500000  0.159916  1
  Rh  Rh33  1  0.000000  0.000000  0.840084  1
  Rh  Rh34  1  0.500000  0.500000  0.703013  1
  Rh  Rh35  1  0.000000  0.000000  0.296987  1
