# generated using pymatgen
data_LiSmAgPt3
_symmetry_space_group_name_H-M   'P 1'
_cell_length_a   5.44823587
_cell_length_b   5.44823595
_cell_length_c   5.19868937
_cell_angle_alpha   58.39899199
_cell_angle_beta   58.39899196
_cell_angle_gamma   60.00000027
_symmetry_Int_Tables_number   1
_chemical_formula_structural   LiSmAgPt3
_chemical_formula_sum   'Li1 Sm1 Ag1 Pt3'
_cell_volume   106.40102282
_cell_formula_units_Z   1
loop_
 _symmetry_equiv_pos_site_id
 _symmetry_equiv_pos_as_xyz
  1  'x, y, z'
loop_
 _atom_site_type_symbol
 _atom_site_label
 _atom_site_symmetry_multiplicity
 _atom_site_fract_x
 _atom_site_fract_y
 _atom_site_fract_z
 _atom_site_occupancy
  Li  Li0  1  0.621534  0.621534  0.135398  1
  Sm  Sm1  1  0.005001  0.005001  0.984998  1
  Ag  Ag2  1  0.254211  0.254211  0.237367  1
  Pt  Pt3  1  0.622482  0.124289  0.630745  1
  Pt  Pt4  1  0.124289  0.622482  0.630745  1
  Pt  Pt5  1  0.622482  0.622482  0.630745  1
