# generated using pymatgen
data_Li3Tb8Sc8Si16Hg
_symmetry_space_group_name_H-M   'P 1'
_cell_length_a   6.91643240
_cell_length_b   7.44576978
_cell_length_c   14.07872100
_cell_angle_alpha   90.00000000
_cell_angle_beta   90.00000000
_cell_angle_gamma   89.92663631
_symmetry_Int_Tables_number   1
_chemical_formula_structural   Li3Tb8Sc8Si16Hg
_chemical_formula_sum   'Li3 Tb8 Sc8 Si16 Hg1'
_cell_volume   725.02767950
_cell_formula_units_Z   1
loop_
 _symmetry_equiv_pos_site_id
 _symmetry_equiv_pos_as_xyz
  1  'x, y, z'
loop_
 _atom_site_type_symbol
 _atom_site_label
 _atom_site_symmetry_multiplicity
 _atom_site_fract_x
 _atom_site_fract_y
 _atom_site_fract_z
 _atom_site_occupancy
  Li  Li0  1  0.840634  0.495960  0.250000  1
  Li  Li1  1  0.341482  0.005199  0.250000  1
  Li  Li2  1  0.657682  0.996434  0.750000  1
  Tb  Tb3  1  0.013361  0.179733  0.099929  1
  Tb  Tb4  1  0.987454  0.818367  0.901195  1
  Tb  Tb5  1  0.487193  0.678969  0.901451  1
  Tb  Tb6  1  0.987454  0.818367  0.598805  1
  Tb  Tb7  1  0.513699  0.318478  0.098900  1
  Tb  Tb8  1  0.013361  0.179733  0.400071  1
  Tb  Tb9  1  0.513699  0.318478  0.401100  1
  Tb  Tb10  1  0.487193  0.678969  0.598549  1
  Sc  Sc11  1  0.328585  0.181558  0.626133  1
  Sc  Sc12  1  0.668504  0.820589  0.373922  1
  Sc  Sc13  1  0.168712  0.682691  0.372974  1
  Sc  Sc14  1  0.668504  0.820589  0.126078  1
  Sc  Sc15  1  0.833236  0.320283  0.625207  1
  Sc  Sc16  1  0.328585  0.181558  0.873867  1
  Sc  Sc17  1  0.833236  0.320283  0.874793  1
  Sc  Sc18  1  0.168712  0.682691  0.127026  1
  Si  Si19  1  0.026317  0.094877  0.750000  1
  Si  Si20  1  0.966012  0.895585  0.250000  1
  Si  Si21  1  0.467916  0.605365  0.250000  1
  Si  Si22  1  0.542112  0.386867  0.750000  1
  Si  Si23  1  0.289622  0.891194  0.750000  1
  Si  Si24  1  0.714748  0.115735  0.250000  1
  Si  Si25  1  0.216715  0.385172  0.250000  1
  Si  Si26  1  0.773107  0.624696  0.750000  1
  Si  Si27  1  0.162083  0.460137  0.528653  1
  Si  Si28  1  0.841928  0.537015  0.464952  1
  Si  Si29  1  0.341589  0.962925  0.465570  1
  Si  Si30  1  0.841928  0.537015  0.035048  1
  Si  Si31  1  0.657453  0.035594  0.535935  1
  Si  Si32  1  0.162083  0.460137  0.971347  1
  Si  Si33  1  0.657453  0.035594  0.964065  1
  Si  Si34  1  0.341589  0.962925  0.034430  1
  Hg  Hg35  1  0.156054  0.510234  0.750000  1
