# generated using pymatgen
data_SrPd(S2O7)2
_symmetry_space_group_name_H-M   'P 1'
_cell_length_a   5.85334429
_cell_length_b   7.11476447
_cell_length_c   9.06020500
_cell_angle_alpha   107.01830978
_cell_angle_beta   93.67789257
_cell_angle_gamma   102.05463380
_symmetry_Int_Tables_number   1
_chemical_formula_structural   SrPd(S2O7)2
_chemical_formula_sum   'Sr1 Pd1 S4 O14'
_cell_volume   349.65550967
_cell_formula_units_Z   1
loop_
 _symmetry_equiv_pos_site_id
 _symmetry_equiv_pos_as_xyz
  1  'x, y, z'
loop_
 _atom_site_type_symbol
 _atom_site_label
 _atom_site_symmetry_multiplicity
 _atom_site_fract_x
 _atom_site_fract_y
 _atom_site_fract_z
 _atom_site_occupancy
  Sr  Sr0  1  0.500000  0.000000  0.000000  1
  Pd  Pd1  1  0.500000  0.500000  0.500000  1
  S  S2  1  0.925294  0.719735  0.752522  1
  S  S3  1  0.074706  0.280265  0.247478  1
  S  S4  1  0.661200  0.319752  0.743473  1
  S  S5  1  0.338800  0.680248  0.256527  1
  O  O6  1  0.842374  0.651904  0.582280  1
  O  O7  1  0.157626  0.348096  0.417720  1
  O  O8  1  0.470501  0.408459  0.692206  1
  O  O9  1  0.529499  0.591541  0.307794  1
  O  O10  1  0.176770  0.806149  0.781675  1
  O  O11  1  0.823230  0.193851  0.218325  1
  O  O12  1  0.785461  0.841849  0.846830  1
  O  O13  1  0.214539  0.158151  0.153170  1
  O  O14  1  0.612720  0.280883  0.888272  1
  O  O15  1  0.387280  0.719117  0.111728  1
  O  O16  1  0.901273  0.517779  0.805447  1
  O  O17  1  0.098727  0.482221  0.194553  1
  O  O18  1  0.732264  0.168811  0.625782  1
  O  O19  1  0.267736  0.831189  0.374218  1
