# generated using pymatgen
data_Pa7Te
_symmetry_space_group_name_H-M   'P 1'
_cell_length_a   6.52995669
_cell_length_b   6.52995754
_cell_length_c   6.52995600
_cell_angle_alpha   59.99999769
_cell_angle_beta   59.99999336
_cell_angle_gamma   59.99999990
_symmetry_Int_Tables_number   1
_chemical_formula_structural   Pa7Te
_chemical_formula_sum   'Pa7 Te1'
_cell_volume   196.88647599
_cell_formula_units_Z   1
loop_
 _symmetry_equiv_pos_site_id
 _symmetry_equiv_pos_as_xyz
  1  'x, y, z'
loop_
 _atom_site_type_symbol
 _atom_site_label
 _atom_site_symmetry_multiplicity
 _atom_site_fract_x
 _atom_site_fract_y
 _atom_site_fract_z
 _atom_site_occupancy
  Pa  Pa0  1  0.499999  0.000000  0.000000  1
  Pa  Pa1  1  0.000000  0.499999  0.000000  1
  Pa  Pa2  1  0.500001  0.500001  0.000000  1
  Pa  Pa3  1  0.000000  0.000000  0.499999  1
  Pa  Pa4  1  0.500001  0.000000  0.500001  1
  Pa  Pa5  1  0.000000  0.500001  0.500001  1
  Pa  Pa6  1  0.500001  0.500001  0.500001  1
  Te  Te7  1  0.000000  0.000000  0.000000  1
