# generated using pymatgen
data_Ho3Er3LuCo17P12
_symmetry_space_group_name_H-M   'P 1'
_cell_length_a   3.70571000
_cell_length_b   10.57184013
_cell_length_c   12.31074114
_cell_angle_alpha   90.01769303
_cell_angle_beta   90.00000000
_cell_angle_gamma   90.00000000
_symmetry_Int_Tables_number   1
_chemical_formula_structural   Ho3Er3LuCo17P12
_chemical_formula_sum   'Ho3 Er3 Lu1 Co17 P12'
_cell_volume   482.28771022
_cell_formula_units_Z   1
loop_
 _symmetry_equiv_pos_site_id
 _symmetry_equiv_pos_as_xyz
  1  'x, y, z'
loop_
 _atom_site_type_symbol
 _atom_site_label
 _atom_site_symmetry_multiplicity
 _atom_site_fract_x
 _atom_site_fract_y
 _atom_site_fract_z
 _atom_site_occupancy
  Ho  Ho0  1  0.750000  0.250054  0.468920  1
  Ho  Ho1  1  0.250000  0.749923  0.522264  1
  Ho  Ho2  1  0.250000  0.927449  0.792224  1
  Er  Er3  1  0.250000  0.572597  0.792285  1
  Er  Er4  1  0.750000  0.067058  0.204467  1
  Er  Er5  1  0.750000  0.433044  0.204642  1
  Lu  Lu6  1  0.250000  0.250022  0.845229  1
  Co  Co7  1  0.750000  0.749904  0.165386  1
  Co  Co8  1  0.250000  0.250051  0.296492  1
  Co  Co9  1  0.750000  0.749685  0.704833  1
  Co  Co10  1  0.750000  0.250266  0.017935  1
  Co  Co11  1  0.250000  0.749747  0.986809  1
  Co  Co12  1  0.250000  0.425172  0.013169  1
  Co  Co13  1  0.250000  0.074891  0.013347  1
  Co  Co14  1  0.750000  0.589996  0.000855  1
  Co  Co15  1  0.750000  0.909865  0.000893  1
  Co  Co16  1  0.250000  0.456906  0.563925  1
  Co  Co17  1  0.250000  0.043003  0.563582  1
  Co  Co18  1  0.750000  0.548876  0.429030  1
  Co  Co19  1  0.750000  0.951060  0.428797  1
  Co  Co20  1  0.250000  0.869604  0.292504  1
  Co  Co21  1  0.250000  0.630334  0.292720  1
  Co  Co22  1  0.750000  0.127067  0.697790  1
  Co  Co23  1  0.750000  0.373463  0.698569  1
  P  P24  1  0.250000  0.250152  0.118434  1
  P  P25  1  0.750000  0.749699  0.884167  1
  P  P26  1  0.250000  0.249946  0.635677  1
  P  P27  1  0.750000  0.750018  0.346448  1
  P  P28  1  0.250000  0.441265  0.380965  1
  P  P29  1  0.250000  0.058776  0.380764  1
  P  P30  1  0.750000  0.562404  0.613211  1
  P  P31  1  0.750000  0.937512  0.612787  1
  P  P32  1  0.250000  0.896906  0.113004  1
  P  P33  1  0.250000  0.603001  0.113127  1
  P  P34  1  0.750000  0.082281  0.902711  1
  P  P35  1  0.750000  0.418002  0.902037  1
