# generated using pymatgen
data_La10Al(ZnOs2)3
_symmetry_space_group_name_H-M   'P 1'
_cell_length_a   8.61008344
_cell_length_b   8.67987650
_cell_length_c   8.61008354
_cell_angle_alpha   109.63550817
_cell_angle_beta   109.30643645
_cell_angle_gamma   109.63550613
_symmetry_Int_Tables_number   1
_chemical_formula_structural   La10Al(ZnOs2)3
_chemical_formula_sum   'La10 Al1 Zn3 Os6'
_cell_volume   494.33552060
_cell_formula_units_Z   1
loop_
 _symmetry_equiv_pos_site_id
 _symmetry_equiv_pos_as_xyz
  1  'x, y, z'
loop_
 _atom_site_type_symbol
 _atom_site_label
 _atom_site_symmetry_multiplicity
 _atom_site_fract_x
 _atom_site_fract_y
 _atom_site_fract_z
 _atom_site_occupancy
  La  La0  1  0.250802  0.687534  0.440081  1
  La  La1  1  0.748539  0.810959  0.059600  1
  La  La2  1  0.440401  0.251358  0.688939  1
  La  La3  1  0.689278  0.436733  0.249198  1
  La  La4  1  0.059920  0.747454  0.810722  1
  La  La5  1  0.811061  0.062420  0.751461  1
  La  La6  1  0.216031  0.217228  0.216493  1
  La  La7  1  0.500463  0.001196  0.283969  1
  La  La8  1  0.283507  0.500736  0.999538  1
  La  La9  1  0.000000  0.284822  0.500001  1
  Al  Al10  1  0.000000  0.913725  0.500001  1
  Zn  Zn11  1  0.498114  0.999227  0.914382  1
  Zn  Zn12  1  0.585618  0.584844  0.583731  1
  Zn  Zn13  1  0.916269  0.501113  0.001887  1
  Os  Os14  1  0.242913  0.119179  0.864783  1
  Os  Os15  1  0.748191  0.374189  0.623568  1
  Os  Os16  1  0.876431  0.250623  0.124622  1
  Os  Os17  1  0.121871  0.876267  0.257089  1
  Os  Os18  1  0.635216  0.754396  0.378128  1
  Os  Os19  1  0.375377  0.625999  0.751809  1
