# generated using pymatgen
data_ScTiCo5GeB2
_symmetry_space_group_name_H-M   'P 1'
_cell_length_a   8.51827300
_cell_length_b   8.53030900
_cell_length_c   3.02363700
_cell_angle_alpha   90.00000000
_cell_angle_beta   90.00000000
_cell_angle_gamma   90.00000000
_symmetry_Int_Tables_number   1
_chemical_formula_structural   ScTiCo5GeB2
_chemical_formula_sum   'Sc2 Ti2 Co10 Ge2 B4'
_cell_volume   219.70804968
_cell_formula_units_Z   2
loop_
 _symmetry_equiv_pos_site_id
 _symmetry_equiv_pos_as_xyz
  1  'x, y, z'
loop_
 _atom_site_type_symbol
 _atom_site_label
 _atom_site_symmetry_multiplicity
 _atom_site_fract_x
 _atom_site_fract_y
 _atom_site_fract_z
 _atom_site_occupancy
  Sc  Sc0  1  0.823261  0.325393  0.000000  1
  Sc  Sc1  1  0.323261  0.174607  0.000000  1
  Ti  Ti2  1  0.675005  0.824223  0.000000  1
  Ti  Ti3  1  0.175005  0.675777  0.000000  1
  Co  Co4  1  0.502372  0.991146  0.500000  1
  Co  Co5  1  0.002372  0.508854  0.500000  1
  Co  Co6  1  0.069278  0.225157  0.500000  1
  Co  Co7  1  0.219048  0.919972  0.500000  1
  Co  Co8  1  0.778327  0.060585  0.500000  1
  Co  Co9  1  0.930028  0.784008  0.500000  1
  Co  Co10  1  0.430028  0.715992  0.500000  1
  Co  Co11  1  0.569278  0.274843  0.500000  1
  Co  Co12  1  0.719048  0.580028  0.500000  1
  Co  Co13  1  0.278327  0.439415  0.500000  1
  Ge  Ge14  1  0.001817  0.002736  0.000000  1
  Ge  Ge15  1  0.501817  0.497264  0.000000  1
  B  B16  1  0.620902  0.114260  0.000000  1
  B  B17  1  0.120902  0.385740  0.000000  1
  B  B18  1  0.879962  0.627022  0.000000  1
  B  B19  1  0.379962  0.872978  0.000000  1
