# generated using pymatgen
data_Ba8Sc3Tl(FeO5)4
_symmetry_space_group_name_H-M   'P 1'
_cell_length_a   6.01768804
_cell_length_b   6.16446714
_cell_length_c   15.95104398
_cell_angle_alpha   90.47964074
_cell_angle_beta   90.15127712
_cell_angle_gamma   90.14353591
_symmetry_Int_Tables_number   1
_chemical_formula_structural   Ba8Sc3Tl(FeO5)4
_chemical_formula_sum   'Ba8 Sc3 Tl1 Fe4 O20'
_cell_volume   591.69269261
_cell_formula_units_Z   1
loop_
 _symmetry_equiv_pos_site_id
 _symmetry_equiv_pos_as_xyz
  1  'x, y, z'
loop_
 _atom_site_type_symbol
 _atom_site_label
 _atom_site_symmetry_multiplicity
 _atom_site_fract_x
 _atom_site_fract_y
 _atom_site_fract_z
 _atom_site_occupancy
  Ba  Ba0  1  0.005712  0.509942  0.119252  1
  Ba  Ba1  1  0.000769  0.504435  0.385351  1
  Ba  Ba2  1  0.503060  0.998366  0.118931  1
  Ba  Ba3  1  0.500327  0.989826  0.384884  1
  Ba  Ba4  1  0.499673  0.010174  0.615116  1
  Ba  Ba5  1  0.496940  0.001634  0.881069  1
  Ba  Ba6  1  0.999231  0.495565  0.614649  1
  Ba  Ba7  1  0.994288  0.490058  0.880748  1
  Sc  Sc8  1  0.500000  0.500000  0.500000  1
  Sc  Sc9  1  0.000000  0.000000  0.500000  1
  Sc  Sc10  1  0.000000  0.000000  0.000000  1
  Tl  Tl11  1  0.500000  0.500000  0.000000  1
  Fe  Fe12  1  0.490058  0.563773  0.744115  1
  Fe  Fe13  1  0.990336  0.938892  0.749506  1
  Fe  Fe14  1  0.009664  0.061108  0.250494  1
  Fe  Fe15  1  0.509942  0.436227  0.255885  1
  O  O16  1  0.479743  0.586824  0.155620  1
  O  O17  1  0.494688  0.554937  0.364345  1
  O  O18  1  0.208685  0.710472  0.750835  1
  O  O19  1  0.250471  0.753106  0.509280  1
  O  O20  1  0.241639  0.758863  0.988519  1
  O  O21  1  0.752466  0.749833  0.509679  1
  O  O22  1  0.759135  0.757111  0.988212  1
  O  O23  1  0.709193  0.790931  0.748563  1
  O  O24  1  0.991291  0.939861  0.141523  1
  O  O25  1  0.990695  0.937899  0.358306  1
  O  O26  1  0.009305  0.062101  0.641694  1
  O  O27  1  0.008709  0.060139  0.858477  1
  O  O28  1  0.290807  0.209069  0.251437  1
  O  O29  1  0.240865  0.242889  0.011788  1
  O  O30  1  0.247534  0.250167  0.490321  1
  O  O31  1  0.758361  0.241137  0.011481  1
  O  O32  1  0.749529  0.246894  0.490720  1
  O  O33  1  0.791315  0.289528  0.249165  1
  O  O34  1  0.505312  0.445063  0.635655  1
  O  O35  1  0.520257  0.413176  0.844380  1
