# generated using pymatgen
data_Er5CdIn3Ni2
_symmetry_space_group_name_H-M   'P 1'
_cell_length_a   3.55291600
_cell_length_b   7.95429284
_cell_length_c   17.85086943
_cell_angle_alpha   90.07935796
_cell_angle_beta   90.00000000
_cell_angle_gamma   90.00000000
_symmetry_Int_Tables_number   1
_chemical_formula_structural   Er5CdIn3Ni2
_chemical_formula_sum   'Er10 Cd2 In6 Ni4'
_cell_volume   504.48176438
_cell_formula_units_Z   2
loop_
 _symmetry_equiv_pos_site_id
 _symmetry_equiv_pos_as_xyz
  1  'x, y, z'
loop_
 _atom_site_type_symbol
 _atom_site_label
 _atom_site_symmetry_multiplicity
 _atom_site_fract_x
 _atom_site_fract_y
 _atom_site_fract_z
 _atom_site_occupancy
  Er  Er0  1  0.000000  0.500000  0.500000  1
  Er  Er1  1  0.000000  0.000000  0.000000  1
  Er  Er2  1  0.000000  0.748662  0.277796  1
  Er  Er3  1  0.000000  0.251338  0.722204  1
  Er  Er4  1  0.000000  0.751297  0.779355  1
  Er  Er5  1  0.000000  0.248703  0.220645  1
  Er  Er6  1  0.000000  0.614076  0.089219  1
  Er  Er7  1  0.000000  0.385924  0.910781  1
  Er  Er8  1  0.000000  0.881953  0.589294  1
  Er  Er9  1  0.000000  0.118047  0.410706  1
  Cd  Cd10  1  0.500000  0.706630  0.931351  1
  Cd  Cd11  1  0.500000  0.293370  0.068649  1
  In  In12  1  0.500000  0.795837  0.431653  1
  In  In13  1  0.500000  0.204163  0.568347  1
  In  In14  1  0.500000  0.569852  0.651331  1
  In  In15  1  0.500000  0.430148  0.348669  1
  In  In16  1  0.500000  0.930529  0.149946  1
  In  In17  1  0.500000  0.069471  0.850054  1
  Ni  Ni18  1  0.500000  0.526971  0.197710  1
  Ni  Ni19  1  0.500000  0.473029  0.802290  1
  Ni  Ni20  1  0.500000  0.976556  0.695846  1
  Ni  Ni21  1  0.500000  0.023444  0.304154  1
