# generated using pymatgen
data_Zr5Fe5Co11(P4W)3
_symmetry_space_group_name_H-M   'P 1'
_cell_length_a   11.93936703
_cell_length_b   11.91487820
_cell_length_c   3.66158700
_cell_angle_alpha   90.00000000
_cell_angle_beta   90.00000000
_cell_angle_gamma   120.07614359
_symmetry_Int_Tables_number   1
_chemical_formula_structural   Zr5Fe5Co11(P4W)3
_chemical_formula_sum   'Zr5 Fe5 Co11 P12 W3'
_cell_volume   450.75148425
_cell_formula_units_Z   1
loop_
 _symmetry_equiv_pos_site_id
 _symmetry_equiv_pos_as_xyz
  1  'x, y, z'
loop_
 _atom_site_type_symbol
 _atom_site_label
 _atom_site_symmetry_multiplicity
 _atom_site_fract_x
 _atom_site_fract_y
 _atom_site_fract_z
 _atom_site_occupancy
  Zr  Zr0  1  0.666464  0.333352  0.000000  1
  Zr  Zr1  1  0.332205  0.666278  0.000000  1
  Zr  Zr2  1  0.819494  0.818355  0.500000  1
  Zr  Zr3  1  0.182027  0.999998  0.500000  1
  Zr  Zr4  1  0.000508  0.182554  0.500000  1
  Fe  Fe5  1  0.197650  0.375358  0.000000  1
  Fe  Fe6  1  0.177579  0.802629  0.000000  1
  Fe  Fe7  1  0.822917  0.625250  0.000000  1
  Fe  Fe8  1  0.802257  0.176744  0.000000  1
  Fe  Fe9  1  0.375066  0.197301  0.000000  1
  Co  Co10  1  0.128611  0.485673  0.500000  1
  Co  Co11  1  0.356188  0.871173  0.500000  1
  Co  Co12  1  0.514672  0.644490  0.500000  1
  Co  Co13  1  0.642875  0.514958  0.500000  1
  Co  Co14  1  0.870961  0.356830  0.500000  1
  Co  Co15  1  0.486130  0.128788  0.500000  1
  Co  Co16  1  0.999635  0.999582  0.000000  1
  Co  Co17  1  0.718929  0.998123  0.500000  1
  Co  Co18  1  0.000035  0.719796  0.500000  1
  Co  Co19  1  0.626223  0.821729  0.000000  1
  Co  Co20  1  0.280233  0.280236  0.500000  1
  P  P21  1  0.646158  0.644206  0.000000  1
  P  P22  1  0.354480  0.000090  0.000000  1
  P  P23  1  0.000016  0.354538  0.000000  1
  P  P24  1  0.479798  0.311495  0.500000  1
  P  P25  1  0.688592  0.168435  0.500000  1
  P  P26  1  0.831492  0.520048  0.500000  1
  P  P27  1  0.518134  0.832295  0.500000  1
  P  P28  1  0.168026  0.688263  0.500000  1
  P  P29  1  0.824933  0.001744  0.000000  1
  P  P30  1  0.000623  0.823381  0.000000  1
  P  P31  1  0.311319  0.479920  0.500000  1
  P  P32  1  0.176814  0.176540  0.000000  1
  W  W33  1  0.447495  0.447767  0.000000  1
  W  W34  1  0.551745  0.999554  0.000000  1
  W  W35  1  0.999716  0.552526  0.000000  1
