# generated using pymatgen
data_Dy3HoSi6IrRh
_symmetry_space_group_name_H-M   'P 1'
_cell_length_a   8.16498605
_cell_length_b   8.16496977
_cell_length_c   7.91108500
_cell_angle_alpha   89.99861758
_cell_angle_beta   90.00190314
_cell_angle_gamma   120.01200240
_symmetry_Int_Tables_number   1
_chemical_formula_structural   Dy3HoSi6IrRh
_chemical_formula_sum   'Dy6 Ho2 Si12 Ir2 Rh2'
_cell_volume   456.69280796
_cell_formula_units_Z   2
loop_
 _symmetry_equiv_pos_site_id
 _symmetry_equiv_pos_as_xyz
  1  'x, y, z'
loop_
 _atom_site_type_symbol
 _atom_site_label
 _atom_site_symmetry_multiplicity
 _atom_site_fract_x
 _atom_site_fract_y
 _atom_site_fract_z
 _atom_site_occupancy
  Dy  Dy0  1  0.999972  0.000027  0.248660  1
  Dy  Dy1  1  0.000016  0.999985  0.751329  1
  Dy  Dy2  1  0.509306  0.490697  0.250278  1
  Dy  Dy3  1  0.509313  0.018610  0.250270  1
  Dy  Dy4  1  0.981390  0.490686  0.250271  1
  Dy  Dy5  1  0.490637  0.509360  0.749732  1
  Ho  Ho6  1  0.490619  0.981342  0.749696  1
  Ho  Ho7  1  0.018657  0.509385  0.749687  1
  Si  Si8  1  0.166786  0.833215  0.499290  1
  Si  Si9  1  0.166663  0.333507  0.499142  1
  Si  Si10  1  0.666493  0.833336  0.499142  1
  Si  Si11  1  0.833239  0.166763  0.501145  1
  Si  Si12  1  0.833300  0.666496  0.501107  1
  Si  Si13  1  0.333503  0.166699  0.501107  1
  Si  Si14  1  0.833002  0.166995  0.999848  1
  Si  Si15  1  0.833090  0.666065  0.999892  1
  Si  Si16  1  0.333935  0.166912  0.999892  1
  Si  Si17  1  0.166999  0.833002  0.999685  1
  Si  Si18  1  0.166855  0.333908  0.999836  1
  Si  Si19  1  0.666092  0.833144  0.999834  1
  Ir  Ir20  1  0.333257  0.666742  0.468967  1
  Ir  Ir21  1  0.666810  0.333187  0.531943  1
  Rh  Rh22  1  0.666797  0.333201  0.962965  1
  Rh  Rh23  1  0.333267  0.666735  0.036283  1
