# generated using pymatgen
data_NdTeIO3
_symmetry_space_group_name_H-M   'P 1'
_cell_length_a   6.96292500
_cell_length_b   8.34553742
_cell_length_c   9.44853107
_cell_angle_alpha   73.39161741
_cell_angle_beta   90.00000000
_cell_angle_gamma   90.00000000
_symmetry_Int_Tables_number   1
_chemical_formula_structural   NdTeIO3
_chemical_formula_sum   'Nd4 Te4 I4 O12'
_cell_volume   526.14214797
_cell_formula_units_Z   4
loop_
 _symmetry_equiv_pos_site_id
 _symmetry_equiv_pos_as_xyz
  1  'x, y, z'
loop_
 _atom_site_type_symbol
 _atom_site_label
 _atom_site_symmetry_multiplicity
 _atom_site_fract_x
 _atom_site_fract_y
 _atom_site_fract_z
 _atom_site_occupancy
  Nd  Nd0  1  0.842741  0.320947  0.422553  1
  Nd  Nd1  1  0.157259  0.679053  0.577447  1
  Nd  Nd2  1  0.342741  0.179053  0.577447  1
  Nd  Nd3  1  0.657259  0.820947  0.422553  1
  Te  Te4  1  0.185369  0.022720  0.269807  1
  Te  Te5  1  0.814631  0.977280  0.730193  1
  Te  Te6  1  0.314631  0.522720  0.269807  1
  Te  Te7  1  0.685369  0.477280  0.730193  1
  I  I8  1  0.651269  0.154138  0.140021  1
  I  I9  1  0.848731  0.654138  0.140021  1
  I  I10  1  0.348731  0.845862  0.859979  1
  I  I11  1  0.151269  0.345862  0.859979  1
  O  O12  1  0.488884  0.620205  0.620374  1
  O  O13  1  0.337102  0.955451  0.450201  1
  O  O14  1  0.837102  0.544549  0.549799  1
  O  O15  1  0.878162  0.774360  0.687485  1
  O  O16  1  0.988884  0.879795  0.379626  1
  O  O17  1  0.662898  0.044549  0.549799  1
  O  O18  1  0.011116  0.120205  0.620374  1
  O  O19  1  0.378162  0.725640  0.312515  1
  O  O20  1  0.162898  0.455451  0.450201  1
  O  O21  1  0.511116  0.379795  0.379626  1
  O  O22  1  0.121838  0.225640  0.312515  1
  O  O23  1  0.621838  0.274360  0.687485  1
