# generated using pymatgen
data_Ta6MnAl4IrC2
_symmetry_space_group_name_H-M   'P 1'
_cell_length_a   8.27546776
_cell_length_b   8.26264812
_cell_length_c   8.27546835
_cell_angle_alpha   60.05123044
_cell_angle_beta   60.08848146
_cell_angle_gamma   60.05123043
_symmetry_Int_Tables_number   1
_chemical_formula_structural   Ta6MnAl4IrC2
_chemical_formula_sum   'Ta12 Mn2 Al8 Ir2 C4'
_cell_volume   400.69624749
_cell_formula_units_Z   2
loop_
 _symmetry_equiv_pos_site_id
 _symmetry_equiv_pos_as_xyz
  1  'x, y, z'
loop_
 _atom_site_type_symbol
 _atom_site_label
 _atom_site_symmetry_multiplicity
 _atom_site_fract_x
 _atom_site_fract_y
 _atom_site_fract_z
 _atom_site_occupancy
  Ta  Ta0  1  0.555867  0.944133  0.555867  1
  Ta  Ta1  1  0.308511  0.694900  0.687693  1
  Ta  Ta2  1  0.687693  0.308895  0.308511  1
  Ta  Ta3  1  0.311520  0.688480  0.311520  1
  Ta  Ta4  1  0.687693  0.694900  0.308511  1
  Ta  Ta5  1  0.308511  0.308895  0.687693  1
  Ta  Ta6  1  0.562307  0.555100  0.941489  1
  Ta  Ta7  1  0.941489  0.555100  0.562307  1
  Ta  Ta8  1  0.562307  0.941105  0.941489  1
  Ta  Ta9  1  0.941489  0.941105  0.562307  1
  Ta  Ta10  1  0.694133  0.305867  0.694133  1
  Ta  Ta11  1  0.938480  0.561520  0.938480  1
  Mn  Mn12  1  0.625000  0.125000  0.125000  1
  Mn  Mn13  1  0.125000  0.125000  0.625000  1
  Al  Al14  1  0.915474  0.922360  0.915474  1
  Al  Al15  1  0.999875  0.330700  0.338724  1
  Al  Al16  1  0.334526  0.003306  0.334526  1
  Al  Al17  1  0.338724  0.330700  0.999875  1
  Al  Al18  1  0.915474  0.246694  0.915474  1
  Al  Al19  1  0.911276  0.919300  0.250125  1
  Al  Al20  1  0.250125  0.919300  0.911276  1
  Al  Al21  1  0.334526  0.327640  0.334526  1
  Ir  Ir22  1  0.125000  0.125000  0.125000  1
  Ir  Ir23  1  0.125000  0.625000  0.125000  1
  C  C24  1  0.625000  0.625000  0.625000  1
  C  C25  1  0.125000  0.625000  0.625000  1
  C  C26  1  0.625000  0.125000  0.625000  1
  C  C27  1  0.625000  0.625000  0.125000  1
