# generated using pymatgen
data_Al18FeCo2Ni
_symmetry_space_group_name_H-M   'P 1'
_cell_length_a   6.28464587
_cell_length_b   6.20376627
_cell_length_c   8.59770976
_cell_angle_alpha   84.81567654
_cell_angle_beta   90.16907540
_cell_angle_gamma   90.03875849
_symmetry_Int_Tables_number   1
_chemical_formula_structural   Al18FeCo2Ni
_chemical_formula_sum   'Al18 Fe1 Co2 Ni1'
_cell_volume   333.83880472
_cell_formula_units_Z   1
loop_
 _symmetry_equiv_pos_site_id
 _symmetry_equiv_pos_as_xyz
  1  'x, y, z'
loop_
 _atom_site_type_symbol
 _atom_site_label
 _atom_site_symmetry_multiplicity
 _atom_site_fract_x
 _atom_site_fract_y
 _atom_site_fract_z
 _atom_site_occupancy
  Al  Al0  1  0.997479  0.998774  0.999774  1
  Al  Al1  1  0.499208  0.999395  0.499422  1
  Al  Al2  1  0.973409  0.409093  0.731189  1
  Al  Al3  1  0.465102  0.600244  0.768148  1
  Al  Al4  1  0.030572  0.595787  0.267532  1
  Al  Al5  1  0.535104  0.406219  0.233062  1
  Al  Al6  1  0.286376  0.085631  0.770974  1
  Al  Al7  1  0.793127  0.907631  0.728711  1
  Al  Al8  1  0.708695  0.911305  0.229420  1
  Al  Al9  1  0.211525  0.087585  0.269371  1
  Al  Al10  1  0.192733  0.391490  0.003186  1
  Al  Al11  1  0.693485  0.613234  0.495279  1
  Al  Al12  1  0.808883  0.607148  0.995553  1
  Al  Al13  1  0.305107  0.390172  0.501745  1
  Al  Al14  1  0.610346  0.214449  0.960163  1
  Al  Al15  1  0.115101  0.785872  0.545137  1
  Al  Al16  1  0.384527  0.784866  0.044027  1
  Al  Al17  1  0.888141  0.213569  0.454595  1
  Fe  Fe18  1  0.118609  0.736352  0.834031  1
  Co  Co19  1  0.379794  0.734728  0.334161  1
  Co  Co20  1  0.882219  0.261810  0.166968  1
  Ni  Ni21  1  0.620456  0.264646  0.667556  1
