# generated using pymatgen
data_K(NbS2)2
_symmetry_space_group_name_H-M   'P 1'
_cell_length_a   3.43451717
_cell_length_b   5.84301229
_cell_length_c   16.11598700
_cell_angle_alpha   90.00000000
_cell_angle_beta   90.00000000
_cell_angle_gamma   90.00014886
_symmetry_Int_Tables_number   1
_chemical_formula_structural   K(NbS2)2
_chemical_formula_sum   'K2 Nb4 S8'
_cell_volume   323.41443558
_cell_formula_units_Z   2
loop_
 _symmetry_equiv_pos_site_id
 _symmetry_equiv_pos_as_xyz
  1  'x, y, z'
loop_
 _atom_site_type_symbol
 _atom_site_label
 _atom_site_symmetry_multiplicity
 _atom_site_fract_x
 _atom_site_fract_y
 _atom_site_fract_z
 _atom_site_occupancy
  K  K0  1  0.000000  0.000000  0.500000  1
  K  K1  1  0.500000  0.500000  0.000000  1
  Nb  Nb2  1  0.000016  0.000058  0.750282  1
  Nb  Nb3  1  0.500016  0.500058  0.749718  1
  Nb  Nb4  1  0.999984  0.999942  0.249718  1
  Nb  Nb5  1  0.499984  0.499942  0.250282  1
  S  S6  1  0.499999  0.166115  0.653983  1
  S  S7  1  0.000001  0.664943  0.654152  1
  S  S8  1  0.999999  0.335057  0.345848  1
  S  S9  1  0.500001  0.833885  0.346017  1
  S  S10  1  0.000001  0.333885  0.153983  1
  S  S11  1  0.499999  0.835057  0.154152  1
  S  S12  1  0.500001  0.164943  0.845848  1
  S  S13  1  0.999999  0.666115  0.846017  1
