# generated using pymatgen
data_Ca7Nd13(SnSb)8
_symmetry_space_group_name_H-M   'P 1'
_cell_length_a   8.31652196
_cell_length_b   8.34583138
_cell_length_c   16.07249205
_cell_angle_alpha   90.01489570
_cell_angle_beta   90.38966455
_cell_angle_gamma   89.93523163
_symmetry_Int_Tables_number   1
_chemical_formula_structural   Ca7Nd13(SnSb)8
_chemical_formula_sum   'Ca7 Nd13 Sn8 Sb8'
_cell_volume   1115.53764053
_cell_formula_units_Z   1
loop_
 _symmetry_equiv_pos_site_id
 _symmetry_equiv_pos_as_xyz
  1  'x, y, z'
loop_
 _atom_site_type_symbol
 _atom_site_label
 _atom_site_symmetry_multiplicity
 _atom_site_fract_x
 _atom_site_fract_y
 _atom_site_fract_z
 _atom_site_occupancy
  Ca  Ca0  1  0.057493  0.170897  0.394696  1
  Ca  Ca1  1  0.395553  0.837201  0.115482  1
  Ca  Ca2  1  0.101291  0.337993  0.613850  1
  Ca  Ca3  1  0.228886  0.501414  0.249729  1
  Ca  Ca4  1  0.729799  0.998410  0.250088  1
  Ca  Ca5  1  0.268628  0.003761  0.748951  1
  Ca  Ca6  1  0.773280  0.496599  0.749043  1
  Nd  Nd7  1  0.449637  0.674370  0.894244  1
  Nd  Nd8  1  0.898020  0.666912  0.117154  1
  Nd  Nd9  1  0.105554  0.335327  0.884188  1
  Nd  Nd10  1  0.445677  0.674818  0.607881  1
  Nd  Nd11  1  0.599630  0.166634  0.616364  1
  Nd  Nd12  1  0.900846  0.666995  0.384061  1
  Nd  Nd13  1  0.049114  0.175280  0.103574  1
  Nd  Nd14  1  0.950132  0.824527  0.892061  1
  Nd  Nd15  1  0.602240  0.166647  0.882988  1
  Nd  Nd16  1  0.550105  0.324167  0.108099  1
  Nd  Nd17  1  0.395895  0.837691  0.384564  1
  Nd  Nd18  1  0.943981  0.825686  0.609414  1
  Nd  Nd19  1  0.554036  0.325964  0.391142  1
  Sn  Sn20  1  0.646757  0.864908  0.751161  1
  Sn  Sn21  1  0.852116  0.365474  0.250721  1
  Sn  Sn22  1  0.604082  0.617458  0.249600  1
  Sn  Sn23  1  0.400032  0.381814  0.750752  1
  Sn  Sn24  1  0.148489  0.633650  0.750671  1
  Sn  Sn25  1  0.897127  0.118569  0.749846  1
  Sn  Sn26  1  0.352666  0.133598  0.249014  1
  Sn  Sn27  1  0.100341  0.880256  0.248997  1
  Sb  Sb28  1  0.762404  0.485609  0.545806  1
  Sb  Sb29  1  0.732746  0.983019  0.455710  1
  Sb  Sb30  1  0.237109  0.517045  0.453933  1
  Sb  Sb31  1  0.267318  0.016282  0.953509  1
  Sb  Sb32  1  0.768550  0.480017  0.956005  1
  Sb  Sb33  1  0.233886  0.517963  0.045491  1
  Sb  Sb34  1  0.264704  0.013760  0.547524  1
  Sb  Sb35  1  0.731876  0.979283  0.043690  1
