# generated using pymatgen
data_Ho17Tm3Pb16
_symmetry_space_group_name_H-M   'P 1'
_cell_length_a   8.16814504
_cell_length_b   8.23526004
_cell_length_c   15.59359500
_cell_angle_alpha   90.00000000
_cell_angle_beta   90.00000000
_cell_angle_gamma   90.01154764
_symmetry_Int_Tables_number   1
_chemical_formula_structural   Ho17Tm3Pb16
_chemical_formula_sum   'Ho17 Tm3 Pb16'
_cell_volume   1048.93119107
_cell_formula_units_Z   1
loop_
 _symmetry_equiv_pos_site_id
 _symmetry_equiv_pos_as_xyz
  1  'x, y, z'
loop_
 _atom_site_type_symbol
 _atom_site_label
 _atom_site_symmetry_multiplicity
 _atom_site_fract_x
 _atom_site_fract_y
 _atom_site_fract_z
 _atom_site_occupancy
  Ho  Ho0  1  0.377278  0.841031  0.879108  1
  Ho  Ho1  1  0.877043  0.659140  0.620882  1
  Ho  Ho2  1  0.622813  0.159059  0.379113  1
  Ho  Ho3  1  0.122802  0.340953  0.120909  1
  Ho  Ho4  1  0.622813  0.159059  0.120887  1
  Ho  Ho5  1  0.122802  0.340953  0.379091  1
  Ho  Ho6  1  0.377278  0.841031  0.620892  1
  Ho  Ho7  1  0.877043  0.659140  0.879118  1
  Ho  Ho8  1  0.536792  0.323152  0.900180  1
  Ho  Ho9  1  0.036671  0.176710  0.599831  1
  Ho  Ho10  1  0.463264  0.676797  0.400157  1
  Ho  Ho11  1  0.963279  0.823202  0.099821  1
  Ho  Ho12  1  0.463264  0.676797  0.099843  1
  Ho  Ho13  1  0.963279  0.823202  0.400179  1
  Ho  Ho14  1  0.536792  0.323152  0.599820  1
  Ho  Ho15  1  0.036671  0.176710  0.900169  1
  Ho  Ho16  1  0.208449  0.504158  0.750000  1
  Tm  Tm17  1  0.708575  0.995739  0.750000  1
  Tm  Tm18  1  0.791438  0.495761  0.250000  1
  Tm  Tm19  1  0.291438  0.004203  0.250000  1
  Pb  Pb20  1  0.280610  0.032190  0.042462  1
  Pb  Pb21  1  0.780613  0.467824  0.457538  1
  Pb  Pb22  1  0.719385  0.967806  0.542435  1
  Pb  Pb23  1  0.219397  0.532196  0.957706  1
  Pb  Pb24  1  0.719385  0.967806  0.957565  1
  Pb  Pb25  1  0.219397  0.532196  0.542294  1
  Pb  Pb26  1  0.280610  0.032190  0.457538  1
  Pb  Pb27  1  0.780613  0.467824  0.042462  1
  Pb  Pb28  1  0.571651  0.626949  0.750000  1
  Pb  Pb29  1  0.071213  0.873435  0.750000  1
  Pb  Pb30  1  0.428740  0.373201  0.250000  1
  Pb  Pb31  1  0.928748  0.126799  0.250000  1
  Pb  Pb32  1  0.348251  0.153480  0.750000  1
  Pb  Pb33  1  0.848047  0.346078  0.750000  1
  Pb  Pb34  1  0.651784  0.846162  0.250000  1
  Pb  Pb35  1  0.151775  0.653914  0.250000  1
