# generated using pymatgen
data_Th4Tc2Ge6Os5
_symmetry_space_group_name_H-M   'P 1'
_cell_length_a   7.42219550
_cell_length_b   7.42219633
_cell_length_c   7.42219653
_cell_angle_alpha   109.60297195
_cell_angle_beta   109.20803387
_cell_angle_gamma   109.60297561
_symmetry_Int_Tables_number   1
_chemical_formula_structural   Th4Tc2Ge6Os5
_chemical_formula_sum   'Th4 Tc2 Ge6 Os5'
_cell_volume   314.75201619
_cell_formula_units_Z   1
loop_
 _symmetry_equiv_pos_site_id
 _symmetry_equiv_pos_as_xyz
  1  'x, y, z'
loop_
 _atom_site_type_symbol
 _atom_site_label
 _atom_site_symmetry_multiplicity
 _atom_site_fract_x
 _atom_site_fract_y
 _atom_site_fract_z
 _atom_site_occupancy
  Th  Th0  1  0.501626  0.500000  0.498374  1
  Th  Th1  1  0.998374  0.500000  0.001626  1
  Th  Th2  1  0.501626  0.003252  0.001626  1
  Th  Th3  1  0.998374  0.996748  0.498374  1
  Tc  Tc4  1  0.000000  0.000000  0.000000  1
  Tc  Tc5  1  0.750000  0.500000  0.250000  1
  Ge  Ge6  1  0.683380  0.000000  0.683380  1
  Ge  Ge7  1  0.682676  0.684220  0.998456  1
  Ge  Ge8  1  0.314236  0.315780  0.998456  1
  Ge  Ge9  1  0.001544  0.684220  0.685764  1
  Ge  Ge10  1  0.001544  0.315780  0.317324  1
  Ge  Ge11  1  0.316620  0.000000  0.316620  1
  Os  Os12  1  0.498964  0.749718  0.248682  1
  Os  Os13  1  0.751318  0.250282  0.501036  1
  Os  Os14  1  0.250753  0.749718  0.501036  1
  Os  Os15  1  0.250000  0.500000  0.750000  1
  Os  Os16  1  0.498964  0.250282  0.749247  1
