# generated using pymatgen
data_CaCe3Nb(MoN4)3
_symmetry_space_group_name_H-M   'P 1'
_cell_length_a   11.33196694
_cell_length_b   11.33196770
_cell_length_c   11.33196700
_cell_angle_alpha   109.47121760
_cell_angle_beta   109.47121896
_cell_angle_gamma   109.47122348
_symmetry_Int_Tables_number   1
_chemical_formula_structural   CaCe3Nb(MoN4)3
_chemical_formula_sum   'Ca4 Ce12 Nb4 Mo12 N48'
_cell_volume   1120.19607642
_cell_formula_units_Z   4
loop_
 _symmetry_equiv_pos_site_id
 _symmetry_equiv_pos_as_xyz
  1  'x, y, z'
loop_
 _atom_site_type_symbol
 _atom_site_label
 _atom_site_symmetry_multiplicity
 _atom_site_fract_x
 _atom_site_fract_y
 _atom_site_fract_z
 _atom_site_occupancy
  Ca  Ca0  1  0.500001  0.000000  0.000000  1
  Ca  Ca1  1  0.000000  0.500001  0.000000  1
  Ca  Ca2  1  0.000000  0.000000  0.500001  1
  Ca  Ca3  1  0.500001  0.500001  0.500001  1
  Ce  Ce4  1  0.250000  0.375570  0.125569  1
  Ce  Ce5  1  0.374431  0.750000  0.124431  1
  Ce  Ce6  1  0.375570  0.125569  0.250000  1
  Ce  Ce7  1  0.875569  0.625569  0.250000  1
  Ce  Ce8  1  0.750000  0.124431  0.374431  1
  Ce  Ce9  1  0.125569  0.250000  0.375570  1
  Ce  Ce10  1  0.874431  0.750000  0.624431  1
  Ce  Ce11  1  0.250000  0.875569  0.625569  1
  Ce  Ce12  1  0.124431  0.374431  0.750000  1
  Ce  Ce13  1  0.624431  0.874431  0.750000  1
  Ce  Ce14  1  0.625569  0.250000  0.875569  1
  Ce  Ce15  1  0.750000  0.624431  0.874431  1
  Nb  Nb16  1  0.000000  0.000000  0.000000  1
  Nb  Nb17  1  0.500000  0.500000  0.000000  1
  Nb  Nb18  1  0.500000  0.000000  0.500000  1
  Nb  Nb19  1  0.000000  0.500000  0.500000  1
  Mo  Mo20  1  0.874110  0.250000  0.124109  1
  Mo  Mo21  1  0.750000  0.875890  0.125890  1
  Mo  Mo22  1  0.624110  0.374110  0.250000  1
  Mo  Mo23  1  0.124109  0.874110  0.250000  1
  Mo  Mo24  1  0.250000  0.624110  0.374110  1
  Mo  Mo25  1  0.625890  0.750000  0.375891  1
  Mo  Mo26  1  0.374110  0.250000  0.624110  1
  Mo  Mo27  1  0.750000  0.375891  0.625890  1
  Mo  Mo28  1  0.875890  0.125890  0.750000  1
  Mo  Mo29  1  0.375891  0.625890  0.750000  1
  Mo  Mo30  1  0.250000  0.124109  0.874110  1
  Mo  Mo31  1  0.125890  0.750000  0.875890  1
  N  N32  1  0.203570  0.119893  0.021543  1
  N  N33  1  0.303942  0.895881  0.031043  1
  N  N34  1  0.864838  0.395880  0.091939  1
  N  N35  1  0.703570  0.682027  0.083678  1
  N  N36  1  0.619893  0.416322  0.098349  1
  N  N37  1  0.968958  0.696060  0.104120  1
  N  N38  1  0.021543  0.203570  0.119893  1
  N  N39  1  0.604120  0.908061  0.135162  1
  N  N40  1  0.227102  0.591939  0.196059  1
  N  N41  1  0.478457  0.598349  0.182027  1
  N  N42  1  0.119893  0.021543  0.203570  1
  N  N43  1  0.591939  0.196059  0.227102  1
  N  N44  1  0.468958  0.364837  0.272899  1
  N  N45  1  0.317973  0.916322  0.296430  1
  N  N46  1  0.895881  0.031043  0.303942  1
  N  N47  1  0.916322  0.296430  0.317973  1
  N  N48  1  0.272899  0.468958  0.364837  1
  N  N49  1  0.583677  0.901650  0.380107  1
  N  N50  1  0.817973  0.521543  0.401650  1
  N  N51  1  0.091939  0.864838  0.395880  1
  N  N52  1  0.098349  0.619893  0.416322  1
  N  N53  1  0.803942  0.772899  0.408061  1
  N  N54  1  0.598349  0.182027  0.478457  1
  N  N55  1  0.364837  0.272899  0.468958  1
  N  N56  1  0.635162  0.727102  0.531043  1
  N  N57  1  0.401650  0.817973  0.521543  1
  N  N58  1  0.196059  0.227102  0.591939  1
  N  N59  1  0.901650  0.380107  0.583677  1
  N  N60  1  0.908061  0.135162  0.604120  1
  N  N61  1  0.182027  0.478457  0.598349  1
  N  N62  1  0.416322  0.098349  0.619893  1
  N  N63  1  0.727102  0.531043  0.635162  1
  N  N64  1  0.104120  0.968958  0.696060  1
  N  N65  1  0.083678  0.703570  0.682027  1
  N  N66  1  0.682027  0.083678  0.703570  1
  N  N67  1  0.531043  0.635162  0.727102  1
  N  N68  1  0.408061  0.803942  0.772899  1
  N  N69  1  0.880107  0.978457  0.796430  1
  N  N70  1  0.521543  0.401650  0.817973  1
  N  N71  1  0.772899  0.408061  0.803942  1
  N  N72  1  0.978457  0.796430  0.880107  1
  N  N73  1  0.395880  0.091939  0.864838  1
  N  N74  1  0.031043  0.303942  0.895881  1
  N  N75  1  0.380107  0.583677  0.901650  1
  N  N76  1  0.296430  0.317973  0.916322  1
  N  N77  1  0.135162  0.604120  0.908061  1
  N  N78  1  0.696060  0.104120  0.968958  1
  N  N79  1  0.796430  0.880107  0.978457  1
