# generated using pymatgen
data_LiSc2(Co3B2)3
_symmetry_space_group_name_H-M   'P 1'
_cell_length_a   5.65369461
_cell_length_b   5.65369475
_cell_length_c   5.65369435
_cell_angle_alpha   95.85092824
_cell_angle_beta   95.85092588
_cell_angle_gamma   95.85093556
_symmetry_Int_Tables_number   1
_chemical_formula_structural   LiSc2(Co3B2)3
_chemical_formula_sum   'Li1 Sc2 Co9 B6'
_cell_volume   177.68229407
_cell_formula_units_Z   1
loop_
 _symmetry_equiv_pos_site_id
 _symmetry_equiv_pos_as_xyz
  1  'x, y, z'
loop_
 _atom_site_type_symbol
 _atom_site_label
 _atom_site_symmetry_multiplicity
 _atom_site_fract_x
 _atom_site_fract_y
 _atom_site_fract_z
 _atom_site_occupancy
  Li  Li0  1  0.000000  0.000000  0.000000  1
  Sc  Sc1  1  0.680149  0.680149  0.680149  1
  Sc  Sc2  1  0.319851  0.319851  0.319851  1
  Co  Co3  1  0.000000  0.000000  0.500000  1
  Co  Co4  1  0.500000  0.000000  0.000000  1
  Co  Co5  1  0.000000  0.500000  0.000000  1
  Co  Co6  1  0.706253  0.200931  0.706253  1
  Co  Co7  1  0.706253  0.706253  0.200931  1
  Co  Co8  1  0.200931  0.706253  0.706253  1
  Co  Co9  1  0.293747  0.799069  0.293747  1
  Co  Co10  1  0.293747  0.293747  0.799069  1
  Co  Co11  1  0.799069  0.293747  0.293747  1
  B  B12  1  0.613552  0.386448  0.000000  1
  B  B13  1  0.000000  0.613552  0.386448  1
  B  B14  1  0.386448  0.000000  0.613552  1
  B  B15  1  0.000000  0.386448  0.613552  1
  B  B16  1  0.613552  0.000000  0.386448  1
  B  B17  1  0.386448  0.613552  0.000000  1
