# generated using pymatgen
data_ScNb9B20
_symmetry_space_group_name_H-M   'P 1'
_cell_length_a   6.23710986
_cell_length_b   7.08032348
_cell_length_c   7.38185855
_cell_angle_alpha   93.33269150
_cell_angle_beta   102.14631122
_cell_angle_gamma   116.19054581
_symmetry_Int_Tables_number   1
_chemical_formula_structural   ScNb9B20
_chemical_formula_sum   'Sc1 Nb9 B20'
_cell_volume   281.70281618
_cell_formula_units_Z   1
loop_
 _symmetry_equiv_pos_site_id
 _symmetry_equiv_pos_as_xyz
  1  'x, y, z'
loop_
 _atom_site_type_symbol
 _atom_site_label
 _atom_site_symmetry_multiplicity
 _atom_site_fract_x
 _atom_site_fract_y
 _atom_site_fract_z
 _atom_site_occupancy
  Sc  Sc0  1  0.000000  0.000000  0.000000  1
  Nb  Nb1  1  0.500000  0.000000  0.000000  1
  Nb  Nb2  1  0.498427  0.799581  0.400160  1
  Nb  Nb3  1  0.999300  0.399773  0.199973  1
  Nb  Nb4  1  0.501573  0.200419  0.599840  1
  Nb  Nb5  1  0.000071  0.798167  0.399482  1
  Nb  Nb6  1  0.499513  0.599184  0.799119  1
  Nb  Nb7  1  0.500487  0.400816  0.200881  1
  Nb  Nb8  1  0.999929  0.201833  0.600518  1
  Nb  Nb9  1  0.000700  0.600227  0.800027  1
  B  B10  1  0.332652  0.232662  0.866985  1
  B  B11  1  0.333323  0.633289  0.066760  1
  B  B12  1  0.166186  0.365750  0.934803  1
  B  B13  1  0.332714  0.032799  0.266008  1
  B  B14  1  0.166247  0.767601  0.132619  1
  B  B15  1  0.833753  0.232399  0.867381  1
  B  B16  1  0.165923  0.166210  0.332846  1
  B  B17  1  0.833814  0.634250  0.065197  1
  B  B18  1  0.333420  0.433126  0.466005  1
  B  B19  1  0.666677  0.366711  0.933240  1
  B  B20  1  0.834326  0.033381  0.266239  1
  B  B21  1  0.667348  0.767338  0.133015  1
  B  B22  1  0.333963  0.833840  0.666618  1
  B  B23  1  0.166506  0.566820  0.533088  1
  B  B24  1  0.666037  0.166160  0.333382  1
  B  B25  1  0.833494  0.433180  0.466912  1
  B  B26  1  0.165674  0.966619  0.733761  1
  B  B27  1  0.834077  0.833790  0.667154  1
  B  B28  1  0.666580  0.566874  0.533995  1
  B  B29  1  0.667286  0.967201  0.733992  1
