# generated using pymatgen
data_Li2Ho3AlHgGe2
_symmetry_space_group_name_H-M   'P 1'
_cell_length_a   7.04164700
_cell_length_b   7.03490516
_cell_length_c   4.35100400
_cell_angle_alpha   90.00000000
_cell_angle_beta   90.00000000
_cell_angle_gamma   120.03169264
_symmetry_Int_Tables_number   1
_chemical_formula_structural   Li2Ho3AlHgGe2
_chemical_formula_sum   'Li2 Ho3 Al1 Hg1 Ge2'
_cell_volume   186.60094025
_cell_formula_units_Z   1
loop_
 _symmetry_equiv_pos_site_id
 _symmetry_equiv_pos_as_xyz
  1  'x, y, z'
loop_
 _atom_site_type_symbol
 _atom_site_label
 _atom_site_symmetry_multiplicity
 _atom_site_fract_x
 _atom_site_fract_y
 _atom_site_fract_z
 _atom_site_occupancy
  Li  Li0  1  0.756874  0.756108  0.500000  1
  Li  Li1  1  0.000766  0.243892  0.500000  1
  Ho  Ho2  1  0.999984  0.567875  0.000000  1
  Ho  Ho3  1  0.571201  0.000000  0.000000  1
  Ho  Ho4  1  0.432110  0.432125  0.000000  1
  Al  Al5  1  0.245509  0.000000  0.500000  1
  Hg  Hg6  1  0.996892  0.000000  0.000000  1
  Ge  Ge7  1  0.332920  0.669177  0.500000  1
  Ge  Ge8  1  0.663744  0.330823  0.500000  1
