# generated using pymatgen
data_Tb4DyYTa2O14
_symmetry_space_group_name_H-M   'P 1'
_cell_length_a   6.52388831
_cell_length_b   6.52410766
_cell_length_c   7.49955600
_cell_angle_alpha   90.02029208
_cell_angle_beta   90.01626156
_cell_angle_gamma   108.58479380
_symmetry_Int_Tables_number   1
_chemical_formula_structural   Tb4DyYTa2O14
_chemical_formula_sum   'Tb4 Dy1 Y1 Ta2 O14'
_cell_volume   302.55485403
_cell_formula_units_Z   1
loop_
 _symmetry_equiv_pos_site_id
 _symmetry_equiv_pos_as_xyz
  1  'x, y, z'
loop_
 _atom_site_type_symbol
 _atom_site_label
 _atom_site_symmetry_multiplicity
 _atom_site_fract_x
 _atom_site_fract_y
 _atom_site_fract_z
 _atom_site_occupancy
  Tb  Tb0  1  0.999799  0.535285  0.241516  1
  Tb  Tb1  1  0.464735  0.000192  0.258477  1
  Tb  Tb2  1  0.462042  0.462399  0.999642  1
  Tb  Tb3  1  0.537633  0.537967  0.500361  1
  Dy  Dy4  1  0.535245  0.000152  0.758590  1
  Y  Y5  1  0.000064  0.464877  0.741412  1
  Ta  Ta6  1  0.002510  0.002354  0.500569  1
  Ta  Ta7  1  0.997527  0.997344  0.999429  1
  O  O8  1  0.931747  0.067975  0.750004  1
  O  O9  1  0.640053  0.359457  0.749999  1
  O  O10  1  0.306282  0.047301  0.544826  1
  O  O11  1  0.952659  0.694070  0.955462  1
  O  O12  1  0.629018  0.370984  0.250000  1
  O  O13  1  0.918043  0.672882  0.524893  1
  O  O14  1  0.327403  0.081870  0.974824  1
  O  O15  1  0.082227  0.327292  0.023752  1
  O  O16  1  0.672623  0.917842  0.476412  1
  O  O17  1  0.370660  0.629522  0.749988  1
  O  O18  1  0.693002  0.950674  0.042734  1
  O  O19  1  0.049365  0.306900  0.457105  1
  O  O20  1  0.360734  0.639263  0.249999  1
  O  O21  1  0.066623  0.933404  0.250009  1
