# generated using pymatgen
data_Pr16Ho4Si15Os
_symmetry_space_group_name_H-M   'P 1'
_cell_length_a   7.85558111
_cell_length_b   7.82959305
_cell_length_c   15.28285500
_cell_angle_alpha   90.20164374
_cell_angle_beta   89.87697808
_cell_angle_gamma   90.04681338
_symmetry_Int_Tables_number   1
_chemical_formula_structural   Pr16Ho4Si15Os
_chemical_formula_sum   'Pr16 Ho4 Si15 Os1'
_cell_volume   939.97903365
_cell_formula_units_Z   1
loop_
 _symmetry_equiv_pos_site_id
 _symmetry_equiv_pos_as_xyz
  1  'x, y, z'
loop_
 _atom_site_type_symbol
 _atom_site_label
 _atom_site_symmetry_multiplicity
 _atom_site_fract_x
 _atom_site_fract_y
 _atom_site_fract_z
 _atom_site_occupancy
  Pr  Pr0  1  0.375238  0.014248  0.448307  1
  Pr  Pr1  1  0.483710  0.882836  0.695557  1
  Pr  Pr2  1  0.513386  0.121343  0.196153  1
  Pr  Pr3  1  0.878649  0.486203  0.303352  1
  Pr  Pr4  1  0.124636  0.504499  0.800637  1
  Pr  Pr5  1  0.622634  0.986898  0.945193  1
  Pr  Pr6  1  0.009576  0.378483  0.555093  1
  Pr  Pr7  1  0.986002  0.622321  0.053505  1
  Pr  Pr8  1  0.131855  0.980761  0.873298  1
  Pr  Pr9  1  0.522662  0.628019  0.127659  1
  Pr  Pr10  1  0.469085  0.362820  0.631455  1
  Pr  Pr11  1  0.625188  0.520039  0.872201  1
  Pr  Pr12  1  0.375908  0.477832  0.372041  1
  Pr  Pr13  1  0.875372  0.025503  0.378330  1
  Pr  Pr14  1  0.976954  0.124910  0.122298  1
  Pr  Pr15  1  0.029385  0.883289  0.624540  1
  Ho  Ho16  1  0.306898  0.307253  0.999521  1
  Ho  Ho17  1  0.190941  0.808197  0.250301  1
  Ho  Ho18  1  0.825128  0.190301  0.748967  1
  Ho  Ho19  1  0.693640  0.690402  0.501706  1
  Si  Si20  1  0.328607  0.687511  0.956691  1
  Si  Si21  1  0.668523  0.311275  0.458540  1
  Si  Si22  1  0.688794  0.328936  0.043908  1
  Si  Si23  1  0.311986  0.671787  0.541978  1
  Si  Si24  1  0.813366  0.827700  0.209025  1
  Si  Si25  1  0.172680  0.188807  0.292149  1
  Si  Si26  1  0.827803  0.808911  0.793660  1
  Si  Si27  1  0.286198  0.921217  0.062348  1
  Si  Si28  1  0.580593  0.784836  0.314170  1
  Si  Si29  1  0.422351  0.210778  0.815766  1
  Si  Si30  1  0.776177  0.584793  0.686400  1
  Si  Si31  1  0.213305  0.421370  0.186301  1
  Si  Si32  1  0.707976  0.073951  0.561511  1
  Si  Si33  1  0.919177  0.285121  0.937820  1
  Si  Si34  1  0.081428  0.718356  0.436885  1
  Os  Os35  1  0.184190  0.178494  0.702733  1
