# generated using pymatgen
data_Sc24Tc7Te
_symmetry_space_group_name_H-M   'P 1'
_cell_length_a   5.78530851
_cell_length_b   8.55191800
_cell_length_c   14.19825921
_cell_angle_alpha   90.00000000
_cell_angle_beta   89.11017081
_cell_angle_gamma   90.00000000
_symmetry_Int_Tables_number   1
_chemical_formula_structural   Sc24Tc7Te
_chemical_formula_sum   'Sc24 Tc7 Te1'
_cell_volume   702.38103164
_cell_formula_units_Z   1
loop_
 _symmetry_equiv_pos_site_id
 _symmetry_equiv_pos_as_xyz
  1  'x, y, z'
loop_
 _atom_site_type_symbol
 _atom_site_label
 _atom_site_symmetry_multiplicity
 _atom_site_fract_x
 _atom_site_fract_y
 _atom_site_fract_z
 _atom_site_occupancy
  Sc  Sc0  1  0.521066  0.750000  0.351303  1
  Sc  Sc1  1  0.025882  0.250000  0.148701  1
  Sc  Sc2  1  0.471081  0.250000  0.648215  1
  Sc  Sc3  1  0.965052  0.750000  0.864287  1
  Sc  Sc4  1  0.795099  0.750000  0.116080  1
  Sc  Sc5  1  0.291312  0.250000  0.380884  1
  Sc  Sc6  1  0.203412  0.250000  0.886450  1
  Sc  Sc7  1  0.707870  0.750000  0.603837  1
  Sc  Sc8  1  0.470676  0.942326  0.806582  1
  Sc  Sc9  1  0.937394  0.071271  0.705151  1
  Sc  Sc10  1  0.555088  0.436788  0.209294  1
  Sc  Sc11  1  0.055186  0.562815  0.287685  1
  Sc  Sc12  1  0.555088  0.063212  0.209294  1
  Sc  Sc13  1  0.055186  0.937185  0.287685  1
  Sc  Sc14  1  0.470676  0.557674  0.806582  1
  Sc  Sc15  1  0.937394  0.428729  0.705151  1
  Sc  Sc16  1  0.233081  0.947036  0.516318  1
  Sc  Sc17  1  0.750017  0.063356  0.973892  1
  Sc  Sc18  1  0.741820  0.435978  0.464418  1
  Sc  Sc19  1  0.250940  0.558615  0.037271  1
  Sc  Sc20  1  0.741820  0.064022  0.464418  1
  Sc  Sc21  1  0.250940  0.941385  0.037271  1
  Sc  Sc22  1  0.233081  0.552964  0.516318  1
  Sc  Sc23  1  0.750017  0.436644  0.973892  1
  Tc  Tc24  1  0.918449  0.750000  0.438414  1
  Tc  Tc25  1  0.418528  0.250000  0.054512  1
  Tc  Tc26  1  0.076335  0.250000  0.552066  1
  Tc  Tc27  1  0.575597  0.750000  0.952399  1
  Tc  Tc28  1  0.348862  0.750000  0.181608  1
  Tc  Tc29  1  0.846615  0.250000  0.317405  1
  Tc  Tc30  1  0.654018  0.250000  0.820475  1
  Te  Te31  1  0.192416  0.750000  0.682141  1
