# generated using pymatgen
data_TbHo(Th2Co)6
_symmetry_space_group_name_H-M   'P 1'
_cell_length_a   9.76839400
_cell_length_b   9.76839492
_cell_length_c   6.15972900
_cell_angle_alpha   90.00000000
_cell_angle_beta   90.00000000
_cell_angle_gamma   119.99999011
_symmetry_Int_Tables_number   1
_chemical_formula_structural   TbHo(Th2Co)6
_chemical_formula_sum   'Tb1 Ho1 Th12 Co6'
_cell_volume   509.02446717
_cell_formula_units_Z   1
loop_
 _symmetry_equiv_pos_site_id
 _symmetry_equiv_pos_as_xyz
  1  'x, y, z'
loop_
 _atom_site_type_symbol
 _atom_site_label
 _atom_site_symmetry_multiplicity
 _atom_site_fract_x
 _atom_site_fract_y
 _atom_site_fract_z
 _atom_site_occupancy
  Tb  Tb0  1  0.333333  0.666667  0.052554  1
  Ho  Ho1  1  0.666667  0.333333  0.551622  1
  Th  Th2  1  0.125659  0.874341  0.240685  1
  Th  Th3  1  0.252210  0.126105  0.740130  1
  Th  Th4  1  0.873895  0.747790  0.740130  1
  Th  Th5  1  0.125659  0.251317  0.240685  1
  Th  Th6  1  0.748683  0.874341  0.240685  1
  Th  Th7  1  0.873895  0.126105  0.740130  1
  Th  Th8  1  0.542852  0.457148  0.063051  1
  Th  Th9  1  0.084750  0.542376  0.563113  1
  Th  Th10  1  0.457624  0.915250  0.563113  1
  Th  Th11  1  0.542852  0.085703  0.063051  1
  Th  Th12  1  0.914297  0.457148  0.063051  1
  Th  Th13  1  0.457624  0.542376  0.563113  1
  Co  Co14  1  0.818488  0.181512  0.289661  1
  Co  Co15  1  0.637785  0.818892  0.788634  1
  Co  Co16  1  0.181108  0.362215  0.788634  1
  Co  Co17  1  0.818488  0.636977  0.289661  1
  Co  Co18  1  0.363023  0.181512  0.289661  1
  Co  Co19  1  0.181108  0.818892  0.788634  1
