# generated using pymatgen
data_Hf6VNi17P12
_symmetry_space_group_name_H-M   'P 1'
_cell_length_a   3.62824000
_cell_length_b   10.38168800
_cell_length_c   12.05600100
_cell_angle_alpha   90.00000000
_cell_angle_beta   90.00037485
_cell_angle_gamma   90.00000000
_symmetry_Int_Tables_number   1
_chemical_formula_structural   Hf6VNi17P12
_chemical_formula_sum   'Hf6 V1 Ni17 P12'
_cell_volume   454.11647201
_cell_formula_units_Z   1
loop_
 _symmetry_equiv_pos_site_id
 _symmetry_equiv_pos_as_xyz
  1  'x, y, z'
loop_
 _atom_site_type_symbol
 _atom_site_label
 _atom_site_symmetry_multiplicity
 _atom_site_fract_x
 _atom_site_fract_y
 _atom_site_fract_z
 _atom_site_occupancy
  Hf  Hf0  1  0.752007  0.000000  0.471571  1
  Hf  Hf1  1  0.251994  0.500000  0.526059  1
  Hf  Hf2  1  0.251902  0.677055  0.793864  1
  Hf  Hf3  1  0.251902  0.322944  0.793864  1
  Hf  Hf4  1  0.751931  0.820792  0.206595  1
  Hf  Hf5  1  0.751931  0.179208  0.206595  1
  V  V6  1  0.251741  0.000000  0.841444  1
  Ni  Ni7  1  0.751704  0.000000  0.016018  1
  Ni  Ni8  1  0.251712  0.500000  0.984284  1
  Ni  Ni9  1  0.251816  0.197478  0.568299  1
  Ni  Ni10  1  0.251816  0.802522  0.568299  1
  Ni  Ni11  1  0.751857  0.302562  0.431014  1
  Ni  Ni12  1  0.751855  0.697439  0.431014  1
  Ni  Ni13  1  0.251821  0.625151  0.292748  1
  Ni  Ni14  1  0.251821  0.374849  0.292747  1
  Ni  Ni15  1  0.751800  0.874860  0.705558  1
  Ni  Ni16  1  0.751800  0.125140  0.705558  1
  Ni  Ni17  1  0.251686  0.170376  0.008075  1
  Ni  Ni18  1  0.251686  0.829624  0.008075  1
  Ni  Ni19  1  0.751656  0.333750  0.994842  1
  Ni  Ni20  1  0.751656  0.666250  0.994842  1
  Ni  Ni21  1  0.751404  0.500000  0.165169  1
  Ni  Ni22  1  0.252192  0.000000  0.298553  1
  Ni  Ni23  1  0.752153  0.500000  0.699427  1
  P  P24  1  0.251873  0.182769  0.383201  1
  P  P25  1  0.251872  0.817231  0.383201  1
  P  P26  1  0.751854  0.317575  0.616109  1
  P  P27  1  0.751854  0.682425  0.616109  1
  P  P28  1  0.251802  0.000000  0.121537  1
  P  P29  1  0.751781  0.500000  0.875999  1
  P  P30  1  0.251743  0.654088  0.112666  1
  P  P31  1  0.251743  0.345912  0.112666  1
  P  P32  1  0.751744  0.842382  0.887352  1
  P  P33  1  0.751744  0.157618  0.887352  1
  P  P34  1  0.251880  0.000000  0.647134  1
  P  P35  1  0.751876  0.500000  0.352163  1
