# generated using pymatgen
data_Ti8Tc3
_symmetry_space_group_name_H-M   'P 1'
_cell_length_a   5.26874330
_cell_length_b   5.26874339
_cell_length_c   11.55434112
_cell_angle_alpha   105.16090222
_cell_angle_beta   105.16090343
_cell_angle_gamma   34.92562495
_symmetry_Int_Tables_number   1
_chemical_formula_structural   Ti8Tc3
_chemical_formula_sum   'Ti8 Tc3'
_cell_volume   176.59399972
_cell_formula_units_Z   1
loop_
 _symmetry_equiv_pos_site_id
 _symmetry_equiv_pos_as_xyz
  1  'x, y, z'
loop_
 _atom_site_type_symbol
 _atom_site_label
 _atom_site_symmetry_multiplicity
 _atom_site_fract_x
 _atom_site_fract_y
 _atom_site_fract_z
 _atom_site_occupancy
  Ti  Ti0  1  0.704447  0.704447  0.082874  1
  Ti  Ti1  1  0.457002  0.457002  0.183234  1
  Ti  Ti2  1  0.206846  0.206846  0.284289  1
  Ti  Ti3  1  0.624270  0.624270  0.457455  1
  Ti  Ti4  1  0.375731  0.375731  0.542544  1
  Ti  Ti5  1  0.793154  0.793154  0.715711  1
  Ti  Ti6  1  0.542998  0.542998  0.816766  1
  Ti  Ti7  1  0.295554  0.295554  0.917127  1
  Tc  Tc8  1  0.000000  0.000000  0.000000  1
  Tc  Tc9  1  0.914861  0.914861  0.360750  1
  Tc  Tc10  1  0.085139  0.085139  0.639251  1
