# generated using pymatgen
data_Tb3YbGa17GeIr6
_symmetry_space_group_name_H-M   'P 1'
_cell_length_a   7.59034318
_cell_length_b   7.57748037
_cell_length_c   9.52770023
_cell_angle_alpha   90.05962608
_cell_angle_beta   89.86814027
_cell_angle_gamma   119.86734959
_symmetry_Int_Tables_number   1
_chemical_formula_structural   Tb3YbGa17GeIr6
_chemical_formula_sum   'Tb3 Yb1 Ga17 Ge1 Ir6'
_cell_volume   475.20691747
_cell_formula_units_Z   1
loop_
 _symmetry_equiv_pos_site_id
 _symmetry_equiv_pos_as_xyz
  1  'x, y, z'
loop_
 _atom_site_type_symbol
 _atom_site_label
 _atom_site_symmetry_multiplicity
 _atom_site_fract_x
 _atom_site_fract_y
 _atom_site_fract_z
 _atom_site_occupancy
  Tb  Tb0  1  0.997933  0.667423  0.249141  1
  Tb  Tb1  1  0.002101  0.331159  0.752752  1
  Tb  Tb2  1  0.670931  0.000272  0.249073  1
  Yb  Yb3  1  0.330974  0.003015  0.749411  1
  Ga  Ga4  1  0.132627  0.126643  0.250995  1
  Ga  Ga5  1  0.872931  0.874556  0.749857  1
  Ga  Ga6  1  0.000999  0.672813  0.917619  1
  Ga  Ga7  1  0.001845  0.668048  0.580157  1
  Ga  Ga8  1  0.334500  0.999040  0.423626  1
  Ga  Ga9  1  0.000640  0.334367  0.422896  1
  Ga  Ga10  1  0.662757  0.999807  0.580423  1
  Ga  Ga11  1  0.657080  0.994491  0.917368  1
  Ga  Ga12  1  0.333821  0.998720  0.077118  1
  Ga  Ga13  1  0.332893  0.330614  0.564505  1
  Ga  Ga14  1  0.668188  0.667913  0.436446  1
  Ga  Ga15  1  0.667718  0.668436  0.064921  1
  Ga  Ga16  1  0.337434  0.331030  0.934234  1
  Ga  Ga17  1  0.343873  0.547743  0.251244  1
  Ga  Ga18  1  0.662817  0.453168  0.749544  1
  Ga  Ga19  1  0.545495  0.337593  0.249576  1
  Ga  Ga20  1  0.451389  0.659755  0.749652  1
  Ge  Ge21  1  0.998130  0.334291  0.080754  1
  Ir  Ir22  1  0.676112  0.329751  0.000870  1
  Ir  Ir23  1  0.320420  0.663008  0.001245  1
  Ir  Ir24  1  0.327481  0.669917  0.498821  1
  Ir  Ir25  1  0.672800  0.329529  0.498139  1
  Ir  Ir26  1  0.998003  0.006672  0.001326  1
  Ir  Ir27  1  0.998108  0.000227  0.498286  1
