# generated using pymatgen
data_Tb5YbHoCoI12
_symmetry_space_group_name_H-M   'P 1'
_cell_length_a   9.70996499
_cell_length_b   9.81158102
_cell_length_c   9.78677947
_cell_angle_alpha   106.93544692
_cell_angle_beta   107.05466110
_cell_angle_gamma   106.89285060
_symmetry_Int_Tables_number   1
_chemical_formula_structural   Tb5YbHoCoI12
_chemical_formula_sum   'Tb5 Yb1 Ho1 Co1 I12'
_cell_volume   777.32488980
_cell_formula_units_Z   1
loop_
 _symmetry_equiv_pos_site_id
 _symmetry_equiv_pos_as_xyz
  1  'x, y, z'
loop_
 _atom_site_type_symbol
 _atom_site_label
 _atom_site_symmetry_multiplicity
 _atom_site_fract_x
 _atom_site_fract_y
 _atom_site_fract_z
 _atom_site_occupancy
  Tb  Tb0  1  0.095914  0.295885  0.024366  1
  Tb  Tb1  1  0.283647  0.023004  0.092337  1
  Tb  Tb2  1  0.976237  0.903709  0.703198  1
  Tb  Tb3  1  0.904099  0.704264  0.975955  1
  Tb  Tb4  1  0.716488  0.977253  0.908537  1
  Yb  Yb5  1  0.499964  0.500022  0.500100  1
  Ho  Ho6  1  0.023845  0.095571  0.293925  1
  Co  Co7  1  0.000135  0.000047  0.000007  1
  I  I8  1  0.150097  0.455855  0.379328  1
  I  I9  1  0.458070  0.378349  0.152331  1
  I  I10  1  0.378074  0.151336  0.456332  1
  I  I11  1  0.848913  0.542174  0.620930  1
  I  I12  1  0.541982  0.621676  0.847833  1
  I  I13  1  0.620108  0.848505  0.543728  1
  I  I14  1  0.680867  0.072035  0.223515  1
  I  I15  1  0.072145  0.223578  0.678227  1
  I  I16  1  0.225493  0.680639  0.072986  1
  I  I17  1  0.321164  0.928492  0.778039  1
  I  I18  1  0.928244  0.778222  0.321170  1
  I  I19  1  0.774513  0.319382  0.927155  1
