# generated using pymatgen
data_Yb12ErLu7Si16
_symmetry_space_group_name_H-M   'P 1'
_cell_length_a   7.31204320
_cell_length_b   7.75357817
_cell_length_c   14.94213518
_cell_angle_alpha   89.99054128
_cell_angle_beta   90.01487638
_cell_angle_gamma   90.02202915
_symmetry_Int_Tables_number   1
_chemical_formula_structural   Yb12ErLu7Si16
_chemical_formula_sum   'Yb12 Er1 Lu7 Si16'
_cell_volume   847.13675775
_cell_formula_units_Z   1
loop_
 _symmetry_equiv_pos_site_id
 _symmetry_equiv_pos_as_xyz
  1  'x, y, z'
loop_
 _atom_site_type_symbol
 _atom_site_label
 _atom_site_symmetry_multiplicity
 _atom_site_fract_x
 _atom_site_fract_y
 _atom_site_fract_z
 _atom_site_occupancy
  Yb  Yb0  1  0.974543  0.816857  0.404336  1
  Yb  Yb1  1  0.474901  0.682910  0.095837  1
  Yb  Yb2  1  0.525326  0.317038  0.595830  1
  Yb  Yb3  1  0.025176  0.183004  0.904082  1
  Yb  Yb4  1  0.025378  0.182968  0.595837  1
  Yb  Yb5  1  0.525599  0.317073  0.904022  1
  Yb  Yb6  1  0.474681  0.682956  0.404293  1
  Yb  Yb7  1  0.974374  0.816824  0.095816  1
  Yb  Yb8  1  0.351320  0.019936  0.749967  1
  Yb  Yb9  1  0.851252  0.479991  0.750032  1
  Yb  Yb10  1  0.148651  0.520180  0.250213  1
  Yb  Yb11  1  0.648776  0.979872  0.250116  1
  Er  Er12  1  0.314740  0.177099  0.120719  1
  Lu  Lu13  1  0.815129  0.323612  0.378956  1
  Lu  Lu14  1  0.184940  0.676453  0.878740  1
  Lu  Lu15  1  0.684924  0.823517  0.621185  1
  Lu  Lu16  1  0.315064  0.176380  0.378974  1
  Lu  Lu17  1  0.815021  0.323743  0.121136  1
  Lu  Lu18  1  0.184946  0.676464  0.621191  1
  Lu  Lu19  1  0.685140  0.823445  0.878672  1
  Si  Si20  1  0.855812  0.534086  0.538338  1
  Si  Si21  1  0.356502  0.965193  0.961093  1
  Si  Si22  1  0.644165  0.034020  0.461725  1
  Si  Si23  1  0.143006  0.466733  0.037917  1
  Si  Si24  1  0.144286  0.465843  0.461769  1
  Si  Si25  1  0.645273  0.033569  0.037910  1
  Si  Si26  1  0.355751  0.965898  0.538354  1
  Si  Si27  1  0.855375  0.534465  0.961574  1
  Si  Si28  1  0.976950  0.877489  0.750000  1
  Si  Si29  1  0.476911  0.622448  0.749982  1
  Si  Si30  1  0.523608  0.378149  0.250242  1
  Si  Si31  1  0.022658  0.122063  0.250477  1
  Si  Si32  1  0.248335  0.397360  0.750007  1
  Si  Si33  1  0.748457  0.102507  0.749988  1
  Si  Si34  1  0.251003  0.896980  0.250516  1
  Si  Si35  1  0.752026  0.602874  0.250155  1
