# generated using pymatgen
data_Tb10Sn6HN
_symmetry_space_group_name_H-M   'P 1'
_cell_length_a   8.97241600
_cell_length_b   8.97241584
_cell_length_c   6.50564000
_cell_angle_alpha   90.00000000
_cell_angle_beta   90.00000000
_cell_angle_gamma   120.00000060
_symmetry_Int_Tables_number   1
_chemical_formula_structural   Tb10Sn6HN
_chemical_formula_sum   'Tb10 Sn6 H1 N1'
_cell_volume   453.56491272
_cell_formula_units_Z   1
loop_
 _symmetry_equiv_pos_site_id
 _symmetry_equiv_pos_as_xyz
  1  'x, y, z'
loop_
 _atom_site_type_symbol
 _atom_site_label
 _atom_site_symmetry_multiplicity
 _atom_site_fract_x
 _atom_site_fract_y
 _atom_site_fract_z
 _atom_site_occupancy
  Tb  Tb0  1  0.666667  0.333333  0.000000  1
  Tb  Tb1  1  0.333333  0.666667  0.000000  1
  Tb  Tb2  1  0.333333  0.666667  0.500000  1
  Tb  Tb3  1  0.666667  0.333333  0.500000  1
  Tb  Tb4  1  0.773415  0.773415  0.730420  1
  Tb  Tb5  1  0.226585  0.000000  0.730420  1
  Tb  Tb6  1  0.000000  0.226585  0.730420  1
  Tb  Tb7  1  0.226585  0.226585  0.269580  1
  Tb  Tb8  1  0.773415  0.000000  0.269580  1
  Tb  Tb9  1  0.000000  0.773415  0.269580  1
  Sn  Sn10  1  0.398653  0.398653  0.750739  1
  Sn  Sn11  1  0.601347  0.000000  0.750739  1
  Sn  Sn12  1  0.000000  0.601347  0.750739  1
  Sn  Sn13  1  0.601347  0.601347  0.249261  1
  Sn  Sn14  1  0.398653  0.000000  0.249261  1
  Sn  Sn15  1  0.000000  0.398653  0.249261  1
  H  H16  1  0.000000  0.000000  0.000000  1
  N  N17  1  0.000000  0.000000  0.500000  1
