# generated using pymatgen
data_Zr6Co12Si4C
_symmetry_space_group_name_H-M   'P 1'
_cell_length_a   7.31848072
_cell_length_b   7.31848181
_cell_length_c   7.31848100
_cell_angle_alpha   109.47121285
_cell_angle_beta   109.47121586
_cell_angle_gamma   109.47122239
_symmetry_Int_Tables_number   1
_chemical_formula_structural   Zr6Co12Si4C
_chemical_formula_sum   'Zr6 Co12 Si4 C1'
_cell_volume   301.74567093
_cell_formula_units_Z   1
loop_
 _symmetry_equiv_pos_site_id
 _symmetry_equiv_pos_as_xyz
  1  'x, y, z'
loop_
 _atom_site_type_symbol
 _atom_site_label
 _atom_site_symmetry_multiplicity
 _atom_site_fract_x
 _atom_site_fract_y
 _atom_site_fract_z
 _atom_site_occupancy
  Zr  Zr0  1  0.275645  0.275645  0.000000  1
  Zr  Zr1  1  0.724356  0.724356  0.000000  1
  Zr  Zr2  1  0.275645  0.000000  0.275645  1
  Zr  Zr3  1  0.000000  0.275645  0.275645  1
  Zr  Zr4  1  0.724356  0.000000  0.724356  1
  Zr  Zr5  1  0.000000  0.724356  0.724356  1
  Co  Co6  1  0.657367  0.342634  0.000000  1
  Co  Co7  1  0.342634  0.657367  0.000000  1
  Co  Co8  1  0.657367  0.657367  0.314733  1
  Co  Co9  1  0.685265  0.342632  0.342632  1
  Co  Co10  1  0.342632  0.685265  0.342632  1
  Co  Co11  1  0.657367  0.000000  0.342634  1
  Co  Co12  1  0.000000  0.657367  0.342634  1
  Co  Co13  1  0.342634  0.000000  0.657367  1
  Co  Co14  1  0.657367  0.314733  0.657367  1
  Co  Co15  1  0.000000  0.342634  0.657367  1
  Co  Co16  1  0.314733  0.657367  0.657367  1
  Co  Co17  1  0.342632  0.342632  0.685265  1
  Si  Si18  1  0.500000  0.000000  0.000000  1
  Si  Si19  1  0.000000  0.500000  0.000000  1
  Si  Si20  1  0.000000  0.000000  0.500000  1
  Si  Si21  1  0.500000  0.500000  0.500000  1
  C  C22  1  0.000000  0.000000  0.000000  1
