# generated using pymatgen
data_Yb3Dy(Os2O7)2
_symmetry_space_group_name_H-M   'P 1'
_cell_length_a   7.24889106
_cell_length_b   7.24889069
_cell_length_c   7.24889174
_cell_angle_alpha   60.05735467
_cell_angle_beta   60.05736870
_cell_angle_gamma   60.05735606
_symmetry_Int_Tables_number   1
_chemical_formula_structural   Yb3Dy(Os2O7)2
_chemical_formula_sum   'Yb3 Dy1 Os4 O14'
_cell_volume   269.68945390
_cell_formula_units_Z   1
loop_
 _symmetry_equiv_pos_site_id
 _symmetry_equiv_pos_as_xyz
  1  'x, y, z'
loop_
 _atom_site_type_symbol
 _atom_site_label
 _atom_site_symmetry_multiplicity
 _atom_site_fract_x
 _atom_site_fract_y
 _atom_site_fract_z
 _atom_site_occupancy
  Yb  Yb0  1  0.125000  0.625000  0.125000  1
  Yb  Yb1  1  0.125000  0.125000  0.625000  1
  Yb  Yb2  1  0.625000  0.125000  0.125000  1
  Dy  Dy3  1  0.125000  0.125000  0.125000  1
  Os  Os4  1  0.625000  0.625000  0.625000  1
  Os  Os5  1  0.125000  0.625000  0.625000  1
  Os  Os6  1  0.625000  0.125000  0.625000  1
  Os  Os7  1  0.625000  0.625000  0.125000  1
  O  O8  1  0.301181  0.698382  0.698382  1
  O  O9  1  0.546389  0.950912  0.950912  1
  O  O10  1  0.698382  0.301181  0.698382  1
  O  O11  1  0.299088  0.299088  0.703611  1
  O  O12  1  0.698382  0.698382  0.301181  1
  O  O13  1  0.002893  0.002893  0.002893  1
  O  O14  1  0.299088  0.703611  0.299088  1
  O  O15  1  0.950912  0.546389  0.950912  1
  O  O16  1  0.950912  0.950912  0.546389  1
  O  O17  1  0.551618  0.551618  0.948819  1
  O  O18  1  0.247107  0.247107  0.247107  1
  O  O19  1  0.551618  0.948819  0.551618  1
  O  O20  1  0.703611  0.299088  0.299088  1
  O  O21  1  0.948819  0.551618  0.551618  1
