# generated using pymatgen
data_Pr4Ga10CuPt5
_symmetry_space_group_name_H-M   'P 1'
_cell_length_a   8.66505150
_cell_length_b   8.66505160
_cell_length_c   8.66505001
_cell_angle_alpha   139.49951546
_cell_angle_beta   106.46361320
_cell_angle_gamma   87.48924385
_symmetry_Int_Tables_number   1
_chemical_formula_structural   Pr4Ga10CuPt5
_chemical_formula_sum   'Pr4 Ga10 Cu1 Pt5'
_cell_volume   389.50937239
_cell_formula_units_Z   1
loop_
 _symmetry_equiv_pos_site_id
 _symmetry_equiv_pos_as_xyz
  1  'x, y, z'
loop_
 _atom_site_type_symbol
 _atom_site_label
 _atom_site_symmetry_multiplicity
 _atom_site_fract_x
 _atom_site_fract_y
 _atom_site_fract_z
 _atom_site_occupancy
  Pr  Pr0  1  0.862967  0.628851  0.223972  1
  Pr  Pr1  1  0.137033  0.361006  0.765885  1
  Pr  Pr2  1  0.404879  0.138994  0.276028  1
  Pr  Pr3  1  0.595121  0.871149  0.734115  1
  Ga  Ga4  1  0.500000  0.750000  0.250000  1
  Ga  Ga5  1  0.500000  0.250000  0.750000  1
  Ga  Ga6  1  0.221814  0.971814  0.750000  1
  Ga  Ga7  1  0.778186  0.528186  0.750000  1
  Ga  Ga8  1  0.781736  0.031736  0.250000  1
  Ga  Ga9  1  0.218264  0.468264  0.250000  1
  Ga  Ga10  1  0.051814  0.889333  0.145639  1
  Ga  Ga11  1  0.948186  0.093825  0.837519  1
  Ga  Ga12  1  0.743693  0.406175  0.354361  1
  Ga  Ga13  1  0.256307  0.610667  0.662481  1
  Cu  Cu14  1  0.000000  0.750000  0.750000  1
  Pt  Pt15  1  0.000000  0.250000  0.250000  1
  Pt  Pt16  1  0.250873  0.855229  0.386057  1
  Pt  Pt17  1  0.749127  0.135182  0.604354  1
  Pt  Pt18  1  0.469172  0.364818  0.113943  1
  Pt  Pt19  1  0.530828  0.644771  0.895646  1
