# generated using pymatgen
data_NbCo2B2W
_symmetry_space_group_name_H-M   'P 1'
_cell_length_a   3.28720000
_cell_length_b   5.80106100
_cell_length_c   6.73288100
_cell_angle_alpha   90.00000000
_cell_angle_beta   90.00000000
_cell_angle_gamma   90.00000000
_symmetry_Int_Tables_number   1
_chemical_formula_structural   NbCo2B2W
_chemical_formula_sum   'Nb2 Co4 B4 W2'
_cell_volume   128.39097565
_cell_formula_units_Z   2
loop_
 _symmetry_equiv_pos_site_id
 _symmetry_equiv_pos_as_xyz
  1  'x, y, z'
loop_
 _atom_site_type_symbol
 _atom_site_label
 _atom_site_symmetry_multiplicity
 _atom_site_fract_x
 _atom_site_fract_y
 _atom_site_fract_z
 _atom_site_occupancy
  Nb  Nb0  1  0.250000  0.026817  0.823150  1
  Nb  Nb1  1  0.250000  0.526817  0.676850  1
  Co  Co2  1  0.250000  0.143343  0.439534  1
  Co  Co3  1  0.250000  0.643343  0.060466  1
  Co  Co4  1  0.750000  0.857421  0.555176  1
  Co  Co5  1  0.750000  0.357421  0.944824  1
  B  B6  1  0.250000  0.270689  0.129295  1
  B  B7  1  0.250000  0.770689  0.370705  1
  B  B8  1  0.750000  0.728064  0.885586  1
  B  B9  1  0.750000  0.228064  0.614414  1
  W  W10  1  0.750000  0.973666  0.179006  1
  W  W11  1  0.750000  0.473666  0.320994  1
