# generated using pymatgen
data_K2FeCoSe4
_symmetry_space_group_name_H-M   'P 1'
_cell_length_a   6.89742104
_cell_length_b   6.89742074
_cell_length_c   5.53405536
_cell_angle_alpha   78.40212985
_cell_angle_beta   78.40212976
_cell_angle_gamma   116.16742518
_symmetry_Int_Tables_number   1
_chemical_formula_structural   K2FeCoSe4
_chemical_formula_sum   'K2 Fe1 Co1 Se4'
_cell_volume   218.54404904
_cell_formula_units_Z   1
loop_
 _symmetry_equiv_pos_site_id
 _symmetry_equiv_pos_as_xyz
  1  'x, y, z'
loop_
 _atom_site_type_symbol
 _atom_site_label
 _atom_site_symmetry_multiplicity
 _atom_site_fract_x
 _atom_site_fract_y
 _atom_site_fract_z
 _atom_site_occupancy
  K  K0  1  0.362254  0.637746  0.250000  1
  K  K1  1  0.637807  0.362193  0.750000  1
  Fe  Fe2  1  0.001568  0.998432  0.750000  1
  Co  Co3  1  0.998527  0.001473  0.250000  1
  Se  Se4  1  0.083632  0.309483  0.900030  1
  Se  Se5  1  0.690517  0.916368  0.599970  1
  Se  Se6  1  0.916052  0.690357  0.100698  1
  Se  Se7  1  0.309643  0.083948  0.399302  1
