# generated using pymatgen
data_Nd19LuSi15Os
_symmetry_space_group_name_H-M   'P 1'
_cell_length_a   7.70023600
_cell_length_b   7.98145567
_cell_length_c   15.10259400
_cell_angle_alpha   90.00000000
_cell_angle_beta   90.00000000
_cell_angle_gamma   90.01113059
_symmetry_Int_Tables_number   1
_chemical_formula_structural   Nd19LuSi15Os
_chemical_formula_sum   'Nd19 Lu1 Si15 Os1'
_cell_volume   928.19170107
_cell_formula_units_Z   1
loop_
 _symmetry_equiv_pos_site_id
 _symmetry_equiv_pos_as_xyz
  1  'x, y, z'
loop_
 _atom_site_type_symbol
 _atom_site_label
 _atom_site_symmetry_multiplicity
 _atom_site_fract_x
 _atom_site_fract_y
 _atom_site_fract_z
 _atom_site_occupancy
  Nd  Nd0  1  0.139859  0.517480  0.750000  1
  Nd  Nd1  1  0.811393  0.321310  0.620699  1
  Nd  Nd2  1  0.460794  0.690378  0.899331  1
  Nd  Nd3  1  0.963357  0.813382  0.902468  1
  Nd  Nd4  1  0.197821  0.676138  0.127570  1
  Nd  Nd5  1  0.680570  0.809962  0.125831  1
  Nd  Nd6  1  0.312454  0.182470  0.878084  1
  Nd  Nd7  1  0.197821  0.676138  0.372430  1
  Nd  Nd8  1  0.034145  0.184383  0.099841  1
  Nd  Nd9  1  0.312454  0.182470  0.621916  1
  Nd  Nd10  1  0.365543  0.021499  0.250000  1
  Nd  Nd11  1  0.532018  0.326407  0.398550  1
  Nd  Nd12  1  0.811393  0.321310  0.879301  1
  Nd  Nd13  1  0.963357  0.813382  0.597532  1
  Nd  Nd14  1  0.460794  0.690378  0.600669  1
  Nd  Nd15  1  0.034145  0.184383  0.400159  1
  Nd  Nd16  1  0.680570  0.809962  0.374169  1
  Nd  Nd17  1  0.638148  0.986382  0.750000  1
  Nd  Nd18  1  0.532018  0.326407  0.101450  1
  Lu  Lu19  1  0.848279  0.484267  0.250000  1
  Si  Si20  1  0.235236  0.372519  0.250000  1
  Si  Si21  1  0.869657  0.522975  0.455563  1
  Si  Si22  1  0.519529  0.402902  0.750000  1
  Si  Si23  1  0.636481  0.027137  0.960964  1
  Si  Si24  1  0.015212  0.100515  0.750000  1
  Si  Si25  1  0.753318  0.621458  0.750000  1
  Si  Si26  1  0.756938  0.124566  0.250000  1
  Si  Si27  1  0.360706  0.974612  0.459541  1
  Si  Si28  1  0.984756  0.900856  0.250000  1
  Si  Si29  1  0.360706  0.974612  0.040459  1
  Si  Si30  1  0.636481  0.027137  0.539036  1
  Si  Si31  1  0.140167  0.473542  0.962242  1
  Si  Si32  1  0.140167  0.473542  0.537758  1
  Si  Si33  1  0.869657  0.522975  0.044437  1
  Si  Si34  1  0.249705  0.879998  0.750000  1
  Os  Os35  1  0.494347  0.582165  0.250000  1
