# generated using pymatgen
data_Er2Lu2HfIr3
_symmetry_space_group_name_H-M   'P 1'
_cell_length_a   10.70827700
_cell_length_b   10.70827700
_cell_length_c   6.19705500
_cell_angle_alpha   90.00000000
_cell_angle_beta   90.00000000
_cell_angle_gamma   90.00000000
_symmetry_Int_Tables_number   1
_chemical_formula_structural   Er2Lu2HfIr3
_chemical_formula_sum   'Er8 Lu8 Hf4 Ir12'
_cell_volume   710.59892222
_cell_formula_units_Z   4
loop_
 _symmetry_equiv_pos_site_id
 _symmetry_equiv_pos_as_xyz
  1  'x, y, z'
loop_
 _atom_site_type_symbol
 _atom_site_label
 _atom_site_symmetry_multiplicity
 _atom_site_fract_x
 _atom_site_fract_y
 _atom_site_fract_z
 _atom_site_occupancy
  Er  Er0  1  0.211089  0.413091  0.626628  1
  Er  Er1  1  0.211089  0.586909  0.126628  1
  Er  Er2  1  0.788911  0.413091  0.126628  1
  Er  Er3  1  0.788911  0.586909  0.626628  1
  Er  Er4  1  0.913091  0.711089  0.126628  1
  Er  Er5  1  0.913091  0.288911  0.626628  1
  Er  Er6  1  0.086909  0.711089  0.626628  1
  Er  Er7  1  0.086909  0.288911  0.126628  1
  Lu  Lu8  1  0.290908  0.085221  0.374766  1
  Lu  Lu9  1  0.290908  0.914779  0.874766  1
  Lu  Lu10  1  0.709092  0.085221  0.874766  1
  Lu  Lu11  1  0.709092  0.914779  0.374766  1
  Lu  Lu12  1  0.585221  0.790908  0.874766  1
  Lu  Lu13  1  0.585221  0.209092  0.374766  1
  Lu  Lu14  1  0.414779  0.790908  0.374766  1
  Lu  Lu15  1  0.414779  0.209092  0.874766  1
  Hf  Hf16  1  0.000000  0.000000  0.498416  1
  Hf  Hf17  1  0.000000  0.000000  0.998416  1
  Hf  Hf18  1  0.500000  0.500000  0.998416  1
  Hf  Hf19  1  0.500000  0.500000  0.498416  1
  Ir  Ir20  1  0.853529  0.143640  0.249397  1
  Ir  Ir21  1  0.853529  0.856360  0.749397  1
  Ir  Ir22  1  0.146471  0.143640  0.749397  1
  Ir  Ir23  1  0.146471  0.856360  0.249397  1
  Ir  Ir24  1  0.643640  0.353529  0.749397  1
  Ir  Ir25  1  0.643640  0.646471  0.249397  1
  Ir  Ir26  1  0.356360  0.353529  0.249397  1
  Ir  Ir27  1  0.356360  0.646471  0.749397  1
  Ir  Ir28  1  0.500000  0.000000  0.122311  1
  Ir  Ir29  1  0.500000  0.000000  0.622311  1
  Ir  Ir30  1  0.000000  0.500000  0.877696  1
  Ir  Ir31  1  0.000000  0.500000  0.377696  1
