# generated using pymatgen
data_TbY3Al2(CdPd2)2
_symmetry_space_group_name_H-M   'P 1'
_cell_length_a   4.40295200
_cell_length_b   7.00920920
_cell_length_c   8.21124027
_cell_angle_alpha   88.38869246
_cell_angle_beta   90.00000000
_cell_angle_gamma   90.00000000
_symmetry_Int_Tables_number   1
_chemical_formula_structural   TbY3Al2(CdPd2)2
_chemical_formula_sum   'Tb1 Y3 Al2 Cd2 Pd4'
_cell_volume   253.30862221
_cell_formula_units_Z   1
loop_
 _symmetry_equiv_pos_site_id
 _symmetry_equiv_pos_as_xyz
  1  'x, y, z'
loop_
 _atom_site_type_symbol
 _atom_site_label
 _atom_site_symmetry_multiplicity
 _atom_site_fract_x
 _atom_site_fract_y
 _atom_site_fract_z
 _atom_site_occupancy
  Tb  Tb0  1  0.750000  0.962833  0.312623  1
  Y  Y1  1  0.250000  0.537290  0.822653  1
  Y  Y2  1  0.750000  0.462687  0.177207  1
  Y  Y3  1  0.250000  0.037161  0.688372  1
  Al  Al4  1  0.250000  0.141740  0.056542  1
  Al  Al5  1  0.750000  0.858505  0.942765  1
  Cd  Cd6  1  0.250000  0.642882  0.436018  1
  Cd  Cd7  1  0.750000  0.356907  0.564345  1
  Pd  Pd8  1  0.750000  0.758556  0.639881  1
  Pd  Pd9  1  0.250000  0.241379  0.359643  1
  Pd  Pd10  1  0.750000  0.227077  0.897522  1
  Pd  Pd11  1  0.250000  0.772983  0.102429  1
