# generated using pymatgen
data_CaLu3(Si5Os3)2
_symmetry_space_group_name_H-M   'P 1'
_cell_length_a   8.14573581
_cell_length_b   8.12516038
_cell_length_c   5.73080634
_cell_angle_alpha   70.57107761
_cell_angle_beta   70.39858475
_cell_angle_gamma   94.31457551
_symmetry_Int_Tables_number   1
_chemical_formula_structural   CaLu3(Si5Os3)2
_chemical_formula_sum   'Ca1 Lu3 Si10 Os6'
_cell_volume   329.43286519
_cell_formula_units_Z   1
loop_
 _symmetry_equiv_pos_site_id
 _symmetry_equiv_pos_as_xyz
  1  'x, y, z'
loop_
 _atom_site_type_symbol
 _atom_site_label
 _atom_site_symmetry_multiplicity
 _atom_site_fract_x
 _atom_site_fract_y
 _atom_site_fract_z
 _atom_site_occupancy
  Ca  Ca0  1  0.868429  0.600841  0.756298  1
  Lu  Lu1  1  0.399641  0.130741  0.745371  1
  Lu  Lu2  1  0.130698  0.400920  0.246540  1
  Lu  Lu3  1  0.600739  0.867380  0.254932  1
  Si  Si4  1  0.072026  0.262497  0.833314  1
  Si  Si5  1  0.737803  0.931023  0.666209  1
  Si  Si6  1  0.930046  0.737565  0.168325  1
  Si  Si7  1  0.261963  0.069755  0.332372  1
  Si  Si8  1  0.206091  0.794408  0.748660  1
  Si  Si9  1  0.792528  0.205053  0.252615  1
  Si  Si10  1  0.511050  0.489622  0.750769  1
  Si  Si11  1  0.488848  0.510914  0.246830  1
  Si  Si12  1  0.776312  0.219932  0.748335  1
  Si  Si13  1  0.222673  0.777661  0.251041  1
  Os  Os14  1  0.258027  0.543965  0.628546  1
  Os  Os15  1  0.454272  0.746152  0.871363  1
  Os  Os16  1  0.741884  0.453802  0.374805  1
  Os  Os17  1  0.544866  0.252779  0.127142  1
  Os  Os18  1  0.002869  0.001486  0.748390  1
  Os  Os19  1  0.999232  0.003503  0.248141  1
