# generated using pymatgen
data_Pr2Y4OsI10
_symmetry_space_group_name_H-M   'P 1'
_cell_length_a   7.84712440
_cell_length_b   9.91746023
_cell_length_c   9.84177855
_cell_angle_alpha   106.55909886
_cell_angle_beta   96.04514908
_cell_angle_gamma   105.08195650
_symmetry_Int_Tables_number   1
_chemical_formula_structural   Pr2Y4OsI10
_chemical_formula_sum   'Pr2 Y4 Os1 I10'
_cell_volume   695.41262256
_cell_formula_units_Z   1
loop_
 _symmetry_equiv_pos_site_id
 _symmetry_equiv_pos_as_xyz
  1  'x, y, z'
loop_
 _atom_site_type_symbol
 _atom_site_label
 _atom_site_symmetry_multiplicity
 _atom_site_fract_x
 _atom_site_fract_y
 _atom_site_fract_z
 _atom_site_occupancy
  Pr  Pr0  1  0.114893  0.043575  0.767163  1
  Pr  Pr1  1  0.885107  0.956425  0.232837  1
  Y  Y2  1  0.968946  0.288460  0.086388  1
  Y  Y3  1  0.031054  0.711540  0.913612  1
  Y  Y4  1  0.351642  0.126000  0.167551  1
  Y  Y5  1  0.648358  0.874000  0.832449  1
  Os  Os6  1  0.000000  0.000000  0.000000  1
  I  I7  1  0.346574  0.446183  0.269572  1
  I  I8  1  0.653426  0.553817  0.730428  1
  I  I9  1  0.264923  0.088840  0.455142  1
  I  I10  1  0.735077  0.911160  0.544858  1
  I  I11  1  0.084623  0.377287  0.824159  1
  I  I12  1  0.915377  0.622713  0.175841  1
  I  I13  1  0.450681  0.817793  0.089011  1
  I  I14  1  0.549319  0.182207  0.910989  1
  I  I15  1  0.777249  0.260268  0.342634  1
  I  I16  1  0.222751  0.739732  0.657366  1
