# generated using pymatgen
data_Na16Fe8As7P(O4F)8
_symmetry_space_group_name_H-M   'P 1'
_cell_length_a   5.28099600
_cell_length_b   11.95417000
_cell_length_c   14.04166800
_cell_angle_alpha   90.00000000
_cell_angle_beta   90.00000000
_cell_angle_gamma   90.00000000
_symmetry_Int_Tables_number   1
_chemical_formula_structural   Na16Fe8As7P(O4F)8
_chemical_formula_sum   'Na16 Fe8 As7 P1 O32 F8'
_cell_volume   886.44943302
_cell_formula_units_Z   1
loop_
 _symmetry_equiv_pos_site_id
 _symmetry_equiv_pos_as_xyz
  1  'x, y, z'
loop_
 _atom_site_type_symbol
 _atom_site_label
 _atom_site_symmetry_multiplicity
 _atom_site_fract_x
 _atom_site_fract_y
 _atom_site_fract_z
 _atom_site_occupancy
  Na  Na0  1  0.269756  0.325787  0.757749  1
  Na  Na1  1  0.232268  0.826165  0.741477  1
  Na  Na2  1  0.768257  0.672798  0.740512  1
  Na  Na3  1  0.732338  0.172673  0.757236  1
  Na  Na4  1  0.732255  0.670701  0.246671  1
  Na  Na5  1  0.767078  0.174794  0.258007  1
  Na  Na6  1  0.228704  0.330926  0.259662  1
  Na  Na7  1  0.267851  0.822354  0.243948  1
  Na  Na8  1  0.235985  0.085358  0.875519  1
  Na  Na9  1  0.266204  0.586079  0.620746  1
  Na  Na10  1  0.736278  0.914019  0.622959  1
  Na  Na11  1  0.764018  0.414563  0.875823  1
  Na  Na12  1  0.763052  0.913949  0.124767  1
  Na  Na13  1  0.732677  0.420314  0.376256  1
  Na  Na14  1  0.262691  0.085655  0.375942  1
  Na  Na15  1  0.236145  0.586762  0.129122  1
  Fe  Fe16  1  0.222852  0.323710  0.985248  1
  Fe  Fe17  1  0.272753  0.820673  0.511989  1
  Fe  Fe18  1  0.721378  0.675157  0.509817  1
  Fe  Fe19  1  0.777534  0.176140  0.985092  1
  Fe  Fe20  1  0.778053  0.675913  0.015663  1
  Fe  Fe21  1  0.724433  0.177002  0.485433  1
  Fe  Fe22  1  0.274584  0.326322  0.485501  1
  Fe  Fe23  1  0.223316  0.823112  0.015982  1
  As  As24  1  0.202189  0.086308  0.620192  1
  As  As25  1  0.301449  0.588202  0.878640  1
  As  As26  1  0.698641  0.911099  0.878711  1
  As  As27  1  0.803483  0.412238  0.620706  1
  As  As28  1  0.797960  0.912719  0.378144  1
  As  As29  1  0.697650  0.411994  0.121687  1
  As  As30  1  0.300732  0.088264  0.121960  1
  P  P31  1  0.201185  0.587668  0.380412  1
  O  O32  1  0.277573  0.947271  0.612948  1
  O  O33  1  0.223505  0.449426  0.886360  1
  O  O34  1  0.776186  0.049856  0.886721  1
  O  O35  1  0.727601  0.550464  0.611610  1
  O  O36  1  0.721518  0.051759  0.385401  1
  O  O37  1  0.775053  0.550833  0.114674  1
  O  O38  1  0.221852  0.949467  0.114651  1
  O  O39  1  0.268061  0.461947  0.388628  1
  O  O40  1  0.305122  0.137173  0.725313  1
  O  O41  1  0.198701  0.637903  0.773082  1
  O  O42  1  0.801427  0.860855  0.773431  1
  O  O43  1  0.700504  0.361744  0.725575  1
  O  O44  1  0.693583  0.860512  0.274022  1
  O  O45  1  0.800088  0.362302  0.227065  1
  O  O46  1  0.198281  0.140308  0.226564  1
  O  O47  1  0.289764  0.632974  0.284089  1
  O  O48  1  0.877132  0.102543  0.608634  1
  O  O49  1  0.626421  0.602819  0.890822  1
  O  O50  1  0.373901  0.896248  0.891098  1
  O  O51  1  0.129277  0.397761  0.608288  1
  O  O52  1  0.122577  0.897624  0.390074  1
  O  O53  1  0.372800  0.397880  0.109530  1
  O  O54  1  0.625713  0.102227  0.109277  1
  O  O55  1  0.906921  0.602518  0.393032  1
  O  O56  1  0.341767  0.154804  0.526341  1
  O  O57  1  0.163705  0.656100  0.973529  1
  O  O58  1  0.837691  0.842712  0.973093  1
  O  O59  1  0.665888  0.343709  0.526494  1
  O  O60  1  0.656975  0.843855  0.471730  1
  O  O61  1  0.836950  0.343446  0.027565  1
  O  O62  1  0.162780  0.156602  0.027351  1
  O  O63  1  0.332850  0.652556  0.463706  1
  F  F64  1  0.999924  0.249881  0.867726  1
  F  F65  1  0.497966  0.747942  0.627620  1
  F  F66  1  0.999853  0.749191  0.133899  1
  F  F67  1  0.496215  0.254817  0.370099  1
  F  F68  1  0.500101  0.250108  0.898344  1
  F  F69  1  0.998373  0.748201  0.598669  1
  F  F70  1  0.498918  0.748898  0.103282  1
  F  F71  1  0.002731  0.253350  0.398089  1
