# generated using pymatgen
data_Zr5AlSiSb2
_symmetry_space_group_name_H-M   'P 1'
_cell_length_a   8.60131093
_cell_length_b   8.61880555
_cell_length_c   5.83110200
_cell_angle_alpha   90.00000000
_cell_angle_beta   90.00000000
_cell_angle_gamma   120.06729970
_symmetry_Int_Tables_number   1
_chemical_formula_structural   Zr5AlSiSb2
_chemical_formula_sum   'Zr10 Al2 Si2 Sb4'
_cell_volume   374.10893507
_cell_formula_units_Z   2
loop_
 _symmetry_equiv_pos_site_id
 _symmetry_equiv_pos_as_xyz
  1  'x, y, z'
loop_
 _atom_site_type_symbol
 _atom_site_label
 _atom_site_symmetry_multiplicity
 _atom_site_fract_x
 _atom_site_fract_y
 _atom_site_fract_z
 _atom_site_occupancy
  Zr  Zr0  1  0.263040  0.000999  0.250000  1
  Zr  Zr1  1  0.263040  0.262041  0.750000  1
  Zr  Zr2  1  0.994638  0.737522  0.750000  1
  Zr  Zr3  1  0.994638  0.257117  0.250000  1
  Zr  Zr4  1  0.736473  0.743110  0.250000  1
  Zr  Zr5  1  0.736473  0.993363  0.750000  1
  Zr  Zr6  1  0.337787  0.668894  0.000000  1
  Zr  Zr7  1  0.666330  0.333165  0.500000  1
  Zr  Zr8  1  0.666330  0.333165  0.000000  1
  Zr  Zr9  1  0.337787  0.668894  0.500000  1
  Al  Al10  1  0.606012  0.000303  0.250000  1
  Al  Al11  1  0.606012  0.605709  0.750000  1
  Si  Si12  1  0.998638  0.999319  0.000000  1
  Si  Si13  1  0.998638  0.999319  0.500000  1
  Sb  Sb14  1  0.999663  0.392394  0.750000  1
  Sb  Sb15  1  0.999663  0.607269  0.250000  1
  Sb  Sb16  1  0.397419  0.397938  0.250000  1
  Sb  Sb17  1  0.397419  0.999481  0.750000  1
