# generated using pymatgen
data_Hf5U(TaTc2)6
_symmetry_space_group_name_H-M   'P 1'
_cell_length_a   4.55527600
_cell_length_b   6.46798200
_cell_length_c   13.74324200
_cell_angle_alpha   90.00000000
_cell_angle_beta   90.00022576
_cell_angle_gamma   90.00000000
_symmetry_Int_Tables_number   1
_chemical_formula_structural   Hf5U(TaTc2)6
_chemical_formula_sum   'Hf5 U1 Ta6 Tc12'
_cell_volume   404.92322968
_cell_formula_units_Z   1
loop_
 _symmetry_equiv_pos_site_id
 _symmetry_equiv_pos_as_xyz
  1  'x, y, z'
loop_
 _atom_site_type_symbol
 _atom_site_label
 _atom_site_symmetry_multiplicity
 _atom_site_fract_x
 _atom_site_fract_y
 _atom_site_fract_z
 _atom_site_occupancy
  Hf  Hf0  1  0.499928  0.500000  0.168636  1
  Hf  Hf1  1  0.999925  0.000000  0.336078  1
  Hf  Hf2  1  0.500001  0.500000  0.500000  1
  Hf  Hf3  1  0.000074  0.000000  0.663921  1
  Hf  Hf4  1  0.500072  0.500000  0.831364  1
  U  U5  1  0.000000  0.000000  0.000000  1
  Ta  Ta6  1  0.000000  0.500000  0.000000  1
  Ta  Ta7  1  0.499928  0.000000  0.175031  1
  Ta  Ta8  1  0.999929  0.500000  0.335018  1
  Ta  Ta9  1  0.500001  0.000000  0.500000  1
  Ta  Ta10  1  0.000071  0.500000  0.664982  1
  Ta  Ta11  1  0.500071  0.000000  0.824969  1
  Tc  Tc12  1  0.500001  0.240461  0.000000  1
  Tc  Tc13  1  0.500001  0.759540  0.000000  1
  Tc  Tc14  1  0.999928  0.246133  0.163186  1
  Tc  Tc15  1  0.999928  0.753868  0.163186  1
  Tc  Tc16  1  0.499924  0.249678  0.332325  1
  Tc  Tc17  1  0.499924  0.750321  0.332325  1
  Tc  Tc18  1  0.000000  0.252430  0.500000  1
  Tc  Tc19  1  0.000000  0.747570  0.500000  1
  Tc  Tc20  1  0.500076  0.249678  0.667676  1
  Tc  Tc21  1  0.500076  0.750321  0.667676  1
  Tc  Tc22  1  0.000074  0.246133  0.836814  1
  Tc  Tc23  1  0.000074  0.753868  0.836814  1
