# generated using pymatgen
data_Pr2Er3P12Pd3Ru16
_symmetry_space_group_name_H-M   'P 1'
_cell_length_a   12.64080457
_cell_length_b   12.64740027
_cell_length_c   3.99029500
_cell_angle_alpha   90.00000000
_cell_angle_beta   90.00000000
_cell_angle_gamma   120.01725946
_symmetry_Int_Tables_number   1
_chemical_formula_structural   Pr2Er3P12Pd3Ru16
_chemical_formula_sum   'Pr2 Er3 P12 Pd3 Ru16'
_cell_volume   552.37759962
_cell_formula_units_Z   1
loop_
 _symmetry_equiv_pos_site_id
 _symmetry_equiv_pos_as_xyz
  1  'x, y, z'
loop_
 _atom_site_type_symbol
 _atom_site_label
 _atom_site_symmetry_multiplicity
 _atom_site_fract_x
 _atom_site_fract_y
 _atom_site_fract_z
 _atom_site_occupancy
  Pr  Pr0  1  0.182319  0.181673  0.500000  1
  Pr  Pr1  1  0.817681  0.999353  0.500000  1
  Er  Er2  1  0.000000  0.818279  0.500000  1
  Er  Er3  1  0.333434  0.667205  0.000000  1
  Er  Er4  1  0.666566  0.333770  0.000000  1
  P  P5  1  0.813413  0.810615  0.000000  1
  P  P6  1  0.186587  0.997202  0.000000  1
  P  P7  1  0.000000  0.188967  0.000000  1
  P  P8  1  0.180858  0.482068  0.500000  1
  P  P9  1  0.519590  0.699566  0.500000  1
  P  P10  1  0.300419  0.819207  0.500000  1
  P  P11  1  0.699581  0.518789  0.500000  1
  P  P12  1  0.819142  0.301211  0.500000  1
  P  P13  1  0.480410  0.179977  0.500000  1
  P  P14  1  0.369151  0.368996  0.000000  1
  P  P15  1  0.630849  0.999845  0.000000  1
  P  P16  1  0.000000  0.633364  0.000000  1
  Pd  Pd17  1  0.554058  0.553719  0.000000  1
  Pd  Pd18  1  0.445942  0.999661  0.000000  1
  Pd  Pd19  1  0.000000  0.447511  0.000000  1
  Ru  Ru20  1  0.712132  0.710189  0.500000  1
  Ru  Ru21  1  0.287868  0.998057  0.500000  1
  Ru  Ru22  1  0.000000  0.290671  0.500000  1
  Ru  Ru23  1  0.186778  0.382863  0.000000  1
  Ru  Ru24  1  0.617905  0.803672  0.000000  1
  Ru  Ru25  1  0.192373  0.812816  0.000000  1
  Ru  Ru26  1  0.807627  0.620443  0.000000  1
  Ru  Ru27  1  0.813222  0.196085  0.000000  1
  Ru  Ru28  1  0.382095  0.185767  0.000000  1
  Ru  Ru29  1  0.370207  0.494860  0.500000  1
  Ru  Ru30  1  0.505730  0.875411  0.500000  1
  Ru  Ru31  1  0.124393  0.630992  0.500000  1
  Ru  Ru32  1  0.875607  0.506598  0.500000  1
  Ru  Ru33  1  0.629793  0.124652  0.500000  1
  Ru  Ru34  1  0.494270  0.369679  0.500000  1
  Ru  Ru35  1  0.000000  0.996264  0.000000  1
