# generated using pymatgen
data_Er6Zn22PtSe
_symmetry_space_group_name_H-M   'P 1'
_cell_length_a   9.01908739
_cell_length_b   8.97243701
_cell_length_c   9.01908831
_cell_angle_alpha   60.17095186
_cell_angle_beta   59.64050878
_cell_angle_gamma   60.17095700
_symmetry_Int_Tables_number   1
_chemical_formula_structural   Er6Zn22PtSe
_chemical_formula_sum   'Er6 Zn22 Pt1 Se1'
_cell_volume   515.98634296
_cell_formula_units_Z   1
loop_
 _symmetry_equiv_pos_site_id
 _symmetry_equiv_pos_as_xyz
  1  'x, y, z'
loop_
 _atom_site_type_symbol
 _atom_site_label
 _atom_site_symmetry_multiplicity
 _atom_site_fract_x
 _atom_site_fract_y
 _atom_site_fract_z
 _atom_site_occupancy
  Er  Er0  1  0.719287  0.283739  0.280713  1
  Er  Er1  1  0.717788  0.282212  0.717788  1
  Er  Er2  1  0.719287  0.716261  0.280713  1
  Er  Er3  1  0.280713  0.716261  0.719287  1
  Er  Er4  1  0.282212  0.717788  0.282212  1
  Er  Er5  1  0.280713  0.283739  0.719287  1
  Zn  Zn6  1  0.624953  0.125538  0.123972  1
  Zn  Zn7  1  0.124458  0.624098  0.124458  1
  Zn  Zn8  1  0.123972  0.125538  0.624953  1
  Zn  Zn9  1  0.124458  0.126987  0.124458  1
  Zn  Zn10  1  0.375047  0.874462  0.876028  1
  Zn  Zn11  1  0.875542  0.375902  0.875542  1
  Zn  Zn12  1  0.876028  0.874462  0.375047  1
  Zn  Zn13  1  0.875542  0.873013  0.875542  1
  Zn  Zn14  1  0.500000  0.000000  0.000000  1
  Zn  Zn15  1  0.500000  0.000000  0.500000  1
  Zn  Zn16  1  0.500000  0.500000  0.000000  1
  Zn  Zn17  1  0.000000  0.500000  0.500000  1
  Zn  Zn18  1  0.000000  0.000000  0.500000  1
  Zn  Zn19  1  0.000000  0.000000  0.000000  1
  Zn  Zn20  1  0.010608  0.329142  0.331106  1
  Zn  Zn21  1  0.331179  0.007897  0.331179  1
  Zn  Zn22  1  0.331106  0.329142  0.010608  1
  Zn  Zn23  1  0.331179  0.329742  0.331179  1
  Zn  Zn24  1  0.989392  0.670858  0.668894  1
  Zn  Zn25  1  0.668821  0.992103  0.668821  1
  Zn  Zn26  1  0.668894  0.670858  0.989392  1
  Zn  Zn27  1  0.668821  0.670258  0.668821  1
  Pt  Pt28  1  0.000000  0.500000  0.000000  1
  Se  Se29  1  0.500000  0.500000  0.500000  1
