# generated using pymatgen
data_Th4Al24TcPt8
_symmetry_space_group_name_H-M   'P 1'
_cell_length_a   7.60821178
_cell_length_b   7.66681853
_cell_length_c   13.28415552
_cell_angle_alpha   84.70427663
_cell_angle_beta   79.20418512
_cell_angle_gamma   59.72436009
_symmetry_Int_Tables_number   1
_chemical_formula_structural   Th4Al24TcPt8
_chemical_formula_sum   'Th4 Al24 Tc1 Pt8'
_cell_volume   657.34378153
_cell_formula_units_Z   1
loop_
 _symmetry_equiv_pos_site_id
 _symmetry_equiv_pos_as_xyz
  1  'x, y, z'
loop_
 _atom_site_type_symbol
 _atom_site_label
 _atom_site_symmetry_multiplicity
 _atom_site_fract_x
 _atom_site_fract_y
 _atom_site_fract_z
 _atom_site_occupancy
  Th  Th0  1  0.390119  0.172317  0.807832  1
  Th  Th1  1  0.609881  0.827683  0.192168  1
  Th  Th2  1  0.737487  0.498505  0.807811  1
  Th  Th3  1  0.262513  0.501495  0.192189  1
  Al  Al4  1  0.689650  0.831329  0.947699  1
  Al  Al5  1  0.310350  0.168671  0.052301  1
  Al  Al6  1  0.145990  0.832882  0.560129  1
  Al  Al7  1  0.854010  0.167118  0.439871  1
  Al  Al8  1  0.481768  0.165990  0.557339  1
  Al  Al9  1  0.518232  0.834010  0.442661  1
  Al  Al10  1  0.213364  0.163690  0.333028  1
  Al  Al11  1  0.786636  0.836310  0.666972  1
  Al  Al12  1  0.435276  0.511028  0.667472  1
  Al  Al13  1  0.564724  0.488972  0.332528  1
  Al  Al14  1  0.110765  0.156625  0.663747  1
  Al  Al15  1  0.889235  0.843375  0.336253  1
  Al  Al16  1  0.344983  0.503648  0.947866  1
  Al  Al17  1  0.655017  0.496352  0.052134  1
  Al  Al18  1  0.013650  0.169275  0.959993  1
  Al  Al19  1  0.986350  0.830725  0.040007  1
  Al  Al20  1  0.186413  0.499877  0.442826  1
  Al  Al21  1  0.813587  0.500123  0.557174  1
  Al  Al22  1  0.738131  0.161189  0.183499  1
  Al  Al23  1  0.261869  0.838811  0.816501  1
  Al  Al24  1  0.060931  0.636270  0.818807  1
  Al  Al25  1  0.939069  0.363730  0.181193  1
  Al  Al26  1  0.860744  0.038790  0.815886  1
  Al  Al27  1  0.139256  0.961210  0.184115  1
  Tc  Tc28  1  0.000000  0.500000  0.000000  1
  Pt  Pt29  1  0.120519  0.492460  0.638390  1
  Pt  Pt30  1  0.879481  0.507540  0.361610  1
  Pt  Pt31  1  0.655961  0.171768  0.999776  1
  Pt  Pt32  1  0.344039  0.828232  0.000224  1
  Pt  Pt33  1  0.537617  0.166824  0.362586  1
  Pt  Pt34  1  0.462383  0.833176  0.637414  1
  Pt  Pt35  1  0.779014  0.174832  0.636165  1
  Pt  Pt36  1  0.220986  0.825168  0.363835  1
