# generated using pymatgen
data_DyPaHgPt2
_symmetry_space_group_name_H-M   'P 1'
_cell_length_a   7.93906500
_cell_length_b   7.79891500
_cell_length_c   3.61977400
_cell_angle_alpha   90.00000000
_cell_angle_beta   90.00000000
_cell_angle_gamma   90.00000000
_symmetry_Int_Tables_number   1
_chemical_formula_structural   DyPaHgPt2
_chemical_formula_sum   'Dy2 Pa2 Hg2 Pt4'
_cell_volume   224.12226404
_cell_formula_units_Z   2
loop_
 _symmetry_equiv_pos_site_id
 _symmetry_equiv_pos_as_xyz
  1  'x, y, z'
loop_
 _atom_site_type_symbol
 _atom_site_label
 _atom_site_symmetry_multiplicity
 _atom_site_fract_x
 _atom_site_fract_y
 _atom_site_fract_z
 _atom_site_occupancy
  Dy  Dy0  1  0.326929  0.171900  0.500000  1
  Dy  Dy1  1  0.826929  0.328100  0.500000  1
  Pa  Pa2  1  0.170634  0.666357  0.500000  1
  Pa  Pa3  1  0.670634  0.833643  0.500000  1
  Hg  Hg4  1  0.005474  0.008349  0.000000  1
  Hg  Hg5  1  0.505474  0.491651  0.000000  1
  Pt  Pt6  1  0.626547  0.113799  0.000000  1
  Pt  Pt7  1  0.126547  0.386201  0.000000  1
  Pt  Pt8  1  0.870415  0.646428  0.000000  1
  Pt  Pt9  1  0.370415  0.853572  0.000000  1
