# generated using pymatgen
data_Ca4AlGa3(Sn2O9)2
_symmetry_space_group_name_H-M   'P 1'
_cell_length_a   5.61442295
_cell_length_b   9.10975225
_cell_length_c   15.32571200
_cell_angle_alpha   90.00000000
_cell_angle_beta   90.00000000
_cell_angle_gamma   89.90382436
_symmetry_Int_Tables_number   1
_chemical_formula_structural   Ca4AlGa3(Sn2O9)2
_chemical_formula_sum   'Ca8 Al2 Ga6 Sn8 O36'
_cell_volume   783.84779413
_cell_formula_units_Z   2
loop_
 _symmetry_equiv_pos_site_id
 _symmetry_equiv_pos_as_xyz
  1  'x, y, z'
loop_
 _atom_site_type_symbol
 _atom_site_label
 _atom_site_symmetry_multiplicity
 _atom_site_fract_x
 _atom_site_fract_y
 _atom_site_fract_z
 _atom_site_occupancy
  Ca  Ca0  1  0.134161  0.568580  0.146879  1
  Ca  Ca1  1  0.365839  0.931420  0.646879  1
  Ca  Ca2  1  0.365577  0.068128  0.852469  1
  Ca  Ca3  1  0.134423  0.431872  0.352469  1
  Ca  Ca4  1  0.865820  0.432686  0.852891  1
  Ca  Ca5  1  0.634180  0.067314  0.352891  1
  Ca  Ca6  1  0.634883  0.931162  0.147229  1
  Ca  Ca7  1  0.865117  0.568838  0.647229  1
  Al  Al8  1  0.688570  0.654589  0.027742  1
  Al  Al9  1  0.811430  0.845411  0.527742  1
  Ga  Ga10  1  0.187911  0.844310  0.027175  1
  Ga  Ga11  1  0.312089  0.655690  0.527175  1
  Ga  Ga12  1  0.314627  0.347138  0.973156  1
  Ga  Ga13  1  0.185373  0.152862  0.473156  1
  Ga  Ga14  1  0.814654  0.152781  0.972956  1
  Ga  Ga15  1  0.685346  0.347219  0.472956  1
  Sn  Sn16  1  0.132648  0.844345  0.333339  1
  Sn  Sn17  1  0.367352  0.655655  0.833339  1
  Sn  Sn18  1  0.365277  0.344555  0.668646  1
  Sn  Sn19  1  0.134723  0.155445  0.168646  1
  Sn  Sn20  1  0.865608  0.153693  0.667428  1
  Sn  Sn21  1  0.634392  0.346307  0.167428  1
  Sn  Sn22  1  0.633900  0.656372  0.332523  1
  Sn  Sn23  1  0.866100  0.843628  0.832523  1
  O  O24  1  0.308290  0.658176  0.404930  1
  O  O25  1  0.191710  0.841824  0.904930  1
  O  O26  1  0.192378  0.158699  0.595030  1
  O  O27  1  0.307622  0.341301  0.095030  1
  O  O28  1  0.690711  0.340661  0.594989  1
  O  O29  1  0.809289  0.159339  0.094989  1
  O  O30  1  0.811032  0.841253  0.410116  1
  O  O31  1  0.688968  0.658747  0.910116  1
  O  O32  1  0.422575  0.722017  0.074213  1
  O  O33  1  0.077425  0.777983  0.574213  1
  O  O34  1  0.086864  0.224366  0.922060  1
  O  O35  1  0.413136  0.275634  0.422060  1
  O  O36  1  0.586587  0.275666  0.921796  1
  O  O37  1  0.913413  0.224334  0.421796  1
  O  O38  1  0.910527  0.770808  0.073841  1
  O  O39  1  0.589473  0.729192  0.573841  1
  O  O40  1  0.463779  0.833293  0.272195  1
  O  O41  1  0.036221  0.666707  0.772195  1
  O  O42  1  0.034761  0.332102  0.728023  1
  O  O43  1  0.465239  0.167898  0.228023  1
  O  O44  1  0.535603  0.165786  0.727613  1
  O  O45  1  0.964397  0.334214  0.227613  1
  O  O46  1  0.963014  0.668748  0.271842  1
  O  O47  1  0.536986  0.831252  0.771842  1
  O  O48  1  0.281272  0.020523  0.076017  1
  O  O49  1  0.218728  0.479477  0.576017  1
  O  O50  1  0.215106  0.522516  0.924921  1
  O  O51  1  0.284894  0.977484  0.424921  1
  O  O52  1  0.716251  0.977342  0.924797  1
  O  O53  1  0.783749  0.522658  0.424797  1
  O  O54  1  0.771406  0.484461  0.074715  1
  O  O55  1  0.728594  0.015539  0.574715  1
  O  O56  1  0.472516  0.500788  0.250141  1
  O  O57  1  0.027484  0.999212  0.750141  1
  O  O58  1  0.528233  0.500589  0.750329  1
  O  O59  1  0.971767  0.999411  0.250329  1
