# generated using pymatgen
data_Gd8Ag8Sn7Pb
_symmetry_space_group_name_H-M   'P 1'
_cell_length_a   9.46001007
_cell_length_b   9.45324297
_cell_length_c   7.46488100
_cell_angle_alpha   89.94928790
_cell_angle_beta   90.02729723
_cell_angle_gamma   120.05447082
_symmetry_Int_Tables_number   1
_chemical_formula_structural   Gd8Ag8Sn7Pb
_chemical_formula_sum   'Gd8 Ag8 Sn7 Pb1'
_cell_volume   577.81276254
_cell_formula_units_Z   1
loop_
 _symmetry_equiv_pos_site_id
 _symmetry_equiv_pos_as_xyz
  1  'x, y, z'
loop_
 _atom_site_type_symbol
 _atom_site_label
 _atom_site_symmetry_multiplicity
 _atom_site_fract_x
 _atom_site_fract_y
 _atom_site_fract_z
 _atom_site_occupancy
  Gd  Gd0  1  0.500537  0.500841  0.008601  1
  Gd  Gd1  1  0.499008  0.999581  0.010892  1
  Gd  Gd2  1  0.000878  0.500530  0.011027  1
  Gd  Gd3  1  0.499892  0.499285  0.507614  1
  Gd  Gd4  1  0.499495  0.999758  0.509888  1
  Gd  Gd5  1  0.999634  0.501130  0.509853  1
  Gd  Gd6  1  0.000012  0.999853  0.011255  1
  Gd  Gd7  1  0.000687  0.999090  0.510138  1
  Ag  Ag8  1  0.832628  0.166553  0.212594  1
  Ag  Ag9  1  0.833750  0.666380  0.203705  1
  Ag  Ag10  1  0.333618  0.167531  0.203045  1
  Ag  Ag11  1  0.167535  0.833347  0.705214  1
  Ag  Ag12  1  0.171654  0.336631  0.699167  1
  Ag  Ag13  1  0.663742  0.827256  0.699784  1
  Ag  Ag14  1  0.663634  0.335767  0.705178  1
  Ag  Ag15  1  0.333494  0.666481  0.207026  1
  Sn  Sn16  1  0.834634  0.667585  0.792599  1
  Sn  Sn17  1  0.332147  0.166299  0.792343  1
  Sn  Sn18  1  0.167016  0.833828  0.292332  1
  Sn  Sn19  1  0.166015  0.332860  0.292260  1
  Sn  Sn20  1  0.667068  0.833055  0.291806  1
  Sn  Sn21  1  0.666434  0.333319  0.293888  1
  Sn  Sn22  1  0.333223  0.666907  0.794324  1
  Pb  Pb23  1  0.833264  0.166129  0.792949  1
