# generated using pymatgen
data_Dy4MoW3N8
_symmetry_space_group_name_H-M   'P 1'
_cell_length_a   3.21114000
_cell_length_b   5.72059321
_cell_length_c   10.57524638
_cell_angle_alpha   89.96925149
_cell_angle_beta   90.00000000
_cell_angle_gamma   90.00000000
_symmetry_Int_Tables_number   1
_chemical_formula_structural   Dy4MoW3N8
_chemical_formula_sum   'Dy4 Mo1 W3 N8'
_cell_volume   194.26328938
_cell_formula_units_Z   1
loop_
 _symmetry_equiv_pos_site_id
 _symmetry_equiv_pos_as_xyz
  1  'x, y, z'
loop_
 _atom_site_type_symbol
 _atom_site_label
 _atom_site_symmetry_multiplicity
 _atom_site_fract_x
 _atom_site_fract_y
 _atom_site_fract_z
 _atom_site_occupancy
  Dy  Dy0  1  0.250000  0.079225  0.853752  1
  Dy  Dy1  1  0.250000  0.578850  0.645245  1
  Dy  Dy2  1  0.750000  0.920421  0.144944  1
  Dy  Dy3  1  0.750000  0.420784  0.354469  1
  Mo  Mo4  1  0.750000  0.066270  0.594068  1
  W  W5  1  0.250000  0.433070  0.095225  1
  W  W6  1  0.250000  0.934125  0.405304  1
  W  W7  1  0.750000  0.567303  0.905231  1
  N  N8  1  0.250000  0.164762  0.249276  1
  N  N9  1  0.250000  0.666305  0.251203  1
  N  N10  1  0.750000  0.832396  0.751925  1
  N  N11  1  0.750000  0.337576  0.751279  1
  N  N12  1  0.250000  0.761078  0.993005  1
  N  N13  1  0.250000  0.258435  0.505770  1
  N  N14  1  0.750000  0.239437  0.007615  1
  N  N15  1  0.750000  0.739961  0.491688  1
