# generated using pymatgen
data_Tc5OsCl18
_symmetry_space_group_name_H-M   'P 1'
_cell_length_a   9.56387091
_cell_length_b   9.54984138
_cell_length_c   9.54984064
_cell_angle_alpha   65.22269368
_cell_angle_beta   65.14878774
_cell_angle_gamma   65.14878248
_symmetry_Int_Tables_number   1
_chemical_formula_structural   Tc5OsCl18
_chemical_formula_sum   'Tc5 Os1 Cl18'
_cell_volume   686.32135507
_cell_formula_units_Z   1
loop_
 _symmetry_equiv_pos_site_id
 _symmetry_equiv_pos_as_xyz
  1  'x, y, z'
loop_
 _atom_site_type_symbol
 _atom_site_label
 _atom_site_symmetry_multiplicity
 _atom_site_fract_x
 _atom_site_fract_y
 _atom_site_fract_z
 _atom_site_occupancy
  Tc  Tc0  1  0.141903  0.381261  0.141948  1
  Tc  Tc1  1  0.141903  0.141948  0.381261  1
  Tc  Tc2  1  0.619863  0.856867  0.856867  1
  Tc  Tc3  1  0.856903  0.620168  0.857090  1
  Tc  Tc4  1  0.856903  0.857090  0.620168  1
  Os  Os5  1  0.383954  0.140621  0.140621  1
  Cl  Cl6  1  0.378965  0.912375  0.371793  1
  Cl  Cl7  1  0.378965  0.371793  0.912375  1
  Cl  Cl8  1  0.911027  0.374843  0.374843  1
  Cl  Cl9  1  0.623299  0.090535  0.623658  1
  Cl  Cl10  1  0.623299  0.623658  0.090535  1
  Cl  Cl11  1  0.091029  0.624118  0.624118  1
  Cl  Cl12  1  0.327979  0.011789  0.011789  1
  Cl  Cl13  1  0.010144  0.329578  0.009964  1
  Cl  Cl14  1  0.010144  0.009964  0.329578  1
  Cl  Cl15  1  0.669716  0.990098  0.990098  1
  Cl  Cl16  1  0.987829  0.671012  0.990255  1
  Cl  Cl17  1  0.987829  0.990255  0.671012  1
  Cl  Cl18  1  0.528374  0.217234  0.217234  1
  Cl  Cl19  1  0.214913  0.529537  0.216951  1
  Cl  Cl20  1  0.214913  0.216951  0.529537  1
  Cl  Cl21  1  0.473357  0.782782  0.782782  1
  Cl  Cl22  1  0.783394  0.473658  0.781864  1
  Cl  Cl23  1  0.783394  0.781864  0.473658  1
