# generated using pymatgen
data_Dy2(CN2)3
_symmetry_space_group_name_H-M   'P 1'
_cell_length_a   7.43883851
_cell_length_b   7.43883901
_cell_length_c   5.24434774
_cell_angle_alpha   83.91381032
_cell_angle_beta   83.91381211
_cell_angle_gamma   29.66020136
_symmetry_Int_Tables_number   1
_chemical_formula_structural   Dy2(CN2)3
_chemical_formula_sum   'Dy2 C3 N6'
_cell_volume   142.74205384
_cell_formula_units_Z   1
loop_
 _symmetry_equiv_pos_site_id
 _symmetry_equiv_pos_as_xyz
  1  'x, y, z'
loop_
 _atom_site_type_symbol
 _atom_site_label
 _atom_site_symmetry_multiplicity
 _atom_site_fract_x
 _atom_site_fract_y
 _atom_site_fract_z
 _atom_site_occupancy
  Dy  Dy0  1  0.865828  0.865828  0.569671  1
  Dy  Dy1  1  0.134172  0.134172  0.430329  1
  C  C2  1  0.328296  0.328296  0.093554  1
  C  C3  1  0.671704  0.671704  0.906446  1
  C  C4  1  0.000000  0.000000  0.000000  1
  N  N5  1  0.988859  0.988859  0.236334  1
  N  N6  1  0.011141  0.011141  0.763666  1
  N  N7  1  0.689762  0.689762  0.667849  1
  N  N8  1  0.310238  0.310238  0.332151  1
  N  N9  1  0.656885  0.656885  0.139539  1
  N  N10  1  0.343115  0.343115  0.860461  1
