# generated using pymatgen
data_Th4Al13Au9
_symmetry_space_group_name_H-M   'P 1'
_cell_length_a   11.75359000
_cell_length_b   11.75358768
_cell_length_c   4.25136500
_cell_angle_alpha   90.00000000
_cell_angle_beta   90.00000000
_cell_angle_gamma   119.99999528
_symmetry_Int_Tables_number   1
_chemical_formula_structural   Th4Al13Au9
_chemical_formula_sum   'Th4 Al13 Au9'
_cell_volume   508.62772984
_cell_formula_units_Z   1
loop_
 _symmetry_equiv_pos_site_id
 _symmetry_equiv_pos_as_xyz
  1  'x, y, z'
loop_
 _atom_site_type_symbol
 _atom_site_label
 _atom_site_symmetry_multiplicity
 _atom_site_fract_x
 _atom_site_fract_y
 _atom_site_fract_z
 _atom_site_occupancy
  Th  Th0  1  0.206925  0.793075  0.500000  1
  Th  Th1  1  0.586150  0.793075  0.500000  1
  Th  Th2  1  0.206925  0.413850  0.500000  1
  Th  Th3  1  0.666667  0.333333  0.000000  1
  Al  Al4  1  0.947694  0.291565  0.000000  1
  Al  Al5  1  0.708435  0.656128  0.000000  1
  Al  Al6  1  0.947694  0.656128  0.000000  1
  Al  Al7  1  0.343872  0.052306  0.000000  1
  Al  Al8  1  0.167595  0.083798  0.500000  1
  Al  Al9  1  0.916202  0.832405  0.500000  1
  Al  Al10  1  0.708435  0.052306  0.000000  1
  Al  Al11  1  0.530981  0.061961  0.500000  1
  Al  Al12  1  0.916202  0.083798  0.500000  1
  Al  Al13  1  0.343872  0.291565  0.000000  1
  Al  Al14  1  0.530981  0.469019  0.500000  1
  Al  Al15  1  0.938039  0.469019  0.500000  1
  Al  Al16  1  0.333333  0.666667  0.000000  1
  Au  Au17  1  0.457449  0.542551  0.000000  1
  Au  Au18  1  0.825801  0.912901  0.000000  1
  Au  Au19  1  0.457449  0.914897  0.000000  1
  Au  Au20  1  0.087099  0.174199  0.000000  1
  Au  Au21  1  0.087099  0.912901  0.000000  1
  Au  Au22  1  0.787163  0.574326  0.500000  1
  Au  Au23  1  0.085103  0.542551  0.000000  1
  Au  Au24  1  0.787163  0.212837  0.500000  1
  Au  Au25  1  0.425674  0.212837  0.500000  1
