# generated using pymatgen
data_Y16Cd4IrRuPt2
_symmetry_space_group_name_H-M   'P 1'
_cell_length_a   9.70424004
_cell_length_b   9.70538374
_cell_length_c   9.68619400
_cell_angle_alpha   60.06538460
_cell_angle_beta   60.06149613
_cell_angle_gamma   60.13235911
_symmetry_Int_Tables_number   1
_chemical_formula_structural   Y16Cd4IrRuPt2
_chemical_formula_sum   'Y16 Cd4 Ir1 Ru1 Pt2'
_cell_volume   646.34078871
_cell_formula_units_Z   1
loop_
 _symmetry_equiv_pos_site_id
 _symmetry_equiv_pos_as_xyz
  1  'x, y, z'
loop_
 _atom_site_type_symbol
 _atom_site_label
 _atom_site_symmetry_multiplicity
 _atom_site_fract_x
 _atom_site_fract_y
 _atom_site_fract_z
 _atom_site_occupancy
  Y  Y0  1  0.349747  0.350729  0.346217  1
  Y  Y1  1  0.349747  0.350729  0.953306  1
  Y  Y2  1  0.356439  0.943702  0.349929  1
  Y  Y3  1  0.945761  0.356011  0.349114  1
  Y  Y4  1  0.806057  0.190706  0.191278  1
  Y  Y5  1  0.189837  0.805553  0.814229  1
  Y  Y6  1  0.189837  0.805553  0.190381  1
  Y  Y7  1  0.806057  0.190706  0.811959  1
  Y  Y8  1  0.191823  0.191254  0.808461  1
  Y  Y9  1  0.812493  0.810312  0.188598  1
  Y  Y10  1  0.938280  0.565312  0.560010  1
  Y  Y11  1  0.564337  0.938321  0.936094  1
  Y  Y12  1  0.564337  0.938321  0.561248  1
  Y  Y13  1  0.938280  0.565312  0.936398  1
  Y  Y14  1  0.562061  0.564297  0.936821  1
  Y  Y15  1  0.937233  0.937560  0.562604  1
  Cd  Cd16  1  0.580707  0.580919  0.581606  1
  Cd  Cd17  1  0.580707  0.580919  0.256770  1
  Cd  Cd18  1  0.580332  0.257073  0.581298  1
  Cd  Cd19  1  0.256195  0.580603  0.581602  1
  Ir  Ir20  1  0.574283  0.140062  0.142827  1
  Ru  Ru21  1  0.141551  0.574589  0.141930  1
  Pt  Pt22  1  0.141951  0.140729  0.145111  1
  Pt  Pt23  1  0.141951  0.140729  0.572210  1
