# generated using pymatgen
data_Tb5Ho4Lu11Bi12
_symmetry_space_group_name_H-M   'P 1'
_cell_length_a   8.22321132
_cell_length_b   9.45499152
_cell_length_c   11.98807200
_cell_angle_alpha   89.98155383
_cell_angle_beta   90.07104134
_cell_angle_gamma   90.00488286
_symmetry_Int_Tables_number   1
_chemical_formula_structural   Tb5Ho4Lu11Bi12
_chemical_formula_sum   'Tb5 Ho4 Lu11 Bi12'
_cell_volume   932.07654527
_cell_formula_units_Z   1
loop_
 _symmetry_equiv_pos_site_id
 _symmetry_equiv_pos_as_xyz
  1  'x, y, z'
loop_
 _atom_site_type_symbol
 _atom_site_label
 _atom_site_symmetry_multiplicity
 _atom_site_fract_x
 _atom_site_fract_y
 _atom_site_fract_z
 _atom_site_occupancy
  Tb  Tb0  1  0.191466  0.563180  0.440739  1
  Tb  Tb1  1  0.313126  0.250113  0.218234  1
  Tb  Tb2  1  0.813684  0.250072  0.281725  1
  Tb  Tb3  1  0.686840  0.750300  0.782094  1
  Tb  Tb4  1  0.186737  0.750650  0.718691  1
  Ho  Ho5  1  0.354198  0.751104  0.216911  1
  Ho  Ho6  1  0.852306  0.750543  0.282412  1
  Ho  Ho7  1  0.647061  0.250671  0.782744  1
  Ho  Ho8  1  0.147652  0.251280  0.717343  1
  Lu  Lu9  1  0.692297  0.566782  0.059062  1
  Lu  Lu10  1  0.192411  0.932428  0.440453  1
  Lu  Lu11  1  0.307510  0.066676  0.940939  1
  Lu  Lu12  1  0.808454  0.433139  0.558980  1
  Lu  Lu13  1  0.307872  0.433247  0.940746  1
  Lu  Lu14  1  0.806518  0.066219  0.559732  1
  Lu  Lu15  1  0.692368  0.933317  0.058993  1
  Lu  Lu16  1  0.477455  0.250272  0.489135  1
  Lu  Lu17  1  0.977226  0.250354  0.010709  1
  Lu  Lu18  1  0.523636  0.750353  0.511034  1
  Lu  Lu19  1  0.022813  0.750148  0.988959  1
  Bi  Bi20  1  0.403329  0.749909  0.958028  1
  Bi  Bi21  1  0.902901  0.751028  0.542226  1
  Bi  Bi22  1  0.596614  0.250044  0.041846  1
  Bi  Bi23  1  0.095167  0.244729  0.458945  1
  Bi  Bi24  1  0.565512  0.995718  0.327444  1
  Bi  Bi25  1  0.065055  0.505312  0.171904  1
  Bi  Bi26  1  0.434509  0.495689  0.672806  1
  Bi  Bi27  1  0.934629  0.005574  0.827532  1
  Bi  Bi28  1  0.434859  0.005359  0.672586  1
  Bi  Bi29  1  0.934134  0.495416  0.827799  1
  Bi  Bi30  1  0.566355  0.505132  0.327286  1
  Bi  Bi31  1  0.065301  0.995245  0.171962  1
