# generated using pymatgen
data_Nd12AlCoI17
_symmetry_space_group_name_H-M   'P 1'
_cell_length_a   10.03460648
_cell_length_b   11.99942266
_cell_length_c   11.92010718
_cell_angle_alpha   93.82859716
_cell_angle_beta   104.68680392
_cell_angle_gamma   114.68092715
_symmetry_Int_Tables_number   1
_chemical_formula_structural   Nd12AlCoI17
_chemical_formula_sum   'Nd12 Al1 Co1 I17'
_cell_volume   1236.98967256
_cell_formula_units_Z   1
loop_
 _symmetry_equiv_pos_site_id
 _symmetry_equiv_pos_as_xyz
  1  'x, y, z'
loop_
 _atom_site_type_symbol
 _atom_site_label
 _atom_site_symmetry_multiplicity
 _atom_site_fract_x
 _atom_site_fract_y
 _atom_site_fract_z
 _atom_site_occupancy
  Nd  Nd0  1  0.064911  0.523052  0.328956  1
  Nd  Nd1  1  0.988840  0.806589  0.582040  1
  Nd  Nd2  1  0.630337  0.237764  0.284313  1
  Nd  Nd3  1  0.014597  0.185649  0.425971  1
  Nd  Nd4  1  0.223338  0.671901  0.989641  1
  Nd  Nd5  1  0.259902  0.983275  0.894066  1
  Nd  Nd6  1  0.351849  0.758636  0.715976  1
  Nd  Nd7  1  0.944991  0.490446  0.678203  1
  Nd  Nd8  1  0.725626  0.999356  0.099851  1
  Nd  Nd9  1  0.163200  0.289967  0.147528  1
  Nd  Nd10  1  0.775414  0.336419  0.998944  1
  Nd  Nd11  1  0.853516  0.712818  0.851661  1
  Al  Al12  1  0.894045  0.261182  0.213288  1
  Co  Co13  1  0.104328  0.738108  0.785949  1
  I  I14  1  0.781463  0.525694  0.415447  1
  I  I15  1  0.634490  0.419359  0.751173  1
  I  I16  1  0.843159  0.893524  0.325098  1
  I  I17  1  0.325886  0.212723  0.371548  1
  I  I18  1  0.157757  0.103427  0.677172  1
  I  I19  1  0.587847  0.054316  0.842082  1
  I  I20  1  0.755403  0.183701  0.539495  1
  I  I21  1  0.546193  0.698123  0.951189  1
  I  I22  1  0.361776  0.583896  0.242907  1
  I  I23  1  0.217547  0.470153  0.580495  1
  I  I24  1  0.056610  0.366557  0.895694  1
  I  I25  1  0.454259  0.296321  0.044200  1
  I  I26  1  0.999465  0.001858  0.001684  1
  I  I27  1  0.251840  0.826296  0.462749  1
  I  I28  1  0.411742  0.947936  0.162455  1
  I  I29  1  0.674593  0.787152  0.632903  1
  I  I30  1  0.945074  0.633803  0.107323  1
