# generated using pymatgen
data_Yb6Mn3TcC12
_symmetry_space_group_name_H-M   'P 1'
_cell_length_a   8.10822300
_cell_length_b   8.10822353
_cell_length_c   5.07059100
_cell_angle_alpha   90.00000000
_cell_angle_beta   90.00000000
_cell_angle_gamma   119.99999375
_symmetry_Int_Tables_number   1
_chemical_formula_structural   Yb6Mn3TcC12
_chemical_formula_sum   'Yb6 Mn3 Tc1 C12'
_cell_volume   288.69591443
_cell_formula_units_Z   1
loop_
 _symmetry_equiv_pos_site_id
 _symmetry_equiv_pos_as_xyz
  1  'x, y, z'
loop_
 _atom_site_type_symbol
 _atom_site_label
 _atom_site_symmetry_multiplicity
 _atom_site_fract_x
 _atom_site_fract_y
 _atom_site_fract_z
 _atom_site_occupancy
  Yb  Yb0  1  0.610832  0.684075  0.747003  1
  Yb  Yb1  1  0.926756  0.610832  0.252997  1
  Yb  Yb2  1  0.684075  0.073244  0.252997  1
  Yb  Yb3  1  0.315925  0.926756  0.747003  1
  Yb  Yb4  1  0.073244  0.389168  0.747003  1
  Yb  Yb5  1  0.389168  0.315925  0.252997  1
  Mn  Mn6  1  0.000000  0.000000  0.000000  1
  Mn  Mn7  1  0.666667  0.333333  0.755501  1
  Mn  Mn8  1  0.333333  0.666667  0.244499  1
  Tc  Tc9  1  0.000000  0.000000  0.500000  1
  C  C10  1  0.954411  0.769616  0.754985  1
  C  C11  1  0.184796  0.954411  0.245015  1
  C  C12  1  0.769616  0.815204  0.245015  1
  C  C13  1  0.230384  0.184796  0.754985  1
  C  C14  1  0.815204  0.045589  0.754985  1
  C  C15  1  0.045589  0.230384  0.245015  1
  C  C16  1  0.857255  0.577729  0.756385  1
  C  C17  1  0.279527  0.857255  0.243615  1
  C  C18  1  0.577729  0.720473  0.243615  1
  C  C19  1  0.422271  0.279527  0.756385  1
  C  C20  1  0.142745  0.422271  0.243615  1
  C  C21  1  0.720473  0.142745  0.756385  1
