# generated using pymatgen
data_Ho2Tm6Tc3B24Ru
_symmetry_space_group_name_H-M   'P 1'
_cell_length_a   3.64208500
_cell_length_b   9.09401076
_cell_length_c   11.46816300
_cell_angle_alpha   89.91913364
_cell_angle_beta   90.00000000
_cell_angle_gamma   90.00000000
_symmetry_Int_Tables_number   1
_chemical_formula_structural   Ho2Tm6Tc3B24Ru
_chemical_formula_sum   'Ho2 Tm6 Tc3 B24 Ru1'
_cell_volume   379.83848561
_cell_formula_units_Z   1
loop_
 _symmetry_equiv_pos_site_id
 _symmetry_equiv_pos_as_xyz
  1  'x, y, z'
loop_
 _atom_site_type_symbol
 _atom_site_label
 _atom_site_symmetry_multiplicity
 _atom_site_fract_x
 _atom_site_fract_y
 _atom_site_fract_z
 _atom_site_occupancy
  Ho  Ho0  1  0.000000  0.323123  0.413866  1
  Ho  Ho1  1  0.000000  0.675595  0.584163  1
  Tm  Tm2  1  0.000000  0.822662  0.087314  1
  Tm  Tm3  1  0.000000  0.178429  0.914544  1
  Tm  Tm4  1  0.000000  0.942588  0.370224  1
  Tm  Tm5  1  0.000000  0.057699  0.630615  1
  Tm  Tm6  1  0.000000  0.443121  0.129619  1
  Tm  Tm7  1  0.000000  0.557729  0.869622  1
  Tc  Tc8  1  0.000000  0.639024  0.319785  1
  Tc  Tc9  1  0.000000  0.361101  0.680691  1
  Tc  Tc10  1  0.000000  0.138006  0.178151  1
  B  B11  1  0.500000  0.553068  0.432806  1
  B  B12  1  0.500000  0.446605  0.566812  1
  B  B13  1  0.500000  0.052789  0.066340  1
  B  B14  1  0.500000  0.946331  0.933242  1
  B  B15  1  0.500000  0.749331  0.418709  1
  B  B16  1  0.500000  0.249923  0.581430  1
  B  B17  1  0.500000  0.249830  0.080627  1
  B  B18  1  0.500000  0.750953  0.918986  1
  B  B19  1  0.500000  0.792429  0.265058  1
  B  B20  1  0.500000  0.207674  0.735747  1
  B  B21  1  0.500000  0.292157  0.234565  1
  B  B22  1  0.500000  0.708856  0.765274  1
  B  B23  1  0.500000  0.630942  0.184720  1
  B  B24  1  0.500000  0.369182  0.815817  1
  B  B25  1  0.500000  0.129988  0.314472  1
  B  B26  1  0.500000  0.869336  0.685397  1
  B  B27  1  0.500000  0.980928  0.211710  1
  B  B28  1  0.500000  0.017575  0.788457  1
  B  B29  1  0.500000  0.481648  0.287532  1
  B  B30  1  0.500000  0.518297  0.712108  1
  B  B31  1  0.500000  0.601898  0.027915  1
  B  B32  1  0.500000  0.399874  0.971800  1
  B  B33  1  0.500000  0.100410  0.472371  1
  B  B34  1  0.500000  0.899223  0.528433  1
  Ru  Ru35  1  0.000000  0.861678  0.821084  1
