# generated using pymatgen
data_Zr3ZnCu2N
_symmetry_space_group_name_H-M   'P 1'
_cell_length_a   8.50280240
_cell_length_b   8.50280205
_cell_length_c   8.50280300
_cell_angle_alpha   60.00000018
_cell_angle_beta   60.00000157
_cell_angle_gamma   60.00000415
_symmetry_Int_Tables_number   1
_chemical_formula_structural   Zr3ZnCu2N
_chemical_formula_sum   'Zr12 Zn4 Cu8 N4'
_cell_volume   434.68163671
_cell_formula_units_Z   4
loop_
 _symmetry_equiv_pos_site_id
 _symmetry_equiv_pos_as_xyz
  1  'x, y, z'
loop_
 _atom_site_type_symbol
 _atom_site_label
 _atom_site_symmetry_multiplicity
 _atom_site_fract_x
 _atom_site_fract_y
 _atom_site_fract_z
 _atom_site_occupancy
  Zr  Zr0  1  0.810983  0.189017  0.189017  1
  Zr  Zr1  1  0.189017  0.810983  0.189017  1
  Zr  Zr2  1  0.810983  0.810983  0.189017  1
  Zr  Zr3  1  0.189017  0.810983  0.810983  1
  Zr  Zr4  1  0.810983  0.189017  0.810983  1
  Zr  Zr5  1  0.189017  0.189017  0.810983  1
  Zr  Zr6  1  0.439017  0.060983  0.060983  1
  Zr  Zr7  1  0.060983  0.439017  0.060983  1
  Zr  Zr8  1  0.439017  0.439017  0.060983  1
  Zr  Zr9  1  0.060983  0.439017  0.439017  1
  Zr  Zr10  1  0.439017  0.060983  0.439017  1
  Zr  Zr11  1  0.060983  0.060983  0.439017  1
  Zn  Zn12  1  0.625000  0.625000  0.125000  1
  Zn  Zn13  1  0.625000  0.625000  0.625000  1
  Zn  Zn14  1  0.125000  0.625000  0.625000  1
  Zn  Zn15  1  0.625000  0.125000  0.625000  1
  Cu  Cu16  1  0.419017  0.419017  0.742949  1
  Cu  Cu17  1  0.419017  0.419017  0.419017  1
  Cu  Cu18  1  0.742949  0.419017  0.419017  1
  Cu  Cu19  1  0.419017  0.742949  0.419017  1
  Cu  Cu20  1  0.830983  0.830983  0.507051  1
  Cu  Cu21  1  0.830983  0.830983  0.830983  1
  Cu  Cu22  1  0.507051  0.830983  0.830983  1
  Cu  Cu23  1  0.830983  0.507051  0.830983  1
  N  N24  1  0.125000  0.125000  0.625000  1
  N  N25  1  0.125000  0.125000  0.125000  1
  N  N26  1  0.625000  0.125000  0.125000  1
  N  N27  1  0.125000  0.625000  0.125000  1
