# generated using pymatgen
data_Li3Ac8Si13
_symmetry_space_group_name_H-M   'P 1'
_cell_length_a   11.74592112
_cell_length_b   10.06437654
_cell_length_c   8.55987000
_cell_angle_alpha   77.68994309
_cell_angle_beta   56.79358982
_cell_angle_gamma   45.45424482
_symmetry_Int_Tables_number   1
_chemical_formula_structural   Li3Ac8Si13
_chemical_formula_sum   'Li3 Ac8 Si13'
_cell_volume   578.07867270
_cell_formula_units_Z   1
loop_
 _symmetry_equiv_pos_site_id
 _symmetry_equiv_pos_as_xyz
  1  'x, y, z'
loop_
 _atom_site_type_symbol
 _atom_site_label
 _atom_site_symmetry_multiplicity
 _atom_site_fract_x
 _atom_site_fract_y
 _atom_site_fract_z
 _atom_site_occupancy
  Li  Li0  1  0.833152  0.167224  0.832896  1
  Li  Li1  1  0.167156  0.832277  0.167605  1
  Li  Li2  1  0.417359  0.082181  0.416899  1
  Ac  Ac3  1  0.371842  0.378318  0.630520  1
  Ac  Ac4  1  0.630687  0.619527  0.372763  1
  Ac  Ac5  1  0.873625  0.872281  0.626915  1
  Ac  Ac6  1  0.627183  0.627068  0.872776  1
  Ac  Ac7  1  0.882165  0.867094  0.122021  1
  Ac  Ac8  1  0.122641  0.127848  0.881778  1
  Ac  Ac9  1  0.367592  0.377510  0.124081  1
  Ac  Ac10  1  0.124041  0.130417  0.368620  1
  Si  Si11  1  0.664179  0.335184  0.664573  1
  Si  Si12  1  0.335691  0.664273  0.335939  1
  Si  Si13  1  0.584362  0.916233  0.584733  1
  Si  Si14  1  0.916177  0.584137  0.915634  1
  Si  Si15  1  0.336397  0.662772  0.827894  1
  Si  Si16  1  0.176267  0.831283  0.659240  1
  Si  Si17  1  0.827944  0.173555  0.336517  1
  Si  Si18  1  0.659639  0.333170  0.176297  1
  Si  Si19  1  0.916216  0.591232  0.417039  1
  Si  Si20  1  0.077282  0.416058  0.588342  1
  Si  Si21  1  0.417511  0.074690  0.917910  1
  Si  Si22  1  0.588374  0.917897  0.077149  1
  Si  Si23  1  0.082521  0.417771  0.081861  1
