# generated using pymatgen
data_YTm2Sc3FeSb2
_symmetry_space_group_name_H-M   'P 1'
_cell_length_a   7.83210600
_cell_length_b   7.81198719
_cell_length_c   4.11029100
_cell_angle_alpha   90.00000000
_cell_angle_beta   90.00000000
_cell_angle_gamma   120.08523789
_symmetry_Int_Tables_number   1
_chemical_formula_structural   YTm2Sc3FeSb2
_chemical_formula_sum   'Y1 Tm2 Sc3 Fe1 Sb2'
_cell_volume   217.60537488
_cell_formula_units_Z   1
loop_
 _symmetry_equiv_pos_site_id
 _symmetry_equiv_pos_as_xyz
  1  'x, y, z'
loop_
 _atom_site_type_symbol
 _atom_site_label
 _atom_site_symmetry_multiplicity
 _atom_site_fract_x
 _atom_site_fract_y
 _atom_site_fract_z
 _atom_site_occupancy
  Y  Y0  1  0.606187  0.000000  0.500000  1
  Tm  Tm1  1  0.390475  0.390713  0.500000  1
  Tm  Tm2  1  0.999762  0.609287  0.500000  1
  Sc  Sc3  1  0.226991  0.000000  0.000000  1
  Sc  Sc4  1  0.773572  0.771994  0.000000  1
  Sc  Sc5  1  0.001578  0.228006  0.000000  1
  Fe  Fe6  1  0.003387  0.000000  0.500000  1
  Sb  Sb7  1  0.331245  0.664442  0.000000  1
  Sb  Sb8  1  0.666804  0.335558  0.000000  1
