# generated using pymatgen
data_VAg(S2O7)2
_symmetry_space_group_name_H-M   'P 1'
_cell_length_a   5.01220268
_cell_length_b   7.50940244
_cell_length_c   8.84701090
_cell_angle_alpha   91.24959181
_cell_angle_beta   92.92592743
_cell_angle_gamma   103.77808897
_symmetry_Int_Tables_number   1
_chemical_formula_structural   VAg(S2O7)2
_chemical_formula_sum   'V1 Ag1 S4 O14'
_cell_volume   322.78820477
_cell_formula_units_Z   1
loop_
 _symmetry_equiv_pos_site_id
 _symmetry_equiv_pos_as_xyz
  1  'x, y, z'
loop_
 _atom_site_type_symbol
 _atom_site_label
 _atom_site_symmetry_multiplicity
 _atom_site_fract_x
 _atom_site_fract_y
 _atom_site_fract_z
 _atom_site_occupancy
  V  V0  1  0.000000  0.500000  0.000000  1
  Ag  Ag1  1  0.500000  0.000000  0.500000  1
  S  S2  1  0.492347  0.631309  0.779253  1
  S  S3  1  0.507653  0.368691  0.220747  1
  S  S4  1  0.142513  0.263856  0.708882  1
  S  S5  1  0.857487  0.736144  0.291118  1
  O  O6  1  0.683923  0.541455  0.861724  1
  O  O7  1  0.316077  0.458545  0.138276  1
  O  O8  1  0.287919  0.676169  0.879798  1
  O  O9  1  0.712081  0.323831  0.120202  1
  O  O10  1  0.620001  0.780010  0.688780  1
  O  O11  1  0.379999  0.219990  0.311220  1
  O  O12  1  0.318702  0.476403  0.659200  1
  O  O13  1  0.681298  0.523597  0.340800  1
  O  O14  1  0.931782  0.222858  0.588517  1
  O  O15  1  0.068218  0.777142  0.411483  1
  O  O16  1  0.340323  0.152879  0.720497  1
  O  O17  1  0.659677  0.847121  0.279503  1
  O  O18  1  0.039576  0.295287  0.860599  1
  O  O19  1  0.960424  0.704713  0.139401  1
