# generated using pymatgen
data_Sm6Zn17PIr6
_symmetry_space_group_name_H-M   'P 1'
_cell_length_a   8.96147901
_cell_length_b   8.96201690
_cell_length_c   8.96164000
_cell_angle_alpha   59.99588397
_cell_angle_beta   59.99868961
_cell_angle_gamma   59.99282793
_symmetry_Int_Tables_number   1
_chemical_formula_structural   Sm6Zn17PIr6
_chemical_formula_sum   'Sm6 Zn17 P1 Ir6'
_cell_volume   508.88141558
_cell_formula_units_Z   1
loop_
 _symmetry_equiv_pos_site_id
 _symmetry_equiv_pos_as_xyz
  1  'x, y, z'
loop_
 _atom_site_type_symbol
 _atom_site_label
 _atom_site_symmetry_multiplicity
 _atom_site_fract_x
 _atom_site_fract_y
 _atom_site_fract_z
 _atom_site_occupancy
  Sm  Sm0  1  0.719602  0.280377  0.280377  1
  Sm  Sm1  1  0.719666  0.280416  0.719603  1
  Sm  Sm2  1  0.719658  0.719596  0.280422  1
  Sm  Sm3  1  0.280398  0.719623  0.719623  1
  Sm  Sm4  1  0.280334  0.719584  0.280397  1
  Sm  Sm5  1  0.280342  0.280404  0.719578  1
  Zn  Zn6  1  0.623270  0.125560  0.125598  1
  Zn  Zn7  1  0.125551  0.623289  0.125582  1
  Zn  Zn8  1  0.125584  0.125575  0.623292  1
  Zn  Zn9  1  0.125573  0.125589  0.125570  1
  Zn  Zn10  1  0.376730  0.874440  0.874402  1
  Zn  Zn11  1  0.874449  0.376711  0.874418  1
  Zn  Zn12  1  0.874416  0.874425  0.376708  1
  Zn  Zn13  1  0.874427  0.874411  0.874430  1
  Zn  Zn14  1  0.000000  0.000000  0.000000  1
  Zn  Zn15  1  0.009354  0.330219  0.330220  1
  Zn  Zn16  1  0.330214  0.009364  0.330216  1
  Zn  Zn17  1  0.330208  0.330210  0.009371  1
  Zn  Zn18  1  0.330212  0.330217  0.330230  1
  Zn  Zn19  1  0.990646  0.669781  0.669780  1
  Zn  Zn20  1  0.669786  0.990636  0.669784  1
  Zn  Zn21  1  0.669792  0.669790  0.990629  1
  Zn  Zn22  1  0.669788  0.669783  0.669770  1
  P  P23  1  0.500000  0.500000  0.500000  1
  Ir  Ir24  1  0.500000  0.000000  0.000000  1
  Ir  Ir25  1  0.500000  0.000000  0.500000  1
  Ir  Ir26  1  0.500000  0.500000  0.000000  1
  Ir  Ir27  1  0.000000  0.500000  0.500000  1
  Ir  Ir28  1  0.000000  0.500000  0.000000  1
  Ir  Ir29  1  0.000000  0.000000  0.500000  1
