# generated using pymatgen
data_SmPu5F18
_symmetry_space_group_name_H-M   'P 1'
_cell_length_a   7.13466500
_cell_length_b   7.12971349
_cell_length_c   7.17202700
_cell_angle_alpha   88.90120777
_cell_angle_beta   90.00000000
_cell_angle_gamma   120.02297155
_symmetry_Int_Tables_number   1
_chemical_formula_structural   SmPu5F18
_chemical_formula_sum   'Sm1 Pu5 F18'
_cell_volume   315.79924754
_cell_formula_units_Z   1
loop_
 _symmetry_equiv_pos_site_id
 _symmetry_equiv_pos_as_xyz
  1  'x, y, z'
loop_
 _atom_site_type_symbol
 _atom_site_label
 _atom_site_symmetry_multiplicity
 _atom_site_fract_x
 _atom_site_fract_y
 _atom_site_fract_z
 _atom_site_occupancy
  Sm  Sm0  1  0.347826  0.000000  0.250000  1
  Pu  Pu1  1  0.656042  0.000000  0.750000  1
  Pu  Pu2  1  0.341111  0.339084  0.751666  1
  Pu  Pu3  1  0.002027  0.660916  0.748334  1
  Pu  Pu4  1  0.659574  0.659565  0.249601  1
  Pu  Pu5  1  0.000008  0.340435  0.250399  1
  F  F6  1  0.307041  0.943680  0.923646  1
  F  F7  1  0.629670  0.688423  0.920971  1
  F  F8  1  0.060273  0.368014  0.923329  1
  F  F9  1  0.312075  0.375203  0.423223  1
  F  F10  1  0.065295  0.694804  0.418077  1
  F  F11  1  0.628817  0.943495  0.420391  1
  F  F12  1  0.685322  0.056505  0.079609  1
  F  F13  1  0.370491  0.305196  0.081923  1
  F  F14  1  0.936872  0.624797  0.076777  1
  F  F15  1  0.692259  0.631986  0.576671  1
  F  F16  1  0.941247  0.311577  0.579029  1
  F  F17  1  0.363360  0.056320  0.576354  1
  F  F18  1  0.666763  0.332892  0.810358  1
  F  F19  1  0.662400  0.328127  0.313926  1
  F  F20  1  0.334272  0.671873  0.186074  1
  F  F21  1  0.333871  0.667108  0.689642  1
  F  F22  1  0.997027  0.000000  0.750000  1
  F  F23  1  0.006359  0.000000  0.250000  1
