# generated using pymatgen
data_Pr3U2P12Ru19
_symmetry_space_group_name_H-M   'P 1'
_cell_length_a   12.64977565
_cell_length_b   12.64977570
_cell_length_c   3.97396000
_cell_angle_alpha   90.00000000
_cell_angle_beta   90.00000000
_cell_angle_gamma   119.94140482
_symmetry_Int_Tables_number   1
_chemical_formula_structural   Pr3U2P12Ru19
_chemical_formula_sum   'Pr3 U2 P12 Ru19'
_cell_volume   551.03082583
_cell_formula_units_Z   1
loop_
 _symmetry_equiv_pos_site_id
 _symmetry_equiv_pos_as_xyz
  1  'x, y, z'
loop_
 _atom_site_type_symbol
 _atom_site_label
 _atom_site_symmetry_multiplicity
 _atom_site_fract_x
 _atom_site_fract_y
 _atom_site_fract_z
 _atom_site_occupancy
  Pr  Pr0  1  0.189168  0.189168  0.500000  1
  Pr  Pr1  1  0.334136  0.668479  0.000000  1
  Pr  Pr2  1  0.668479  0.334136  0.000000  1
  U  U3  1  0.816847  0.001620  0.500000  1
  U  U4  1  0.001620  0.816847  0.500000  1
  P  P5  1  0.184540  0.002046  0.000000  1
  P  P6  1  0.002046  0.184540  0.000000  1
  P  P7  1  0.814899  0.814899  0.000000  1
  P  P8  1  0.523838  0.692211  0.500000  1
  P  P9  1  0.307634  0.830232  0.500000  1
  P  P10  1  0.169460  0.476349  0.500000  1
  P  P11  1  0.476349  0.169460  0.500000  1
  P  P12  1  0.692211  0.523838  0.500000  1
  P  P13  1  0.830232  0.307634  0.500000  1
  P  P14  1  0.624055  0.998904  0.000000  1
  P  P15  1  0.998904  0.624055  0.000000  1
  P  P16  1  0.376450  0.376450  0.000000  1
  Ru  Ru17  1  0.440929  0.994582  0.000000  1
  Ru  Ru18  1  0.994582  0.440929  0.000000  1
  Ru  Ru19  1  0.557918  0.557918  0.000000  1
  Ru  Ru20  1  0.280292  0.996363  0.500000  1
  Ru  Ru21  1  0.996363  0.280292  0.500000  1
  Ru  Ru22  1  0.719411  0.719411  0.500000  1
  Ru  Ru23  1  0.631761  0.814657  0.000000  1
  Ru  Ru24  1  0.182869  0.815625  0.000000  1
  Ru  Ru25  1  0.181987  0.378468  0.000000  1
  Ru  Ru26  1  0.378468  0.181987  0.000000  1
  Ru  Ru27  1  0.814657  0.631761  0.000000  1
  Ru  Ru28  1  0.815625  0.182869  0.000000  1
  Ru  Ru29  1  0.511478  0.874360  0.500000  1
  Ru  Ru30  1  0.123525  0.634841  0.500000  1
  Ru  Ru31  1  0.366228  0.490336  0.500000  1
  Ru  Ru32  1  0.490336  0.366228  0.500000  1
  Ru  Ru33  1  0.874360  0.511478  0.500000  1
  Ru  Ru34  1  0.634841  0.123525  0.500000  1
  Ru  Ru35  1  0.993502  0.993502  0.000000  1
