# generated using pymatgen
data_Cs3Sc2Bi3
_symmetry_space_group_name_H-M   'P 1'
_cell_length_a   7.20727800
_cell_length_b   8.67265617
_cell_length_c   12.73846866
_cell_angle_alpha   69.48023615
_cell_angle_beta   90.00000000
_cell_angle_gamma   90.00000000
_symmetry_Int_Tables_number   1
_chemical_formula_structural   Cs3Sc2Bi3
_chemical_formula_sum   'Cs6 Sc4 Bi6'
_cell_volume   745.71385426
_cell_formula_units_Z   2
loop_
 _symmetry_equiv_pos_site_id
 _symmetry_equiv_pos_as_xyz
  1  'x, y, z'
loop_
 _atom_site_type_symbol
 _atom_site_label
 _atom_site_symmetry_multiplicity
 _atom_site_fract_x
 _atom_site_fract_y
 _atom_site_fract_z
 _atom_site_occupancy
  Cs  Cs0  1  0.250000  0.438600  0.424869  1
  Cs  Cs1  1  0.750000  0.137312  0.926226  1
  Cs  Cs2  1  0.750000  0.480759  0.143566  1
  Cs  Cs3  1  0.250000  0.519241  0.856434  1
  Cs  Cs4  1  0.750000  0.561400  0.575131  1
  Cs  Cs5  1  0.250000  0.862688  0.073774  1
  Sc  Sc6  1  0.001621  0.024956  0.341391  1
  Sc  Sc7  1  0.501621  0.975044  0.658609  1
  Sc  Sc8  1  0.498379  0.024956  0.341391  1
  Sc  Sc9  1  0.998379  0.975044  0.658609  1
  Bi  Bi10  1  0.250000  0.827498  0.529922  1
  Bi  Bi11  1  0.750000  0.172502  0.470078  1
  Bi  Bi12  1  0.250000  0.251862  0.178844  1
  Bi  Bi13  1  0.750000  0.748138  0.821156  1
  Bi  Bi14  1  0.250000  0.151670  0.753815  1
  Bi  Bi15  1  0.750000  0.848330  0.246185  1
