# generated using pymatgen
data_Fe3Sb11AuSe
_symmetry_space_group_name_H-M   'P 1'
_cell_length_a   7.96516852
_cell_length_b   7.99798718
_cell_length_c   8.00203711
_cell_angle_alpha   109.57802449
_cell_angle_beta   108.92180559
_cell_angle_gamma   110.14658882
_symmetry_Int_Tables_number   1
_chemical_formula_structural   Fe3Sb11AuSe
_chemical_formula_sum   'Fe3 Sb11 Au1 Se1'
_cell_volume   391.25805440
_cell_formula_units_Z   1
loop_
 _symmetry_equiv_pos_site_id
 _symmetry_equiv_pos_as_xyz
  1  'x, y, z'
loop_
 _atom_site_type_symbol
 _atom_site_label
 _atom_site_symmetry_multiplicity
 _atom_site_fract_x
 _atom_site_fract_y
 _atom_site_fract_z
 _atom_site_occupancy
  Fe  Fe0  1  0.500601  0.997264  0.998889  1
  Fe  Fe1  1  0.990100  0.996524  0.501819  1
  Fe  Fe2  1  0.002861  0.500548  0.000304  1
  Sb  Sb3  1  0.858617  0.496699  0.668383  1
  Sb  Sb4  1  0.502572  0.667833  0.860534  1
  Sb  Sb5  1  0.676358  0.159628  0.833719  1
  Sb  Sb6  1  0.839113  0.167818  0.328130  1
  Sb  Sb7  1  0.159915  0.831261  0.671487  1
  Sb  Sb8  1  0.169193  0.326915  0.840789  1
  Sb  Sb9  1  0.141579  0.501837  0.331502  1
  Sb  Sb10  1  0.328633  0.137062  0.500809  1
  Sb  Sb11  1  0.498051  0.328107  0.138824  1
  Sb  Sb12  1  0.318929  0.841610  0.158314  1
  Sb  Sb13  1  0.831845  0.671048  0.160309  1
  Au  Au14  1  0.503466  0.505661  0.500509  1
  Se  Se15  1  0.678168  0.870184  0.505678  1
