# generated using pymatgen
data_Ca3Y2Lu(Si3Ru)8
_symmetry_space_group_name_H-M   'P 1'
_cell_length_a   10.14805820
_cell_length_b   10.14805860
_cell_length_c   8.13857414
_cell_angle_alpha   89.99428743
_cell_angle_beta   89.99428479
_cell_angle_gamma   132.70329465
_symmetry_Int_Tables_number   1
_chemical_formula_structural   Ca3Y2Lu(Si3Ru)8
_chemical_formula_sum   'Ca3 Y2 Lu1 Si24 Ru8'
_cell_volume   615.92531348
_cell_formula_units_Z   1
loop_
 _symmetry_equiv_pos_site_id
 _symmetry_equiv_pos_as_xyz
  1  'x, y, z'
loop_
 _atom_site_type_symbol
 _atom_site_label
 _atom_site_symmetry_multiplicity
 _atom_site_fract_x
 _atom_site_fract_y
 _atom_site_fract_z
 _atom_site_occupancy
  Ca  Ca0  1  0.000089  0.999911  0.000000  1
  Ca  Ca1  1  0.001188  0.501044  0.249814  1
  Ca  Ca2  1  0.498956  0.998812  0.750186  1
  Y  Y3  1  0.998236  0.498288  0.750161  1
  Y  Y4  1  0.501712  0.001764  0.249839  1
  Lu  Lu5  1  0.499969  0.500031  0.500000  1
  Si  Si6  1  0.295016  0.704984  0.000000  1
  Si  Si7  1  0.794171  0.205829  0.500000  1
  Si  Si8  1  0.705528  0.294472  0.000000  1
  Si  Si9  1  0.205348  0.794652  0.500000  1
  Si  Si10  1  0.831187  0.836566  0.332202  1
  Si  Si11  1  0.163434  0.168813  0.667798  1
  Si  Si12  1  0.670013  0.664832  0.833645  1
  Si  Si13  1  0.335168  0.329987  0.166355  1
  Si  Si14  1  0.622845  0.389837  0.228464  1
  Si  Si15  1  0.610163  0.377155  0.771536  1
  Si  Si16  1  0.108818  0.875880  0.729246  1
  Si  Si17  1  0.124120  0.891182  0.270754  1
  Si  Si18  1  0.375473  0.608467  0.771464  1
  Si  Si19  1  0.391533  0.624527  0.228536  1
  Si  Si20  1  0.889653  0.122749  0.270655  1
  Si  Si21  1  0.877251  0.110347  0.729345  1
  Si  Si22  1  0.846025  0.612785  0.005282  1
  Si  Si23  1  0.387215  0.153975  0.994718  1
  Si  Si24  1  0.888084  0.655257  0.506691  1
  Si  Si25  1  0.344743  0.111916  0.493309  1
  Si  Si26  1  0.153948  0.386534  0.992524  1
  Si  Si27  1  0.613466  0.846052  0.007476  1
  Si  Si28  1  0.111296  0.344639  0.496059  1
  Si  Si29  1  0.655361  0.888704  0.503941  1
  Ru  Ru30  1  0.170617  0.829383  0.000000  1
  Ru  Ru31  1  0.668235  0.331765  0.500000  1
  Ru  Ru32  1  0.830199  0.169801  0.000000  1
  Ru  Ru33  1  0.330887  0.669113  0.500000  1
  Ru  Ru34  1  0.624222  0.625014  0.128147  1
  Ru  Ru35  1  0.374986  0.375778  0.871853  1
  Ru  Ru36  1  0.871947  0.871100  0.624398  1
  Ru  Ru37  1  0.128900  0.128053  0.375602  1
