# generated using pymatgen
data_Cs6Dy2Ta3VS16
_symmetry_space_group_name_H-M   'P 1'
_cell_length_a   9.81403486
_cell_length_b   10.80038718
_cell_length_c   11.44608546
_cell_angle_alpha   107.20213847
_cell_angle_beta   104.13798298
_cell_angle_gamma   113.41021788
_symmetry_Int_Tables_number   1
_chemical_formula_structural   Cs6Dy2Ta3VS16
_chemical_formula_sum   'Cs6 Dy2 Ta3 V1 S16'
_cell_volume   968.77591573
_cell_formula_units_Z   1
loop_
 _symmetry_equiv_pos_site_id
 _symmetry_equiv_pos_as_xyz
  1  'x, y, z'
loop_
 _atom_site_type_symbol
 _atom_site_label
 _atom_site_symmetry_multiplicity
 _atom_site_fract_x
 _atom_site_fract_y
 _atom_site_fract_z
 _atom_site_occupancy
  Cs  Cs0  1  0.999929  0.500159  0.001826  1
  Cs  Cs1  1  0.501254  0.498426  0.001512  1
  Cs  Cs2  1  0.271819  0.020225  0.036424  1
  Cs  Cs3  1  0.481313  0.730535  0.465183  1
  Cs  Cs4  1  0.518175  0.267309  0.529934  1
  Cs  Cs5  1  0.736404  0.989875  0.973731  1
  Dy  Dy6  1  0.998352  0.253877  0.497253  1
  Dy  Dy7  1  0.996161  0.742591  0.498237  1
  Ta  Ta8  1  0.999014  0.908032  0.265183  1
  Ta  Ta9  1  0.998123  0.089115  0.731887  1
  Ta  Ta10  1  0.236224  0.645432  0.735870  1
  V  V11  1  0.768025  0.358683  0.267780  1
  S  S12  1  0.664318  0.282242  0.056113  1
  S  S13  1  0.886446  0.767987  0.040573  1
  S  S14  1  0.109652  0.159142  0.309152  1
  S  S15  1  0.701653  0.161464  0.308581  1
  S  S16  1  0.028580  0.495584  0.351292  1
  S  S17  1  0.810115  0.843408  0.350638  1
  S  S18  1  0.188166  0.855615  0.364960  1
  S  S19  1  0.678801  0.497514  0.361018  1
  S  S20  1  0.323527  0.494826  0.632234  1
  S  S21  1  0.807403  0.139063  0.630327  1
  S  S22  1  0.186413  0.153863  0.646263  1
  S  S23  1  0.961428  0.498837  0.649540  1
  S  S24  1  0.301357  0.850621  0.689276  1
  S  S25  1  0.887460  0.837967  0.687822  1
  S  S26  1  0.111501  0.230595  0.956719  1
  S  S27  1  0.348381  0.727009  0.960668  1
