# generated using pymatgen
data_Sr6FeRuN6
_symmetry_space_group_name_H-M   'P 1'
_cell_length_a   7.74588900
_cell_length_b   7.74588955
_cell_length_c   5.32152000
_cell_angle_alpha   90.00000000
_cell_angle_beta   90.00000000
_cell_angle_gamma   120.00000190
_symmetry_Int_Tables_number   1
_chemical_formula_structural   Sr6FeRuN6
_chemical_formula_sum   'Sr6 Fe1 Ru1 N6'
_cell_volume   276.50875800
_cell_formula_units_Z   1
loop_
 _symmetry_equiv_pos_site_id
 _symmetry_equiv_pos_as_xyz
  1  'x, y, z'
loop_
 _atom_site_type_symbol
 _atom_site_label
 _atom_site_symmetry_multiplicity
 _atom_site_fract_x
 _atom_site_fract_y
 _atom_site_fract_z
 _atom_site_occupancy
  Sr  Sr0  1  0.734154  0.092598  0.250000  1
  Sr  Sr1  1  0.639362  0.721948  0.750000  1
  Sr  Sr2  1  0.082586  0.360638  0.750000  1
  Sr  Sr3  1  0.907402  0.641557  0.250000  1
  Sr  Sr4  1  0.358443  0.265846  0.250000  1
  Sr  Sr5  1  0.278052  0.917414  0.750000  1
  Fe  Fe6  1  0.666667  0.333333  0.750000  1
  Ru  Ru7  1  0.333333  0.666667  0.250000  1
  N  N8  1  0.688341  0.119163  0.750000  1
  N  N9  1  0.586770  0.692582  0.250000  1
  N  N10  1  0.105812  0.413230  0.250000  1
  N  N11  1  0.880837  0.569178  0.750000  1
  N  N12  1  0.430822  0.311659  0.750000  1
  N  N13  1  0.307418  0.894188  0.250000  1
