# generated using pymatgen
data_Tb3Er5(CdPt)2
_symmetry_space_group_name_H-M   'P 1'
_cell_length_a   9.64310397
_cell_length_b   9.64310354
_cell_length_c   9.64310500
_cell_angle_alpha   59.99999841
_cell_angle_beta   59.99999990
_cell_angle_gamma   60.00000043
_symmetry_Int_Tables_number   1
_chemical_formula_structural   Tb3Er5(CdPt)2
_chemical_formula_sum   'Tb6 Er10 Cd4 Pt4'
_cell_volume   634.06761568
_cell_formula_units_Z   2
loop_
 _symmetry_equiv_pos_site_id
 _symmetry_equiv_pos_as_xyz
  1  'x, y, z'
loop_
 _atom_site_type_symbol
 _atom_site_label
 _atom_site_symmetry_multiplicity
 _atom_site_fract_x
 _atom_site_fract_y
 _atom_site_fract_z
 _atom_site_occupancy
  Tb  Tb0  1  0.935733  0.564267  0.564267  1
  Tb  Tb1  1  0.564267  0.935733  0.935733  1
  Tb  Tb2  1  0.564267  0.935733  0.564267  1
  Tb  Tb3  1  0.935733  0.564267  0.935733  1
  Tb  Tb4  1  0.564267  0.564267  0.935733  1
  Tb  Tb5  1  0.935733  0.935733  0.564267  1
  Er  Er6  1  0.351652  0.351652  0.351652  1
  Er  Er7  1  0.351652  0.351652  0.945044  1
  Er  Er8  1  0.351652  0.945044  0.351652  1
  Er  Er9  1  0.945044  0.351652  0.351652  1
  Er  Er10  1  0.810445  0.189555  0.189555  1
  Er  Er11  1  0.189555  0.810445  0.810445  1
  Er  Er12  1  0.189555  0.810445  0.189555  1
  Er  Er13  1  0.810445  0.189555  0.810445  1
  Er  Er14  1  0.189555  0.189555  0.810445  1
  Er  Er15  1  0.810445  0.810445  0.189555  1
  Cd  Cd16  1  0.581482  0.581482  0.581482  1
  Cd  Cd17  1  0.581482  0.581482  0.255553  1
  Cd  Cd18  1  0.581482  0.255553  0.581482  1
  Cd  Cd19  1  0.255553  0.581482  0.581482  1
  Pt  Pt20  1  0.142990  0.142990  0.142990  1
  Pt  Pt21  1  0.142990  0.142990  0.571030  1
  Pt  Pt22  1  0.142990  0.571030  0.142990  1
  Pt  Pt23  1  0.571030  0.142990  0.142990  1
