# generated using pymatgen
data_PrGd(Al3Ir)3
_symmetry_space_group_name_H-M   'P 1'
_cell_length_a   7.65008900
_cell_length_b   7.64308389
_cell_length_c   9.45839500
_cell_angle_alpha   90.00000000
_cell_angle_beta   90.00000000
_cell_angle_gamma   119.62751418
_symmetry_Int_Tables_number   1
_chemical_formula_structural   PrGd(Al3Ir)3
_chemical_formula_sum   'Pr2 Gd2 Al18 Ir6'
_cell_volume   480.72983191
_cell_formula_units_Z   2
loop_
 _symmetry_equiv_pos_site_id
 _symmetry_equiv_pos_as_xyz
  1  'x, y, z'
loop_
 _atom_site_type_symbol
 _atom_site_label
 _atom_site_symmetry_multiplicity
 _atom_site_fract_x
 _atom_site_fract_y
 _atom_site_fract_z
 _atom_site_occupancy
  Pr  Pr0  1  0.670948  0.994220  0.250000  1
  Pr  Pr1  1  0.329052  0.005780  0.750000  1
  Gd  Gd2  1  0.994513  0.670872  0.250000  1
  Gd  Gd3  1  0.005487  0.329128  0.750000  1
  Al  Al4  1  0.131069  0.129847  0.250000  1
  Al  Al5  1  0.868931  0.870153  0.750000  1
  Al  Al6  1  0.002191  0.336569  0.073043  1
  Al  Al7  1  0.997809  0.663431  0.926957  1
  Al  Al8  1  0.997809  0.663431  0.573043  1
  Al  Al9  1  0.333859  0.001216  0.424843  1
  Al  Al10  1  0.002191  0.336569  0.426957  1
  Al  Al11  1  0.666141  0.998784  0.575157  1
  Al  Al12  1  0.666141  0.998784  0.924843  1
  Al  Al13  1  0.333859  0.001216  0.075157  1
  Al  Al14  1  0.333011  0.334243  0.546986  1
  Al  Al15  1  0.666989  0.665757  0.453014  1
  Al  Al16  1  0.666989  0.665757  0.046986  1
  Al  Al17  1  0.333011  0.334243  0.953014  1
  Al  Al18  1  0.337474  0.545476  0.250000  1
  Al  Al19  1  0.662526  0.454524  0.750000  1
  Al  Al20  1  0.548854  0.343086  0.250000  1
  Al  Al21  1  0.451146  0.656914  0.750000  1
  Ir  Ir22  1  0.671887  0.328933  0.000091  1
  Ir  Ir23  1  0.328113  0.671067  0.999909  1
  Ir  Ir24  1  0.328113  0.671067  0.500091  1
  Ir  Ir25  1  0.671887  0.328933  0.499909  1
  Ir  Ir26  1  0.000000  0.000000  0.000000  1
  Ir  Ir27  1  0.000000  0.000000  0.500000  1
