# generated using pymatgen
data_Gd5(ReB3)2
_symmetry_space_group_name_H-M   'P 1'
_cell_length_a   5.56831279
_cell_length_b   5.56831227
_cell_length_c   8.57552600
_cell_angle_alpha   71.05484043
_cell_angle_beta   71.05484227
_cell_angle_gamma   60.00000177
_symmetry_Int_Tables_number   1
_chemical_formula_structural   Gd5(ReB3)2
_chemical_formula_sum   'Gd5 Re2 B6'
_cell_volume   213.47699964
_cell_formula_units_Z   1
loop_
 _symmetry_equiv_pos_site_id
 _symmetry_equiv_pos_as_xyz
  1  'x, y, z'
loop_
 _atom_site_type_symbol
 _atom_site_label
 _atom_site_symmetry_multiplicity
 _atom_site_fract_x
 _atom_site_fract_y
 _atom_site_fract_z
 _atom_site_occupancy
  Gd  Gd0  1  0.000000  0.000000  0.000000  1
  Gd  Gd1  1  0.751010  0.751010  0.746970  1
  Gd  Gd2  1  0.248990  0.248990  0.253030  1
  Gd  Gd3  1  0.581892  0.581892  0.254323  1
  Gd  Gd4  1  0.418108  0.418108  0.745677  1
  Re  Re5  1  0.887450  0.887450  0.337652  1
  Re  Re6  1  0.112550  0.112550  0.662348  1
  B  B7  1  0.500000  0.170858  0.500000  1
  B  B8  1  0.829142  0.500000  0.500000  1
  B  B9  1  0.170858  0.829142  0.500000  1
  B  B10  1  0.170858  0.500000  0.500000  1
  B  B11  1  0.829142  0.170858  0.500000  1
  B  B12  1  0.500000  0.829142  0.500000  1
