# generated using pymatgen
data_Pr2Sc3(SnPb)2
_symmetry_space_group_name_H-M   'P 1'
_cell_length_a   7.94346700
_cell_length_b   8.21142500
_cell_length_c   15.31304100
_cell_angle_alpha   90.00000000
_cell_angle_beta   90.00000000
_cell_angle_gamma   90.00000000
_symmetry_Int_Tables_number   1
_chemical_formula_structural   Pr2Sc3(SnPb)2
_chemical_formula_sum   'Pr8 Sc12 Sn8 Pb8'
_cell_volume   998.82653541
_cell_formula_units_Z   4
loop_
 _symmetry_equiv_pos_site_id
 _symmetry_equiv_pos_as_xyz
  1  'x, y, z'
loop_
 _atom_site_type_symbol
 _atom_site_label
 _atom_site_symmetry_multiplicity
 _atom_site_fract_x
 _atom_site_fract_y
 _atom_site_fract_z
 _atom_site_occupancy
  Pr  Pr0  1  0.992694  0.176316  0.097337  1
  Pr  Pr1  1  0.007306  0.823684  0.902663  1
  Pr  Pr2  1  0.507306  0.676316  0.902663  1
  Pr  Pr3  1  0.007306  0.823684  0.597337  1
  Pr  Pr4  1  0.492694  0.323684  0.097337  1
  Pr  Pr5  1  0.992694  0.176316  0.402663  1
  Pr  Pr6  1  0.492694  0.323684  0.402663  1
  Pr  Pr7  1  0.507306  0.676316  0.597337  1
  Sc  Sc8  1  0.165383  0.494469  0.750000  1
  Sc  Sc9  1  0.834617  0.505531  0.250000  1
  Sc  Sc10  1  0.334617  0.994469  0.250000  1
  Sc  Sc11  1  0.665383  0.005531  0.750000  1
  Sc  Sc12  1  0.337466  0.158824  0.630513  1
  Sc  Sc13  1  0.662534  0.841176  0.369487  1
  Sc  Sc14  1  0.162534  0.658824  0.369487  1
  Sc  Sc15  1  0.662534  0.841176  0.130513  1
  Sc  Sc16  1  0.837466  0.341176  0.630513  1
  Sc  Sc17  1  0.337466  0.158824  0.869487  1
  Sc  Sc18  1  0.837466  0.341176  0.869487  1
  Sc  Sc19  1  0.162534  0.658824  0.130513  1
  Sn  Sn20  1  0.027341  0.130006  0.750000  1
  Sn  Sn21  1  0.972659  0.869994  0.250000  1
  Sn  Sn22  1  0.472659  0.630006  0.250000  1
  Sn  Sn23  1  0.527341  0.369994  0.750000  1
  Sn  Sn24  1  0.309535  0.854918  0.750000  1
  Sn  Sn25  1  0.690465  0.145082  0.250000  1
  Sn  Sn26  1  0.190465  0.354918  0.250000  1
  Sn  Sn27  1  0.809535  0.645082  0.750000  1
  Pb  Pb28  1  0.180968  0.453319  0.543783  1
  Pb  Pb29  1  0.819032  0.546681  0.456217  1
  Pb  Pb30  1  0.319032  0.953319  0.456217  1
  Pb  Pb31  1  0.819032  0.546681  0.043783  1
  Pb  Pb32  1  0.680968  0.046681  0.543783  1
  Pb  Pb33  1  0.180968  0.453319  0.956217  1
  Pb  Pb34  1  0.680968  0.046681  0.956217  1
  Pb  Pb35  1  0.319032  0.953319  0.043783  1
