# generated using pymatgen
data_AlNi(AuO2)2
_symmetry_space_group_name_H-M   'P 1'
_cell_length_a   2.96502528
_cell_length_b   5.24176602
_cell_length_c   6.30520584
_cell_angle_alpha   82.39857522
_cell_angle_beta   76.39386882
_cell_angle_gamma   89.96664831
_symmetry_Int_Tables_number   1
_chemical_formula_structural   AlNi(AuO2)2
_chemical_formula_sum   'Al1 Ni1 Au2 O4'
_cell_volume   94.36072772
_cell_formula_units_Z   1
loop_
 _symmetry_equiv_pos_site_id
 _symmetry_equiv_pos_as_xyz
  1  'x, y, z'
loop_
 _atom_site_type_symbol
 _atom_site_label
 _atom_site_symmetry_multiplicity
 _atom_site_fract_x
 _atom_site_fract_y
 _atom_site_fract_z
 _atom_site_occupancy
  Al  Al0  1  0.750001  0.250019  0.499999  1
  Ni  Ni1  1  0.250015  0.749880  0.500040  1
  Au  Au2  1  0.499243  0.492045  0.999043  1
  Au  Au3  1  0.000750  0.007981  0.000944  1
  O  O4  1  0.169358  0.073979  0.662409  1
  O  O5  1  0.667549  0.538630  0.663953  1
  O  O6  1  0.330647  0.426048  0.337578  1
  O  O7  1  0.832440  0.961416  0.336032  1
