# generated using pymatgen
data_CsV4Tc2Te7
_symmetry_space_group_name_H-M   'P 1'
_cell_length_a   10.31290683
_cell_length_b   10.26883168
_cell_length_c   10.28572780
_cell_angle_alpha   61.56374093
_cell_angle_beta   61.38643593
_cell_angle_gamma   61.57063023
_symmetry_Int_Tables_number   1
_chemical_formula_structural   CsV4Tc2Te7
_chemical_formula_sum   'Cs2 V8 Tc4 Te14'
_cell_volume   796.28130023
_cell_formula_units_Z   2
loop_
 _symmetry_equiv_pos_site_id
 _symmetry_equiv_pos_as_xyz
  1  'x, y, z'
loop_
 _atom_site_type_symbol
 _atom_site_label
 _atom_site_symmetry_multiplicity
 _atom_site_fract_x
 _atom_site_fract_y
 _atom_site_fract_z
 _atom_site_occupancy
  Cs  Cs0  1  0.615837  0.619514  0.616366  1
  Cs  Cs1  1  0.379138  0.380770  0.378765  1
  V  V2  1  0.697677  0.876127  0.012270  1
  V  V3  1  0.014988  0.696279  0.876966  1
  V  V4  1  0.877671  0.011778  0.697489  1
  V  V5  1  0.286869  0.116291  0.001837  1
  V  V6  1  0.002565  0.283954  0.118804  1
  V  V7  1  0.119903  0.997720  0.287071  1
  V  V8  1  0.945274  0.821387  0.099864  1
  V  V9  1  0.100383  0.946039  0.820861  1
  Tc  Tc10  1  0.817613  0.100677  0.943821  1
  Tc  Tc11  1  0.057208  0.185006  0.895505  1
  Tc  Tc12  1  0.894780  0.057602  0.185076  1
  Tc  Tc13  1  0.184642  0.893285  0.057235  1
  Te  Te14  1  0.418334  0.809511  0.168485  1
  Te  Te15  1  0.171900  0.415835  0.812377  1
  Te  Te16  1  0.812660  0.168147  0.418279  1
  Te  Te17  1  0.579642  0.181576  0.841157  1
  Te  Te18  1  0.843868  0.580143  0.182202  1
  Te  Te19  1  0.182041  0.845306  0.580051  1
  Te  Te20  1  0.638394  0.987827  0.243699  1
  Te  Te21  1  0.245818  0.640678  0.981054  1
  Te  Te22  1  0.977045  0.248786  0.643466  1
  Te  Te23  1  0.356545  0.018542  0.760700  1
  Te  Te24  1  0.759448  0.356973  0.016460  1
  Te  Te25  1  0.015687  0.761073  0.357548  1
  Te  Te26  1  0.780804  0.775865  0.777950  1
  Te  Te27  1  0.223267  0.223310  0.224641  1
