# generated using pymatgen
data_Tb10Al3ZnRu6
_symmetry_space_group_name_H-M   'P 1'
_cell_length_a   8.37094940
_cell_length_b   8.37094887
_cell_length_c   8.37094803
_cell_angle_alpha   109.61997878
_cell_angle_beta   109.61997466
_cell_angle_gamma   109.61998629
_symmetry_Int_Tables_number   1
_chemical_formula_structural   Tb10Al3ZnRu6
_chemical_formula_sum   'Tb10 Al3 Zn1 Ru6'
_cell_volume   449.04198753
_cell_formula_units_Z   1
loop_
 _symmetry_equiv_pos_site_id
 _symmetry_equiv_pos_as_xyz
  1  'x, y, z'
loop_
 _atom_site_type_symbol
 _atom_site_label
 _atom_site_symmetry_multiplicity
 _atom_site_fract_x
 _atom_site_fract_y
 _atom_site_fract_z
 _atom_site_occupancy
  Tb  Tb0  1  0.251678  0.682575  0.433802  1
  Tb  Tb1  1  0.747786  0.816545  0.066080  1
  Tb  Tb2  1  0.433802  0.251678  0.682575  1
  Tb  Tb3  1  0.682575  0.433802  0.251678  1
  Tb  Tb4  1  0.066080  0.747786  0.816545  1
  Tb  Tb5  1  0.816545  0.066080  0.747786  1
  Tb  Tb6  1  0.217293  0.217293  0.217293  1
  Tb  Tb7  1  0.500365  0.000070  0.284834  1
  Tb  Tb8  1  0.284834  0.500365  0.000070  1
  Tb  Tb9  1  0.000070  0.284834  0.500365  1
  Al  Al10  1  0.499402  0.001280  0.910575  1
  Al  Al11  1  0.910575  0.499402  0.001280  1
  Al  Al12  1  0.001280  0.910575  0.499402  1
  Zn  Zn13  1  0.587246  0.587246  0.587246  1
  Ru  Ru14  1  0.249783  0.121941  0.872616  1
  Ru  Ru15  1  0.753628  0.372798  0.629707  1
  Ru  Ru16  1  0.872615  0.249783  0.121941  1
  Ru  Ru17  1  0.121941  0.872615  0.249783  1
  Ru  Ru18  1  0.629707  0.753628  0.372798  1
  Ru  Ru19  1  0.372798  0.629707  0.753628  1
