# generated using pymatgen
data_Tm12Co4AgRh
_symmetry_space_group_name_H-M   'P 1'
_cell_length_a   8.14795341
_cell_length_b   8.14795339
_cell_length_c   8.14795356
_cell_angle_alpha   110.92972389
_cell_angle_beta   110.77556920
_cell_angle_gamma   106.74238122
_symmetry_Int_Tables_number   1
_chemical_formula_structural   Tm12Co4AgRh
_chemical_formula_sum   'Tm12 Co4 Ag1 Rh1'
_cell_volume   415.70755753
_cell_formula_units_Z   1
loop_
 _symmetry_equiv_pos_site_id
 _symmetry_equiv_pos_as_xyz
  1  'x, y, z'
loop_
 _atom_site_type_symbol
 _atom_site_label
 _atom_site_symmetry_multiplicity
 _atom_site_fract_x
 _atom_site_fract_y
 _atom_site_fract_z
 _atom_site_occupancy
  Tm  Tm0  1  0.584819  0.279687  0.305132  1
  Tm  Tm1  1  0.184244  0.215072  0.399316  1
  Tm  Tm2  1  0.184244  0.784928  0.969173  1
  Tm  Tm3  1  0.684707  0.491188  0.806481  1
  Tm  Tm4  1  0.684707  0.878226  0.193519  1
  Tm  Tm5  1  0.974554  0.279687  0.694868  1
  Tm  Tm6  1  0.025446  0.720313  0.305132  1
  Tm  Tm7  1  0.315293  0.121774  0.806481  1
  Tm  Tm8  1  0.315293  0.508812  0.193519  1
  Tm  Tm9  1  0.815756  0.215072  0.030827  1
  Tm  Tm10  1  0.815756  0.784928  0.600684  1
  Tm  Tm11  1  0.415181  0.720313  0.694868  1
  Co  Co12  1  0.886737  0.886737  0.000000  1
  Co  Co13  1  0.372064  0.500000  0.872064  1
  Co  Co14  1  0.627936  0.500000  0.127936  1
  Co  Co15  1  0.113263  0.113263  0.000000  1
  Ag  Ag16  1  0.500000  0.000000  0.500000  1
  Rh  Rh17  1  0.000000  0.500000  0.500000  1
