# generated using pymatgen
data_Th8Si12OsPd3
_symmetry_space_group_name_H-M   'P 1'
_cell_length_a   8.27324900
_cell_length_b   8.27324992
_cell_length_c   8.45285900
_cell_angle_alpha   90.00000000
_cell_angle_beta   90.00000000
_cell_angle_gamma   120.00000832
_symmetry_Int_Tables_number   1
_chemical_formula_structural   Th8Si12OsPd3
_chemical_formula_sum   'Th8 Si12 Os1 Pd3'
_cell_volume   501.05622159
_cell_formula_units_Z   1
loop_
 _symmetry_equiv_pos_site_id
 _symmetry_equiv_pos_as_xyz
  1  'x, y, z'
loop_
 _atom_site_type_symbol
 _atom_site_label
 _atom_site_symmetry_multiplicity
 _atom_site_fract_x
 _atom_site_fract_y
 _atom_site_fract_z
 _atom_site_occupancy
  Th  Th0  1  0.497723  0.995445  0.245188  1
  Th  Th1  1  0.495533  0.991067  0.754925  1
  Th  Th2  1  0.004555  0.502277  0.245188  1
  Th  Th3  1  0.008933  0.504467  0.754925  1
  Th  Th4  1  0.497723  0.502277  0.245188  1
  Th  Th5  1  0.495533  0.504467  0.754925  1
  Th  Th6  1  0.000000  0.000000  0.249984  1
  Th  Th7  1  0.000000  0.000000  0.749826  1
  Si  Si8  1  0.165907  0.331813  0.001878  1
  Si  Si9  1  0.835023  0.670047  0.998152  1
  Si  Si10  1  0.668187  0.834093  0.001878  1
  Si  Si11  1  0.833568  0.667136  0.500423  1
  Si  Si12  1  0.329953  0.164977  0.998152  1
  Si  Si13  1  0.165167  0.330333  0.499487  1
  Si  Si14  1  0.165907  0.834093  0.001878  1
  Si  Si15  1  0.332864  0.166432  0.500423  1
  Si  Si16  1  0.835023  0.164977  0.998152  1
  Si  Si17  1  0.669667  0.834833  0.499487  1
  Si  Si18  1  0.833568  0.166432  0.500423  1
  Si  Si19  1  0.165167  0.834833  0.499487  1
  Os  Os20  1  0.333333  0.666667  0.001673  1
  Pd  Pd21  1  0.666667  0.333333  0.997202  1
  Pd  Pd22  1  0.666667  0.333333  0.505250  1
  Pd  Pd23  1  0.333333  0.666667  0.495908  1
