# generated using pymatgen
data_HfCuNi4
_symmetry_space_group_name_H-M   'P 1'
_cell_length_a   4.73781599
_cell_length_b   4.73781563
_cell_length_c   4.73781500
_cell_angle_alpha   59.99999744
_cell_angle_beta   59.99999991
_cell_angle_gamma   59.99999344
_symmetry_Int_Tables_number   1
_chemical_formula_structural   HfCuNi4
_chemical_formula_sum   'Hf1 Cu1 Ni4'
_cell_volume   75.20027284
_cell_formula_units_Z   1
loop_
 _symmetry_equiv_pos_site_id
 _symmetry_equiv_pos_as_xyz
  1  'x, y, z'
loop_
 _atom_site_type_symbol
 _atom_site_label
 _atom_site_symmetry_multiplicity
 _atom_site_fract_x
 _atom_site_fract_y
 _atom_site_fract_z
 _atom_site_occupancy
  Hf  Hf0  1  0.250000  0.250000  0.250000  1
  Cu  Cu1  1  0.000000  0.000000  0.000000  1
  Ni  Ni2  1  0.625765  0.625765  0.625765  1
  Ni  Ni3  1  0.122704  0.625765  0.625765  1
  Ni  Ni4  1  0.625765  0.122704  0.625765  1
  Ni  Ni5  1  0.625765  0.625765  0.122704  1
