# generated using pymatgen
data_Tb4InPd9Pt2
_symmetry_space_group_name_H-M   'P 1'
_cell_length_a   4.21109400
_cell_length_b   5.88288888
_cell_length_c   11.70469142
_cell_angle_alpha   86.97880216
_cell_angle_beta   90.00000000
_cell_angle_gamma   90.00000000
_symmetry_Int_Tables_number   1
_chemical_formula_structural   Tb4InPd9Pt2
_chemical_formula_sum   'Tb4 In1 Pd9 Pt2'
_cell_volume   289.56195850
_cell_formula_units_Z   1
loop_
 _symmetry_equiv_pos_site_id
 _symmetry_equiv_pos_as_xyz
  1  'x, y, z'
loop_
 _atom_site_type_symbol
 _atom_site_label
 _atom_site_symmetry_multiplicity
 _atom_site_fract_x
 _atom_site_fract_y
 _atom_site_fract_z
 _atom_site_occupancy
  Tb  Tb0  1  0.500000  0.758480  0.376940  1
  Tb  Tb1  1  0.500000  0.710546  0.860472  1
  Tb  Tb2  1  0.500000  0.289031  0.139789  1
  Tb  Tb3  1  0.500000  0.241770  0.623288  1
  In  In4  1  0.000000  0.000263  0.999718  1
  Pd  Pd5  1  0.000000  0.016741  0.250065  1
  Pd  Pd6  1  0.000000  0.982053  0.749490  1
  Pd  Pd7  1  0.000000  0.500891  0.500226  1
  Pd  Pd8  1  0.000000  0.522828  0.250586  1
  Pd  Pd9  1  0.000000  0.477624  0.749386  1
  Pd  Pd10  1  0.500000  0.257383  0.378218  1
  Pd  Pd11  1  0.500000  0.219601  0.882522  1
  Pd  Pd12  1  0.500000  0.780545  0.117290  1
  Pd  Pd13  1  0.000000  0.999570  0.500097  1
  Pt  Pt14  1  0.000000  0.499709  0.000372  1
  Pt  Pt15  1  0.500000  0.742965  0.621541  1
