# generated using pymatgen
data_Hf2ZrAl3NiAu2
_symmetry_space_group_name_H-M   'P 1'
_cell_length_a   6.75772084
_cell_length_b   6.75772044
_cell_length_c   4.06233100
_cell_angle_alpha   90.00000000
_cell_angle_beta   90.00000000
_cell_angle_gamma   120.64737046
_symmetry_Int_Tables_number   1
_chemical_formula_structural   Hf2ZrAl3NiAu2
_chemical_formula_sum   'Hf2 Zr1 Al3 Ni1 Au2'
_cell_volume   159.60123034
_cell_formula_units_Z   1
loop_
 _symmetry_equiv_pos_site_id
 _symmetry_equiv_pos_as_xyz
  1  'x, y, z'
loop_
 _atom_site_type_symbol
 _atom_site_label
 _atom_site_symmetry_multiplicity
 _atom_site_fract_x
 _atom_site_fract_y
 _atom_site_fract_z
 _atom_site_occupancy
  Hf  Hf0  1  0.601061  0.999642  0.500000  1
  Hf  Hf1  1  0.999642  0.601061  0.500000  1
  Zr  Zr2  1  0.401051  0.401051  0.500000  1
  Al  Al3  1  0.761411  0.761411  0.000000  1
  Al  Al4  1  0.236639  0.001928  0.000000  1
  Al  Al5  1  0.001928  0.236639  0.000000  1
  Ni  Ni6  1  0.993778  0.993778  0.500000  1
  Au  Au7  1  0.671442  0.333049  0.000000  1
  Au  Au8  1  0.333049  0.671442  0.000000  1
