# generated using pymatgen
data_Nd2Si7Rh12
_symmetry_space_group_name_H-M   'P 1'
_cell_length_a   9.79830000
_cell_length_b   9.79830038
_cell_length_c   3.88922400
_cell_angle_alpha   90.00000000
_cell_angle_beta   90.00000000
_cell_angle_gamma   120.00001222
_symmetry_Int_Tables_number   1
_chemical_formula_structural   Nd2Si7Rh12
_chemical_formula_sum   'Nd2 Si7 Rh12'
_cell_volume   323.36649324
_cell_formula_units_Z   1
loop_
 _symmetry_equiv_pos_site_id
 _symmetry_equiv_pos_as_xyz
  1  'x, y, z'
loop_
 _atom_site_type_symbol
 _atom_site_label
 _atom_site_symmetry_multiplicity
 _atom_site_fract_x
 _atom_site_fract_y
 _atom_site_fract_z
 _atom_site_occupancy
  Nd  Nd0  1  0.333333  0.666667  0.749452  1
  Nd  Nd1  1  0.666667  0.333333  0.250548  1
  Si  Si2  1  0.000000  0.000000  0.500000  1
  Si  Si3  1  0.893502  0.603188  0.751267  1
  Si  Si4  1  0.396812  0.290313  0.751267  1
  Si  Si5  1  0.709687  0.106498  0.751267  1
  Si  Si6  1  0.106498  0.396812  0.248733  1
  Si  Si7  1  0.603188  0.709687  0.248733  1
  Si  Si8  1  0.290313  0.893502  0.248733  1
  Rh  Rh9  1  0.619586  0.557493  0.751937  1
  Rh  Rh10  1  0.442507  0.062094  0.751937  1
  Rh  Rh11  1  0.937906  0.380414  0.751937  1
  Rh  Rh12  1  0.380414  0.442507  0.248063  1
  Rh  Rh13  1  0.557493  0.937906  0.248063  1
  Rh  Rh14  1  0.062094  0.619586  0.248063  1
  Rh  Rh15  1  0.119492  0.858701  0.744606  1
  Rh  Rh16  1  0.141299  0.260792  0.744606  1
  Rh  Rh17  1  0.739208  0.880508  0.744606  1
  Rh  Rh18  1  0.880508  0.141299  0.255394  1
  Rh  Rh19  1  0.858701  0.739208  0.255394  1
  Rh  Rh20  1  0.260792  0.119492  0.255394  1
