# generated using pymatgen
data_Er20Fe3Bi8Pt
_symmetry_space_group_name_H-M   'P 1'
_cell_length_a   7.90822650
_cell_length_b   8.91042000
_cell_length_c   12.32962605
_cell_angle_alpha   90.00000000
_cell_angle_beta   90.10462134
_cell_angle_gamma   90.00000000
_symmetry_Int_Tables_number   1
_chemical_formula_structural   Er20Fe3Bi8Pt
_chemical_formula_sum   'Er20 Fe3 Bi8 Pt1'
_cell_volume   868.81328976
_cell_formula_units_Z   1
loop_
 _symmetry_equiv_pos_site_id
 _symmetry_equiv_pos_as_xyz
  1  'x, y, z'
loop_
 _atom_site_type_symbol
 _atom_site_label
 _atom_site_symmetry_multiplicity
 _atom_site_fract_x
 _atom_site_fract_y
 _atom_site_fract_z
 _atom_site_occupancy
  Er  Er0  1  0.652888  0.750000  0.698242  1
  Er  Er1  1  0.345405  0.250000  0.299937  1
  Er  Er2  1  0.155981  0.250000  0.798892  1
  Er  Er3  1  0.836594  0.750000  0.211767  1
  Er  Er4  1  0.126801  0.750000  0.804757  1
  Er  Er5  1  0.882422  0.250000  0.186409  1
  Er  Er6  1  0.616141  0.250000  0.687683  1
  Er  Er7  1  0.381174  0.750000  0.312274  1
  Er  Er8  1  0.552391  0.750000  0.997770  1
  Er  Er9  1  0.446477  0.250000  0.002598  1
  Er  Er10  1  0.058293  0.250000  0.504564  1
  Er  Er11  1  0.947001  0.750000  0.497662  1
  Er  Er12  1  0.823807  0.450459  0.933540  1
  Er  Er13  1  0.174010  0.529544  0.065169  1
  Er  Er14  1  0.327018  0.538308  0.562110  1
  Er  Er15  1  0.174010  0.970456  0.065169  1
  Er  Er16  1  0.672746  0.465170  0.438059  1
  Er  Er17  1  0.823807  0.049541  0.933540  1
  Er  Er18  1  0.672746  0.034830  0.438059  1
  Er  Er19  1  0.327018  0.961692  0.562110  1
  Fe  Fe20  1  0.069892  0.250000  0.008444  1
  Fe  Fe21  1  0.432825  0.250000  0.508454  1
  Fe  Fe22  1  0.571825  0.750000  0.488508  1
  Bi  Bi23  1  0.930789  0.008724  0.673204  1
  Bi  Bi24  1  0.068378  0.992808  0.327750  1
  Bi  Bi25  1  0.432342  0.991360  0.826880  1
  Bi  Bi26  1  0.068378  0.507192  0.327750  1
  Bi  Bi27  1  0.567826  0.008861  0.173371  1
  Bi  Bi28  1  0.930789  0.491276  0.673204  1
  Bi  Bi29  1  0.567826  0.491139  0.173371  1
  Bi  Bi30  1  0.432342  0.508640  0.826880  1
  Pt  Pt31  1  0.930059  0.750000  0.991876  1
