# generated using pymatgen
data_Mg2Zr3(ReTc)12
_symmetry_space_group_name_H-M   'P 1'
_cell_length_a   8.45223107
_cell_length_b   8.43493714
_cell_length_c   8.43493722
_cell_angle_alpha   109.42964909
_cell_angle_beta   109.51275528
_cell_angle_gamma   109.51276477
_symmetry_Int_Tables_number   1
_chemical_formula_structural   Mg2Zr3(ReTc)12
_chemical_formula_sum   'Mg2 Zr3 Re12 Tc12'
_cell_volume   462.69017537
_cell_formula_units_Z   1
loop_
 _symmetry_equiv_pos_site_id
 _symmetry_equiv_pos_as_xyz
  1  'x, y, z'
loop_
 _atom_site_type_symbol
 _atom_site_label
 _atom_site_symmetry_multiplicity
 _atom_site_fract_x
 _atom_site_fract_y
 _atom_site_fract_z
 _atom_site_occupancy
  Mg  Mg0  1  0.996212  0.000000  0.000000  1
  Mg  Mg1  1  0.634341  0.000000  0.000000  1
  Zr  Zr2  1  0.000666  0.632675  0.000000  1
  Zr  Zr3  1  0.000666  0.000000  0.632675  1
  Zr  Zr4  1  0.367991  0.367325  0.367325  1
  Re  Re5  1  0.378352  0.192607  0.000000  1
  Re  Re6  1  0.185746  0.807393  0.807393  1
  Re  Re7  1  0.378352  0.000000  0.192607  1
  Re  Re8  1  0.195732  0.376587  0.000000  1
  Re  Re9  1  0.997056  0.373737  0.190256  1
  Re  Re10  1  0.806800  0.183481  0.809744  1
  Re  Re11  1  0.806800  0.809744  0.183481  1
  Re  Re12  1  0.997056  0.190256  0.373737  1
  Re  Re13  1  0.195732  0.000000  0.376587  1
  Re  Re14  1  0.623319  0.626263  0.816519  1
  Re  Re15  1  0.819144  0.623413  0.623413  1
  Re  Re16  1  0.623319  0.816519  0.626263  1
  Tc  Tc17  1  0.397036  0.675514  0.000000  1
  Tc  Tc18  1  0.721520  0.324486  0.324486  1
  Tc  Tc19  1  0.397036  0.000000  0.675514  1
  Tc  Tc20  1  0.676087  0.396354  0.000000  1
  Tc  Tc21  1  0.997004  0.394456  0.673950  1
  Tc  Tc22  1  0.323054  0.720504  0.326050  1
  Tc  Tc23  1  0.323054  0.326050  0.720504  1
  Tc  Tc24  1  0.997004  0.673950  0.394456  1
  Tc  Tc25  1  0.676087  0.000000  0.396354  1
  Tc  Tc26  1  0.602549  0.605544  0.279496  1
  Tc  Tc27  1  0.279735  0.603646  0.603646  1
  Tc  Tc28  1  0.602549  0.279496  0.605544  1
