# generated using pymatgen
data_Nd3DyIn4
_symmetry_space_group_name_H-M   'P 1'
_cell_length_a   6.71500122
_cell_length_b   6.71500141
_cell_length_c   10.23576500
_cell_angle_alpha   90.00000000
_cell_angle_beta   90.00000000
_cell_angle_gamma   98.45980350
_symmetry_Int_Tables_number   1
_chemical_formula_structural   Nd3DyIn4
_chemical_formula_sum   'Nd6 Dy2 In8'
_cell_volume   456.52145713
_cell_formula_units_Z   2
loop_
 _symmetry_equiv_pos_site_id
 _symmetry_equiv_pos_as_xyz
  1  'x, y, z'
loop_
 _atom_site_type_symbol
 _atom_site_label
 _atom_site_symmetry_multiplicity
 _atom_site_fract_x
 _atom_site_fract_y
 _atom_site_fract_z
 _atom_site_occupancy
  Nd  Nd0  1  0.533045  0.533045  0.250000  1
  Nd  Nd1  1  0.466955  0.466955  0.750000  1
  Nd  Nd2  1  0.246405  0.753595  0.500000  1
  Nd  Nd3  1  0.246405  0.753595  0.000000  1
  Nd  Nd4  1  0.753595  0.246405  0.500000  1
  Nd  Nd5  1  0.753595  0.246405  0.000000  1
  Dy  Dy6  1  0.977009  0.977008  0.250000  1
  Dy  Dy7  1  0.022992  0.022991  0.750000  1
  In  In8  1  0.250188  0.250188  0.022616  1
  In  In9  1  0.749812  0.749812  0.977384  1
  In  In10  1  0.250188  0.250188  0.477384  1
  In  In11  1  0.749812  0.749812  0.522616  1
  In  In12  1  0.478635  0.024623  0.250000  1
  In  In13  1  0.975377  0.521365  0.750000  1
  In  In14  1  0.521365  0.975377  0.750000  1
  In  In15  1  0.024623  0.478635  0.250000  1
