# generated using pymatgen
data_DyEr19CoBi8Os3
_symmetry_space_group_name_H-M   'P 1'
_cell_length_a   7.91873668
_cell_length_b   8.96933200
_cell_length_c   12.39492200
_cell_angle_alpha   90.00000000
_cell_angle_beta   90.26168957
_cell_angle_gamma   90.00000000
_symmetry_Int_Tables_number   1
_chemical_formula_structural   DyEr19CoBi8Os3
_chemical_formula_sum   'Dy1 Er19 Co1 Bi8 Os3'
_cell_volume   880.34979959
_cell_formula_units_Z   1
loop_
 _symmetry_equiv_pos_site_id
 _symmetry_equiv_pos_as_xyz
  1  'x, y, z'
loop_
 _atom_site_type_symbol
 _atom_site_label
 _atom_site_symmetry_multiplicity
 _atom_site_fract_x
 _atom_site_fract_y
 _atom_site_fract_z
 _atom_site_occupancy
  Dy  Dy0  1  0.554211  0.750000  0.003500  1
  Er  Er1  1  0.843997  0.750000  0.799130  1
  Er  Er2  1  0.158717  0.250000  0.206901  1
  Er  Er3  1  0.341567  0.250000  0.708277  1
  Er  Er4  1  0.657069  0.750000  0.294024  1
  Er  Er5  1  0.376673  0.750000  0.693681  1
  Er  Er6  1  0.622264  0.250000  0.306913  1
  Er  Er7  1  0.875989  0.250000  0.807701  1
  Er  Er8  1  0.119992  0.750000  0.186979  1
  Er  Er9  1  0.941420  0.750000  0.504838  1
  Er  Er10  1  0.058610  0.250000  0.495811  1
  Er  Er11  1  0.444833  0.250000  0.996587  1
  Er  Er12  1  0.673351  0.042097  0.563880  1
  Er  Er13  1  0.325487  0.956899  0.435822  1
  Er  Er14  1  0.174435  0.958431  0.936059  1
  Er  Er15  1  0.325487  0.543101  0.435822  1
  Er  Er16  1  0.826820  0.038610  0.062922  1
  Er  Er17  1  0.673351  0.457903  0.563880  1
  Er  Er18  1  0.826820  0.461390  0.062922  1
  Er  Er19  1  0.174435  0.541569  0.936059  1
  Co  Co20  1  0.931510  0.750000  0.009019  1
  Bi  Bi21  1  0.569843  0.492589  0.827800  1
  Bi  Bi22  1  0.431130  0.507574  0.171942  1
  Bi  Bi23  1  0.067984  0.507607  0.672963  1
  Bi  Bi24  1  0.431130  0.992426  0.171942  1
  Bi  Bi25  1  0.931637  0.493227  0.326646  1
  Bi  Bi26  1  0.569843  0.007411  0.827800  1
  Bi  Bi27  1  0.931637  0.006773  0.326646  1
  Bi  Bi28  1  0.067984  0.992393  0.672963  1
  Os  Os29  1  0.574569  0.750000  0.511111  1
  Os  Os30  1  0.424386  0.250000  0.489631  1
  Os  Os31  1  0.072818  0.250000  0.989823  1
