# generated using pymatgen
data_PrNdNp8O20
_symmetry_space_group_name_H-M   'P 1'
_cell_length_a   6.63095223
_cell_length_b   7.69125344
_cell_length_c   8.59748600
_cell_angle_alpha   102.92749154
_cell_angle_beta   97.57567513
_cell_angle_gamma   106.84914120
_symmetry_Int_Tables_number   1
_chemical_formula_structural   PrNdNp8O20
_chemical_formula_sum   'Pr1 Nd1 Np8 O20'
_cell_volume   399.81996208
_cell_formula_units_Z   1
loop_
 _symmetry_equiv_pos_site_id
 _symmetry_equiv_pos_as_xyz
  1  'x, y, z'
loop_
 _atom_site_type_symbol
 _atom_site_label
 _atom_site_symmetry_multiplicity
 _atom_site_fract_x
 _atom_site_fract_y
 _atom_site_fract_z
 _atom_site_occupancy
  Pr  Pr0  1  0.000000  0.000000  0.000000  1
  Nd  Nd1  1  0.000000  0.500000  0.000000  1
  Np  Np2  1  0.798377  0.598998  0.598504  1
  Np  Np3  1  0.602542  0.201098  0.200718  1
  Np  Np4  1  0.798280  0.099337  0.598475  1
  Np  Np5  1  0.397458  0.798902  0.799282  1
  Np  Np6  1  0.201623  0.401002  0.401496  1
  Np  Np7  1  0.602234  0.700501  0.200569  1
  Np  Np8  1  0.397766  0.299499  0.799431  1
  Np  Np9  1  0.201720  0.900663  0.401525  1
  O  O10  1  0.851735  0.326970  0.455994  1
  O  O11  1  0.634275  0.921901  0.054188  1
  O  O12  1  0.947441  0.777017  0.165703  1
  O  O13  1  0.441827  0.521744  0.645489  1
  O  O14  1  0.852229  0.826977  0.456040  1
  O  O15  1  0.635736  0.422509  0.053640  1
  O  O16  1  0.731018  0.368250  0.741182  1
  O  O17  1  0.269826  0.132588  0.259973  1
  O  O18  1  0.947093  0.279453  0.165621  1
  O  O19  1  0.441809  0.021997  0.645312  1
  O  O20  1  0.558191  0.978003  0.354688  1
  O  O21  1  0.052907  0.720547  0.834379  1
  O  O22  1  0.730174  0.867412  0.740027  1
  O  O23  1  0.364264  0.577491  0.946360  1
  O  O24  1  0.268982  0.631750  0.258818  1
  O  O25  1  0.558173  0.478256  0.354511  1
  O  O26  1  0.147771  0.173023  0.543960  1
  O  O27  1  0.052559  0.222983  0.834297  1
  O  O28  1  0.365725  0.078099  0.945812  1
  O  O29  1  0.148265  0.673030  0.544006  1
