# generated using pymatgen
data_Ba4Ni3P4Rh
_symmetry_space_group_name_H-M   'P 1'
_cell_length_a   6.24786192
_cell_length_b   6.21964893
_cell_length_c   7.52305254
_cell_angle_alpha   89.33446847
_cell_angle_beta   89.48247688
_cell_angle_gamma   105.30399941
_symmetry_Int_Tables_number   1
_chemical_formula_structural   Ba4Ni3P4Rh
_chemical_formula_sum   'Ba4 Ni3 P4 Rh1'
_cell_volume   281.93416783
_cell_formula_units_Z   1
loop_
 _symmetry_equiv_pos_site_id
 _symmetry_equiv_pos_as_xyz
  1  'x, y, z'
loop_
 _atom_site_type_symbol
 _atom_site_label
 _atom_site_symmetry_multiplicity
 _atom_site_fract_x
 _atom_site_fract_y
 _atom_site_fract_z
 _atom_site_occupancy
  Ba  Ba0  1  0.186365  0.814460  0.509444  1
  Ba  Ba1  1  0.684412  0.312419  0.992552  1
  Ba  Ba2  1  0.816230  0.189632  0.488898  1
  Ba  Ba3  1  0.314466  0.687151  0.010978  1
  Ni  Ni4  1  0.381134  0.381613  0.617481  1
  Ni  Ni5  1  0.618185  0.616599  0.380881  1
  Ni  Ni6  1  0.120870  0.119730  0.120962  1
  P  P7  1  0.168419  0.193790  0.827251  1
  P  P8  1  0.660452  0.673150  0.666753  1
  P  P9  1  0.838493  0.815662  0.180526  1
  P  P10  1  0.335759  0.314827  0.326533  1
  Rh  Rh11  1  0.875217  0.880962  0.877743  1
