# generated using pymatgen
data_Y5Th3(ZnRu)2
_symmetry_space_group_name_H-M   'P 1'
_cell_length_a   9.58236070
_cell_length_b   9.67256716
_cell_length_c   9.67256771
_cell_angle_alpha   59.38394098
_cell_angle_beta   60.30802519
_cell_angle_gamma   60.30802544
_symmetry_Int_Tables_number   1
_chemical_formula_structural   Y5Th3(ZnRu)2
_chemical_formula_sum   'Y10 Th6 Zn4 Ru4'
_cell_volume   633.82032996
_cell_formula_units_Z   2
loop_
 _symmetry_equiv_pos_site_id
 _symmetry_equiv_pos_as_xyz
  1  'x, y, z'
loop_
 _atom_site_type_symbol
 _atom_site_label
 _atom_site_symmetry_multiplicity
 _atom_site_fract_x
 _atom_site_fract_y
 _atom_site_fract_z
 _atom_site_occupancy
  Y  Y0  1  0.443228  0.056772  0.443228  1
  Y  Y1  1  0.056772  0.443228  0.056772  1
  Y  Y2  1  0.443228  0.443228  0.056772  1
  Y  Y3  1  0.056772  0.056772  0.443228  1
  Y  Y4  1  0.183318  0.816682  0.816682  1
  Y  Y5  1  0.816682  0.183318  0.183318  1
  Y  Y6  1  0.812717  0.187283  0.812717  1
  Y  Y7  1  0.187283  0.812717  0.187283  1
  Y  Y8  1  0.812717  0.812717  0.187283  1
  Y  Y9  1  0.187283  0.187283  0.812717  1
  Th  Th10  1  0.595796  0.603400  0.603400  1
  Th  Th11  1  0.603400  0.595796  0.197405  1
  Th  Th12  1  0.603400  0.197405  0.595796  1
  Th  Th13  1  0.197405  0.603400  0.603400  1
  Th  Th14  1  0.063204  0.436796  0.436796  1
  Th  Th15  1  0.436796  0.063204  0.063204  1
  Zn  Zn16  1  0.832720  0.828845  0.828845  1
  Zn  Zn17  1  0.828845  0.832720  0.509591  1
  Zn  Zn18  1  0.828845  0.509591  0.832720  1
  Zn  Zn19  1  0.509591  0.828845  0.828845  1
  Ru  Ru20  1  0.377584  0.399879  0.399879  1
  Ru  Ru21  1  0.399879  0.377584  0.822658  1
  Ru  Ru22  1  0.399879  0.822658  0.377584  1
  Ru  Ru23  1  0.822658  0.399879  0.399879  1
