# generated using pymatgen
data_Y3MgZn2Ge2Au
_symmetry_space_group_name_H-M   'P 1'
_cell_length_a   7.05127924
_cell_length_b   7.05127902
_cell_length_c   4.33989500
_cell_angle_alpha   90.00000000
_cell_angle_beta   90.00000000
_cell_angle_gamma   119.89008433
_symmetry_Int_Tables_number   1
_chemical_formula_structural   Y3MgZn2Ge2Au
_chemical_formula_sum   'Y3 Mg1 Zn2 Ge2 Au1'
_cell_volume   187.07925004
_cell_formula_units_Z   1
loop_
 _symmetry_equiv_pos_site_id
 _symmetry_equiv_pos_as_xyz
  1  'x, y, z'
loop_
 _atom_site_type_symbol
 _atom_site_label
 _atom_site_symmetry_multiplicity
 _atom_site_fract_x
 _atom_site_fract_y
 _atom_site_fract_z
 _atom_site_occupancy
  Y  Y0  1  0.575397  0.999994  0.000000  1
  Y  Y1  1  0.999994  0.575397  0.000000  1
  Y  Y2  1  0.415649  0.415649  0.000000  1
  Mg  Mg3  1  0.767843  0.767843  0.500000  1
  Zn  Zn4  1  0.245548  0.000933  0.500000  1
  Zn  Zn5  1  0.000933  0.245548  0.500000  1
  Ge  Ge6  1  0.328957  0.664565  0.500000  1
  Ge  Ge7  1  0.664565  0.328957  0.500000  1
  Au  Au8  1  0.001115  0.001115  0.000000  1
