# generated using pymatgen
data_Ho6Fe7Co11
_symmetry_space_group_name_H-M   'P 1'
_cell_length_a   5.06328605
_cell_length_b   5.08758356
_cell_length_c   15.80200094
_cell_angle_alpha   90.00000148
_cell_angle_beta   90.07872476
_cell_angle_gamma   120.15888248
_symmetry_Int_Tables_number   1
_chemical_formula_structural   Ho6Fe7Co11
_chemical_formula_sum   'Ho6 Fe7 Co11'
_cell_volume   351.95622399
_cell_formula_units_Z   1
loop_
 _symmetry_equiv_pos_site_id
 _symmetry_equiv_pos_as_xyz
  1  'x, y, z'
loop_
 _atom_site_type_symbol
 _atom_site_label
 _atom_site_symmetry_multiplicity
 _atom_site_fract_x
 _atom_site_fract_y
 _atom_site_fract_z
 _atom_site_occupancy
  Ho  Ho0  1  0.333182  0.666591  0.958564  1
  Ho  Ho1  1  0.668077  0.334038  0.036888  1
  Ho  Ho2  1  0.666202  0.333101  0.460985  1
  Ho  Ho3  1  0.334781  0.667391  0.539724  1
  Ho  Ho4  1  0.333801  0.666901  0.749308  1
  Ho  Ho5  1  0.665485  0.332742  0.250143  1
  Fe  Fe6  1  0.662260  0.831130  0.126949  1
  Fe  Fe7  1  0.330598  0.665299  0.252629  1
  Fe  Fe8  1  0.667104  0.333551  0.749666  1
  Fe  Fe9  1  0.000422  0.000211  0.252447  1
  Fe  Fe10  1  0.001067  0.000533  0.749781  1
  Fe  Fe11  1  0.000224  0.000112  0.500483  1
  Fe  Fe12  1  0.003422  0.001711  0.998893  1
  Co  Co13  1  0.166890  0.832415  0.374221  1
  Co  Co14  1  0.166890  0.334476  0.374221  1
  Co  Co15  1  0.666724  0.833362  0.373775  1
  Co  Co16  1  0.833796  0.167903  0.627272  1
  Co  Co17  1  0.833796  0.665893  0.627272  1
  Co  Co18  1  0.333391  0.166696  0.627223  1
  Co  Co19  1  0.833160  0.166688  0.871796  1
  Co  Co20  1  0.833160  0.666472  0.871796  1
  Co  Co21  1  0.333634  0.166817  0.871723  1
  Co  Co22  1  0.165967  0.832946  0.127122  1
  Co  Co23  1  0.165967  0.333022  0.127122  1
