# generated using pymatgen
data_Er3Tm2Co19(As3P)3
_symmetry_space_group_name_H-M   'P 1'
_cell_length_a   12.27085100
_cell_length_b   12.27083989
_cell_length_c   3.74330000
_cell_angle_alpha   90.00000000
_cell_angle_beta   90.00000000
_cell_angle_gamma   120.00003803
_symmetry_Int_Tables_number   1
_chemical_formula_structural   Er3Tm2Co19(As3P)3
_chemical_formula_sum   'Er3 Tm2 Co19 As9 P3'
_cell_volume   488.12839492
_cell_formula_units_Z   1
loop_
 _symmetry_equiv_pos_site_id
 _symmetry_equiv_pos_as_xyz
  1  'x, y, z'
loop_
 _atom_site_type_symbol
 _atom_site_label
 _atom_site_symmetry_multiplicity
 _atom_site_fract_x
 _atom_site_fract_y
 _atom_site_fract_z
 _atom_site_occupancy
  Er  Er0  1  0.333376  0.666702  0.000000  1
  Er  Er1  1  0.666675  0.333298  0.000000  1
  Er  Er2  1  0.180530  0.000000  0.500000  1
  Tm  Tm3  1  0.999900  0.180388  0.500000  1
  Tm  Tm4  1  0.819512  0.819612  0.500000  1
  Co  Co5  1  0.631530  0.828814  0.000000  1
  Co  Co6  1  0.171123  0.802403  0.000000  1
  Co  Co7  1  0.197273  0.368606  0.000000  1
  Co  Co8  1  0.368719  0.197597  0.000000  1
  Co  Co9  1  0.828666  0.631394  0.000000  1
  Co  Co10  1  0.802715  0.171186  0.000000  1
  Co  Co11  1  0.999962  0.554794  0.000000  1
  Co  Co12  1  0.445168  0.445206  0.000000  1
  Co  Co13  1  0.555043  0.000000  0.000000  1
  Co  Co14  1  0.521066  0.646754  0.500000  1
  Co  Co15  1  0.353403  0.874238  0.500000  1
  Co  Co16  1  0.125653  0.479026  0.500000  1
  Co  Co17  1  0.479164  0.125762  0.500000  1
  Co  Co18  1  0.646627  0.520974  0.500000  1
  Co  Co19  1  0.874312  0.353246  0.500000  1
  Co  Co20  1  0.999790  0.725882  0.500000  1
  Co  Co21  1  0.273908  0.274118  0.500000  1
  Co  Co22  1  0.726149  0.000000  0.500000  1
  Co  Co23  1  0.999784  0.000000  0.000000  1
  As  As24  1  0.999998  0.362415  0.000000  1
  As  As25  1  0.637583  0.637585  0.000000  1
  As  As26  1  0.362770  0.000000  0.000000  1
  As  As27  1  0.520143  0.838061  0.500000  1
  As  As28  1  0.161943  0.682033  0.500000  1
  As  As29  1  0.317973  0.480044  0.500000  1
  As  As30  1  0.479909  0.317967  0.500000  1
  As  As31  1  0.837928  0.519956  0.500000  1
  As  As32  1  0.682082  0.161939  0.500000  1
  P  P33  1  0.999703  0.823293  0.000000  1
  P  P34  1  0.176409  0.176707  0.000000  1
  P  P35  1  0.823512  0.000000  0.000000  1
