# generated using pymatgen
data_TmLuAl6(GaIr)3
_symmetry_space_group_name_H-M   'P 1'
_cell_length_a   7.51066419
_cell_length_b   7.51145611
_cell_length_c   9.53259700
_cell_angle_alpha   90.00000000
_cell_angle_beta   90.00000000
_cell_angle_gamma   119.70047488
_symmetry_Int_Tables_number   1
_chemical_formula_structural   TmLuAl6(GaIr)3
_chemical_formula_sum   'Tm2 Lu2 Al12 Ga6 Ir6'
_cell_volume   467.14019773
_cell_formula_units_Z   2
loop_
 _symmetry_equiv_pos_site_id
 _symmetry_equiv_pos_as_xyz
  1  'x, y, z'
loop_
 _atom_site_type_symbol
 _atom_site_label
 _atom_site_symmetry_multiplicity
 _atom_site_fract_x
 _atom_site_fract_y
 _atom_site_fract_z
 _atom_site_occupancy
  Tm  Tm0  1  0.996805  0.670317  0.250000  1
  Tm  Tm1  1  0.003195  0.329683  0.750000  1
  Lu  Lu2  1  0.670306  0.996806  0.250000  1
  Lu  Lu3  1  0.329694  0.003194  0.750000  1
  Al  Al4  1  0.001501  0.334310  0.072818  1
  Al  Al5  1  0.998499  0.665690  0.927182  1
  Al  Al6  1  0.998499  0.665690  0.572818  1
  Al  Al7  1  0.334674  0.001675  0.427306  1
  Al  Al8  1  0.001501  0.334310  0.427182  1
  Al  Al9  1  0.665326  0.998325  0.572694  1
  Al  Al10  1  0.665326  0.998325  0.927306  1
  Al  Al11  1  0.334674  0.001675  0.072694  1
  Al  Al12  1  0.334071  0.333897  0.558241  1
  Al  Al13  1  0.665929  0.666103  0.441759  1
  Al  Al14  1  0.665929  0.666103  0.058241  1
  Al  Al15  1  0.334071  0.333897  0.941759  1
  Ga  Ga16  1  0.127665  0.127740  0.250000  1
  Ga  Ga17  1  0.872335  0.872260  0.750000  1
  Ga  Ga18  1  0.338535  0.548088  0.250000  1
  Ga  Ga19  1  0.661465  0.451912  0.750000  1
  Ga  Ga20  1  0.547902  0.338272  0.250000  1
  Ga  Ga21  1  0.452098  0.661728  0.750000  1
  Ir  Ir22  1  0.672210  0.327634  0.000004  1
  Ir  Ir23  1  0.327790  0.672366  0.999996  1
  Ir  Ir24  1  0.327790  0.672366  0.500004  1
  Ir  Ir25  1  0.672210  0.327634  0.499996  1
  Ir  Ir26  1  0.000000  0.000000  0.000000  1
  Ir  Ir27  1  0.000000  0.000000  0.500000  1
