# generated using pymatgen
data_Li12Gd3Y(BO3)8
_symmetry_space_group_name_H-M   'P 1'
_cell_length_a   6.47766984
_cell_length_b   8.77760186
_cell_length_c   9.96601733
_cell_angle_alpha   114.84035892
_cell_angle_beta   89.94125556
_cell_angle_gamma   89.96716449
_symmetry_Int_Tables_number   1
_chemical_formula_structural   Li12Gd3Y(BO3)8
_chemical_formula_sum   'Li12 Gd3 Y1 B8 O24'
_cell_volume   514.22566843
_cell_formula_units_Z   1
loop_
 _symmetry_equiv_pos_site_id
 _symmetry_equiv_pos_as_xyz
  1  'x, y, z'
loop_
 _atom_site_type_symbol
 _atom_site_label
 _atom_site_symmetry_multiplicity
 _atom_site_fract_x
 _atom_site_fract_y
 _atom_site_fract_z
 _atom_site_occupancy
  Li  Li0  1  0.438164  0.038065  0.333701  1
  Li  Li1  1  0.744161  0.126362  0.521925  1
  Li  Li2  1  0.756050  0.626627  0.021658  1
  Li  Li3  1  0.243797  0.373048  0.978177  1
  Li  Li4  1  0.219132  0.295356  0.458922  1
  Li  Li5  1  0.938315  0.461647  0.166180  1
  Li  Li6  1  0.561726  0.961878  0.666515  1
  Li  Li7  1  0.781088  0.704957  0.541303  1
  Li  Li8  1  0.255749  0.873672  0.478669  1
  Li  Li9  1  0.719490  0.204384  0.040868  1
  Li  Li10  1  0.280618  0.795818  0.958770  1
  Li  Li11  1  0.061708  0.538276  0.833719  1
  Gd  Gd12  1  0.527550  0.517407  0.700043  1
  Gd  Gd13  1  0.972576  0.017408  0.199692  1
  Gd  Gd14  1  0.472502  0.482607  0.300075  1
  Y  Y15  1  0.027281  0.983252  0.800328  1
  B  B16  1  0.336130  0.217279  0.677810  1
  B  B17  1  0.327378  0.159418  0.106677  1
  B  B18  1  0.662784  0.782359  0.322717  1
  B  B19  1  0.162813  0.717647  0.177291  1
  B  B20  1  0.828112  0.340303  0.392336  1
  B  B21  1  0.672973  0.840413  0.891815  1
  B  B22  1  0.838343  0.281102  0.822472  1
  B  B23  1  0.171364  0.661132  0.608602  1
  O  O24  1  0.288687  0.069899  0.689670  1
  O  O25  1  0.560125  0.784451  0.447925  1
  O  O26  1  0.213027  0.024222  0.011745  1
  O  O27  1  0.709242  0.930137  0.311482  1
  O  O28  1  0.178993  0.700286  0.759245  1
  O  O29  1  0.790719  0.429062  0.811586  1
  O  O30  1  0.439309  0.214666  0.552393  1
  O  O31  1  0.290536  0.376737  0.787285  1
  O  O32  1  0.060344  0.715593  0.052121  1
  O  O33  1  0.941133  0.282727  0.947353  1
  O  O34  1  0.714305  0.476509  0.486547  1
  O  O35  1  0.788031  0.976227  0.984824  1
  O  O36  1  0.565065  0.737022  0.939452  1
  O  O37  1  0.209111  0.569777  0.188489  1
  O  O38  1  0.209246  0.876506  0.287062  1
  O  O39  1  0.064085  0.766178  0.562758  1
  O  O40  1  0.680468  0.801306  0.741252  1
  O  O41  1  0.435789  0.263761  0.060613  1
  O  O42  1  0.820139  0.301439  0.241643  1
  O  O43  1  0.709255  0.623359  0.212772  1
  O  O44  1  0.793093  0.121755  0.712824  1
  O  O45  1  0.284506  0.524315  0.513992  1
  O  O46  1  0.935453  0.236281  0.439314  1
  O  O47  1  0.319536  0.197364  0.257386  1
