# generated using pymatgen
data_PrNdNp(SnIr)3
_symmetry_space_group_name_H-M   'P 1'
_cell_length_a   7.63661602
_cell_length_b   7.45005503
_cell_length_c   4.09958800
_cell_angle_alpha   90.00000000
_cell_angle_beta   90.00000000
_cell_angle_gamma   120.83947929
_symmetry_Int_Tables_number   1
_chemical_formula_structural   PrNdNp(SnIr)3
_chemical_formula_sum   'Pr1 Nd1 Np1 Sn3 Ir3'
_cell_volume   200.26036753
_cell_formula_units_Z   1
loop_
 _symmetry_equiv_pos_site_id
 _symmetry_equiv_pos_as_xyz
  1  'x, y, z'
loop_
 _atom_site_type_symbol
 _atom_site_label
 _atom_site_symmetry_multiplicity
 _atom_site_fract_x
 _atom_site_fract_y
 _atom_site_fract_z
 _atom_site_occupancy
  Pr  Pr0  1  0.001027  0.590309  0.000000  1
  Nd  Nd1  1  0.410187  0.409209  0.000000  1
  Np  Np2  1  0.585701  0.999959  0.000000  1
  Sn  Sn3  1  0.242372  0.000911  0.500000  1
  Sn  Sn4  1  0.008076  0.260517  0.500000  1
  Sn  Sn5  1  0.745884  0.738725  0.500000  1
  Ir  Ir6  1  0.364244  0.703636  0.500000  1
  Ir  Ir7  1  0.659321  0.295958  0.500000  1
  Ir  Ir8  1  0.983188  0.000775  0.000000  1
