# generated using pymatgen
data_Ba5Sr2PrFe4O15
_symmetry_space_group_name_H-M   'P 1'
_cell_length_a   11.93982666
_cell_length_b   11.93982630
_cell_length_c   7.10806814
_cell_angle_alpha   90.48689472
_cell_angle_beta   90.48690124
_cell_angle_gamma   119.87862444
_symmetry_Int_Tables_number   1
_chemical_formula_structural   Ba5Sr2PrFe4O15
_chemical_formula_sum   'Ba10 Sr4 Pr2 Fe8 O30'
_cell_volume   878.50777826
_cell_formula_units_Z   2
loop_
 _symmetry_equiv_pos_site_id
 _symmetry_equiv_pos_as_xyz
  1  'x, y, z'
loop_
 _atom_site_type_symbol
 _atom_site_label
 _atom_site_symmetry_multiplicity
 _atom_site_fract_x
 _atom_site_fract_y
 _atom_site_fract_z
 _atom_site_occupancy
  Ba  Ba0  1  0.997387  0.997814  0.493228  1
  Ba  Ba1  1  0.997814  0.997387  0.993228  1
  Ba  Ba2  1  0.823822  0.649313  0.835109  1
  Ba  Ba3  1  0.347162  0.177534  0.832859  1
  Ba  Ba4  1  0.828702  0.175388  0.831409  1
  Ba  Ba5  1  0.177534  0.347162  0.332859  1
  Ba  Ba6  1  0.649313  0.823822  0.335109  1
  Ba  Ba7  1  0.175388  0.828702  0.331409  1
  Ba  Ba8  1  0.334777  0.665161  0.016230  1
  Ba  Ba9  1  0.665161  0.334777  0.516230  1
  Sr  Sr10  1  0.960413  0.480132  0.165142  1
  Sr  Sr11  1  0.521036  0.476833  0.170820  1
  Sr  Sr12  1  0.480132  0.960413  0.665142  1
  Sr  Sr13  1  0.476833  0.521036  0.670820  1
  Pr  Pr14  1  0.520097  0.043687  0.169702  1
  Pr  Pr15  1  0.043687  0.520097  0.669702  1
  Fe  Fe16  1  0.671693  0.335851  0.979982  1
  Fe  Fe17  1  0.335851  0.671693  0.479982  1
  Fe  Fe18  1  0.182803  0.823332  0.831039  1
  Fe  Fe19  1  0.177552  0.354927  0.833552  1
  Fe  Fe20  1  0.638040  0.822155  0.835702  1
  Fe  Fe21  1  0.823332  0.182803  0.331039  1
  Fe  Fe22  1  0.822155  0.638040  0.335702  1
  Fe  Fe23  1  0.354927  0.177552  0.333552  1
  O  O24  1  0.937264  0.330167  0.476149  1
  O  O25  1  0.677924  0.604696  0.477562  1
  O  O26  1  0.393700  0.062248  0.459986  1
  O  O27  1  0.938460  0.606649  0.477668  1
  O  O28  1  0.670959  0.071226  0.457531  1
  O  O29  1  0.390412  0.323818  0.479325  1
  O  O30  1  0.071226  0.670959  0.957531  1
  O  O31  1  0.323818  0.390412  0.979325  1
  O  O32  1  0.606649  0.938460  0.977668  1
  O  O33  1  0.062248  0.393700  0.959986  1
  O  O34  1  0.330167  0.937264  0.976149  1
  O  O35  1  0.604696  0.677924  0.977562  1
  O  O36  1  0.093093  0.187384  0.730929  1
  O  O37  1  0.798501  0.904166  0.720846  1
  O  O38  1  0.100959  0.905827  0.725682  1
  O  O39  1  0.904166  0.798501  0.220846  1
  O  O40  1  0.187384  0.093093  0.230929  1
  O  O41  1  0.905827  0.100959  0.225682  1
  O  O42  1  0.746906  0.249623  0.154208  1
  O  O43  1  0.749268  0.493120  0.157795  1
  O  O44  1  0.496746  0.242334  0.159132  1
  O  O45  1  0.249623  0.746906  0.654208  1
  O  O46  1  0.242334  0.496746  0.659132  1
  O  O47  1  0.493120  0.749268  0.657795  1
  O  O48  1  0.410682  0.591105  0.339197  1
  O  O49  1  0.415969  0.832296  0.325166  1
  O  O50  1  0.178290  0.590595  0.340149  1
  O  O51  1  0.591105  0.410682  0.839197  1
  O  O52  1  0.590595  0.178290  0.840149  1
  O  O53  1  0.832296  0.415969  0.825166  1
