# generated using pymatgen
data_Cs4H10Au3
_symmetry_space_group_name_H-M   'P 1'
_cell_length_a   7.54245218
_cell_length_b   7.54245285
_cell_length_c   17.35761600
_cell_angle_alpha   90.00000000
_cell_angle_beta   90.00000000
_cell_angle_gamma   130.78609761
_symmetry_Int_Tables_number   1
_chemical_formula_structural   Cs4H10Au3
_chemical_formula_sum   'Cs8 H20 Au6'
_cell_volume   747.65153009
_cell_formula_units_Z   2
loop_
 _symmetry_equiv_pos_site_id
 _symmetry_equiv_pos_as_xyz
  1  'x, y, z'
loop_
 _atom_site_type_symbol
 _atom_site_label
 _atom_site_symmetry_multiplicity
 _atom_site_fract_x
 _atom_site_fract_y
 _atom_site_fract_z
 _atom_site_occupancy
  Cs  Cs0  1  0.743431  0.256569  0.878962  1
  Cs  Cs1  1  0.256569  0.743431  0.121038  1
  Cs  Cs2  1  0.756569  0.243431  0.378962  1
  Cs  Cs3  1  0.243431  0.756569  0.621038  1
  Cs  Cs4  1  0.958107  0.041893  0.644915  1
  Cs  Cs5  1  0.041893  0.958107  0.355085  1
  Cs  Cs6  1  0.541893  0.458107  0.144915  1
  Cs  Cs7  1  0.458107  0.541893  0.855085  1
  H  H8  1  0.397915  0.231110  0.487209  1
  H  H9  1  0.231110  0.397915  0.512791  1
  H  H10  1  0.731110  0.897915  0.987209  1
  H  H11  1  0.897915  0.731110  0.012791  1
  H  H12  1  0.602085  0.768890  0.512791  1
  H  H13  1  0.768890  0.602085  0.487209  1
  H  H14  1  0.268890  0.102085  0.012791  1
  H  H15  1  0.102085  0.268890  0.987209  1
  H  H16  1  0.737182  0.262818  0.671565  1
  H  H17  1  0.262818  0.737182  0.328435  1
  H  H18  1  0.762818  0.237182  0.171565  1
  H  H19  1  0.237182  0.762818  0.828435  1
  H  H20  1  0.993921  0.006079  0.820215  1
  H  H21  1  0.006079  0.993921  0.179785  1
  H  H22  1  0.506079  0.493921  0.320215  1
  H  H23  1  0.493921  0.506079  0.679785  1
  H  H24  1  0.365646  0.134354  0.750000  1
  H  H25  1  0.134354  0.365646  0.250000  1
  H  H26  1  0.634354  0.865646  0.250000  1
  H  H27  1  0.865646  0.634354  0.750000  1
  Au  Au28  1  0.615767  0.384233  0.687841  1
  Au  Au29  1  0.384233  0.615767  0.312159  1
  Au  Au30  1  0.884233  0.115767  0.187841  1
  Au  Au31  1  0.115767  0.884233  0.812159  1
  Au  Au32  1  0.500000  0.500000  0.500000  1
  Au  Au33  1  0.000000  0.000000  0.000000  1
