# generated using pymatgen
data_Tb3Ce2Y7Ru4
_symmetry_space_group_name_H-M   'P 1'
_cell_length_a   6.38111582
_cell_length_b   7.25738450
_cell_length_c   9.45478093
_cell_angle_alpha   90.10689991
_cell_angle_beta   89.95646486
_cell_angle_gamma   87.53568251
_symmetry_Int_Tables_number   1
_chemical_formula_structural   Tb3Ce2Y7Ru4
_chemical_formula_sum   'Tb3 Ce2 Y7 Ru4'
_cell_volume   437.44705458
_cell_formula_units_Z   1
loop_
 _symmetry_equiv_pos_site_id
 _symmetry_equiv_pos_as_xyz
  1  'x, y, z'
loop_
 _atom_site_type_symbol
 _atom_site_label
 _atom_site_symmetry_multiplicity
 _atom_site_fract_x
 _atom_site_fract_y
 _atom_site_fract_z
 _atom_site_occupancy
  Tb  Tb0  1  0.135933  0.461479  0.750011  1
  Tb  Tb1  1  0.864149  0.538632  0.250102  1
  Tb  Tb2  1  0.172983  0.171808  0.063373  1
  Ce  Ce3  1  0.657089  0.060763  0.250021  1
  Ce  Ce4  1  0.342909  0.939211  0.750126  1
  Y  Y5  1  0.827301  0.827696  0.936573  1
  Y  Y6  1  0.670110  0.325603  0.932287  1
  Y  Y7  1  0.827164  0.827852  0.563307  1
  Y  Y8  1  0.329899  0.674217  0.067439  1
  Y  Y9  1  0.172809  0.171999  0.437013  1
  Y  Y10  1  0.329867  0.674400  0.432675  1
  Y  Y11  1  0.669969  0.325767  0.567636  1
  Ru  Ru12  1  0.470659  0.361130  0.249878  1
  Ru  Ru13  1  0.528388  0.639149  0.750065  1
  Ru  Ru14  1  0.990823  0.110782  0.749931  1
  Ru  Ru15  1  0.009949  0.889513  0.249562  1
