# generated using pymatgen
data_DyMg(U3Sb5)2
_symmetry_space_group_name_H-M   'P 1'
_cell_length_a   9.30341400
_cell_length_b   9.30341462
_cell_length_c   6.23901600
_cell_angle_alpha   90.00000000
_cell_angle_beta   90.00000000
_cell_angle_gamma   120.00000492
_symmetry_Int_Tables_number   1
_chemical_formula_structural   DyMg(U3Sb5)2
_chemical_formula_sum   'Dy1 Mg1 U6 Sb10'
_cell_volume   467.66130058
_cell_formula_units_Z   1
loop_
 _symmetry_equiv_pos_site_id
 _symmetry_equiv_pos_as_xyz
  1  'x, y, z'
loop_
 _atom_site_type_symbol
 _atom_site_label
 _atom_site_symmetry_multiplicity
 _atom_site_fract_x
 _atom_site_fract_y
 _atom_site_fract_z
 _atom_site_occupancy
  Dy  Dy0  1  0.000000  0.000000  0.500000  1
  Mg  Mg1  1  0.000000  0.000000  0.000000  1
  U  U2  1  0.387196  0.000000  0.751062  1
  U  U3  1  0.387196  0.387196  0.248938  1
  U  U4  1  0.000000  0.612804  0.248938  1
  U  U5  1  0.000000  0.387196  0.751062  1
  U  U6  1  0.612804  0.612804  0.751062  1
  U  U7  1  0.612804  0.000000  0.248938  1
  Sb  Sb8  1  0.666667  0.333333  0.500000  1
  Sb  Sb9  1  0.333333  0.666667  0.000000  1
  Sb  Sb10  1  0.726286  0.000000  0.754293  1
  Sb  Sb11  1  0.726286  0.726286  0.245707  1
  Sb  Sb12  1  0.333333  0.666667  0.500000  1
  Sb  Sb13  1  0.666667  0.333333  0.000000  1
  Sb  Sb14  1  0.273714  0.000000  0.245707  1
  Sb  Sb15  1  0.273714  0.273714  0.754293  1
  Sb  Sb16  1  0.000000  0.726286  0.754293  1
  Sb  Sb17  1  0.000000  0.273714  0.245707  1
