# generated using pymatgen
data_La4YbDy2OsBr12
_symmetry_space_group_name_H-M   'P 1'
_cell_length_a   9.70279208
_cell_length_b   9.72925787
_cell_length_c   9.48286811
_cell_angle_alpha   106.83517204
_cell_angle_beta   108.40122019
_cell_angle_gamma   106.23629140
_symmetry_Int_Tables_number   1
_chemical_formula_structural   La4YbDy2OsBr12
_chemical_formula_sum   'La4 Yb1 Dy2 Os1 Br12'
_cell_volume   742.07771033
_cell_formula_units_Z   1
loop_
 _symmetry_equiv_pos_site_id
 _symmetry_equiv_pos_as_xyz
  1  'x, y, z'
loop_
 _atom_site_type_symbol
 _atom_site_label
 _atom_site_symmetry_multiplicity
 _atom_site_fract_x
 _atom_site_fract_y
 _atom_site_fract_z
 _atom_site_occupancy
  La  La0  1  0.111457  0.023957  0.304333  1
  La  La1  1  0.895335  0.973771  0.699303  1
  La  La2  1  0.977699  0.674967  0.887443  1
  La  La3  1  0.674814  0.891884  0.974314  1
  Yb  Yb4  1  0.497390  0.499952  0.493937  1
  Dy  Dy5  1  0.311754  0.113851  0.029889  1
  Dy  Dy6  1  0.021449  0.308182  0.109250  1
  Os  Os7  1  0.001325  0.998945  0.002919  1
  Br  Br8  1  0.689628  0.225852  0.072203  1
  Br  Br9  1  0.361731  0.446011  0.154971  1
  Br  Br10  1  0.071055  0.671092  0.218143  1
  Br  Br11  1  0.789500  0.934376  0.322918  1
  Br  Br12  1  0.469138  0.176997  0.371807  1
  Br  Br13  1  0.168476  0.381618  0.452507  1
  Br  Br14  1  0.823190  0.616884  0.531853  1
  Br  Br15  1  0.532345  0.823308  0.611019  1
  Br  Br16  1  0.226019  0.074455  0.698588  1
  Br  Br17  1  0.931075  0.316082  0.795319  1
  Br  Br18  1  0.621898  0.541935  0.828489  1
  Br  Br19  1  0.324727  0.805884  0.940800  1
