# generated using pymatgen
data_Tb8Sc9Si16Ag3
_symmetry_space_group_name_H-M   'P 1'
_cell_length_a   6.93220703
_cell_length_b   7.42905001
_cell_length_c   14.08083800
_cell_angle_alpha   90.00000000
_cell_angle_beta   90.00000000
_cell_angle_gamma   89.80937235
_symmetry_Int_Tables_number   1
_chemical_formula_structural   Tb8Sc9Si16Ag3
_chemical_formula_sum   'Tb8 Sc9 Si16 Ag3'
_cell_volume   725.15509731
_cell_formula_units_Z   1
loop_
 _symmetry_equiv_pos_site_id
 _symmetry_equiv_pos_as_xyz
  1  'x, y, z'
loop_
 _atom_site_type_symbol
 _atom_site_label
 _atom_site_symmetry_multiplicity
 _atom_site_fract_x
 _atom_site_fract_y
 _atom_site_fract_z
 _atom_site_occupancy
  Tb  Tb0  1  0.011321  0.178823  0.099387  1
  Tb  Tb1  1  0.991409  0.816661  0.902464  1
  Tb  Tb2  1  0.486356  0.672258  0.902601  1
  Tb  Tb3  1  0.991409  0.816661  0.597536  1
  Tb  Tb4  1  0.510649  0.318116  0.098118  1
  Tb  Tb5  1  0.011321  0.178823  0.400613  1
  Tb  Tb6  1  0.510649  0.318116  0.401882  1
  Tb  Tb7  1  0.486356  0.672258  0.597399  1
  Sc  Sc8  1  0.658640  0.998692  0.750000  1
  Sc  Sc9  1  0.324403  0.184845  0.626882  1
  Sc  Sc10  1  0.668918  0.822818  0.373192  1
  Sc  Sc11  1  0.170370  0.679873  0.372347  1
  Sc  Sc12  1  0.668918  0.822818  0.126808  1
  Sc  Sc13  1  0.836668  0.326435  0.626935  1
  Sc  Sc14  1  0.324403  0.184845  0.873118  1
  Sc  Sc15  1  0.836668  0.326435  0.873065  1
  Sc  Sc16  1  0.170370  0.679873  0.127653  1
  Si  Si17  1  0.028774  0.098152  0.750000  1
  Si  Si18  1  0.968958  0.899104  0.250000  1
  Si  Si19  1  0.471001  0.602477  0.250000  1
  Si  Si20  1  0.536840  0.386269  0.750000  1
  Si  Si21  1  0.290237  0.884190  0.750000  1
  Si  Si22  1  0.716118  0.116871  0.250000  1
  Si  Si23  1  0.218258  0.384446  0.250000  1
  Si  Si24  1  0.780800  0.625818  0.750000  1
  Si  Si25  1  0.157909  0.460177  0.530229  1
  Si  Si26  1  0.839831  0.537718  0.465766  1
  Si  Si27  1  0.340362  0.961542  0.468081  1
  Si  Si28  1  0.839831  0.537718  0.034234  1
  Si  Si29  1  0.655994  0.032897  0.539594  1
  Si  Si30  1  0.157909  0.460177  0.969771  1
  Si  Si31  1  0.655994  0.032897  0.960406  1
  Si  Si32  1  0.340362  0.961542  0.031919  1
  Ag  Ag33  1  0.160157  0.519573  0.750000  1
  Ag  Ag34  1  0.841409  0.482579  0.250000  1
  Ag  Ag35  1  0.340427  0.017502  0.250000  1
