# generated using pymatgen
data_Sc11Tc2IrPt
_symmetry_space_group_name_H-M   'P 1'
_cell_length_a   9.51332681
_cell_length_b   9.54196225
_cell_length_c   9.51162695
_cell_angle_alpha   59.90547286
_cell_angle_beta   60.20499392
_cell_angle_gamma   60.09911205
_symmetry_Int_Tables_number   1
_chemical_formula_structural   Sc11Tc2IrPt
_chemical_formula_sum   'Sc22 Tc4 Ir2 Pt2'
_cell_volume   611.49211792
_cell_formula_units_Z   2
loop_
 _symmetry_equiv_pos_site_id
 _symmetry_equiv_pos_as_xyz
  1  'x, y, z'
loop_
 _atom_site_type_symbol
 _atom_site_label
 _atom_site_symmetry_multiplicity
 _atom_site_fract_x
 _atom_site_fract_y
 _atom_site_fract_z
 _atom_site_occupancy
  Sc  Sc0  1  0.803282  0.803284  0.196718  1
  Sc  Sc1  1  0.197873  0.802129  0.195403  1
  Sc  Sc2  1  0.802851  0.197150  0.195868  1
  Sc  Sc3  1  0.196718  0.196716  0.803282  1
  Sc  Sc4  1  0.802127  0.197871  0.804597  1
  Sc  Sc5  1  0.197149  0.802850  0.804132  1
  Sc  Sc6  1  0.618131  0.613341  0.148498  1
  Sc  Sc7  1  0.616145  0.150341  0.613974  1
  Sc  Sc8  1  0.150345  0.616141  0.619540  1
  Sc  Sc9  1  0.613340  0.618139  0.620025  1
  Sc  Sc10  1  0.381869  0.386659  0.851502  1
  Sc  Sc11  1  0.383855  0.849659  0.386026  1
  Sc  Sc12  1  0.849655  0.383859  0.380460  1
  Sc  Sc13  1  0.386660  0.381861  0.379975  1
  Sc  Sc14  1  0.843349  0.846550  0.469767  1
  Sc  Sc15  1  0.843952  0.469195  0.845766  1
  Sc  Sc16  1  0.469199  0.843951  0.841086  1
  Sc  Sc17  1  0.846558  0.843341  0.840338  1
  Sc  Sc18  1  0.156651  0.153450  0.530233  1
  Sc  Sc19  1  0.156048  0.530805  0.154234  1
  Sc  Sc20  1  0.530801  0.156049  0.158914  1
  Sc  Sc21  1  0.153442  0.156659  0.159662  1
  Tc  Tc22  1  0.000000  0.000000  0.000000  1
  Tc  Tc23  1  0.500000  0.000000  0.500000  1
  Tc  Tc24  1  0.500000  0.500000  0.000000  1
  Tc  Tc25  1  0.000000  0.500000  0.000000  1
  Ir  Ir26  1  0.500000  0.500000  0.500000  1
  Ir  Ir27  1  0.000000  0.000000  0.500000  1
  Pt  Pt28  1  0.000000  0.500000  0.500000  1
  Pt  Pt29  1  0.500000  0.000000  0.000000  1
