# generated using pymatgen
data_LaNd2Pt9
_symmetry_space_group_name_H-M   'P 1'
_cell_length_a   9.50800820
_cell_length_b   9.50800820
_cell_length_c   9.50800850
_cell_angle_alpha   33.51483582
_cell_angle_beta   33.51483418
_cell_angle_gamma   33.51483641
_symmetry_Int_Tables_number   1
_chemical_formula_structural   LaNd2Pt9
_chemical_formula_sum   'La1 Nd2 Pt9'
_cell_volume   233.39952023
_cell_formula_units_Z   1
loop_
 _symmetry_equiv_pos_site_id
 _symmetry_equiv_pos_as_xyz
  1  'x, y, z'
loop_
 _atom_site_type_symbol
 _atom_site_label
 _atom_site_symmetry_multiplicity
 _atom_site_fract_x
 _atom_site_fract_y
 _atom_site_fract_z
 _atom_site_occupancy
  La  La0  1  0.000000  0.000000  0.000000  1
  Nd  Nd1  1  0.139368  0.139368  0.139368  1
  Nd  Nd2  1  0.860632  0.860632  0.860632  1
  Pt  Pt3  1  0.586384  0.586384  0.081144  1
  Pt  Pt4  1  0.332831  0.332831  0.332831  1
  Pt  Pt5  1  0.918856  0.413615  0.413617  1
  Pt  Pt6  1  0.413615  0.918856  0.413617  1
  Pt  Pt7  1  0.500000  0.500000  0.500000  1
  Pt  Pt8  1  0.586385  0.081144  0.586383  1
  Pt  Pt9  1  0.081144  0.586385  0.586383  1
  Pt  Pt10  1  0.667169  0.667169  0.667169  1
  Pt  Pt11  1  0.413616  0.413616  0.918856  1
