# generated using pymatgen
data_Er3AlAg3Ge2
_symmetry_space_group_name_H-M   'P 1'
_cell_length_a   7.18039900
_cell_length_b   7.18039930
_cell_length_c   4.17974600
_cell_angle_alpha   90.00000000
_cell_angle_beta   90.00000000
_cell_angle_gamma   120.00000323
_symmetry_Int_Tables_number   1
_chemical_formula_structural   Er3AlAg3Ge2
_chemical_formula_sum   'Er3 Al1 Ag3 Ge2'
_cell_volume   186.62837818
_cell_formula_units_Z   1
loop_
 _symmetry_equiv_pos_site_id
 _symmetry_equiv_pos_as_xyz
  1  'x, y, z'
loop_
 _atom_site_type_symbol
 _atom_site_label
 _atom_site_symmetry_multiplicity
 _atom_site_fract_x
 _atom_site_fract_y
 _atom_site_fract_z
 _atom_site_occupancy
  Er  Er0  1  0.570778  0.000000  0.000000  1
  Er  Er1  1  0.429222  0.429222  0.000000  1
  Er  Er2  1  0.000000  0.570778  0.000000  1
  Al  Al3  1  0.000000  0.000000  0.000000  1
  Ag  Ag4  1  0.755437  0.755437  0.500000  1
  Ag  Ag5  1  0.244563  0.000000  0.500000  1
  Ag  Ag6  1  0.000000  0.244563  0.500000  1
  Ge  Ge7  1  0.666667  0.333333  0.500000  1
  Ge  Ge8  1  0.333333  0.666667  0.500000  1
