# generated using pymatgen
data_Y2LuAl3Ga2Co
_symmetry_space_group_name_H-M   'P 1'
_cell_length_a   6.89078192
_cell_length_b   6.89078350
_cell_length_c   4.22416400
_cell_angle_alpha   90.00000000
_cell_angle_beta   90.00000000
_cell_angle_gamma   119.66277237
_symmetry_Int_Tables_number   1
_chemical_formula_structural   Y2LuAl3Ga2Co
_chemical_formula_sum   'Y2 Lu1 Al3 Ga2 Co1'
_cell_volume   174.29073240
_cell_formula_units_Z   1
loop_
 _symmetry_equiv_pos_site_id
 _symmetry_equiv_pos_as_xyz
  1  'x, y, z'
loop_
 _atom_site_type_symbol
 _atom_site_label
 _atom_site_symmetry_multiplicity
 _atom_site_fract_x
 _atom_site_fract_y
 _atom_site_fract_z
 _atom_site_occupancy
  Y  Y0  1  0.594668  0.999257  0.000000  1
  Y  Y1  1  0.999257  0.594668  0.000000  1
  Lu  Lu2  1  0.399433  0.399433  0.000000  1
  Al  Al3  1  0.227977  0.000503  0.500000  1
  Al  Al4  1  0.000503  0.227977  0.500000  1
  Al  Al5  1  0.772807  0.772807  0.500000  1
  Ga  Ga6  1  0.334789  0.663812  0.500000  1
  Ga  Ga7  1  0.663812  0.334789  0.500000  1
  Co  Co8  1  0.006754  0.006754  0.000000  1
