# generated using pymatgen
data_Y5Ho5InBi5
_symmetry_space_group_name_H-M   'P 1'
_cell_length_a   9.12447091
_cell_length_b   9.14290429
_cell_length_c   6.46009000
_cell_angle_alpha   90.00000000
_cell_angle_beta   90.00000000
_cell_angle_gamma   120.06684914
_symmetry_Int_Tables_number   1
_chemical_formula_structural   Y5Ho5InBi5
_chemical_formula_sum   'Y5 Ho5 In1 Bi5'
_cell_volume   466.41028928
_cell_formula_units_Z   1
loop_
 _symmetry_equiv_pos_site_id
 _symmetry_equiv_pos_as_xyz
  1  'x, y, z'
loop_
 _atom_site_type_symbol
 _atom_site_label
 _atom_site_symmetry_multiplicity
 _atom_site_fract_x
 _atom_site_fract_y
 _atom_site_fract_z
 _atom_site_occupancy
  Y  Y0  1  0.758677  0.757381  0.750000  1
  Y  Y1  1  0.241323  0.998705  0.750000  1
  Y  Y2  1  0.235860  0.243676  0.250000  1
  Y  Y3  1  0.764140  0.007816  0.250000  1
  Y  Y4  1  0.000000  0.755070  0.250000  1
  Ho  Ho5  1  0.672052  0.334348  0.000459  1
  Ho  Ho6  1  0.327948  0.662298  0.000459  1
  Ho  Ho7  1  0.327948  0.662298  0.499541  1
  Ho  Ho8  1  0.672052  0.334348  0.499541  1
  Ho  Ho9  1  0.000000  0.241087  0.750000  1
  In  In10  1  0.000000  0.394726  0.250000  1
  Bi  Bi11  1  0.391345  0.389340  0.750000  1
  Bi  Bi12  1  0.608655  0.997995  0.750000  1
  Bi  Bi13  1  0.000000  0.608319  0.750000  1
  Bi  Bi14  1  0.609992  0.611293  0.250000  1
  Bi  Bi15  1  0.390008  0.001300  0.250000  1
