# generated using pymatgen
data_Th4Al17GaIr6
_symmetry_space_group_name_H-M   'P 1'
_cell_length_a   7.67093208
_cell_length_b   7.67093082
_cell_length_c   9.52446600
_cell_angle_alpha   90.00000000
_cell_angle_beta   90.00000000
_cell_angle_gamma   119.40867593
_symmetry_Int_Tables_number   1
_chemical_formula_structural   Th4Al17GaIr6
_chemical_formula_sum   'Th4 Al17 Ga1 Ir6'
_cell_volume   488.23007580
_cell_formula_units_Z   1
loop_
 _symmetry_equiv_pos_site_id
 _symmetry_equiv_pos_as_xyz
  1  'x, y, z'
loop_
 _atom_site_type_symbol
 _atom_site_label
 _atom_site_symmetry_multiplicity
 _atom_site_fract_x
 _atom_site_fract_y
 _atom_site_fract_z
 _atom_site_occupancy
  Th  Th0  1  0.993601  0.673564  0.250000  1
  Th  Th1  1  0.005323  0.328543  0.750000  1
  Th  Th2  1  0.673564  0.993601  0.250000  1
  Th  Th3  1  0.328543  0.005323  0.750000  1
  Al  Al4  1  0.866447  0.866447  0.750000  1
  Al  Al5  1  0.004434  0.336539  0.073634  1
  Al  Al6  1  0.995449  0.664106  0.926136  1
  Al  Al7  1  0.995449  0.664106  0.573864  1
  Al  Al8  1  0.336539  0.004434  0.426366  1
  Al  Al9  1  0.004434  0.336539  0.426366  1
  Al  Al10  1  0.664106  0.995449  0.573864  1
  Al  Al11  1  0.664106  0.995449  0.926136  1
  Al  Al12  1  0.336539  0.004434  0.073634  1
  Al  Al13  1  0.336011  0.336011  0.549267  1
  Al  Al14  1  0.663026  0.663026  0.453828  1
  Al  Al15  1  0.663026  0.663026  0.046172  1
  Al  Al16  1  0.336011  0.336011  0.950733  1
  Al  Al17  1  0.338979  0.546339  0.250000  1
  Al  Al18  1  0.659573  0.453966  0.750000  1
  Al  Al19  1  0.546339  0.338979  0.250000  1
  Al  Al20  1  0.453966  0.659573  0.750000  1
  Ga  Ga21  1  0.137821  0.137821  0.250000  1
  Ir  Ir22  1  0.671786  0.327216  0.999944  1
  Ir  Ir23  1  0.327216  0.671786  0.999944  1
  Ir  Ir24  1  0.327216  0.671786  0.500056  1
  Ir  Ir25  1  0.671786  0.327216  0.500056  1
  Ir  Ir26  1  0.999356  0.999356  0.997725  1
  Ir  Ir27  1  0.999356  0.999356  0.502275  1
