# generated using pymatgen
data_Yb3CdIrRu3O14
_symmetry_space_group_name_H-M   'P 1'
_cell_length_a   7.28909071
_cell_length_b   7.28909200
_cell_length_c   7.15997252
_cell_angle_alpha   59.40163099
_cell_angle_beta   59.40162667
_cell_angle_gamma   59.99999978
_symmetry_Int_Tables_number   1
_chemical_formula_structural   Yb3CdIrRu3O14
_chemical_formula_sum   'Yb3 Cd1 Ir1 Ru3 O14'
_cell_volume   266.53572713
_cell_formula_units_Z   1
loop_
 _symmetry_equiv_pos_site_id
 _symmetry_equiv_pos_as_xyz
  1  'x, y, z'
loop_
 _atom_site_type_symbol
 _atom_site_label
 _atom_site_symmetry_multiplicity
 _atom_site_fract_x
 _atom_site_fract_y
 _atom_site_fract_z
 _atom_site_occupancy
  Yb  Yb0  1  0.125000  0.625000  0.125000  1
  Yb  Yb1  1  0.625000  0.125000  0.125000  1
  Yb  Yb2  1  0.125000  0.125000  0.125000  1
  Cd  Cd3  1  0.125000  0.125000  0.625000  1
  Ir  Ir4  1  0.625000  0.625000  0.125000  1
  Ru  Ru5  1  0.625000  0.125000  0.625000  1
  Ru  Ru6  1  0.125000  0.625000  0.625000  1
  Ru  Ru7  1  0.625000  0.625000  0.625000  1
  O  O8  1  0.702916  0.702916  0.295433  1
  O  O9  1  0.940800  0.558597  0.559803  1
  O  O10  1  0.547084  0.951265  0.954567  1
  O  O11  1  0.940800  0.940800  0.559803  1
  O  O12  1  0.951265  0.547084  0.954567  1
  O  O13  1  0.558597  0.940800  0.559803  1
  O  O14  1  0.298735  0.702916  0.295433  1
  O  O15  1  0.309200  0.691403  0.690197  1
  O  O16  1  0.702916  0.298735  0.295433  1
  O  O17  1  0.691403  0.309200  0.690197  1
  O  O18  1  0.547084  0.547084  0.954567  1
  O  O19  1  0.309200  0.309200  0.690197  1
  O  O20  1  0.245133  0.245133  0.264601  1
  O  O21  1  0.004867  0.004867  0.985399  1
