# generated using pymatgen
data_SmDySi5(PRh6)2
_symmetry_space_group_name_H-M   'P 1'
_cell_length_a   9.72360565
_cell_length_b   9.69211128
_cell_length_c   3.85312226
_cell_angle_alpha   89.97959111
_cell_angle_beta   90.02148896
_cell_angle_gamma   119.78870184
_symmetry_Int_Tables_number   1
_chemical_formula_structural   SmDySi5(PRh6)2
_chemical_formula_sum   'Sm1 Dy1 Si5 P2 Rh12'
_cell_volume   315.14460024
_cell_formula_units_Z   1
loop_
 _symmetry_equiv_pos_site_id
 _symmetry_equiv_pos_as_xyz
  1  'x, y, z'
loop_
 _atom_site_type_symbol
 _atom_site_label
 _atom_site_symmetry_multiplicity
 _atom_site_fract_x
 _atom_site_fract_y
 _atom_site_fract_z
 _atom_site_occupancy
  Sm  Sm0  1  0.332446  0.665404  0.740067  1
  Dy  Dy1  1  0.666042  0.334906  0.241931  1
  Si  Si2  1  0.999974  0.997637  0.676954  1
  Si  Si3  1  0.400219  0.288747  0.741144  1
  Si  Si4  1  0.711588  0.113673  0.742121  1
  Si  Si5  1  0.886708  0.600031  0.741315  1
  Si  Si6  1  0.600861  0.709093  0.240750  1
  P  P7  1  0.290986  0.889961  0.239555  1
  P  P8  1  0.109171  0.398748  0.240161  1
  Rh  Rh9  1  0.445627  0.068088  0.741767  1
  Rh  Rh10  1  0.933771  0.379940  0.741934  1
  Rh  Rh11  1  0.621018  0.555939  0.741539  1
  Rh  Rh12  1  0.554437  0.941085  0.240921  1
  Rh  Rh13  1  0.061521  0.615298  0.239946  1
  Rh  Rh14  1  0.379547  0.440173  0.239934  1
  Rh  Rh15  1  0.147415  0.272041  0.739699  1
  Rh  Rh16  1  0.727966  0.877762  0.739968  1
  Rh  Rh17  1  0.126861  0.848318  0.739215  1
  Rh  Rh18  1  0.867202  0.753022  0.243514  1
  Rh  Rh19  1  0.248599  0.108294  0.243342  1
  Rh  Rh20  1  0.888041  0.141841  0.244223  1
