# generated using pymatgen
data_Lu3BiIrRh3O14
_symmetry_space_group_name_H-M   'P 1'
_cell_length_a   7.13936262
_cell_length_b   7.23004286
_cell_length_c   7.13936200
_cell_angle_alpha   60.41402442
_cell_angle_beta   59.99999362
_cell_angle_gamma   60.41402915
_symmetry_Int_Tables_number   1
_chemical_formula_structural   Lu3BiIrRh3O14
_chemical_formula_sum   'Lu3 Bi1 Ir1 Rh3 O14'
_cell_volume   262.20100856
_cell_formula_units_Z   1
loop_
 _symmetry_equiv_pos_site_id
 _symmetry_equiv_pos_as_xyz
  1  'x, y, z'
loop_
 _atom_site_type_symbol
 _atom_site_label
 _atom_site_symmetry_multiplicity
 _atom_site_fract_x
 _atom_site_fract_y
 _atom_site_fract_z
 _atom_site_occupancy
  Lu  Lu0  1  0.125000  0.125000  0.125000  1
  Lu  Lu1  1  0.625000  0.125000  0.125000  1
  Lu  Lu2  1  0.125000  0.125000  0.625000  1
  Bi  Bi3  1  0.125000  0.625000  0.125000  1
  Ir  Ir4  1  0.625000  0.125000  0.625000  1
  Rh  Rh5  1  0.625000  0.625000  0.625000  1
  Rh  Rh6  1  0.625000  0.625000  0.125000  1
  Rh  Rh7  1  0.125000  0.625000  0.625000  1
  O  O8  1  0.254266  0.237203  0.254266  1
  O  O9  1  0.283911  0.724865  0.283911  1
  O  O10  1  0.962017  0.965515  0.536234  1
  O  O11  1  0.536234  0.965515  0.536234  1
  O  O12  1  0.707313  0.724865  0.283911  1
  O  O13  1  0.966089  0.525135  0.542687  1
  O  O14  1  0.713766  0.284485  0.713766  1
  O  O15  1  0.287983  0.284485  0.713766  1
  O  O16  1  0.713766  0.284485  0.287983  1
  O  O17  1  0.283911  0.724865  0.707313  1
  O  O18  1  0.966089  0.525135  0.966089  1
  O  O19  1  0.542687  0.525135  0.966089  1
  O  O20  1  0.995734  0.012797  0.995734  1
  O  O21  1  0.536234  0.965515  0.962017  1
