# generated using pymatgen
data_Ho16In4Os2PtRh
_symmetry_space_group_name_H-M   'P 1'
_cell_length_a   9.65476125
_cell_length_b   9.69241931
_cell_length_c   9.63827775
_cell_angle_alpha   59.81400343
_cell_angle_beta   59.69020565
_cell_angle_gamma   59.87088969
_symmetry_Int_Tables_number   1
_chemical_formula_structural   Ho16In4Os2PtRh
_chemical_formula_sum   'Ho16 In4 Os2 Pt1 Rh1'
_cell_volume   634.74212331
_cell_formula_units_Z   1
loop_
 _symmetry_equiv_pos_site_id
 _symmetry_equiv_pos_as_xyz
  1  'x, y, z'
loop_
 _atom_site_type_symbol
 _atom_site_label
 _atom_site_symmetry_multiplicity
 _atom_site_fract_x
 _atom_site_fract_y
 _atom_site_fract_z
 _atom_site_occupancy
  Ho  Ho0  1  0.189611  0.191522  0.804749  1
  Ho  Ho1  1  0.596814  0.598806  0.205574  1
  Ho  Ho2  1  0.440774  0.059356  0.440513  1
  Ho  Ho3  1  0.439123  0.443246  0.060154  1
  Ho  Ho4  1  0.811866  0.187242  0.813649  1
  Ho  Ho5  1  0.193072  0.806757  0.193414  1
  Ho  Ho6  1  0.439123  0.057476  0.060154  1
  Ho  Ho7  1  0.189611  0.814119  0.804749  1
  Ho  Ho8  1  0.059914  0.443057  0.053971  1
  Ho  Ho9  1  0.804511  0.815125  0.189434  1
  Ho  Ho10  1  0.206698  0.597471  0.598359  1
  Ho  Ho11  1  0.062253  0.443979  0.439470  1
  Ho  Ho12  1  0.062253  0.054296  0.439470  1
  Ho  Ho13  1  0.804511  0.190930  0.189434  1
  Ho  Ho14  1  0.597641  0.201799  0.600310  1
  Ho  Ho15  1  0.597641  0.600252  0.600310  1
  In  In16  1  0.832562  0.833280  0.832278  1
  In  In17  1  0.833027  0.833028  0.500918  1
  In  In18  1  0.499794  0.833339  0.833528  1
  In  In19  1  0.832562  0.501880  0.832278  1
  Os  Os20  1  0.393028  0.826846  0.392482  1
  Os  Os21  1  0.393028  0.387644  0.392482  1
  Pt  Pt22  1  0.827956  0.389426  0.393192  1
  Rh  Rh23  1  0.392625  0.389123  0.829129  1
