# generated using pymatgen
data_YHfTa4(B2Ru5)2
_symmetry_space_group_name_H-M   'P 1'
_cell_length_a   9.50824692
_cell_length_b   9.50824740
_cell_length_c   3.07444200
_cell_angle_alpha   90.00000000
_cell_angle_beta   90.00000000
_cell_angle_gamma   90.37835536
_symmetry_Int_Tables_number   1
_chemical_formula_structural   YHfTa4(B2Ru5)2
_chemical_formula_sum   'Y1 Hf1 Ta4 B4 Ru10'
_cell_volume   277.94429237
_cell_formula_units_Z   1
loop_
 _symmetry_equiv_pos_site_id
 _symmetry_equiv_pos_as_xyz
  1  'x, y, z'
loop_
 _atom_site_type_symbol
 _atom_site_label
 _atom_site_symmetry_multiplicity
 _atom_site_fract_x
 _atom_site_fract_y
 _atom_site_fract_z
 _atom_site_occupancy
  Y  Y0  1  0.824485  0.675515  0.000000  1
  Hf  Hf1  1  0.177049  0.322951  0.000000  1
  Ta  Ta2  1  0.324622  0.823793  0.000000  1
  Ta  Ta3  1  0.676207  0.175378  0.000000  1
  Ta  Ta4  1  0.499639  0.499801  0.000000  1
  Ta  Ta5  1  0.000199  0.000361  0.000000  1
  B  B6  1  0.619720  0.880280  0.000000  1
  B  B7  1  0.378241  0.121759  0.000000  1
  B  B8  1  0.122532  0.620524  0.000000  1
  B  B9  1  0.879476  0.377468  0.000000  1
  Ru  Ru10  1  0.558516  0.723663  0.500000  1
  Ru  Ru11  1  0.430949  0.281217  0.500000  1
  Ru  Ru12  1  0.082182  0.784212  0.500000  1
  Ru  Ru13  1  0.926326  0.215316  0.500000  1
  Ru  Ru14  1  0.284684  0.573674  0.500000  1
  Ru  Ru15  1  0.715788  0.417818  0.500000  1
  Ru  Ru16  1  0.218783  0.069051  0.500000  1
  Ru  Ru17  1  0.776337  0.941484  0.500000  1
  Ru  Ru18  1  0.497540  0.002460  0.500000  1
  Ru  Ru19  1  0.006726  0.493274  0.500000  1
