# generated using pymatgen
data_NdMnCo(Sb6Os)2
_symmetry_space_group_name_H-M   'P 1'
_cell_length_a   8.04764935
_cell_length_b   8.06448758
_cell_length_c   8.07528799
_cell_angle_alpha   109.40259543
_cell_angle_beta   109.50091498
_cell_angle_gamma   109.18708337
_symmetry_Int_Tables_number   1
_chemical_formula_structural   NdMnCo(Sb6Os)2
_chemical_formula_sum   'Nd1 Mn1 Co1 Sb12 Os2'
_cell_volume   405.04097543
_cell_formula_units_Z   1
loop_
 _symmetry_equiv_pos_site_id
 _symmetry_equiv_pos_as_xyz
  1  'x, y, z'
loop_
 _atom_site_type_symbol
 _atom_site_label
 _atom_site_symmetry_multiplicity
 _atom_site_fract_x
 _atom_site_fract_y
 _atom_site_fract_z
 _atom_site_occupancy
  Nd  Nd0  1  0.000000  0.000000  0.000000  1
  Mn  Mn1  1  0.000000  0.000000  0.500000  1
  Co  Co2  1  0.500000  0.500000  0.500000  1
  Sb  Sb3  1  0.154363  0.821864  0.659745  1
  Sb  Sb4  1  0.845637  0.178136  0.340255  1
  Sb  Sb5  1  0.836198  0.505278  0.658782  1
  Sb  Sb6  1  0.163802  0.494722  0.341218  1
  Sb  Sb7  1  0.822060  0.666856  0.162715  1
  Sb  Sb8  1  0.177940  0.333144  0.837285  1
  Sb  Sb9  1  0.504563  0.658581  0.835810  1
  Sb  Sb10  1  0.495437  0.341419  0.164190  1
  Sb  Sb11  1  0.659748  0.156773  0.816159  1
  Sb  Sb12  1  0.340252  0.843227  0.183841  1
  Sb  Sb13  1  0.665827  0.838559  0.506596  1
  Sb  Sb14  1  0.334173  0.161441  0.493404  1
  Os  Os15  1  0.500000  0.000000  0.000000  1
  Os  Os16  1  0.000000  0.500000  0.000000  1
