# generated using pymatgen
data_Tb2Yb9Pr9Sn16
_symmetry_space_group_name_H-M   'P 1'
_cell_length_a   8.00662816
_cell_length_b   8.50806366
_cell_length_c   16.04059747
_cell_angle_alpha   90.10061223
_cell_angle_beta   90.04245105
_cell_angle_gamma   89.94415564
_symmetry_Int_Tables_number   1
_chemical_formula_structural   Tb2Yb9Pr9Sn16
_chemical_formula_sum   'Tb2 Yb9 Pr9 Sn16'
_cell_volume   1092.69746813
_cell_formula_units_Z   1
loop_
 _symmetry_equiv_pos_site_id
 _symmetry_equiv_pos_as_xyz
  1  'x, y, z'
loop_
 _atom_site_type_symbol
 _atom_site_label
 _atom_site_symmetry_multiplicity
 _atom_site_fract_x
 _atom_site_fract_y
 _atom_site_fract_z
 _atom_site_occupancy
  Tb  Tb0  1  0.327390  0.828802  0.876187  1
  Tb  Tb1  1  0.827331  0.670428  0.624015  1
  Yb  Yb2  1  0.671137  0.170816  0.376703  1
  Yb  Yb3  1  0.172335  0.328753  0.124581  1
  Yb  Yb4  1  0.670855  0.171670  0.124409  1
  Yb  Yb5  1  0.171880  0.329423  0.376517  1
  Yb  Yb6  1  0.327514  0.830595  0.622155  1
  Yb  Yb7  1  0.158358  0.500061  0.748861  1
  Yb  Yb8  1  0.657644  0.999422  0.748132  1
  Yb  Yb9  1  0.843444  0.495288  0.250660  1
  Yb  Yb10  1  0.343115  0.005049  0.250175  1
  Pr  Pr11  1  0.829040  0.672970  0.875947  1
  Pr  Pr12  1  0.489208  0.314974  0.904248  1
  Pr  Pr13  1  0.991418  0.183799  0.595411  1
  Pr  Pr14  1  0.509356  0.687438  0.403345  1
  Pr  Pr15  1  0.010868  0.814226  0.098084  1
  Pr  Pr16  1  0.510501  0.685119  0.097038  1
  Pr  Pr17  1  0.010200  0.814851  0.403303  1
  Pr  Pr18  1  0.488440  0.314924  0.594928  1
  Pr  Pr19  1  0.990912  0.183730  0.904185  1
  Sn  Sn20  1  0.328877  0.035329  0.038737  1
  Sn  Sn21  1  0.829783  0.464825  0.461398  1
  Sn  Sn22  1  0.670966  0.961396  0.539643  1
  Sn  Sn23  1  0.173013  0.536568  0.960956  1
  Sn  Sn24  1  0.665039  0.964544  0.960664  1
  Sn  Sn25  1  0.164556  0.536822  0.540394  1
  Sn  Sn26  1  0.331440  0.036664  0.460281  1
  Sn  Sn27  1  0.831955  0.461917  0.040394  1
  Sn  Sn28  1  0.526203  0.607355  0.747778  1
  Sn  Sn29  1  0.030115  0.890001  0.749485  1
  Sn  Sn30  1  0.471599  0.395719  0.250831  1
  Sn  Sn31  1  0.971186  0.105353  0.250643  1
  Sn  Sn32  1  0.286020  0.140424  0.750519  1
  Sn  Sn33  1  0.784559  0.360766  0.749348  1
  Sn  Sn34  1  0.716787  0.859307  0.249909  1
  Sn  Sn35  1  0.216957  0.640668  0.250134  1
