# generated using pymatgen
data_NdEu(AlPt)2
_symmetry_space_group_name_H-M   'P 1'
_cell_length_a   4.48490200
_cell_length_b   7.21312900
_cell_length_c   7.88605900
_cell_angle_alpha   90.00000000
_cell_angle_beta   90.00000000
_cell_angle_gamma   90.00000000
_symmetry_Int_Tables_number   1
_chemical_formula_structural   NdEu(AlPt)2
_chemical_formula_sum   'Nd2 Eu2 Al4 Pt4'
_cell_volume   255.11540195
_cell_formula_units_Z   2
loop_
 _symmetry_equiv_pos_site_id
 _symmetry_equiv_pos_as_xyz
  1  'x, y, z'
loop_
 _atom_site_type_symbol
 _atom_site_label
 _atom_site_symmetry_multiplicity
 _atom_site_fract_x
 _atom_site_fract_y
 _atom_site_fract_z
 _atom_site_occupancy
  Nd  Nd0  1  0.750000  0.969944  0.321817  1
  Nd  Nd1  1  0.250000  0.530056  0.821817  1
  Eu  Eu2  1  0.750000  0.474759  0.180934  1
  Eu  Eu3  1  0.250000  0.025241  0.680934  1
  Al  Al4  1  0.750000  0.857208  0.934019  1
  Al  Al5  1  0.250000  0.642792  0.434019  1
  Al  Al6  1  0.750000  0.353263  0.565350  1
  Al  Al7  1  0.250000  0.146737  0.065350  1
  Pt  Pt8  1  0.750000  0.709895  0.614854  1
  Pt  Pt9  1  0.750000  0.217102  0.883026  1
  Pt  Pt10  1  0.250000  0.282898  0.383026  1
  Pt  Pt11  1  0.250000  0.790105  0.114854  1
