# generated using pymatgen
data_Ce4MgSiPt2Rh9
_symmetry_space_group_name_H-M   'P 1'
_cell_length_a   7.27639880
_cell_length_b   7.27494931
_cell_length_c   7.28359032
_cell_angle_alpha   108.65845348
_cell_angle_beta   108.69670524
_cell_angle_gamma   111.22226358
_symmetry_Int_Tables_number   1
_chemical_formula_structural   Ce4MgSiPt2Rh9
_chemical_formula_sum   'Ce4 Mg1 Si1 Pt2 Rh9'
_cell_volume   296.05584776
_cell_formula_units_Z   1
loop_
 _symmetry_equiv_pos_site_id
 _symmetry_equiv_pos_as_xyz
  1  'x, y, z'
loop_
 _atom_site_type_symbol
 _atom_site_label
 _atom_site_symmetry_multiplicity
 _atom_site_fract_x
 _atom_site_fract_y
 _atom_site_fract_z
 _atom_site_occupancy
  Ce  Ce0  1  0.009291  0.990583  0.499954  1
  Ce  Ce1  1  0.023759  0.516587  0.025709  1
  Ce  Ce2  1  0.483376  0.976191  0.974331  1
  Ce  Ce3  1  0.483749  0.516205  0.499957  1
  Mg  Mg4  1  0.748431  0.251650  0.500010  1
  Si  Si5  1  0.000362  0.999929  0.000089  1
  Pt  Pt6  1  0.743952  0.489454  0.252483  1
  Pt  Pt7  1  0.510436  0.255963  0.747470  1
  Rh  Rh8  1  0.239766  0.492539  0.746013  1
  Rh  Rh9  1  0.249622  0.750464  0.500139  1
  Rh  Rh10  1  0.507556  0.760328  0.253865  1
  Rh  Rh11  1  0.721646  0.720221  0.002233  1
  Rh  Rh12  1  0.285784  0.012283  0.275701  1
  Rh  Rh13  1  0.985763  0.260750  0.272709  1
  Rh  Rh14  1  0.279801  0.278502  0.997646  1
  Rh  Rh15  1  0.739165  0.014118  0.727235  1
  Rh  Rh16  1  0.987540  0.714234  0.724457  1
