# generated using pymatgen
data_Np4Si10PdPt5
_symmetry_space_group_name_H-M   'P 1'
_cell_length_a   8.20343616
_cell_length_b   8.20343568
_cell_length_c   8.20343642
_cell_angle_alpha   136.76432824
_cell_angle_beta   104.81022295
_cell_angle_gamma   90.90757312
_symmetry_Int_Tables_number   1
_chemical_formula_structural   Np4Si10PdPt5
_chemical_formula_sum   'Np4 Si10 Pd1 Pt5'
_cell_volume   348.16435628
_cell_formula_units_Z   1
loop_
 _symmetry_equiv_pos_site_id
 _symmetry_equiv_pos_as_xyz
  1  'x, y, z'
loop_
 _atom_site_type_symbol
 _atom_site_label
 _atom_site_symmetry_multiplicity
 _atom_site_fract_x
 _atom_site_fract_y
 _atom_site_fract_z
 _atom_site_occupancy
  Np  Np0  1  0.101406  0.869766  0.230964  1
  Np  Np1  1  0.898594  0.129558  0.768359  1
  Np  Np2  1  0.638802  0.370442  0.269036  1
  Np  Np3  1  0.361198  0.630234  0.731641  1
  Si  Si4  1  0.000000  0.750000  0.750000  1
  Si  Si5  1  0.000000  0.250000  0.250000  1
  Si  Si6  1  0.272885  0.022885  0.750000  1
  Si  Si7  1  0.727115  0.477115  0.750000  1
  Si  Si8  1  0.726876  0.976876  0.250000  1
  Si  Si9  1  0.273124  0.523124  0.250000  1
  Si  Si10  1  0.763770  0.612915  0.152969  1
  Si  Si11  1  0.236230  0.389200  0.849145  1
  Si  Si12  1  0.459945  0.110800  0.347031  1
  Si  Si13  1  0.540055  0.887085  0.650855  1
  Pd  Pd14  1  0.500000  0.750000  0.250000  1
  Pt  Pt15  1  0.500000  0.250000  0.750000  1
  Pt  Pt16  1  0.027376  0.636689  0.388501  1
  Pt  Pt17  1  0.972624  0.361125  0.609313  1
  Pt  Pt18  1  0.248188  0.138875  0.111499  1
  Pt  Pt19  1  0.751812  0.863311  0.890687  1
