# generated using pymatgen
data_V4Co2RhSe12
_symmetry_space_group_name_H-M   'P 1'
_cell_length_a   7.13484381
_cell_length_b   7.13484303
_cell_length_c   19.05898564
_cell_angle_alpha   69.11984832
_cell_angle_beta   69.11984988
_cell_angle_gamma   26.47075770
_symmetry_Int_Tables_number   1
_chemical_formula_structural   V4Co2RhSe12
_chemical_formula_sum   'V4 Co2 Rh1 Se12'
_cell_volume   402.43483550
_cell_formula_units_Z   1
loop_
 _symmetry_equiv_pos_site_id
 _symmetry_equiv_pos_as_xyz
  1  'x, y, z'
loop_
 _atom_site_type_symbol
 _atom_site_label
 _atom_site_symmetry_multiplicity
 _atom_site_fract_x
 _atom_site_fract_y
 _atom_site_fract_z
 _atom_site_occupancy
  V  V0  1  0.623998  0.623998  0.847936  1
  V  V1  1  0.376002  0.376002  0.152064  1
  V  V2  1  0.744875  0.744875  0.593927  1
  V  V3  1  0.255125  0.255125  0.406073  1
  Co  Co4  1  0.230900  0.230900  0.715395  1
  Co  Co5  1  0.769100  0.769100  0.284605  1
  Rh  Rh6  1  0.000000  0.000000  0.000000  1
  Se  Se7  1  0.976742  0.976742  0.879450  1
  Se  Se8  1  0.023258  0.023258  0.120550  1
  Se  Se9  1  0.628203  0.628203  0.398008  1
  Se  Se10  1  0.371797  0.371797  0.601992  1
  Se  Se11  1  0.142494  0.142494  0.548107  1
  Se  Se12  1  0.857506  0.857506  0.451893  1
  Se  Se13  1  0.805237  0.805237  0.766454  1
  Se  Se14  1  0.194763  0.194763  0.233546  1
  Se  Se15  1  0.184904  0.184904  0.923105  1
  Se  Se16  1  0.815096  0.815096  0.076895  1
  Se  Se17  1  0.605914  0.605914  0.718215  1
  Se  Se18  1  0.394086  0.394086  0.281785  1
