# generated using pymatgen
data_SmTh3(Ge5Os3)2
_symmetry_space_group_name_H-M   'P 1'
_cell_length_a   8.45552863
_cell_length_b   8.44080665
_cell_length_c   6.03391792
_cell_angle_alpha   70.43680834
_cell_angle_beta   70.66607751
_cell_angle_gamma   94.15430073
_symmetry_Int_Tables_number   1
_chemical_formula_structural   SmTh3(Ge5Os3)2
_chemical_formula_sum   'Sm1 Th3 Ge10 Os6'
_cell_volume   374.67976236
_cell_formula_units_Z   1
loop_
 _symmetry_equiv_pos_site_id
 _symmetry_equiv_pos_as_xyz
  1  'x, y, z'
loop_
 _atom_site_type_symbol
 _atom_site_label
 _atom_site_symmetry_multiplicity
 _atom_site_fract_x
 _atom_site_fract_y
 _atom_site_fract_z
 _atom_site_occupancy
  Sm  Sm0  1  0.868650  0.593296  0.763287  1
  Th  Th1  1  0.403487  0.129519  0.738212  1
  Th  Th2  1  0.129499  0.406771  0.237288  1
  Th  Th3  1  0.595815  0.869118  0.262610  1
  Ge  Ge4  1  0.074047  0.262889  0.828123  1
  Ge  Ge5  1  0.743658  0.921714  0.671430  1
  Ge  Ge6  1  0.925089  0.737617  0.172239  1
  Ge  Ge7  1  0.258737  0.074295  0.329264  1
  Ge  Ge8  1  0.201110  0.790671  0.753967  1
  Ge  Ge9  1  0.794366  0.206612  0.248851  1
  Ge  Ge10  1  0.516287  0.488011  0.749303  1
  Ge  Ge11  1  0.488203  0.513354  0.247314  1
  Ge  Ge12  1  0.775191  0.227363  0.749953  1
  Ge  Ge13  1  0.222949  0.774860  0.252370  1
  Os  Os14  1  0.258668  0.546758  0.631586  1
  Os  Os15  1  0.454015  0.748077  0.865694  1
  Os  Os16  1  0.743383  0.451885  0.368800  1
  Os  Os17  1  0.544842  0.252443  0.135038  1
  Os  Os18  1  0.004950  0.000666  0.747103  1
  Os  Os19  1  0.997056  0.004083  0.247565  1
