# generated using pymatgen
data_Te2PtBr
_symmetry_space_group_name_H-M   'P 1'
_cell_length_a   7.74622846
_cell_length_b   7.74622797
_cell_length_c   7.74622789
_cell_angle_alpha   30.84682678
_cell_angle_beta   30.84683448
_cell_angle_gamma   30.84683753
_symmetry_Int_Tables_number   1
_chemical_formula_structural   Te2PtBr
_chemical_formula_sum   'Te2 Pt1 Br1'
_cell_volume   108.38085966
_cell_formula_units_Z   1
loop_
 _symmetry_equiv_pos_site_id
 _symmetry_equiv_pos_as_xyz
  1  'x, y, z'
loop_
 _atom_site_type_symbol
 _atom_site_label
 _atom_site_symmetry_multiplicity
 _atom_site_fract_x
 _atom_site_fract_y
 _atom_site_fract_z
 _atom_site_occupancy
  Te  Te0  1  0.225368  0.225368  0.225368  1
  Te  Te1  1  0.774632  0.774632  0.774632  1
  Pt  Pt2  1  0.500000  0.500000  0.500000  1
  Br  Br3  1  0.000000  0.000000  0.000000  1
