# generated using pymatgen
data_Hf8TiV(Si3N)2
_symmetry_space_group_name_H-M   'P 1'
_cell_length_a   7.74050700
_cell_length_b   7.74050701
_cell_length_c   5.40867800
_cell_angle_alpha   90.00000000
_cell_angle_beta   90.00000000
_cell_angle_gamma   119.99999569
_symmetry_Int_Tables_number   1
_chemical_formula_structural   Hf8TiV(Si3N)2
_chemical_formula_sum   'Hf8 Ti1 V1 Si6 N2'
_cell_volume   280.64712237
_cell_formula_units_Z   1
loop_
 _symmetry_equiv_pos_site_id
 _symmetry_equiv_pos_as_xyz
  1  'x, y, z'
loop_
 _atom_site_type_symbol
 _atom_site_label
 _atom_site_symmetry_multiplicity
 _atom_site_fract_x
 _atom_site_fract_y
 _atom_site_fract_z
 _atom_site_occupancy
  Hf  Hf0  1  0.236385  0.999829  0.250443  1
  Hf  Hf1  1  0.763444  0.999829  0.749557  1
  Hf  Hf2  1  0.000171  0.236556  0.250443  1
  Hf  Hf3  1  0.000171  0.763615  0.749557  1
  Hf  Hf4  1  0.763444  0.763615  0.250443  1
  Hf  Hf5  1  0.236385  0.236556  0.749557  1
  Hf  Hf6  1  0.666667  0.333333  0.500000  1
  Hf  Hf7  1  0.333333  0.666667  0.500000  1
  Ti  Ti8  1  0.666667  0.333333  0.000000  1
  V  V9  1  0.333333  0.666667  0.000000  1
  Si  Si10  1  0.589975  0.997271  0.230001  1
  Si  Si11  1  0.407295  0.997271  0.769999  1
  Si  Si12  1  0.002729  0.592705  0.230001  1
  Si  Si13  1  0.002729  0.410025  0.769999  1
  Si  Si14  1  0.407295  0.410025  0.230001  1
  Si  Si15  1  0.589975  0.592705  0.769999  1
  N  N16  1  0.000000  0.000000  0.000000  1
  N  N17  1  0.000000  0.000000  0.500000  1
