# generated using pymatgen
data_SrNp2Pa7O20
_symmetry_space_group_name_H-M   'P 1'
_cell_length_a   6.72806668
_cell_length_b   7.76299258
_cell_length_c   8.66471800
_cell_angle_alpha   103.10653659
_cell_angle_beta   97.14898738
_cell_angle_gamma   106.77850599
_symmetry_Int_Tables_number   1
_chemical_formula_structural   SrNp2Pa7O20
_chemical_formula_sum   'Sr1 Np2 Pa7 O20'
_cell_volume   413.15962072
_cell_formula_units_Z   1
loop_
 _symmetry_equiv_pos_site_id
 _symmetry_equiv_pos_as_xyz
  1  'x, y, z'
loop_
 _atom_site_type_symbol
 _atom_site_label
 _atom_site_symmetry_multiplicity
 _atom_site_fract_x
 _atom_site_fract_y
 _atom_site_fract_z
 _atom_site_occupancy
  Sr  Sr0  1  0.003340  0.000922  0.001573  1
  Np  Np1  1  0.395472  0.297682  0.797993  1
  Np  Np2  1  0.201601  0.900975  0.400594  1
  Pa  Pa3  1  0.800454  0.602230  0.601895  1
  Pa  Pa4  1  0.597428  0.197323  0.197363  1
  Pa  Pa5  1  0.998936  0.499386  0.999395  1
  Pa  Pa6  1  0.798690  0.100474  0.602087  1
  Pa  Pa7  1  0.400729  0.801467  0.800831  1
  Pa  Pa8  1  0.200321  0.398889  0.399828  1
  Pa  Pa9  1  0.604087  0.700697  0.198960  1
  O  O10  1  0.845235  0.326599  0.451981  1
  O  O11  1  0.634123  0.918449  0.054906  1
  O  O12  1  0.944362  0.754339  0.153873  1
  O  O13  1  0.448030  0.527483  0.644810  1
  O  O14  1  0.844983  0.823516  0.452818  1
  O  O15  1  0.647533  0.424814  0.052547  1
  O  O16  1  0.746906  0.378421  0.746763  1
  O  O17  1  0.272957  0.143383  0.263353  1
  O  O18  1  0.945325  0.293695  0.161862  1
  O  O19  1  0.453111  0.020857  0.648730  1
  O  O20  1  0.562750  0.977417  0.350515  1
  O  O21  1  0.053208  0.706941  0.839489  1
  O  O22  1  0.736284  0.866289  0.737962  1
  O  O23  1  0.351964  0.580040  0.953335  1
  O  O24  1  0.260795  0.619858  0.248225  1
  O  O25  1  0.557518  0.480133  0.351662  1
  O  O26  1  0.137319  0.177962  0.545752  1
  O  O27  1  0.037871  0.238863  0.843295  1
  O  O28  1  0.372156  0.072898  0.948697  1
  O  O29  1  0.146514  0.667996  0.548910  1
