# generated using pymatgen
data_Ho2GaCoRu
_symmetry_space_group_name_H-M   'P 1'
_cell_length_a   4.08965864
_cell_length_b   5.43042511
_cell_length_c   5.43042486
_cell_angle_alpha   61.68721602
_cell_angle_beta   67.87982112
_cell_angle_gamma   67.87981515
_symmetry_Int_Tables_number   1
_chemical_formula_structural   Ho2GaCoRu
_chemical_formula_sum   'Ho2 Ga1 Co1 Ru1'
_cell_volume   95.41835411
_cell_formula_units_Z   1
loop_
 _symmetry_equiv_pos_site_id
 _symmetry_equiv_pos_as_xyz
  1  'x, y, z'
loop_
 _atom_site_type_symbol
 _atom_site_label
 _atom_site_symmetry_multiplicity
 _atom_site_fract_x
 _atom_site_fract_y
 _atom_site_fract_z
 _atom_site_occupancy
  Ho  Ho0  1  0.208151  0.285933  0.297766  1
  Ho  Ho1  1  0.791849  0.702234  0.714067  1
  Ga  Ga2  1  0.000000  0.990219  0.009781  1
  Co  Co3  1  0.500000  0.726987  0.273013  1
  Ru  Ru4  1  0.500000  0.294627  0.705373  1
