# generated using pymatgen
data_K6TaSbSe8
_symmetry_space_group_name_H-M   'P 1'
_cell_length_a   8.17553854
_cell_length_b   8.17553721
_cell_length_c   8.17553884
_cell_angle_alpha   92.39144126
_cell_angle_beta   92.39143729
_cell_angle_gamma   92.39145733
_symmetry_Int_Tables_number   1
_chemical_formula_structural   K6TaSbSe8
_chemical_formula_sum   'K6 Ta1 Sb1 Se8'
_cell_volume   544.97946624
_cell_formula_units_Z   1
loop_
 _symmetry_equiv_pos_site_id
 _symmetry_equiv_pos_as_xyz
  1  'x, y, z'
loop_
 _atom_site_type_symbol
 _atom_site_label
 _atom_site_symmetry_multiplicity
 _atom_site_fract_x
 _atom_site_fract_y
 _atom_site_fract_z
 _atom_site_occupancy
  K  K0  1  0.471878  0.997631  0.553025  1
  K  K1  1  0.553025  0.471878  0.997631  1
  K  K2  1  0.997631  0.553025  0.471878  1
  K  K3  1  0.053874  0.499736  0.970288  1
  K  K4  1  0.970288  0.053874  0.499736  1
  K  K5  1  0.499736  0.970288  0.053874  1
  Ta  Ta6  1  0.997226  0.997226  0.997226  1
  Sb  Sb7  1  0.495948  0.495948  0.495948  1
  Se  Se8  1  0.163509  0.854703  0.801994  1
  Se  Se9  1  0.681495  0.681495  0.681495  1
  Se  Se10  1  0.296485  0.341429  0.669003  1
  Se  Se11  1  0.801994  0.163509  0.854703  1
  Se  Se12  1  0.854703  0.801994  0.163509  1
  Se  Se13  1  0.341429  0.669003  0.296485  1
  Se  Se14  1  0.669003  0.296485  0.341429  1
  Se  Se15  1  0.174776  0.174776  0.174776  1
