# generated using pymatgen
data_NdSm7(Si4Mo3)4
_symmetry_space_group_name_H-M   'P 1'
_cell_length_a   6.87356333
_cell_length_b   7.04162769
_cell_length_c   13.04622388
_cell_angle_alpha   89.96650493
_cell_angle_beta   89.97435221
_cell_angle_gamma   89.98757008
_symmetry_Int_Tables_number   1
_chemical_formula_structural   NdSm7(Si4Mo3)4
_chemical_formula_sum   'Nd1 Sm7 Si16 Mo12'
_cell_volume   631.45105961
_cell_formula_units_Z   1
loop_
 _symmetry_equiv_pos_site_id
 _symmetry_equiv_pos_as_xyz
  1  'x, y, z'
loop_
 _atom_site_type_symbol
 _atom_site_label
 _atom_site_symmetry_multiplicity
 _atom_site_fract_x
 _atom_site_fract_y
 _atom_site_fract_z
 _atom_site_occupancy
  Nd  Nd0  1  0.998179  0.164817  0.093825  1
  Sm  Sm1  1  0.496902  0.334547  0.094466  1
  Sm  Sm2  1  0.997759  0.165269  0.405606  1
  Sm  Sm3  1  0.503032  0.665569  0.594488  1
  Sm  Sm4  1  0.002278  0.835014  0.905336  1
  Sm  Sm5  1  0.503319  0.665101  0.905225  1
  Sm  Sm6  1  0.002314  0.834575  0.594452  1
  Sm  Sm7  1  0.497016  0.334762  0.406023  1
  Si  Si8  1  0.655849  0.045365  0.548878  1
  Si  Si9  1  0.156319  0.456448  0.950644  1
  Si  Si10  1  0.345709  0.953752  0.048555  1
  Si  Si11  1  0.844093  0.544371  0.451238  1
  Si  Si12  1  0.344201  0.954725  0.451423  1
  Si  Si13  1  0.843374  0.545861  0.048610  1
  Si  Si14  1  0.655123  0.045194  0.950586  1
  Si  Si15  1  0.156210  0.455525  0.548910  1
  Si  Si16  1  0.535577  0.360243  0.749764  1
  Si  Si17  1  0.036064  0.139405  0.749947  1
  Si  Si18  1  0.464127  0.639420  0.250341  1
  Si  Si19  1  0.963675  0.859654  0.250512  1
  Si  Si20  1  0.805806  0.621649  0.749881  1
  Si  Si21  1  0.305693  0.877409  0.749881  1
  Si  Si22  1  0.194468  0.379386  0.250378  1
  Si  Si23  1  0.693436  0.122373  0.250510  1
  Mo  Mo24  1  0.831760  0.334665  0.626267  1
  Mo  Mo25  1  0.330799  0.164761  0.873572  1
  Mo  Mo26  1  0.168144  0.665333  0.126381  1
  Mo  Mo27  1  0.668886  0.835222  0.374246  1
  Mo  Mo28  1  0.168380  0.665329  0.374062  1
  Mo  Mo29  1  0.668848  0.834831  0.126453  1
  Mo  Mo30  1  0.831621  0.335026  0.873356  1
  Mo  Mo31  1  0.330910  0.164625  0.626056  1
  Mo  Mo32  1  0.665086  0.003290  0.749831  1
  Mo  Mo33  1  0.165282  0.497060  0.749867  1
  Mo  Mo34  1  0.335260  0.996076  0.250275  1
  Mo  Mo35  1  0.834502  0.503347  0.250160  1
