# generated using pymatgen
data_Gd4MnAl2Ru5
_symmetry_space_group_name_H-M   'P 1'
_cell_length_a   5.39779000
_cell_length_b   5.20434924
_cell_length_c   8.84391600
_cell_angle_alpha   90.00000000
_cell_angle_beta   90.00000000
_cell_angle_gamma   120.31989423
_symmetry_Int_Tables_number   1
_chemical_formula_structural   Gd4MnAl2Ru5
_chemical_formula_sum   'Gd4 Mn1 Al2 Ru5'
_cell_volume   214.46117405
_cell_formula_units_Z   1
loop_
 _symmetry_equiv_pos_site_id
 _symmetry_equiv_pos_as_xyz
  1  'x, y, z'
loop_
 _atom_site_type_symbol
 _atom_site_label
 _atom_site_symmetry_multiplicity
 _atom_site_fract_x
 _atom_site_fract_y
 _atom_site_fract_z
 _atom_site_occupancy
  Gd  Gd0  1  0.665835  0.331810  0.562671  1
  Gd  Gd1  1  0.331122  0.662321  0.434984  1
  Gd  Gd2  1  0.331122  0.662321  0.065016  1
  Gd  Gd3  1  0.665835  0.331810  0.937329  1
  Mn  Mn4  1  0.165090  0.324273  0.750000  1
  Al  Al5  1  0.165626  0.828414  0.750000  1
  Al  Al6  1  0.838766  0.675060  0.250000  1
  Ru  Ru7  1  0.005618  0.012628  0.504282  1
  Ru  Ru8  1  0.005618  0.012628  0.995718  1
  Ru  Ru9  1  0.646511  0.816598  0.750000  1
  Ru  Ru10  1  0.829895  0.170708  0.250000  1
  Ru  Ru11  1  0.348964  0.171430  0.250000  1
