# generated using pymatgen
data_TbTh2(SnIr)3
_symmetry_space_group_name_H-M   'P 1'
_cell_length_a   7.56863453
_cell_length_b   7.56863478
_cell_length_c   4.08984900
_cell_angle_alpha   90.00000000
_cell_angle_beta   90.00000000
_cell_angle_gamma   120.29175807
_symmetry_Int_Tables_number   1
_chemical_formula_structural   TbTh2(SnIr)3
_chemical_formula_sum   'Tb1 Th2 Sn3 Ir3'
_cell_volume   202.29663760
_cell_formula_units_Z   1
loop_
 _symmetry_equiv_pos_site_id
 _symmetry_equiv_pos_as_xyz
  1  'x, y, z'
loop_
 _atom_site_type_symbol
 _atom_site_label
 _atom_site_symmetry_multiplicity
 _atom_site_fract_x
 _atom_site_fract_y
 _atom_site_fract_z
 _atom_site_occupancy
  Tb  Tb0  1  0.406257  0.406257  0.000000  1
  Th  Th1  1  0.586916  0.999253  0.000000  1
  Th  Th2  1  0.999253  0.586916  0.000000  1
  Sn  Sn3  1  0.253645  0.010175  0.500000  1
  Sn  Sn4  1  0.010175  0.253645  0.500000  1
  Sn  Sn5  1  0.739188  0.739188  0.500000  1
  Ir  Ir6  1  0.332241  0.677318  0.500000  1
  Ir  Ir7  1  0.677318  0.332241  0.500000  1
  Ir  Ir8  1  0.995005  0.995005  0.000000  1
