# generated using pymatgen
data_NdSm3(SeO4)6
_symmetry_space_group_name_H-M   'P 1'
_cell_length_a   10.21871702
_cell_length_b   10.21872772
_cell_length_c   10.21872427
_cell_angle_alpha   57.80537233
_cell_angle_beta   57.80538214
_cell_angle_gamma   57.80537310
_symmetry_Int_Tables_number   1
_chemical_formula_structural   NdSm3(SeO4)6
_chemical_formula_sum   'Nd1 Sm3 Se6 O24'
_cell_volume   716.50309859
_cell_formula_units_Z   1
loop_
 _symmetry_equiv_pos_site_id
 _symmetry_equiv_pos_as_xyz
  1  'x, y, z'
loop_
 _atom_site_type_symbol
 _atom_site_label
 _atom_site_symmetry_multiplicity
 _atom_site_fract_x
 _atom_site_fract_y
 _atom_site_fract_z
 _atom_site_occupancy
  Nd  Nd0  1  0.143512  0.143512  0.143512  1
  Sm  Sm1  1  0.856123  0.856123  0.856123  1
  Sm  Sm2  1  0.355891  0.355891  0.355891  1
  Sm  Sm3  1  0.643827  0.643827  0.643827  1
  Se  Se4  1  0.035302  0.465967  0.747803  1
  Se  Se5  1  0.465967  0.747803  0.035302  1
  Se  Se6  1  0.747803  0.035302  0.465966  1
  Se  Se7  1  0.963527  0.537545  0.250209  1
  Se  Se8  1  0.250209  0.963527  0.537546  1
  Se  Se9  1  0.537545  0.250209  0.963527  1
  O  O10  1  0.227823  0.990881  0.373986  1
  O  O11  1  0.373986  0.227823  0.990881  1
  O  O12  1  0.990881  0.373986  0.227823  1
  O  O13  1  0.772361  0.006696  0.628998  1
  O  O14  1  0.628998  0.772361  0.006696  1
  O  O15  1  0.006696  0.628998  0.772361  1
  O  O16  1  0.273394  0.127921  0.507716  1
  O  O17  1  0.507716  0.273394  0.127921  1
  O  O18  1  0.127921  0.507716  0.273394  1
  O  O19  1  0.724632  0.871473  0.494996  1
  O  O20  1  0.062729  0.298756  0.912377  1
  O  O21  1  0.298757  0.912377  0.062729  1
  O  O22  1  0.912376  0.062729  0.298757  1
  O  O23  1  0.935678  0.703911  0.084761  1
  O  O24  1  0.703910  0.084761  0.935678  1
  O  O25  1  0.084762  0.935678  0.703910  1
  O  O26  1  0.202264  0.437670  0.582977  1
  O  O27  1  0.437671  0.582977  0.202264  1
  O  O28  1  0.582977  0.202264  0.437670  1
  O  O29  1  0.797130  0.565951  0.415214  1
  O  O30  1  0.565950  0.415214  0.797130  1
  O  O31  1  0.415214  0.797130  0.565951  1
  O  O32  1  0.871473  0.494996  0.724632  1
  O  O33  1  0.494996  0.724632  0.871473  1
