# generated using pymatgen
data_DyLu6Sn23Ir6
_symmetry_space_group_name_H-M   'P 1'
_cell_length_a   9.78975000
_cell_length_b   9.78975120
_cell_length_c   10.07547400
_cell_angle_alpha   90.00000000
_cell_angle_beta   90.00000000
_cell_angle_gamma   120.00000272
_symmetry_Int_Tables_number   1
_chemical_formula_structural   DyLu6Sn23Ir6
_chemical_formula_sum   'Dy1 Lu6 Sn23 Ir6'
_cell_volume   836.25622245
_cell_formula_units_Z   1
loop_
 _symmetry_equiv_pos_site_id
 _symmetry_equiv_pos_as_xyz
  1  'x, y, z'
loop_
 _atom_site_type_symbol
 _atom_site_label
 _atom_site_symmetry_multiplicity
 _atom_site_fract_x
 _atom_site_fract_y
 _atom_site_fract_z
 _atom_site_occupancy
  Dy  Dy0  1  0.000000  0.000000  0.000000  1
  Lu  Lu1  1  0.480951  0.519049  0.307107  1
  Lu  Lu2  1  0.519049  0.480951  0.692893  1
  Lu  Lu3  1  0.480951  0.961902  0.307107  1
  Lu  Lu4  1  0.519049  0.038098  0.692893  1
  Lu  Lu5  1  0.038098  0.519049  0.307107  1
  Lu  Lu6  1  0.961902  0.480951  0.692893  1
  Sn  Sn7  1  0.352302  0.000000  0.000000  1
  Sn  Sn8  1  0.647698  0.000000  0.000000  1
  Sn  Sn9  1  0.000000  0.352302  0.000000  1
  Sn  Sn10  1  0.000000  0.647698  0.000000  1
  Sn  Sn11  1  0.647698  0.647698  0.000000  1
  Sn  Sn12  1  0.352302  0.352302  0.000000  1
  Sn  Sn13  1  0.333333  0.666667  0.822934  1
  Sn  Sn14  1  0.666667  0.333333  0.177066  1
  Sn  Sn15  1  0.000000  0.000000  0.500000  1
  Sn  Sn16  1  0.778364  0.221636  0.457488  1
  Sn  Sn17  1  0.221636  0.778364  0.542512  1
  Sn  Sn18  1  0.778364  0.556728  0.457488  1
  Sn  Sn19  1  0.221636  0.443272  0.542512  1
  Sn  Sn20  1  0.443272  0.221636  0.457488  1
  Sn  Sn21  1  0.556728  0.778364  0.542512  1
  Sn  Sn22  1  0.333333  0.666667  0.125771  1
  Sn  Sn23  1  0.666667  0.333333  0.874229  1
  Sn  Sn24  1  0.120172  0.879828  0.281883  1
  Sn  Sn25  1  0.879828  0.120172  0.718117  1
  Sn  Sn26  1  0.120172  0.240345  0.281883  1
  Sn  Sn27  1  0.879828  0.759655  0.718117  1
  Sn  Sn28  1  0.759655  0.879828  0.281883  1
  Sn  Sn29  1  0.240345  0.120172  0.718117  1
  Ir  Ir30  1  0.830338  0.169662  0.199269  1
  Ir  Ir31  1  0.169662  0.830338  0.800731  1
  Ir  Ir32  1  0.830338  0.660673  0.199269  1
  Ir  Ir33  1  0.169662  0.339327  0.800731  1
  Ir  Ir34  1  0.339327  0.169662  0.199269  1
  Ir  Ir35  1  0.660673  0.830338  0.800731  1
