# generated using pymatgen
data_Y2MgB2RuRh4
_symmetry_space_group_name_H-M   'P 1'
_cell_length_a   9.69956800
_cell_length_b   9.69956800
_cell_length_c   3.14477700
_cell_angle_alpha   90.00000000
_cell_angle_beta   90.00000000
_cell_angle_gamma   90.00000000
_symmetry_Int_Tables_number   1
_chemical_formula_structural   Y2MgB2RuRh4
_chemical_formula_sum   'Y4 Mg2 B4 Ru2 Rh8'
_cell_volume   295.86571277
_cell_formula_units_Z   2
loop_
 _symmetry_equiv_pos_site_id
 _symmetry_equiv_pos_as_xyz
  1  'x, y, z'
loop_
 _atom_site_type_symbol
 _atom_site_label
 _atom_site_symmetry_multiplicity
 _atom_site_fract_x
 _atom_site_fract_y
 _atom_site_fract_z
 _atom_site_occupancy
  Y  Y0  1  0.675800  0.175800  0.000000  1
  Y  Y1  1  0.324200  0.824200  0.000000  1
  Y  Y2  1  0.175800  0.324200  0.000000  1
  Y  Y3  1  0.824200  0.675800  0.000000  1
  Mg  Mg4  1  0.000000  0.000000  0.000000  1
  Mg  Mg5  1  0.500000  0.500000  0.000000  1
  B  B6  1  0.120224  0.620224  0.000000  1
  B  B7  1  0.879776  0.379776  0.000000  1
  B  B8  1  0.620224  0.879776  0.000000  1
  B  B9  1  0.379776  0.120224  0.000000  1
  Ru  Ru10  1  0.500000  0.000000  0.500000  1
  Ru  Ru11  1  0.000000  0.500000  0.500000  1
  Rh  Rh12  1  0.223721  0.070384  0.500000  1
  Rh  Rh13  1  0.776279  0.929616  0.500000  1
  Rh  Rh14  1  0.070384  0.776279  0.500000  1
  Rh  Rh15  1  0.723721  0.429616  0.500000  1
  Rh  Rh16  1  0.929616  0.223721  0.500000  1
  Rh  Rh17  1  0.276279  0.570384  0.500000  1
  Rh  Rh18  1  0.570384  0.723721  0.500000  1
  Rh  Rh19  1  0.429616  0.276279  0.500000  1
