# generated using pymatgen
data_DyEr3(GaTc3)2
_symmetry_space_group_name_H-M   'P 1'
_cell_length_a   9.30652375
_cell_length_b   9.30652385
_cell_length_c   9.26668925
_cell_angle_alpha   34.03257290
_cell_angle_beta   34.03257010
_cell_angle_gamma   32.99426666
_symmetry_Int_Tables_number   1
_chemical_formula_structural   DyEr3(GaTc3)2
_chemical_formula_sum   'Dy1 Er3 Ga2 Tc6'
_cell_volume   219.83164968
_cell_formula_units_Z   1
loop_
 _symmetry_equiv_pos_site_id
 _symmetry_equiv_pos_as_xyz
  1  'x, y, z'
loop_
 _atom_site_type_symbol
 _atom_site_label
 _atom_site_symmetry_multiplicity
 _atom_site_fract_x
 _atom_site_fract_y
 _atom_site_fract_z
 _atom_site_occupancy
  Dy  Dy0  1  0.682836  0.682836  0.694733  1
  Er  Er1  1  0.182325  0.182325  0.195655  1
  Er  Er2  1  0.817823  0.817823  0.804375  1
  Er  Er3  1  0.317456  0.317456  0.304488  1
  Ga  Ga4  1  0.250099  0.250099  0.750078  1
  Ga  Ga5  1  0.750010  0.750010  0.249782  1
  Tc  Tc6  1  0.999769  0.999769  0.000322  1
  Tc  Tc7  1  0.499972  0.499972  0.500092  1
  Tc  Tc8  1  0.750382  0.249906  0.250171  1
  Tc  Tc9  1  0.249389  0.750032  0.750065  1
  Tc  Tc10  1  0.249906  0.750382  0.250171  1
  Tc  Tc11  1  0.750032  0.249389  0.750065  1
