# generated using pymatgen
data_Zr2Al9RuRh2
_symmetry_space_group_name_H-M   'P 1'
_cell_length_a   7.46048525
_cell_length_b   7.46049221
_cell_length_c   9.28376400
_cell_angle_alpha   90.00000000
_cell_angle_beta   90.00000000
_cell_angle_gamma   119.49163200
_symmetry_Int_Tables_number   1
_chemical_formula_structural   Zr2Al9RuRh2
_chemical_formula_sum   'Zr4 Al18 Ru2 Rh4'
_cell_volume   449.77084972
_cell_formula_units_Z   2
loop_
 _symmetry_equiv_pos_site_id
 _symmetry_equiv_pos_as_xyz
  1  'x, y, z'
loop_
 _atom_site_type_symbol
 _atom_site_label
 _atom_site_symmetry_multiplicity
 _atom_site_fract_x
 _atom_site_fract_y
 _atom_site_fract_z
 _atom_site_occupancy
  Zr  Zr0  1  0.991911  0.674243  0.250000  1
  Zr  Zr1  1  0.008089  0.325757  0.750000  1
  Zr  Zr2  1  0.674242  0.991912  0.250000  1
  Zr  Zr3  1  0.325758  0.008088  0.750000  1
  Al  Al4  1  0.997257  0.334407  0.077520  1
  Al  Al5  1  0.002743  0.665593  0.922480  1
  Al  Al6  1  0.002743  0.665593  0.577520  1
  Al  Al7  1  0.334407  0.997258  0.422480  1
  Al  Al8  1  0.997257  0.334407  0.422480  1
  Al  Al9  1  0.665593  0.002742  0.577520  1
  Al  Al10  1  0.665593  0.002742  0.922480  1
  Al  Al11  1  0.334407  0.997258  0.077520  1
  Al  Al12  1  0.329785  0.329784  0.554293  1
  Al  Al13  1  0.670215  0.670216  0.445707  1
  Al  Al14  1  0.670215  0.670216  0.054293  1
  Al  Al15  1  0.329785  0.329784  0.945707  1
  Al  Al16  1  0.124284  0.124284  0.250000  1
  Al  Al17  1  0.875716  0.875716  0.750000  1
  Al  Al18  1  0.342567  0.558639  0.250000  1
  Al  Al19  1  0.657433  0.441361  0.750000  1
  Al  Al20  1  0.558639  0.342566  0.250000  1
  Al  Al21  1  0.441361  0.657434  0.750000  1
  Ru  Ru22  1  0.000000  0.000000  0.000000  1
  Ru  Ru23  1  0.000000  0.000000  0.500000  1
  Rh  Rh24  1  0.672416  0.327584  0.000000  1
  Rh  Rh25  1  0.327584  0.672416  0.000000  1
  Rh  Rh26  1  0.327584  0.672416  0.500000  1
  Rh  Rh27  1  0.672416  0.327584  0.500000  1
