# generated using pymatgen
data_Yb7NpAs6
_symmetry_space_group_name_H-M   'P 1'
_cell_length_a   7.61708809
_cell_length_b   7.69258796
_cell_length_c   7.70064213
_cell_angle_alpha   109.69253660
_cell_angle_beta   109.33991048
_cell_angle_gamma   109.26929489
_symmetry_Int_Tables_number   1
_chemical_formula_structural   Yb7NpAs6
_chemical_formula_sum   'Yb7 Np1 As6'
_cell_volume   347.82421248
_cell_formula_units_Z   1
loop_
 _symmetry_equiv_pos_site_id
 _symmetry_equiv_pos_as_xyz
  1  'x, y, z'
loop_
 _atom_site_type_symbol
 _atom_site_label
 _atom_site_symmetry_multiplicity
 _atom_site_fract_x
 _atom_site_fract_y
 _atom_site_fract_z
 _atom_site_occupancy
  Yb  Yb0  1  0.499349  0.000385  0.642352  1
  Yb  Yb1  1  0.364727  0.361655  0.369861  1
  Yb  Yb2  1  0.995925  0.131325  0.492602  1
  Yb  Yb3  1  0.857062  0.857534  0.858209  1
  Yb  Yb4  1  0.998996  0.641943  0.499500  1
  Yb  Yb5  1  0.640940  0.500167  0.999730  1
  Yb  Yb6  1  0.501996  0.007238  0.137557  1
  Np  Np7  1  0.146280  0.499517  0.001324  1
  As  As8  1  0.882320  0.256633  0.121833  1
  As  As9  1  0.126564  0.865066  0.243425  1
  As  As10  1  0.368626  0.623197  0.755790  1
  As  As11  1  0.243985  0.133298  0.876377  1
  As  As12  1  0.761942  0.378824  0.635405  1
  As  As13  1  0.611287  0.743220  0.366035  1
