# generated using pymatgen
data_TaFe4P3Ru
_symmetry_space_group_name_H-M   'P 1'
_cell_length_a   3.63796800
_cell_length_b   10.04942800
_cell_length_c   11.63304400
_cell_angle_alpha   90.00000000
_cell_angle_beta   90.00000000
_cell_angle_gamma   90.00000000
_symmetry_Int_Tables_number   1
_chemical_formula_structural   TaFe4P3Ru
_chemical_formula_sum   'Ta4 Fe16 P12 Ru4'
_cell_volume   425.29824283
_cell_formula_units_Z   4
loop_
 _symmetry_equiv_pos_site_id
 _symmetry_equiv_pos_as_xyz
  1  'x, y, z'
loop_
 _atom_site_type_symbol
 _atom_site_label
 _atom_site_symmetry_multiplicity
 _atom_site_fract_x
 _atom_site_fract_y
 _atom_site_fract_z
 _atom_site_occupancy
  Ta  Ta0  1  0.250000  0.577967  0.704219  1
  Ta  Ta1  1  0.250000  0.922033  0.204219  1
  Ta  Ta2  1  0.750000  0.422033  0.295781  1
  Ta  Ta3  1  0.750000  0.077967  0.795781  1
  Fe  Fe4  1  0.250000  0.408071  0.482329  1
  Fe  Fe5  1  0.250000  0.091929  0.982329  1
  Fe  Fe6  1  0.750000  0.591929  0.517671  1
  Fe  Fe7  1  0.750000  0.908071  0.017671  1
  Fe  Fe8  1  0.250000  0.228689  0.174821  1
  Fe  Fe9  1  0.250000  0.271311  0.674821  1
  Fe  Fe10  1  0.750000  0.771311  0.825179  1
  Fe  Fe11  1  0.750000  0.728689  0.325179  1
  Fe  Fe12  1  0.250000  0.884129  0.706478  1
  Fe  Fe13  1  0.250000  0.615871  0.206478  1
  Fe  Fe14  1  0.750000  0.115871  0.293522  1
  Fe  Fe15  1  0.750000  0.384129  0.793522  1
  Fe  Fe16  1  0.250000  0.463634  0.929861  1
  Fe  Fe17  1  0.250000  0.036366  0.429861  1
  Fe  Fe18  1  0.750000  0.536366  0.070139  1
  Fe  Fe19  1  0.750000  0.963634  0.570139  1
  P  P20  1  0.250000  0.426539  0.116967  1
  P  P21  1  0.250000  0.073461  0.616967  1
  P  P22  1  0.750000  0.573461  0.883033  1
  P  P23  1  0.750000  0.926539  0.383033  1
  P  P24  1  0.250000  0.262404  0.860919  1
  P  P25  1  0.250000  0.237596  0.360919  1
  P  P26  1  0.750000  0.737596  0.139081  1
  P  P27  1  0.750000  0.762404  0.639081  1
  P  P28  1  0.250000  0.595312  0.389649  1
  P  P29  1  0.250000  0.904688  0.889649  1
  P  P30  1  0.750000  0.404688  0.610351  1
  P  P31  1  0.750000  0.095312  0.110351  1
  Ru  Ru32  1  0.250000  0.712380  0.992817  1
  Ru  Ru33  1  0.250000  0.787620  0.492817  1
  Ru  Ru34  1  0.750000  0.287620  0.007183  1
  Ru  Ru35  1  0.750000  0.212380  0.507183  1
