# generated using pymatgen
data_Ho12Ni5Hg
_symmetry_space_group_name_H-M   'P 1'
_cell_length_a   8.26293852
_cell_length_b   8.26293810
_cell_length_c   8.26293910
_cell_angle_alpha   107.06052112
_cell_angle_beta   110.01177756
_cell_angle_gamma   111.37097710
_symmetry_Int_Tables_number   1
_chemical_formula_structural   Ho12Ni5Hg
_chemical_formula_sum   'Ho12 Ni5 Hg1'
_cell_volume   433.65440138
_cell_formula_units_Z   1
loop_
 _symmetry_equiv_pos_site_id
 _symmetry_equiv_pos_as_xyz
  1  'x, y, z'
loop_
 _atom_site_type_symbol
 _atom_site_label
 _atom_site_symmetry_multiplicity
 _atom_site_fract_x
 _atom_site_fract_y
 _atom_site_fract_z
 _atom_site_occupancy
  Ho  Ho0  1  0.477643  0.294049  0.183595  1
  Ho  Ho1  1  0.110455  0.294049  0.816405  1
  Ho  Ho2  1  0.889545  0.705951  0.183595  1
  Ho  Ho3  1  0.522357  0.705951  0.816405  1
  Ho  Ho4  1  0.302695  0.625187  0.322493  1
  Ho  Ho5  1  0.302695  0.980203  0.677507  1
  Ho  Ho6  1  0.697305  0.374813  0.677507  1
  Ho  Ho7  1  0.697305  0.019797  0.322493  1
  Ho  Ho8  1  0.189801  0.214444  0.404244  1
  Ho  Ho9  1  0.810199  0.785556  0.595756  1
  Ho  Ho10  1  0.189801  0.785556  0.975356  1
  Ho  Ho11  1  0.810199  0.214444  0.024644  1
  Ni  Ni12  1  0.500000  0.623833  0.123833  1
  Ni  Ni13  1  0.500000  0.376167  0.876167  1
  Ni  Ni14  1  0.365436  0.000000  0.365436  1
  Ni  Ni15  1  0.634564  0.000000  0.634564  1
  Ni  Ni16  1  0.000000  0.000000  0.000000  1
  Hg  Hg17  1  0.000000  0.500000  0.500000  1
