# generated using pymatgen
data_La2Y10Lu8Si15Os
_symmetry_space_group_name_H-M   'P 1'
_cell_length_a   7.36707837
_cell_length_b   7.75537678
_cell_length_c   14.54124402
_cell_angle_alpha   89.72466415
_cell_angle_beta   90.00414786
_cell_angle_gamma   89.98018620
_symmetry_Int_Tables_number   1
_chemical_formula_structural   La2Y10Lu8Si15Os
_chemical_formula_sum   'La2 Y10 Lu8 Si15 Os1'
_cell_volume   830.79660412
_cell_formula_units_Z   1
loop_
 _symmetry_equiv_pos_site_id
 _symmetry_equiv_pos_as_xyz
  1  'x, y, z'
loop_
 _atom_site_type_symbol
 _atom_site_label
 _atom_site_symmetry_multiplicity
 _atom_site_fract_x
 _atom_site_fract_y
 _atom_site_fract_z
 _atom_site_occupancy
  La  La0  1  0.516395  0.570770  0.342394  1
  La  La1  1  0.018361  0.425444  0.658506  1
  Y  Y2  1  0.650248  0.242861  0.999818  1
  Y  Y3  1  0.163340  0.759441  0.000276  1
  Y  Y4  1  0.343373  0.261535  0.499868  1
  Y  Y5  1  0.843525  0.735717  0.499634  1
  Y  Y6  1  0.485208  0.923462  0.847062  1
  Y  Y7  1  0.981631  0.070448  0.152786  1
  Y  Y8  1  0.483398  0.923486  0.152720  1
  Y  Y9  1  0.980494  0.071440  0.848003  1
  Y  Y10  1  0.520877  0.566775  0.653336  1
  Y  Y11  1  0.017461  0.428673  0.344758  1
  Lu  Lu12  1  0.808615  0.578195  0.877689  1
  Lu  Lu13  1  0.331675  0.433893  0.122636  1
  Lu  Lu14  1  0.178803  0.926507  0.373491  1
  Lu  Lu15  1  0.678266  0.069347  0.626356  1
  Lu  Lu16  1  0.178109  0.925976  0.627630  1
  Lu  Lu17  1  0.676556  0.069606  0.372599  1
  Lu  Lu18  1  0.811579  0.575719  0.122666  1
  Lu  Lu19  1  0.334456  0.437965  0.876848  1
  Si  Si20  1  0.025796  0.356862  0.999598  1
  Si  Si21  1  0.470073  0.865612  0.501414  1
  Si  Si22  1  0.971843  0.131954  0.498801  1
  Si  Si23  1  0.656048  0.276138  0.788112  1
  Si  Si24  1  0.149491  0.719358  0.210891  1
  Si  Si25  1  0.345752  0.212315  0.285299  1
  Si  Si26  1  0.846235  0.786565  0.713545  1
  Si  Si27  1  0.355956  0.214867  0.713642  1
  Si  Si28  1  0.853790  0.783549  0.287186  1
  Si  Si29  1  0.655829  0.270952  0.210170  1
  Si  Si30  1  0.147518  0.725493  0.790856  1
  Si  Si31  1  0.774396  0.881949  0.000064  1
  Si  Si32  1  0.264981  0.128674  0.999963  1
  Si  Si33  1  0.225732  0.627961  0.502326  1
  Si  Si34  1  0.727238  0.370328  0.498861  1
  Os  Os35  1  0.526952  0.650163  0.000192  1
