# generated using pymatgen
data_La7Y3(Pb3Se)2
_symmetry_space_group_name_H-M   'P 1'
_cell_length_a   9.64880300
_cell_length_b   9.64880330
_cell_length_c   7.04142400
_cell_angle_alpha   90.00000000
_cell_angle_beta   90.00000000
_cell_angle_gamma   120.00000924
_symmetry_Int_Tables_number   1
_chemical_formula_structural   La7Y3(Pb3Se)2
_chemical_formula_sum   'La7 Y3 Pb6 Se2'
_cell_volume   567.72494922
_cell_formula_units_Z   1
loop_
 _symmetry_equiv_pos_site_id
 _symmetry_equiv_pos_as_xyz
  1  'x, y, z'
loop_
 _atom_site_type_symbol
 _atom_site_label
 _atom_site_symmetry_multiplicity
 _atom_site_fract_x
 _atom_site_fract_y
 _atom_site_fract_z
 _atom_site_occupancy
  La  La0  1  0.747232  0.747962  0.751271  1
  La  La1  1  0.252038  0.999270  0.751271  1
  La  La2  1  0.000730  0.252768  0.751271  1
  La  La3  1  0.252038  0.252768  0.248729  1
  La  La4  1  0.747232  0.999270  0.248729  1
  La  La5  1  0.000730  0.747962  0.248729  1
  La  La6  1  0.666667  0.333333  0.500000  1
  Y  Y7  1  0.666667  0.333333  0.000000  1
  Y  Y8  1  0.333333  0.666667  0.000000  1
  Y  Y9  1  0.333333  0.666667  0.500000  1
  Pb  Pb10  1  0.394857  0.398983  0.754598  1
  Pb  Pb11  1  0.601017  0.995874  0.754598  1
  Pb  Pb12  1  0.004126  0.605143  0.754598  1
  Pb  Pb13  1  0.601017  0.605143  0.245402  1
  Pb  Pb14  1  0.394857  0.995874  0.245402  1
  Pb  Pb15  1  0.004126  0.398983  0.245402  1
  Se  Se16  1  0.000000  0.000000  0.000000  1
  Se  Se17  1  0.000000  0.000000  0.500000  1
