# generated using pymatgen
data_TbHo11(BBr3)4
_symmetry_space_group_name_H-M   'P 1'
_cell_length_a   9.70431483
_cell_length_b   9.70431412
_cell_length_c   9.70665311
_cell_angle_alpha   109.46732592
_cell_angle_beta   109.46732489
_cell_angle_gamma   109.46156797
_symmetry_Int_Tables_number   1
_chemical_formula_structural   TbHo11(BBr3)4
_chemical_formula_sum   'Tb1 Ho11 B4 Br12'
_cell_volume   703.83489899
_cell_formula_units_Z   1
loop_
 _symmetry_equiv_pos_site_id
 _symmetry_equiv_pos_as_xyz
  1  'x, y, z'
loop_
 _atom_site_type_symbol
 _atom_site_label
 _atom_site_symmetry_multiplicity
 _atom_site_fract_x
 _atom_site_fract_y
 _atom_site_fract_z
 _atom_site_occupancy
  Tb  Tb0  1  0.230845  0.269155  0.750000  1
  Ho  Ho1  1  0.459188  0.479692  0.229826  1
  Ho  Ho2  1  0.749702  0.229626  0.270055  1
  Ho  Ho3  1  0.750023  0.020475  0.479655  1
  Ho  Ho4  1  0.229509  0.459251  0.479508  1
  Ho  Ho5  1  0.270374  0.750298  0.229945  1
  Ho  Ho6  1  0.040749  0.270491  0.020492  1
  Ho  Ho7  1  0.020308  0.040812  0.270174  1
  Ho  Ho8  1  0.479525  0.749977  0.020345  1
  Ho  Ho9  1  0.479561  0.229679  0.459237  1
  Ho  Ho10  1  0.020203  0.479797  0.750000  1
  Ho  Ho11  1  0.270321  0.020439  0.040763  1
  B  B12  1  0.249987  0.250013  0.250000  1
  B  B13  1  0.499974  0.000026  0.250000  1
  B  B14  1  0.999087  0.249972  0.499072  1
  B  B15  1  0.250028  0.500913  0.000928  1
  Br  Br16  1  0.250010  0.758187  0.741920  1
  Br  Br17  1  0.517340  0.509462  0.757986  1
  Br  Br18  1  0.983850  0.741955  0.991918  1
  Br  Br19  1  0.741813  0.249990  0.758080  1
  Br  Br20  1  0.990538  0.982660  0.742014  1
  Br  Br21  1  0.249923  0.990826  0.506981  1
  Br  Br22  1  0.758045  0.516150  0.508082  1
  Br  Br23  1  0.509174  0.250077  0.993019  1
  Br  Br24  1  0.758068  0.741932  0.250000  1
  Br  Br25  1  0.741866  0.991904  0.983770  1
  Br  Br26  1  0.991891  0.508109  0.250000  1
  Br  Br27  1  0.508096  0.758134  0.516230  1
