# generated using pymatgen
data_Ho8Er2Th6Mg3InRu4
_symmetry_space_group_name_H-M   'P 1'
_cell_length_a   9.71690548
_cell_length_b   9.79221228
_cell_length_c   9.79377500
_cell_angle_alpha   59.48662383
_cell_angle_beta   60.24869507
_cell_angle_gamma   60.26468555
_symmetry_Int_Tables_number   1
_chemical_formula_structural   Ho8Er2Th6Mg3InRu4
_chemical_formula_sum   'Ho8 Er2 Th6 Mg3 In1 Ru4'
_cell_volume   658.85809290
_cell_formula_units_Z   1
loop_
 _symmetry_equiv_pos_site_id
 _symmetry_equiv_pos_as_xyz
  1  'x, y, z'
loop_
 _atom_site_type_symbol
 _atom_site_label
 _atom_site_symmetry_multiplicity
 _atom_site_fract_x
 _atom_site_fract_y
 _atom_site_fract_z
 _atom_site_occupancy
  Ho  Ho0  1  0.188811  0.188590  0.811196  1
  Ho  Ho1  1  0.809313  0.809661  0.190724  1
  Ho  Ho2  1  0.933328  0.566852  0.566909  1
  Ho  Ho3  1  0.567700  0.932623  0.932634  1
  Ho  Ho4  1  0.563122  0.936655  0.562904  1
  Ho  Ho5  1  0.936636  0.563320  0.937060  1
  Ho  Ho6  1  0.563161  0.562942  0.936612  1
  Ho  Ho7  1  0.936618  0.937022  0.563336  1
  Er  Er8  1  0.189196  0.810781  0.189027  1
  Er  Er9  1  0.809023  0.190946  0.809457  1
  Th  Th10  1  0.342553  0.349192  0.348823  1
  Th  Th11  1  0.349320  0.343071  0.958477  1
  Th  Th12  1  0.348931  0.958588  0.342923  1
  Th  Th13  1  0.958655  0.349356  0.349631  1
  Th  Th14  1  0.817329  0.182741  0.182780  1
  Th  Th15  1  0.184462  0.815307  0.815322  1
  Mg  Mg16  1  0.579158  0.582103  0.260168  1
  Mg  Mg17  1  0.579283  0.260162  0.582091  1
  Mg  Mg18  1  0.260779  0.579254  0.579123  1
  In  In19  1  0.584284  0.580778  0.580771  1
  Ru  Ru20  1  0.127640  0.147919  0.148651  1
  Ru  Ru21  1  0.147664  0.128849  0.574731  1
  Ru  Ru22  1  0.148547  0.574677  0.128812  1
  Ru  Ru23  1  0.574484  0.148608  0.147834  1
