# generated using pymatgen
data_ScHgIO6
_symmetry_space_group_name_H-M   'P 1'
_cell_length_a   5.40078700
_cell_length_b   5.40078611
_cell_length_c   4.92943700
_cell_angle_alpha   90.00000000
_cell_angle_beta   90.00000000
_cell_angle_gamma   119.99999934
_symmetry_Int_Tables_number   1
_chemical_formula_structural   ScHgIO6
_chemical_formula_sum   'Sc1 Hg1 I1 O6'
_cell_volume   124.52082303
_cell_formula_units_Z   1
loop_
 _symmetry_equiv_pos_site_id
 _symmetry_equiv_pos_as_xyz
  1  'x, y, z'
loop_
 _atom_site_type_symbol
 _atom_site_label
 _atom_site_symmetry_multiplicity
 _atom_site_fract_x
 _atom_site_fract_y
 _atom_site_fract_z
 _atom_site_occupancy
  Sc  Sc0  1  0.333333  0.666666  0.500000  1
  Hg  Hg1  1  0.666667  0.333333  0.000000  1
  I  I2  1  0.000000  0.000000  0.500000  1
  O  O3  1  0.022440  0.305424  0.284225  1
  O  O4  1  0.694575  0.717016  0.284225  1
  O  O5  1  0.282984  0.977559  0.284225  1
  O  O6  1  0.282983  0.305424  0.715775  1
  O  O7  1  0.022440  0.717016  0.715775  1
  O  O8  1  0.694576  0.977559  0.715775  1
