# generated using pymatgen
data_Cs2Mg3Te4
_symmetry_space_group_name_H-M   'P 1'
_cell_length_a   6.76781518
_cell_length_b   10.87408584
_cell_length_c   10.87408609
_cell_angle_alpha   94.11241776
_cell_angle_beta   108.13096840
_cell_angle_gamma   108.13096504
_symmetry_Int_Tables_number   1
_chemical_formula_structural   Cs2Mg3Te4
_chemical_formula_sum   'Cs4 Mg6 Te8'
_cell_volume   710.06999279
_cell_formula_units_Z   2
loop_
 _symmetry_equiv_pos_site_id
 _symmetry_equiv_pos_as_xyz
  1  'x, y, z'
loop_
 _atom_site_type_symbol
 _atom_site_label
 _atom_site_symmetry_multiplicity
 _atom_site_fract_x
 _atom_site_fract_y
 _atom_site_fract_z
 _atom_site_occupancy
  Cs  Cs0  1  0.887444  0.123369  0.123369  1
  Cs  Cs1  1  0.640707  0.376631  0.376631  1
  Cs  Cs2  1  0.359293  0.623369  0.623369  1
  Cs  Cs3  1  0.112557  0.876631  0.876631  1
  Mg  Mg4  1  0.765104  0.515104  0.015104  1
  Mg  Mg5  1  0.500000  0.750000  0.250000  1
  Mg  Mg6  1  0.234896  0.984895  0.484895  1
  Mg  Mg7  1  0.765104  0.015104  0.515104  1
  Mg  Mg8  1  0.500000  0.250000  0.750000  1
  Mg  Mg9  1  0.234896  0.484895  0.984895  1
  Te  Te10  1  0.595129  0.721332  0.015710  1
  Te  Te11  1  0.141913  0.515710  0.221332  1
  Te  Te12  1  0.404870  0.984289  0.278668  1
  Te  Te13  1  0.858087  0.778667  0.484290  1
  Te  Te14  1  0.141913  0.221332  0.515710  1
  Te  Te15  1  0.595129  0.015710  0.721332  1
  Te  Te16  1  0.858087  0.484290  0.778667  1
  Te  Te17  1  0.404870  0.278668  0.984289  1
