# generated using pymatgen
data_Ho4Tm4Lu4TlCo5
_symmetry_space_group_name_H-M   'P 1'
_cell_length_a   8.16835438
_cell_length_b   8.16840461
_cell_length_c   8.16835300
_cell_angle_alpha   110.92826913
_cell_angle_beta   110.81979140
_cell_angle_gamma   106.70040875
_symmetry_Int_Tables_number   1
_chemical_formula_structural   Ho4Tm4Lu4TlCo5
_chemical_formula_sum   'Ho4 Tm4 Lu4 Tl1 Co5'
_cell_volume   418.82015293
_cell_formula_units_Z   1
loop_
 _symmetry_equiv_pos_site_id
 _symmetry_equiv_pos_as_xyz
  1  'x, y, z'
loop_
 _atom_site_type_symbol
 _atom_site_label
 _atom_site_symmetry_multiplicity
 _atom_site_fract_x
 _atom_site_fract_y
 _atom_site_fract_z
 _atom_site_occupancy
  Ho  Ho0  1  0.287213  0.185949  0.473149  1
  Ho  Ho1  1  0.712787  0.814051  0.526851  1
  Ho  Ho2  1  0.287200  0.814051  0.101264  1
  Ho  Ho3  1  0.712800  0.185949  0.898736  1
  Tm  Tm4  1  0.212461  0.405074  0.192613  1
  Tm  Tm5  1  0.787539  0.594926  0.807387  1
  Tm  Tm6  1  0.212462  0.019850  0.807388  1
  Tm  Tm7  1  0.787538  0.980150  0.192612  1
  Lu  Lu8  1  0.621394  0.313986  0.307393  1
  Lu  Lu9  1  0.378606  0.686014  0.692607  1
  Lu  Lu10  1  0.006592  0.313986  0.692592  1
  Lu  Lu11  1  0.993408  0.686014  0.307408  1
  Tl  Tl12  1  0.500000  0.500000  0.000000  1
  Co  Co13  1  0.000000  0.377324  0.377324  1
  Co  Co14  1  0.000000  0.622676  0.622676  1
  Co  Co15  1  0.386972  0.886974  0.500002  1
  Co  Co16  1  0.613028  0.113026  0.499998  1
  Co  Co17  1  0.000000  0.000000  0.000000  1
