# generated using pymatgen
data_PrY2(IrRh2)3
_symmetry_space_group_name_H-M   'P 1'
_cell_length_a   5.31617734
_cell_length_b   5.31618204
_cell_length_c   17.51112949
_cell_angle_alpha   90.02355695
_cell_angle_beta   89.97633742
_cell_angle_gamma   119.92206921
_symmetry_Int_Tables_number   1
_chemical_formula_structural   PrY2(IrRh2)3
_chemical_formula_sum   'Pr2 Y4 Ir6 Rh12'
_cell_volume   428.92815538
_cell_formula_units_Z   2
loop_
 _symmetry_equiv_pos_site_id
 _symmetry_equiv_pos_as_xyz
  1  'x, y, z'
loop_
 _atom_site_type_symbol
 _atom_site_label
 _atom_site_symmetry_multiplicity
 _atom_site_fract_x
 _atom_site_fract_y
 _atom_site_fract_z
 _atom_site_occupancy
  Pr  Pr0  1  0.333392  0.666609  0.749523  1
  Pr  Pr1  1  0.666685  0.333315  0.250891  1
  Y  Y2  1  0.333235  0.666765  0.959173  1
  Y  Y3  1  0.666777  0.333223  0.041060  1
  Y  Y4  1  0.666073  0.333927  0.459614  1
  Y  Y5  1  0.332290  0.667710  0.540182  1
  Ir  Ir6  1  0.167420  0.832580  0.374571  1
  Ir  Ir7  1  0.167374  0.334945  0.374793  1
  Ir  Ir8  1  0.665055  0.832626  0.374793  1
  Ir  Ir9  1  0.834213  0.165787  0.625243  1
  Ir  Ir10  1  0.997591  0.002409  0.500324  1
  Ir  Ir11  1  0.000573  0.999427  0.000192  1
  Rh  Rh12  1  0.834115  0.664035  0.625082  1
  Rh  Rh13  1  0.335965  0.165886  0.625082  1
  Rh  Rh14  1  0.832615  0.167385  0.876141  1
  Rh  Rh15  1  0.832996  0.665736  0.875039  1
  Rh  Rh16  1  0.334265  0.167004  0.875039  1
  Rh  Rh17  1  0.167440  0.832561  0.124323  1
  Rh  Rh18  1  0.167127  0.334727  0.124356  1
  Rh  Rh19  1  0.665273  0.832872  0.124356  1
  Rh  Rh20  1  0.333378  0.666623  0.249548  1
  Rh  Rh21  1  0.668590  0.331406  0.750500  1
  Rh  Rh22  1  0.000275  0.999724  0.250238  1
  Rh  Rh23  1  0.997283  0.002720  0.749938  1
