# generated using pymatgen
data_Dy2Er2Si4OsRh3
_symmetry_space_group_name_H-M   'P 1'
_cell_length_a   4.28139100
_cell_length_b   6.90784470
_cell_length_c   7.29052216
_cell_angle_alpha   89.84959042
_cell_angle_beta   90.00000000
_cell_angle_gamma   90.00000000
_symmetry_Int_Tables_number   1
_chemical_formula_structural   Dy2Er2Si4OsRh3
_chemical_formula_sum   'Dy2 Er2 Si4 Os1 Rh3'
_cell_volume   215.61779205
_cell_formula_units_Z   1
loop_
 _symmetry_equiv_pos_site_id
 _symmetry_equiv_pos_as_xyz
  1  'x, y, z'
loop_
 _atom_site_type_symbol
 _atom_site_label
 _atom_site_symmetry_multiplicity
 _atom_site_fract_x
 _atom_site_fract_y
 _atom_site_fract_z
 _atom_site_occupancy
  Dy  Dy0  1  0.750000  0.507703  0.311822  1
  Dy  Dy1  1  0.750000  0.002367  0.184664  1
  Er  Er2  1  0.250000  0.494352  0.690903  1
  Er  Er3  1  0.250000  0.995468  0.813021  1
  Si  Si4  1  0.250000  0.297683  0.106249  1
  Si  Si5  1  0.750000  0.702875  0.884042  1
  Si  Si6  1  0.250000  0.798661  0.403416  1
  Si  Si7  1  0.750000  0.198926  0.606541  1
  Os  Os8  1  0.750000  0.845485  0.569095  1
  Rh  Rh9  1  0.250000  0.156572  0.433653  1
  Rh  Rh10  1  0.750000  0.343577  0.929866  1
  Rh  Rh11  1  0.250000  0.656330  0.066730  1
