# generated using pymatgen
data_Nd2SmHo2Zr3(Co4P3)4
_symmetry_space_group_name_H-M   'P 1'
_cell_length_a   12.39103128
_cell_length_b   12.39103095
_cell_length_c   3.73312800
_cell_angle_alpha   90.00000000
_cell_angle_beta   90.00000000
_cell_angle_gamma   120.02415884
_symmetry_Int_Tables_number   1
_chemical_formula_structural   Nd2SmHo2Zr3(Co4P3)4
_chemical_formula_sum   'Nd2 Sm1 Ho2 Zr3 Co16 P12'
_cell_volume   496.26383976
_cell_formula_units_Z   1
loop_
 _symmetry_equiv_pos_site_id
 _symmetry_equiv_pos_as_xyz
  1  'x, y, z'
loop_
 _atom_site_type_symbol
 _atom_site_label
 _atom_site_symmetry_multiplicity
 _atom_site_fract_x
 _atom_site_fract_y
 _atom_site_fract_z
 _atom_site_occupancy
  Nd  Nd0  1  0.666582  0.333263  0.000000  1
  Nd  Nd1  1  0.333263  0.666582  0.000000  1
  Sm  Sm2  1  0.818606  0.818606  0.500000  1
  Ho  Ho3  1  0.182417  0.000275  0.500000  1
  Ho  Ho4  1  0.000275  0.182417  0.500000  1
  Zr  Zr5  1  0.440229  0.440229  0.000000  1
  Zr  Zr6  1  0.558453  0.000144  0.000000  1
  Zr  Zr7  1  0.000144  0.558453  0.000000  1
  Co  Co8  1  0.878188  0.353586  0.500000  1
  Co  Co9  1  0.645843  0.523730  0.500000  1
  Co  Co10  1  0.475155  0.121882  0.500000  1
  Co  Co11  1  0.353586  0.878188  0.500000  1
  Co  Co12  1  0.523730  0.645843  0.500000  1
  Co  Co13  1  0.121882  0.475155  0.500000  1
  Co  Co14  1  0.807001  0.177344  0.000000  1
  Co  Co15  1  0.823280  0.628773  0.000000  1
  Co  Co16  1  0.369833  0.192856  0.000000  1
  Co  Co17  1  0.177344  0.807001  0.000000  1
  Co  Co18  1  0.628773  0.823280  0.000000  1
  Co  Co19  1  0.192856  0.369833  0.000000  1
  Co  Co20  1  0.275181  0.275181  0.500000  1
  Co  Co21  1  0.724256  0.001135  0.500000  1
  Co  Co22  1  0.001135  0.724256  0.500000  1
  Co  Co23  1  0.001384  0.001384  0.000000  1
  P  P24  1  0.696530  0.169819  0.500000  1
  P  P25  1  0.830509  0.527192  0.500000  1
  P  P26  1  0.472781  0.303170  0.500000  1
  P  P27  1  0.169819  0.696530  0.500000  1
  P  P28  1  0.527192  0.830509  0.500000  1
  P  P29  1  0.303170  0.472781  0.500000  1
  P  P30  1  0.177044  0.177044  0.000000  1
  P  P31  1  0.823508  0.002282  0.000000  1
  P  P32  1  0.002282  0.823508  0.000000  1
  P  P33  1  0.646997  0.646997  0.000000  1
  P  P34  1  0.350694  0.000077  0.000000  1
  P  P35  1  0.000077  0.350694  0.000000  1
