# generated using pymatgen
data_Pr6Tm7Th3(CdIr)4
_symmetry_space_group_name_H-M   'P 1'
_cell_length_a   9.80818602
_cell_length_b   9.78400232
_cell_length_c   9.78400400
_cell_angle_alpha   60.00000109
_cell_angle_beta   60.08153115
_cell_angle_gamma   60.08152786
_symmetry_Int_Tables_number   1
_chemical_formula_structural   Pr6Tm7Th3(CdIr)4
_chemical_formula_sum   'Pr6 Tm7 Th3 Cd4 Ir4'
_cell_volume   664.72338791
_cell_formula_units_Z   1
loop_
 _symmetry_equiv_pos_site_id
 _symmetry_equiv_pos_as_xyz
  1  'x, y, z'
loop_
 _atom_site_type_symbol
 _atom_site_label
 _atom_site_symmetry_multiplicity
 _atom_site_fract_x
 _atom_site_fract_y
 _atom_site_fract_z
 _atom_site_occupancy
  Pr  Pr0  1  0.938743  0.560981  0.560981  1
  Pr  Pr1  1  0.562202  0.938082  0.938082  1
  Pr  Pr2  1  0.562202  0.938082  0.561633  1
  Pr  Pr3  1  0.938743  0.560981  0.939294  1
  Pr  Pr4  1  0.562202  0.561633  0.938082  1
  Pr  Pr5  1  0.938743  0.939294  0.560981  1
  Tm  Tm6  1  0.955717  0.348094  0.348094  1
  Tm  Tm7  1  0.815167  0.185794  0.185794  1
  Tm  Tm8  1  0.185426  0.816088  0.816088  1
  Tm  Tm9  1  0.185426  0.816088  0.182400  1
  Tm  Tm10  1  0.815167  0.185794  0.813244  1
  Tm  Tm11  1  0.185426  0.182400  0.816088  1
  Tm  Tm12  1  0.815167  0.813244  0.185794  1
  Th  Th13  1  0.345727  0.348903  0.348903  1
  Th  Th14  1  0.345727  0.348903  0.956464  1
  Th  Th15  1  0.345727  0.956464  0.348903  1
  Cd  Cd16  1  0.581194  0.578333  0.578333  1
  Cd  Cd17  1  0.581194  0.578333  0.262141  1
  Cd  Cd18  1  0.581194  0.262141  0.578333  1
  Cd  Cd19  1  0.260474  0.579842  0.579842  1
  Ir  Ir20  1  0.141977  0.141923  0.141923  1
  Ir  Ir21  1  0.141977  0.141923  0.574176  1
  Ir  Ir22  1  0.141977  0.574176  0.141923  1
  Ir  Ir23  1  0.572497  0.142501  0.142501  1
