# generated using pymatgen
data_Tm4Ge6RuRh6
_symmetry_space_group_name_H-M   'P 1'
_cell_length_a   7.21927430
_cell_length_b   7.21927430
_cell_length_c   7.21927300
_cell_angle_alpha   109.47122260
_cell_angle_beta   109.47122260
_cell_angle_gamma   109.47121470
_symmetry_Int_Tables_number   1
_chemical_formula_structural   Tm4Ge6RuRh6
_chemical_formula_sum   'Tm4 Ge6 Ru1 Rh6'
_cell_volume   289.64008870
_cell_formula_units_Z   1
loop_
 _symmetry_equiv_pos_site_id
 _symmetry_equiv_pos_as_xyz
  1  'x, y, z'
loop_
 _atom_site_type_symbol
 _atom_site_label
 _atom_site_symmetry_multiplicity
 _atom_site_fract_x
 _atom_site_fract_y
 _atom_site_fract_z
 _atom_site_occupancy
  Tm  Tm0  1  0.000000  0.000000  0.500000  1
  Tm  Tm1  1  0.000000  0.500000  0.000000  1
  Tm  Tm2  1  0.500000  0.000000  0.000000  1
  Tm  Tm3  1  0.500000  0.500000  0.500000  1
  Ge  Ge4  1  0.682796  0.682796  0.000000  1
  Ge  Ge5  1  0.317204  0.000000  0.317204  1
  Ge  Ge6  1  0.000000  0.317204  0.317204  1
  Ge  Ge7  1  0.317204  0.317204  0.000000  1
  Ge  Ge8  1  0.682796  0.000000  0.682796  1
  Ge  Ge9  1  0.000000  0.682796  0.682796  1
  Ru  Ru10  1  0.000000  0.000000  0.000000  1
  Rh  Rh11  1  0.750000  0.250000  0.500000  1
  Rh  Rh12  1  0.750000  0.500000  0.250000  1
  Rh  Rh13  1  0.500000  0.250000  0.750000  1
  Rh  Rh14  1  0.250000  0.500000  0.750000  1
  Rh  Rh15  1  0.250000  0.750000  0.500000  1
  Rh  Rh16  1  0.500000  0.750000  0.250000  1
