# generated using pymatgen
data_Pr8Zn8CuIr4Rh3
_symmetry_space_group_name_H-M   'P 1'
_cell_length_a   4.05866700
_cell_length_b   7.37459378
_cell_length_c   16.69065614
_cell_angle_alpha   90.21352318
_cell_angle_beta   90.00000000
_cell_angle_gamma   90.00000000
_symmetry_Int_Tables_number   1
_chemical_formula_structural   Pr8Zn8CuIr4Rh3
_chemical_formula_sum   'Pr8 Zn8 Cu1 Ir4 Rh3'
_cell_volume   499.56490022
_cell_formula_units_Z   1
loop_
 _symmetry_equiv_pos_site_id
 _symmetry_equiv_pos_as_xyz
  1  'x, y, z'
loop_
 _atom_site_type_symbol
 _atom_site_label
 _atom_site_symmetry_multiplicity
 _atom_site_fract_x
 _atom_site_fract_y
 _atom_site_fract_z
 _atom_site_occupancy
  Pr  Pr0  1  0.750000  0.452806  0.215959  1
  Pr  Pr1  1  0.750000  0.951859  0.284201  1
  Pr  Pr2  1  0.750000  0.832362  0.060478  1
  Pr  Pr3  1  0.250000  0.045019  0.718195  1
  Pr  Pr4  1  0.250000  0.168271  0.939612  1
  Pr  Pr5  1  0.250000  0.547434  0.783724  1
  Pr  Pr6  1  0.750000  0.332720  0.435770  1
  Pr  Pr7  1  0.250000  0.672392  0.560432  1
  Zn  Zn8  1  0.250000  0.997320  0.438678  1
  Zn  Zn9  1  0.750000  0.500981  0.939539  1
  Zn  Zn10  1  0.750000  0.003110  0.561483  1
  Zn  Zn11  1  0.250000  0.623253  0.349484  1
  Zn  Zn12  1  0.750000  0.372273  0.650703  1
  Zn  Zn13  1  0.750000  0.874758  0.849901  1
  Zn  Zn14  1  0.250000  0.498108  0.060255  1
  Zn  Zn15  1  0.250000  0.125038  0.150402  1
  Cu  Cu16  1  0.250000  0.239372  0.565386  1
  Ir  Ir17  1  0.750000  0.258370  0.065591  1
  Ir  Ir18  1  0.250000  0.246746  0.315953  1
  Ir  Ir19  1  0.750000  0.253283  0.812083  1
  Ir  Ir20  1  0.750000  0.751827  0.684969  1
  Rh  Rh21  1  0.250000  0.743584  0.935200  1
  Rh  Rh22  1  0.750000  0.760117  0.435400  1
  Rh  Rh23  1  0.250000  0.748997  0.186604  1
