# generated using pymatgen
data_BaFeAs2Ir
_symmetry_space_group_name_H-M   'P 1'
_cell_length_a   5.74058200
_cell_length_b   7.01352336
_cell_length_c   5.74003903
_cell_angle_alpha   65.81992660
_cell_angle_beta   89.99999001
_cell_angle_gamma   89.99986679
_symmetry_Int_Tables_number   1
_chemical_formula_structural   BaFeAs2Ir
_chemical_formula_sum   'Ba2 Fe2 As4 Ir2'
_cell_volume   210.82732646
_cell_formula_units_Z   2
loop_
 _symmetry_equiv_pos_site_id
 _symmetry_equiv_pos_as_xyz
  1  'x, y, z'
loop_
 _atom_site_type_symbol
 _atom_site_label
 _atom_site_symmetry_multiplicity
 _atom_site_fract_x
 _atom_site_fract_y
 _atom_site_fract_z
 _atom_site_occupancy
  Ba  Ba0  1  0.999997  0.000000  0.000001  1
  Ba  Ba1  1  0.500004  0.999998  0.500001  1
  Fe  Fe2  1  0.750162  0.499999  0.500000  1
  Fe  Fe3  1  0.249844  0.500000  0.500000  1
  As  As4  1  0.499996  0.700252  0.171706  1
  As  As5  1  0.000000  0.700588  0.627932  1
  As  As6  1  0.000002  0.299412  0.372067  1
  As  As7  1  0.499996  0.299750  0.828293  1
  Ir  Ir8  1  0.250012  0.499999  0.000000  1
  Ir  Ir9  1  0.749987  0.500000  0.000000  1
