# generated using pymatgen
data_Pr6Nd2Cu2Si12IrPd
_symmetry_space_group_name_H-M   'P 1'
_cell_length_a   8.22115800
_cell_length_b   8.22115915
_cell_length_c   8.56208100
_cell_angle_alpha   90.00000000
_cell_angle_beta   90.00000000
_cell_angle_gamma   119.99999539
_symmetry_Int_Tables_number   1
_chemical_formula_structural   Pr6Nd2Cu2Si12IrPd
_chemical_formula_sum   'Pr6 Nd2 Cu2 Si12 Ir1 Pd1'
_cell_volume   501.15957726
_cell_formula_units_Z   1
loop_
 _symmetry_equiv_pos_site_id
 _symmetry_equiv_pos_as_xyz
  1  'x, y, z'
loop_
 _atom_site_type_symbol
 _atom_site_label
 _atom_site_symmetry_multiplicity
 _atom_site_fract_x
 _atom_site_fract_y
 _atom_site_fract_z
 _atom_site_occupancy
  Pr  Pr0  1  0.501650  0.498350  0.752511  1
  Pr  Pr1  1  0.501653  0.498347  0.247493  1
  Pr  Pr2  1  0.996700  0.498350  0.752511  1
  Pr  Pr3  1  0.996694  0.498347  0.247493  1
  Pr  Pr4  1  0.501650  0.003300  0.752511  1
  Pr  Pr5  1  0.501653  0.003306  0.247493  1
  Nd  Nd6  1  0.000000  0.000000  0.749313  1
  Nd  Nd7  1  0.000000  0.000000  0.250656  1
  Cu  Cu8  1  0.333333  0.666667  0.500328  1
  Cu  Cu9  1  0.666667  0.333333  0.499847  1
  Si  Si10  1  0.832948  0.167052  0.000045  1
  Si  Si11  1  0.165033  0.834967  0.999988  1
  Si  Si12  1  0.334107  0.167052  0.000045  1
  Si  Si13  1  0.168629  0.831371  0.500171  1
  Si  Si14  1  0.669934  0.834967  0.999988  1
  Si  Si15  1  0.831552  0.168448  0.499750  1
  Si  Si16  1  0.832948  0.665893  0.000045  1
  Si  Si17  1  0.662743  0.831371  0.500171  1
  Si  Si18  1  0.165033  0.330066  0.999988  1
  Si  Si19  1  0.336895  0.168448  0.499750  1
  Si  Si20  1  0.168629  0.337257  0.500171  1
  Si  Si21  1  0.831552  0.663105  0.499750  1
  Ir  Ir22  1  0.666667  0.333333  0.999668  1
  Pd  Pd23  1  0.333333  0.666667  0.000311  1
