# generated using pymatgen
data_Li3(BrO3)4
_symmetry_space_group_name_H-M   'P 1'
_cell_length_a   6.52849849
_cell_length_b   5.51418040
_cell_length_c   9.64952807
_cell_angle_alpha   83.31012976
_cell_angle_beta   108.13658014
_cell_angle_gamma   95.56053619
_symmetry_Int_Tables_number   1
_chemical_formula_structural   Li3(BrO3)4
_chemical_formula_sum   'Li3 Br4 O12'
_cell_volume   327.19284901
_cell_formula_units_Z   1
loop_
 _symmetry_equiv_pos_site_id
 _symmetry_equiv_pos_as_xyz
  1  'x, y, z'
loop_
 _atom_site_type_symbol
 _atom_site_label
 _atom_site_symmetry_multiplicity
 _atom_site_fract_x
 _atom_site_fract_y
 _atom_site_fract_z
 _atom_site_occupancy
  Li  Li0  1  0.219751  0.692056  0.872410  1
  Li  Li1  1  0.567569  0.314356  0.798477  1
  Li  Li2  1  0.644353  0.153307  0.365344  1
  Br  Br3  1  0.800914  0.820414  0.937037  1
  Br  Br4  1  0.863713  0.657889  0.549545  1
  Br  Br5  1  0.304842  0.427017  0.435826  1
  Br  Br6  1  0.369749  0.164056  0.030422  1
  O  O7  1  0.883302  0.947879  0.480686  1
  O  O8  1  0.376986  0.014852  0.887664  1
  O  O9  1  0.053603  0.728153  0.008877  1
  O  O10  1  0.402909  0.713073  0.412459  1
  O  O11  1  0.694342  0.667564  0.784981  1
  O  O12  1  0.107848  0.604592  0.668326  1
  O  O13  1  0.432680  0.451291  0.966373  1
  O  O14  1  0.326307  0.273507  0.301210  1
  O  O15  1  0.479610  0.288456  0.585322  1
  O  O16  1  0.832724  0.114824  0.874203  1
  O  O17  1  0.593122  0.082473  0.162902  1
  O  O18  1  0.845922  0.476562  0.414619  1
