# generated using pymatgen
data_Pr12Tl3GaI12
_symmetry_space_group_name_H-M   'P 1'
_cell_length_a   11.04155678
_cell_length_b   11.04155747
_cell_length_c   11.04155700
_cell_angle_alpha   109.42211612
_cell_angle_beta   109.42211738
_cell_angle_gamma   109.42211194
_symmetry_Int_Tables_number   1
_chemical_formula_structural   Pr12Tl3GaI12
_chemical_formula_sum   'Pr12 Tl3 Ga1 I12'
_cell_volume   1038.14054797
_cell_formula_units_Z   1
loop_
 _symmetry_equiv_pos_site_id
 _symmetry_equiv_pos_as_xyz
  1  'x, y, z'
loop_
 _atom_site_type_symbol
 _atom_site_label
 _atom_site_symmetry_multiplicity
 _atom_site_fract_x
 _atom_site_fract_y
 _atom_site_fract_z
 _atom_site_occupancy
  Pr  Pr0  1  0.476910  0.482663  0.243274  1
  Pr  Pr1  1  0.750000  0.242582  0.257418  1
  Pr  Pr2  1  0.750000  0.007740  0.492260  1
  Pr  Pr3  1  0.243274  0.476910  0.482663  1
  Pr  Pr4  1  0.257418  0.750000  0.242582  1
  Pr  Pr5  1  0.023090  0.256726  0.017337  1
  Pr  Pr6  1  0.017337  0.023090  0.256726  1
  Pr  Pr7  1  0.492260  0.750000  0.007740  1
  Pr  Pr8  1  0.482663  0.243274  0.476910  1
  Pr  Pr9  1  0.007740  0.492260  0.750000  1
  Pr  Pr10  1  0.256726  0.017337  0.023090  1
  Pr  Pr11  1  0.242582  0.257418  0.750000  1
  Tl  Tl12  1  0.499859  0.000141  0.250000  1
  Tl  Tl13  1  0.000141  0.250000  0.499859  1
  Tl  Tl14  1  0.250000  0.499859  0.000141  1
  Ga  Ga15  1  0.250000  0.250000  0.250000  1
  I  I16  1  0.250000  0.756432  0.743568  1
  I  I17  1  0.513212  0.506409  0.756242  1
  I  I18  1  0.986788  0.743758  0.993591  1
  I  I19  1  0.743568  0.250000  0.756432  1
  I  I20  1  0.993591  0.986788  0.743758  1
  I  I21  1  0.250000  0.993409  0.506591  1
  I  I22  1  0.756242  0.513212  0.506409  1
  I  I23  1  0.506591  0.250000  0.993409  1
  I  I24  1  0.756432  0.743568  0.250000  1
  I  I25  1  0.743758  0.993591  0.986788  1
  I  I26  1  0.993409  0.506591  0.250000  1
  I  I27  1  0.506409  0.756242  0.513212  1
