# generated using pymatgen
data_La3(GaPt)4
_symmetry_space_group_name_H-M   'P 1'
_cell_length_a   8.41907083
_cell_length_b   8.41907127
_cell_length_c   8.41907162
_cell_angle_alpha   150.65734743
_cell_angle_beta   127.48666093
_cell_angle_gamma   61.29620921
_symmetry_Int_Tables_number   1
_chemical_formula_structural   La3(GaPt)4
_chemical_formula_sum   'La3 Ga4 Pt4'
_cell_volume   230.09563488
_cell_formula_units_Z   1
loop_
 _symmetry_equiv_pos_site_id
 _symmetry_equiv_pos_as_xyz
  1  'x, y, z'
loop_
 _atom_site_type_symbol
 _atom_site_label
 _atom_site_symmetry_multiplicity
 _atom_site_fract_x
 _atom_site_fract_y
 _atom_site_fract_z
 _atom_site_occupancy
  La  La0  1  0.500000  0.000000  0.500000  1
  La  La1  1  0.873599  0.873599  0.000000  1
  La  La2  1  0.126401  0.126401  0.000000  1
  Ga  Ga3  1  0.480595  0.673681  0.806914  1
  Ga  Ga4  1  0.866768  0.673681  0.193086  1
  Ga  Ga5  1  0.133232  0.326319  0.806914  1
  Ga  Ga6  1  0.519405  0.326319  0.193086  1
  Pt  Pt7  1  0.284012  0.784012  0.500000  1
  Pt  Pt8  1  0.715988  0.215988  0.500000  1
  Pt  Pt9  1  0.796676  0.500000  0.296676  1
  Pt  Pt10  1  0.203324  0.500000  0.703324  1
