# generated using pymatgen
data_TbSmYTaO7
_symmetry_space_group_name_H-M   'P 1'
_cell_length_a   6.50504207
_cell_length_b   6.50504119
_cell_length_c   7.59490100
_cell_angle_alpha   90.00000000
_cell_angle_beta   90.00000000
_cell_angle_gamma   109.47994870
_symmetry_Int_Tables_number   1
_chemical_formula_structural   TbSmYTaO7
_chemical_formula_sum   'Tb2 Sm2 Y2 Ta2 O14'
_cell_volume   302.98604088
_cell_formula_units_Z   2
loop_
 _symmetry_equiv_pos_site_id
 _symmetry_equiv_pos_as_xyz
  1  'x, y, z'
loop_
 _atom_site_type_symbol
 _atom_site_label
 _atom_site_symmetry_multiplicity
 _atom_site_fract_x
 _atom_site_fract_y
 _atom_site_fract_z
 _atom_site_occupancy
  Tb  Tb0  1  0.534285  0.000465  0.750000  1
  Tb  Tb1  1  0.000465  0.534285  0.250000  1
  Sm  Sm2  1  0.499870  0.499870  0.500000  1
  Sm  Sm3  1  0.499870  0.499870  0.000000  1
  Y  Y4  1  0.466640  0.999547  0.250000  1
  Y  Y5  1  0.999547  0.466640  0.750000  1
  Ta  Ta6  1  0.999855  0.999855  0.500000  1
  Ta  Ta7  1  0.999855  0.999855  0.000000  1
  O  O8  1  0.679819  0.929465  0.468220  1
  O  O9  1  0.929465  0.679819  0.531780  1
  O  O10  1  0.679819  0.929465  0.031780  1
  O  O11  1  0.929465  0.679819  0.968220  1
  O  O12  1  0.320307  0.070646  0.531341  1
  O  O13  1  0.070646  0.320307  0.468659  1
  O  O14  1  0.320307  0.070646  0.968659  1
  O  O15  1  0.070646  0.320307  0.031341  1
  O  O16  1  0.936321  0.063620  0.750000  1
  O  O17  1  0.063620  0.936321  0.250000  1
  O  O18  1  0.366053  0.631790  0.750000  1
  O  O19  1  0.631790  0.366053  0.250000  1
  O  O20  1  0.640383  0.360970  0.750000  1
  O  O21  1  0.360970  0.640383  0.250000  1
