# generated using pymatgen
data_NaHf2(AsO4)3
_symmetry_space_group_name_H-M   'P 1'
_cell_length_a   9.41267082
_cell_length_b   9.41267045
_cell_length_c   9.41266957
_cell_angle_alpha   59.00864454
_cell_angle_beta   59.00864310
_cell_angle_gamma   59.00864083
_symmetry_Int_Tables_number   1
_chemical_formula_structural   NaHf2(AsO4)3
_chemical_formula_sum   'Na2 Hf4 As6 O24'
_cell_volume   576.35552611
_cell_formula_units_Z   2
loop_
 _symmetry_equiv_pos_site_id
 _symmetry_equiv_pos_as_xyz
  1  'x, y, z'
loop_
 _atom_site_type_symbol
 _atom_site_label
 _atom_site_symmetry_multiplicity
 _atom_site_fract_x
 _atom_site_fract_y
 _atom_site_fract_z
 _atom_site_occupancy
  Na  Na0  1  0.000000  0.000000  0.000000  1
  Na  Na1  1  0.500000  0.500000  0.500000  1
  Hf  Hf2  1  0.857145  0.857145  0.857145  1
  Hf  Hf3  1  0.642855  0.642855  0.642855  1
  Hf  Hf4  1  0.357145  0.357145  0.357145  1
  Hf  Hf5  1  0.142855  0.142855  0.142855  1
  As  As6  1  0.750000  0.040026  0.459974  1
  As  As7  1  0.959974  0.540026  0.250000  1
  As  As8  1  0.040026  0.459974  0.750000  1
  As  As9  1  0.250000  0.959974  0.540026  1
  As  As10  1  0.459974  0.750000  0.040026  1
  As  As11  1  0.540026  0.250000  0.959974  1
  O  O12  1  0.868221  0.497853  0.703434  1
  O  O13  1  0.267243  0.924157  0.061141  1
  O  O14  1  0.796566  0.002147  0.631779  1
  O  O15  1  0.575843  0.232757  0.438859  1
  O  O16  1  0.131779  0.502147  0.296566  1
  O  O17  1  0.924157  0.061141  0.267243  1
  O  O18  1  0.732757  0.075843  0.938859  1
  O  O19  1  0.767243  0.561141  0.424157  1
  O  O20  1  0.424157  0.767243  0.561141  1
  O  O21  1  0.497853  0.703434  0.868221  1
  O  O22  1  0.075843  0.938859  0.732757  1
  O  O23  1  0.203434  0.997853  0.368221  1
  O  O24  1  0.997853  0.368221  0.203434  1
  O  O25  1  0.368221  0.203434  0.997853  1
  O  O26  1  0.938859  0.732757  0.075843  1
  O  O27  1  0.502147  0.296566  0.131779  1
  O  O28  1  0.232757  0.438859  0.575843  1
  O  O29  1  0.631779  0.796566  0.002147  1
  O  O30  1  0.002147  0.631779  0.796566  1
  O  O31  1  0.438859  0.575843  0.232757  1
  O  O32  1  0.561141  0.424157  0.767243  1
  O  O33  1  0.703434  0.868221  0.497853  1
  O  O34  1  0.296566  0.131779  0.502147  1
  O  O35  1  0.061141  0.267243  0.924157  1
