# generated using pymatgen
data_TbPr13Pt6
_symmetry_space_group_name_H-M   'P 1'
_cell_length_a   6.50780102
_cell_length_b   10.27215442
_cell_length_c   10.27215457
_cell_angle_alpha   120.06295656
_cell_angle_beta   90.00817409
_cell_angle_gamma   89.99182574
_symmetry_Int_Tables_number   1
_chemical_formula_structural   TbPr13Pt6
_chemical_formula_sum   'Tb1 Pr13 Pt6'
_cell_volume   594.30873603
_cell_formula_units_Z   1
loop_
 _symmetry_equiv_pos_site_id
 _symmetry_equiv_pos_as_xyz
  1  'x, y, z'
loop_
 _atom_site_type_symbol
 _atom_site_label
 _atom_site_symmetry_multiplicity
 _atom_site_fract_x
 _atom_site_fract_y
 _atom_site_fract_z
 _atom_site_occupancy
  Tb  Tb0  1  0.466990  0.333377  0.666623  1
  Pr  Pr1  1  0.955485  0.666573  0.333427  1
  Pr  Pr2  1  0.246788  0.128708  0.871292  1
  Pr  Pr3  1  0.246729  0.742822  0.871402  1
  Pr  Pr4  1  0.246729  0.128598  0.257178  1
  Pr  Pr5  1  0.744391  0.872455  0.127545  1
  Pr  Pr6  1  0.744335  0.254878  0.127438  1
  Pr  Pr7  1  0.744335  0.872562  0.745122  1
  Pr  Pr8  1  0.442331  0.537105  0.462895  1
  Pr  Pr9  1  0.442289  0.925790  0.462918  1
  Pr  Pr10  1  0.442289  0.537082  0.074210  1
  Pr  Pr11  1  0.944093  0.461405  0.538595  1
  Pr  Pr12  1  0.944055  0.077209  0.538578  1
  Pr  Pr13  1  0.944055  0.461422  0.922791  1
  Pt  Pt14  1  0.191173  0.811600  0.188400  1
  Pt  Pt15  1  0.190999  0.376676  0.188343  1
  Pt  Pt16  1  0.190999  0.811657  0.623324  1
  Pt  Pt17  1  0.686060  0.191144  0.808856  1
  Pt  Pt18  1  0.685936  0.617877  0.808942  1
  Pt  Pt19  1  0.685936  0.191058  0.382123  1
