# generated using pymatgen
data_Sc5U3(MnB6)4
_symmetry_space_group_name_H-M   'P 1'
_cell_length_a   3.45464100
_cell_length_b   8.87192088
_cell_length_c   11.19825401
_cell_angle_alpha   90.10908699
_cell_angle_beta   90.00000000
_cell_angle_gamma   90.00000000
_symmetry_Int_Tables_number   1
_chemical_formula_structural   Sc5U3(MnB6)4
_chemical_formula_sum   'Sc5 U3 Mn4 B24'
_cell_volume   343.21804297
_cell_formula_units_Z   1
loop_
 _symmetry_equiv_pos_site_id
 _symmetry_equiv_pos_as_xyz
  1  'x, y, z'
loop_
 _atom_site_type_symbol
 _atom_site_label
 _atom_site_symmetry_multiplicity
 _atom_site_fract_x
 _atom_site_fract_y
 _atom_site_fract_z
 _atom_site_occupancy
  Sc  Sc0  1  0.000000  0.181357  0.913631  1
  Sc  Sc1  1  0.000000  0.944948  0.371919  1
  Sc  Sc2  1  0.000000  0.056499  0.629622  1
  Sc  Sc3  1  0.000000  0.442047  0.126151  1
  Sc  Sc4  1  0.000000  0.554086  0.872412  1
  U  U5  1  0.000000  0.322600  0.414269  1
  U  U6  1  0.000000  0.677025  0.586503  1
  U  U7  1  0.000000  0.823708  0.084973  1
  Mn  Mn8  1  0.000000  0.640546  0.320222  1
  Mn  Mn9  1  0.000000  0.360620  0.678901  1
  Mn  Mn10  1  0.000000  0.139822  0.181736  1
  Mn  Mn11  1  0.000000  0.858682  0.819529  1
  B  B12  1  0.500000  0.554119  0.432335  1
  B  B13  1  0.500000  0.445754  0.567500  1
  B  B14  1  0.500000  0.055335  0.066441  1
  B  B15  1  0.500000  0.946452  0.932313  1
  B  B16  1  0.500000  0.751710  0.418859  1
  B  B17  1  0.500000  0.248537  0.582613  1
  B  B18  1  0.500000  0.250484  0.078938  1
  B  B19  1  0.500000  0.748973  0.918816  1
  B  B20  1  0.500000  0.793432  0.265220  1
  B  B21  1  0.500000  0.206112  0.736420  1
  B  B22  1  0.500000  0.293197  0.233046  1
  B  B23  1  0.500000  0.706263  0.765902  1
  B  B24  1  0.500000  0.630537  0.183129  1
  B  B25  1  0.500000  0.368127  0.816975  1
  B  B26  1  0.500000  0.131177  0.315994  1
  B  B27  1  0.500000  0.869588  0.685036  1
  B  B28  1  0.500000  0.983602  0.212634  1
  B  B29  1  0.500000  0.018848  0.788199  1
  B  B30  1  0.500000  0.482954  0.285652  1
  B  B31  1  0.500000  0.515881  0.714253  1
  B  B32  1  0.500000  0.600224  0.027334  1
  B  B33  1  0.500000  0.396436  0.971545  1
  B  B34  1  0.500000  0.101616  0.472847  1
  B  B35  1  0.500000  0.898704  0.528134  1
