# generated using pymatgen
data_Yb8Si6Pd3Pt5
_symmetry_space_group_name_H-M   'P 1'
_cell_length_a   10.71466674
_cell_length_b   10.72620156
_cell_length_c   7.77249286
_cell_angle_alpha   70.85422696
_cell_angle_beta   70.69848487
_cell_angle_gamma   31.13688314
_symmetry_Int_Tables_number   1
_chemical_formula_structural   Yb8Si6Pd3Pt5
_chemical_formula_sum   'Yb8 Si6 Pd3 Pt5'
_cell_volume   434.07446409
_cell_formula_units_Z   1
loop_
 _symmetry_equiv_pos_site_id
 _symmetry_equiv_pos_as_xyz
  1  'x, y, z'
loop_
 _atom_site_type_symbol
 _atom_site_label
 _atom_site_symmetry_multiplicity
 _atom_site_fract_x
 _atom_site_fract_y
 _atom_site_fract_z
 _atom_site_occupancy
  Yb  Yb0  1  0.929749  0.204282  0.331011  1
  Yb  Yb1  1  0.072707  0.792479  0.669323  1
  Yb  Yb2  1  0.793426  0.072492  0.169194  1
  Yb  Yb3  1  0.446789  0.211686  0.909080  1
  Yb  Yb4  1  0.789579  0.551026  0.593413  1
  Yb  Yb5  1  0.212318  0.446881  0.404265  1
  Yb  Yb6  1  0.206539  0.928194  0.830409  1
  Yb  Yb7  1  0.551754  0.789162  0.091864  1
  Si  Si8  1  0.305096  0.040074  0.430208  1
  Si  Si9  1  0.389737  0.610494  0.249692  1
  Si  Si10  1  0.043234  0.298071  0.934180  1
  Si  Si11  1  0.700083  0.958032  0.566744  1
  Si  Si12  1  0.953905  0.701531  0.068279  1
  Si  Si13  1  0.607701  0.391909  0.750558  1
  Pd  Pd14  1  0.919971  0.638916  0.819438  1
  Pd  Pd15  1  0.358647  0.083022  0.680190  1
  Pd  Pd16  1  0.078423  0.361523  0.180489  1
  Pt  Pt17  1  0.579890  0.294091  0.529048  1
  Pt  Pt18  1  0.707204  0.418173  0.970803  1
  Pt  Pt19  1  0.289932  0.583886  0.028565  1
  Pt  Pt20  1  0.421602  0.705070  0.471725  1
  Pt  Pt21  1  0.641713  0.919005  0.321522  1
