# generated using pymatgen
data_Sr20In2Si9Sn
_symmetry_space_group_name_H-M   'P 1'
_cell_length_a   8.12080900
_cell_length_b   8.12080900
_cell_length_c   16.51088100
_cell_angle_alpha   90.00000000
_cell_angle_beta   90.00000000
_cell_angle_gamma   90.00000000
_symmetry_Int_Tables_number   1
_chemical_formula_structural   Sr20In2Si9Sn
_chemical_formula_sum   'Sr20 In2 Si9 Sn1'
_cell_volume   1088.85196561
_cell_formula_units_Z   1
loop_
 _symmetry_equiv_pos_site_id
 _symmetry_equiv_pos_as_xyz
  1  'x, y, z'
loop_
 _atom_site_type_symbol
 _atom_site_label
 _atom_site_symmetry_multiplicity
 _atom_site_fract_x
 _atom_site_fract_y
 _atom_site_fract_z
 _atom_site_occupancy
  Sr  Sr0  1  0.327995  0.677892  0.117000  1
  Sr  Sr1  1  0.177892  0.172005  0.117000  1
  Sr  Sr2  1  0.500000  0.000000  0.738660  1
  Sr  Sr3  1  0.313497  0.673204  0.391654  1
  Sr  Sr4  1  0.672437  0.677412  0.883084  1
  Sr  Sr5  1  0.173204  0.186503  0.391654  1
  Sr  Sr6  1  0.686503  0.326796  0.391654  1
  Sr  Sr7  1  0.172622  0.813189  0.608164  1
  Sr  Sr8  1  0.327563  0.322588  0.883084  1
  Sr  Sr9  1  0.177412  0.827563  0.883084  1
  Sr  Sr10  1  0.500000  0.000000  0.260833  1
  Sr  Sr11  1  0.827378  0.186811  0.608164  1
  Sr  Sr12  1  0.313189  0.327378  0.608164  1
  Sr  Sr13  1  0.826796  0.813497  0.391654  1
  Sr  Sr14  1  0.822588  0.172437  0.883084  1
  Sr  Sr15  1  0.822108  0.827995  0.117000  1
  Sr  Sr16  1  0.000000  0.500000  0.248164  1
  Sr  Sr17  1  0.000000  0.500000  0.751622  1
  Sr  Sr18  1  0.672005  0.322108  0.117000  1
  Sr  Sr19  1  0.686811  0.672622  0.608164  1
  In  In20  1  0.000000  0.500000  0.001739  1
  In  In21  1  0.500000  0.000000  0.999443  1
  Si  Si22  1  0.106877  0.107449  0.744501  1
  Si  Si23  1  0.392551  0.606877  0.744501  1
  Si  Si24  1  0.607309  0.606990  0.255483  1
  Si  Si25  1  0.106990  0.892691  0.255483  1
  Si  Si26  1  0.607449  0.393123  0.744501  1
  Si  Si27  1  0.893123  0.892551  0.744501  1
  Si  Si28  1  0.392691  0.393010  0.255483  1
  Si  Si29  1  0.893010  0.107309  0.255483  1
  Si  Si30  1  0.000000  0.500000  0.500110  1
  Sn  Sn31  1  0.500000  0.000000  0.499885  1
