# generated using pymatgen
data_SrHf(TcO4)6
_symmetry_space_group_name_H-M   'P 1'
_cell_length_a   10.05521000
_cell_length_b   10.05520961
_cell_length_c   6.03700500
_cell_angle_alpha   90.00000000
_cell_angle_beta   90.00000000
_cell_angle_gamma   119.99998814
_symmetry_Int_Tables_number   1
_chemical_formula_structural   SrHf(TcO4)6
_chemical_formula_sum   'Sr1 Hf1 Tc6 O24'
_cell_volume   528.60892615
_cell_formula_units_Z   1
loop_
 _symmetry_equiv_pos_site_id
 _symmetry_equiv_pos_as_xyz
  1  'x, y, z'
loop_
 _atom_site_type_symbol
 _atom_site_label
 _atom_site_symmetry_multiplicity
 _atom_site_fract_x
 _atom_site_fract_y
 _atom_site_fract_z
 _atom_site_occupancy
  Sr  Sr0  1  0.333333  0.666667  0.250000  1
  Hf  Hf1  1  0.666667  0.333333  0.750000  1
  Tc  Tc2  1  0.063512  0.372218  0.750000  1
  Tc  Tc3  1  0.408133  0.297615  0.250000  1
  Tc  Tc4  1  0.627782  0.691292  0.750000  1
  Tc  Tc5  1  0.889482  0.591867  0.250000  1
  Tc  Tc6  1  0.308708  0.936488  0.750000  1
  Tc  Tc7  1  0.702385  0.110518  0.250000  1
  O  O8  1  0.510577  0.647118  0.519346  1
  O  O9  1  0.352882  0.863459  0.519346  1
  O  O10  1  0.800823  0.699177  0.250000  1
  O  O11  1  0.117620  0.880603  0.750000  1
  O  O12  1  0.300823  0.101646  0.250000  1
  O  O13  1  0.119397  0.237017  0.750000  1
  O  O14  1  0.527245  0.361092  0.013028  1
  O  O15  1  0.898354  0.199177  0.250000  1
  O  O16  1  0.084911  0.712463  0.250000  1
  O  O17  1  0.136541  0.489423  0.980654  1
  O  O18  1  0.136541  0.489423  0.519346  1
  O  O19  1  0.860799  0.285661  0.750000  1
  O  O20  1  0.287537  0.372448  0.250000  1
  O  O21  1  0.714339  0.575138  0.750000  1
  O  O22  1  0.833847  0.472755  0.486972  1
  O  O23  1  0.424862  0.139201  0.750000  1
  O  O24  1  0.638908  0.166153  0.013028  1
  O  O25  1  0.510577  0.647118  0.980654  1
  O  O26  1  0.352882  0.863459  0.980654  1
  O  O27  1  0.638908  0.166153  0.486972  1
  O  O28  1  0.527245  0.361092  0.486972  1
  O  O29  1  0.833847  0.472755  0.013028  1
  O  O30  1  0.762983  0.882380  0.750000  1
  O  O31  1  0.627552  0.915089  0.250000  1
