# generated using pymatgen
data_Th2Ge(PRh2)6
_symmetry_space_group_name_H-M   'P 1'
_cell_length_a   9.75542000
_cell_length_b   9.75542003
_cell_length_c   3.91597000
_cell_angle_alpha   90.00000000
_cell_angle_beta   90.00000000
_cell_angle_gamma   120.00000669
_symmetry_Int_Tables_number   1
_chemical_formula_structural   Th2Ge(PRh2)6
_chemical_formula_sum   'Th2 Ge1 P6 Rh12'
_cell_volume   322.74676907
_cell_formula_units_Z   1
loop_
 _symmetry_equiv_pos_site_id
 _symmetry_equiv_pos_as_xyz
  1  'x, y, z'
loop_
 _atom_site_type_symbol
 _atom_site_label
 _atom_site_symmetry_multiplicity
 _atom_site_fract_x
 _atom_site_fract_y
 _atom_site_fract_z
 _atom_site_occupancy
  Th  Th0  1  0.333333  0.666667  0.747871  1
  Th  Th1  1  0.666667  0.333333  0.252129  1
  Ge  Ge2  1  0.000000  0.000000  0.500000  1
  P  P3  1  0.886328  0.600327  0.751659  1
  P  P4  1  0.399673  0.286001  0.751659  1
  P  P5  1  0.713999  0.113672  0.751659  1
  P  P6  1  0.113672  0.399673  0.248341  1
  P  P7  1  0.600327  0.713999  0.248341  1
  P  P8  1  0.286001  0.886328  0.248341  1
  Rh  Rh9  1  0.616856  0.548567  0.749702  1
  Rh  Rh10  1  0.451433  0.068290  0.749702  1
  Rh  Rh11  1  0.931710  0.383144  0.749702  1
  Rh  Rh12  1  0.383144  0.451433  0.250298  1
  Rh  Rh13  1  0.548567  0.931710  0.250298  1
  Rh  Rh14  1  0.068290  0.616856  0.250298  1
  Rh  Rh15  1  0.119856  0.845553  0.752853  1
  Rh  Rh16  1  0.154447  0.274303  0.752853  1
  Rh  Rh17  1  0.725697  0.880144  0.752853  1
  Rh  Rh18  1  0.880144  0.154447  0.247147  1
  Rh  Rh19  1  0.845553  0.725697  0.247147  1
  Rh  Rh20  1  0.274303  0.119856  0.247147  1
