# generated using pymatgen
data_Th5Zr3(P3Ir4)4
_symmetry_space_group_name_H-M   'P 1'
_cell_length_a   12.98035500
_cell_length_b   12.98035596
_cell_length_c   4.06466200
_cell_angle_alpha   90.00000000
_cell_angle_beta   90.00000000
_cell_angle_gamma   120.00000010
_symmetry_Int_Tables_number   1
_chemical_formula_structural   Th5Zr3(P3Ir4)4
_chemical_formula_sum   'Th5 Zr3 P12 Ir16'
_cell_volume   593.10043291
_cell_formula_units_Z   1
loop_
 _symmetry_equiv_pos_site_id
 _symmetry_equiv_pos_as_xyz
  1  'x, y, z'
loop_
 _atom_site_type_symbol
 _atom_site_label
 _atom_site_symmetry_multiplicity
 _atom_site_fract_x
 _atom_site_fract_y
 _atom_site_fract_z
 _atom_site_occupancy
  Th  Th0  1  0.333333  0.666667  0.500000  1
  Th  Th1  1  0.666667  0.333333  0.500000  1
  Th  Th2  1  0.000000  0.816128  0.000000  1
  Th  Th3  1  0.183872  0.183872  0.000000  1
  Th  Th4  1  0.816128  0.000000  0.000000  1
  Zr  Zr5  1  0.000000  0.449488  0.500000  1
  Zr  Zr6  1  0.550512  0.550512  0.500000  1
  Zr  Zr7  1  0.449488  0.000000  0.500000  1
  P  P8  1  0.000000  0.643094  0.500000  1
  P  P9  1  0.356906  0.356906  0.500000  1
  P  P10  1  0.643094  0.000000  0.500000  1
  P  P11  1  0.519721  0.685021  0.000000  1
  P  P12  1  0.314979  0.834699  0.000000  1
  P  P13  1  0.165301  0.480279  0.000000  1
  P  P14  1  0.480279  0.165301  0.000000  1
  P  P15  1  0.685021  0.519721  0.000000  1
  P  P16  1  0.834699  0.314979  0.000000  1
  P  P17  1  0.000000  0.177971  0.500000  1
  P  P18  1  0.822029  0.822029  0.500000  1
  P  P19  1  0.177971  0.000000  0.500000  1
  Ir  Ir20  1  0.508307  0.863168  0.000000  1
  Ir  Ir21  1  0.136832  0.645140  0.000000  1
  Ir  Ir22  1  0.354860  0.491693  0.000000  1
  Ir  Ir23  1  0.491693  0.354860  0.000000  1
  Ir  Ir24  1  0.863168  0.508307  0.000000  1
  Ir  Ir25  1  0.645140  0.136832  0.000000  1
  Ir  Ir26  1  0.000000  0.281621  0.000000  1
  Ir  Ir27  1  0.718379  0.718379  0.000000  1
  Ir  Ir28  1  0.281621  0.000000  0.000000  1
  Ir  Ir29  1  0.628806  0.806617  0.500000  1
  Ir  Ir30  1  0.193383  0.822189  0.500000  1
  Ir  Ir31  1  0.177811  0.371194  0.500000  1
  Ir  Ir32  1  0.371194  0.177811  0.500000  1
  Ir  Ir33  1  0.806617  0.628806  0.500000  1
  Ir  Ir34  1  0.822189  0.193383  0.500000  1
  Ir  Ir35  1  0.000000  0.000000  0.500000  1
