# generated using pymatgen
data_K4HfS4
_symmetry_space_group_name_H-M   'P 1'
_cell_length_a   8.22791800
_cell_length_b   9.95740200
_cell_length_c   14.53368500
_cell_angle_alpha   90.00000000
_cell_angle_beta   90.00000000
_cell_angle_gamma   90.00000000
_symmetry_Int_Tables_number   1
_chemical_formula_structural   K4HfS4
_chemical_formula_sum   'K16 Hf4 S16'
_cell_volume   1190.72573149
_cell_formula_units_Z   4
loop_
 _symmetry_equiv_pos_site_id
 _symmetry_equiv_pos_as_xyz
  1  'x, y, z'
loop_
 _atom_site_type_symbol
 _atom_site_label
 _atom_site_symmetry_multiplicity
 _atom_site_fract_x
 _atom_site_fract_y
 _atom_site_fract_z
 _atom_site_occupancy
  K  K0  1  0.000000  0.000000  0.000000  1
  K  K1  1  0.500000  0.000000  0.500000  1
  K  K2  1  0.000000  0.500000  0.000000  1
  K  K3  1  0.500000  0.500000  0.500000  1
  K  K4  1  0.983625  0.750000  0.430939  1
  K  K5  1  0.483625  0.250000  0.069061  1
  K  K6  1  0.016375  0.250000  0.569061  1
  K  K7  1  0.516375  0.750000  0.930939  1
  K  K8  1  0.842969  0.055909  0.277341  1
  K  K9  1  0.342969  0.944091  0.222659  1
  K  K10  1  0.157031  0.555909  0.722659  1
  K  K11  1  0.657031  0.444091  0.777341  1
  K  K12  1  0.157031  0.944091  0.722659  1
  K  K13  1  0.657031  0.055909  0.777341  1
  K  K14  1  0.842969  0.444091  0.277341  1
  K  K15  1  0.342969  0.555909  0.222659  1
  Hf  Hf16  1  0.751715  0.750000  0.667458  1
  Hf  Hf17  1  0.248285  0.250000  0.332542  1
  Hf  Hf18  1  0.748285  0.750000  0.167458  1
  Hf  Hf19  1  0.251715  0.250000  0.832542  1
  S  S20  1  0.960365  0.250000  0.825118  1
  S  S21  1  0.539635  0.250000  0.325118  1
  S  S22  1  0.460365  0.750000  0.674882  1
  S  S23  1  0.039635  0.750000  0.174882  1
  S  S24  1  0.658194  0.550449  0.092139  1
  S  S25  1  0.158194  0.449551  0.407861  1
  S  S26  1  0.341806  0.050449  0.907861  1
  S  S27  1  0.841806  0.949551  0.592139  1
  S  S28  1  0.341806  0.449551  0.907861  1
  S  S29  1  0.841806  0.550449  0.592139  1
  S  S30  1  0.658194  0.949551  0.092139  1
  S  S31  1  0.158194  0.050449  0.407861  1
  S  S32  1  0.633199  0.750000  0.319838  1
  S  S33  1  0.133199  0.250000  0.180162  1
  S  S34  1  0.366801  0.250000  0.680162  1
  S  S35  1  0.866801  0.750000  0.819838  1
