# generated using pymatgen
data_Nb2Se8Br
_symmetry_space_group_name_H-M   'P 1'
_cell_length_a   9.41584978
_cell_length_b   9.41584942
_cell_length_c   9.41585006
_cell_angle_alpha   118.54545718
_cell_angle_beta   118.54545955
_cell_angle_gamma   92.53836202
_symmetry_Int_Tables_number   1
_chemical_formula_structural   Nb2Se8Br
_chemical_formula_sum   'Nb4 Se16 Br2'
_cell_volume   602.62538182
_cell_formula_units_Z   2
loop_
 _symmetry_equiv_pos_site_id
 _symmetry_equiv_pos_as_xyz
  1  'x, y, z'
loop_
 _atom_site_type_symbol
 _atom_site_label
 _atom_site_symmetry_multiplicity
 _atom_site_fract_x
 _atom_site_fract_y
 _atom_site_fract_z
 _atom_site_occupancy
  Nb  Nb0  1  0.250000  0.750000  0.500000  1
  Nb  Nb1  1  0.750000  0.250000  0.500000  1
  Nb  Nb2  1  0.000000  0.500000  0.500000  1
  Nb  Nb3  1  0.500000  0.000000  0.500000  1
  Se  Se4  1  0.345790  0.672850  0.757684  1
  Se  Se5  1  0.915166  0.588106  0.242316  1
  Se  Se6  1  0.327150  0.654210  0.242316  1
  Se  Se7  1  0.588106  0.345790  0.672938  1
  Se  Se8  1  0.672850  0.915166  0.327062  1
  Se  Se9  1  0.654210  0.411894  0.327062  1
  Se  Se10  1  0.191367  0.999717  0.431101  1
  Se  Se11  1  0.999717  0.568616  0.808350  1
  Se  Se12  1  0.760266  0.191367  0.191650  1
  Se  Se13  1  0.431384  0.000283  0.191650  1
  Se  Se14  1  0.808633  0.239734  0.808350  1
  Se  Se15  1  0.568616  0.760266  0.568899  1
  Se  Se16  1  0.000283  0.808633  0.568899  1
  Se  Se17  1  0.239734  0.431384  0.431101  1
  Se  Se18  1  0.411894  0.084834  0.757684  1
  Se  Se19  1  0.084834  0.327150  0.672938  1
  Br  Br20  1  0.847846  0.847846  0.000000  1
  Br  Br21  1  0.152154  0.152154  0.000000  1
