# generated using pymatgen
data_Ca2AuBrO2
_symmetry_space_group_name_H-M   'P 1'
_cell_length_a   9.93174695
_cell_length_b   9.93174688
_cell_length_c   9.93174723
_cell_angle_alpha   22.25919640
_cell_angle_beta   22.25919660
_cell_angle_gamma   22.25919510
_symmetry_Int_Tables_number   1
_chemical_formula_structural   Ca2AuBrO2
_chemical_formula_sum   'Ca2 Au1 Br1 O2'
_cell_volume   123.26703535
_cell_formula_units_Z   1
loop_
 _symmetry_equiv_pos_site_id
 _symmetry_equiv_pos_as_xyz
  1  'x, y, z'
loop_
 _atom_site_type_symbol
 _atom_site_label
 _atom_site_symmetry_multiplicity
 _atom_site_fract_x
 _atom_site_fract_y
 _atom_site_fract_z
 _atom_site_occupancy
  Ca  Ca0  1  0.255731  0.255731  0.255731  1
  Ca  Ca1  1  0.744269  0.744269  0.744269  1
  Au  Au2  1  0.500000  0.500000  0.500000  1
  Br  Br3  1  0.000000  0.000000  0.000000  1
  O  O4  1  0.429726  0.429726  0.429726  1
  O  O5  1  0.570274  0.570274  0.570274  1
