# generated using pymatgen
data_Ni5Mo12Pd3N4
_symmetry_space_group_name_H-M   'P 1'
_cell_length_a   6.74301345
_cell_length_b   6.74301421
_cell_length_c   6.74301374
_cell_angle_alpha   89.85588047
_cell_angle_beta   90.14412086
_cell_angle_gamma   89.85588294
_symmetry_Int_Tables_number   1
_chemical_formula_structural   Ni5Mo12Pd3N4
_chemical_formula_sum   'Ni5 Mo12 Pd3 N4'
_cell_volume   306.59002231
_cell_formula_units_Z   1
loop_
 _symmetry_equiv_pos_site_id
 _symmetry_equiv_pos_as_xyz
  1  'x, y, z'
loop_
 _atom_site_type_symbol
 _atom_site_label
 _atom_site_symmetry_multiplicity
 _atom_site_fract_x
 _atom_site_fract_y
 _atom_site_fract_z
 _atom_site_occupancy
  Ni  Ni0  1  0.193926  0.182954  0.179463  1
  Ni  Ni1  1  0.317046  0.820537  0.693926  1
  Ni  Ni2  1  0.435294  0.064706  0.935294  1
  Ni  Ni3  1  0.812528  0.687472  0.312528  1
  Ni  Ni4  1  0.679463  0.306074  0.817046  1
  Mo  Mo5  1  0.622833  0.703226  0.955306  1
  Mo  Mo6  1  0.455306  0.877167  0.296774  1
  Mo  Mo7  1  0.696397  0.957574  0.630317  1
  Mo  Mo8  1  0.542426  0.369683  0.196397  1
  Mo  Mo9  1  0.374022  0.196398  0.548324  1
  Mo  Mo10  1  0.196912  0.542409  0.372678  1
  Mo  Mo11  1  0.872678  0.303088  0.457591  1
  Mo  Mo12  1  0.048324  0.125978  0.803602  1
  Mo  Mo13  1  0.303602  0.451676  0.874022  1
  Mo  Mo14  1  0.130317  0.803603  0.042426  1
  Mo  Mo15  1  0.796774  0.044694  0.122833  1
  Mo  Mo16  1  0.957591  0.627322  0.696912  1
  Pd  Pd17  1  0.563288  0.564615  0.564660  1
  Pd  Pd18  1  0.064660  0.936712  0.435385  1
  Pd  Pd19  1  0.935385  0.435340  0.063288  1
  N  N20  1  0.374205  0.623996  0.125808  1
  N  N21  1  0.876004  0.874192  0.874205  1
  N  N22  1  0.125207  0.374793  0.625207  1
  N  N23  1  0.625808  0.125795  0.376004  1
