# generated using pymatgen
data_U3Al12Si2Pt
_symmetry_space_group_name_H-M   'P 1'
_cell_length_a   9.39743500
_cell_length_b   9.39743400
_cell_length_c   4.13195500
_cell_angle_alpha   90.00000000
_cell_angle_beta   90.00000000
_cell_angle_gamma   120.00000703
_symmetry_Int_Tables_number   1
_chemical_formula_structural   U3Al12Si2Pt
_chemical_formula_sum   'U3 Al12 Si2 Pt1'
_cell_volume   316.01289091
_cell_formula_units_Z   1
loop_
 _symmetry_equiv_pos_site_id
 _symmetry_equiv_pos_as_xyz
  1  'x, y, z'
loop_
 _atom_site_type_symbol
 _atom_site_label
 _atom_site_symmetry_multiplicity
 _atom_site_fract_x
 _atom_site_fract_y
 _atom_site_fract_z
 _atom_site_occupancy
  U  U0  1  0.000000  0.411024  0.000000  1
  U  U1  1  0.588976  0.588976  0.000000  1
  U  U2  1  0.411024  0.000000  0.000000  1
  Al  Al3  1  0.000000  0.737153  0.000000  1
  Al  Al4  1  0.262847  0.262847  0.000000  1
  Al  Al5  1  0.737153  0.000000  0.000000  1
  Al  Al6  1  0.000000  0.175282  0.500000  1
  Al  Al7  1  0.824718  0.824718  0.500000  1
  Al  Al8  1  0.175282  0.000000  0.500000  1
  Al  Al9  1  0.293351  0.471936  0.500000  1
  Al  Al10  1  0.178585  0.706649  0.500000  1
  Al  Al11  1  0.528064  0.821415  0.500000  1
  Al  Al12  1  0.821415  0.528064  0.500000  1
  Al  Al13  1  0.706649  0.178585  0.500000  1
  Al  Al14  1  0.471936  0.293351  0.500000  1
  Si  Si15  1  0.666667  0.333333  0.000000  1
  Si  Si16  1  0.333333  0.666667  0.000000  1
  Pt  Pt17  1  0.000000  0.000000  0.000000  1
