# generated using pymatgen
data_Dy4Tm6(SnSb)3
_symmetry_space_group_name_H-M   'P 1'
_cell_length_a   6.35351400
_cell_length_b   8.91344789
_cell_length_c   8.89697900
_cell_angle_alpha   119.93828890
_cell_angle_beta   90.00000384
_cell_angle_gamma   90.00017618
_symmetry_Int_Tables_number   1
_chemical_formula_structural   Dy4Tm6(SnSb)3
_chemical_formula_sum   'Dy4 Tm6 Sn3 Sb3'
_cell_volume   436.61901465
_cell_formula_units_Z   1
loop_
 _symmetry_equiv_pos_site_id
 _symmetry_equiv_pos_as_xyz
  1  'x, y, z'
loop_
 _atom_site_type_symbol
 _atom_site_label
 _atom_site_symmetry_multiplicity
 _atom_site_fract_x
 _atom_site_fract_y
 _atom_site_fract_z
 _atom_site_occupancy
  Dy  Dy0  1  0.750002  0.000010  0.239517  1
  Dy  Dy1  1  0.249998  0.758168  0.999626  1
  Dy  Dy2  1  0.250003  0.241886  0.241522  1
  Dy  Dy3  1  0.250005  0.999989  0.759602  1
  Tm  Tm4  1  0.501616  0.332651  0.666298  1
  Tm  Tm5  1  0.501625  0.667330  0.333592  1
  Tm  Tm6  1  0.998382  0.667330  0.333591  1
  Tm  Tm7  1  0.998386  0.332654  0.666297  1
  Tm  Tm8  1  0.750000  0.240914  0.000223  1
  Tm  Tm9  1  0.750004  0.759065  0.759276  1
  Sn  Sn10  1  0.749963  0.604433  0.998786  1
  Sn  Sn11  1  0.750005  0.395558  0.394465  1
  Sn  Sn12  1  0.750005  0.999993  0.607175  1
  Sb  Sb13  1  0.249999  0.393708  0.000102  1
  Sb  Sb14  1  0.250007  0.606296  0.606371  1
  Sb  Sb15  1  0.250004  0.000018  0.393556  1
