# generated using pymatgen
data_Hf4IrRh3
_symmetry_space_group_name_H-M   'P 1'
_cell_length_a   10.11518673
_cell_length_b   10.11518725
_cell_length_c   4.44481200
_cell_angle_alpha   90.00000000
_cell_angle_beta   90.00000000
_cell_angle_gamma   161.56417617
_symmetry_Int_Tables_number   1
_chemical_formula_structural   Hf4IrRh3
_chemical_formula_sum   'Hf4 Ir1 Rh3'
_cell_volume   143.82060942
_cell_formula_units_Z   1
loop_
 _symmetry_equiv_pos_site_id
 _symmetry_equiv_pos_as_xyz
  1  'x, y, z'
loop_
 _atom_site_type_symbol
 _atom_site_label
 _atom_site_symmetry_multiplicity
 _atom_site_fract_x
 _atom_site_fract_y
 _atom_site_fract_z
 _atom_site_occupancy
  Hf  Hf0  1  0.695374  0.304627  0.250000  1
  Hf  Hf1  1  0.439759  0.560242  0.250000  1
  Hf  Hf2  1  0.561018  0.438983  0.750001  1
  Hf  Hf3  1  0.304582  0.695419  0.750001  1
  Ir  Ir4  1  0.831020  0.168981  0.250000  1
  Rh  Rh5  1  0.056924  0.943077  0.250000  1
  Rh  Rh6  1  0.943228  0.056773  0.750001  1
  Rh  Rh7  1  0.168099  0.831902  0.750001  1
