# generated using pymatgen
data_Sc4FeCo3Si3Ge
_symmetry_space_group_name_H-M   'P 1'
_cell_length_a   4.03322800
_cell_length_b   6.47290763
_cell_length_c   6.83965798
_cell_angle_alpha   90.30557159
_cell_angle_beta   90.00000000
_cell_angle_gamma   90.00000000
_symmetry_Int_Tables_number   1
_chemical_formula_structural   Sc4FeCo3Si3Ge
_chemical_formula_sum   'Sc4 Fe1 Co3 Si3 Ge1'
_cell_volume   178.55844382
_cell_formula_units_Z   1
loop_
 _symmetry_equiv_pos_site_id
 _symmetry_equiv_pos_as_xyz
  1  'x, y, z'
loop_
 _atom_site_type_symbol
 _atom_site_label
 _atom_site_symmetry_multiplicity
 _atom_site_fract_x
 _atom_site_fract_y
 _atom_site_fract_z
 _atom_site_occupancy
  Sc  Sc0  1  0.250000  0.990535  0.303302  1
  Sc  Sc1  1  0.250000  0.493003  0.193659  1
  Sc  Sc2  1  0.750000  0.001973  0.696032  1
  Sc  Sc3  1  0.750000  0.512475  0.807097  1
  Fe  Fe4  1  0.750000  0.846197  0.059585  1
  Co  Co5  1  0.250000  0.151281  0.946294  1
  Co  Co6  1  0.250000  0.658903  0.559273  1
  Co  Co7  1  0.750000  0.351257  0.433475  1
  Si  Si8  1  0.250000  0.794027  0.895249  1
  Si  Si9  1  0.750000  0.705972  0.385790  1
  Si  Si10  1  0.750000  0.203745  0.109469  1
  Ge  Ge11  1  0.250000  0.290632  0.610774  1
