# generated using pymatgen
data_NaPr5NdRuBr12
_symmetry_space_group_name_H-M   'P 1'
_cell_length_a   9.62984490
_cell_length_b   9.61880899
_cell_length_c   9.61687103
_cell_angle_alpha   107.17105791
_cell_angle_beta   107.20992388
_cell_angle_gamma   107.14248243
_symmetry_Int_Tables_number   1
_chemical_formula_structural   NaPr5NdRuBr12
_chemical_formula_sum   'Na1 Pr5 Nd1 Ru1 Br12'
_cell_volume   738.29704085
_cell_formula_units_Z   1
loop_
 _symmetry_equiv_pos_site_id
 _symmetry_equiv_pos_as_xyz
  1  'x, y, z'
loop_
 _atom_site_type_symbol
 _atom_site_label
 _atom_site_symmetry_multiplicity
 _atom_site_fract_x
 _atom_site_fract_y
 _atom_site_fract_z
 _atom_site_occupancy
  Na  Na0  1  0.499983  0.500005  0.499973  1
  Pr  Pr1  1  0.319751  0.030838  0.113451  1
  Pr  Pr2  1  0.030854  0.113051  0.319207  1
  Pr  Pr3  1  0.969338  0.887566  0.680950  1
  Pr  Pr4  1  0.680344  0.969425  0.886518  1
  Pr  Pr5  1  0.886761  0.680218  0.968941  1
  Nd  Nd6  1  0.112990  0.318664  0.031317  1
  Ru  Ru7  1  0.000173  0.000453  0.000109  1
  Br  Br8  1  0.216494  0.683140  0.072184  1
  Br  Br9  1  0.453680  0.372440  0.156119  1
  Br  Br10  1  0.684764  0.073433  0.216721  1
  Br  Br11  1  0.927061  0.782822  0.315316  1
  Br  Br12  1  0.156367  0.454946  0.370778  1
  Br  Br13  1  0.372449  0.156616  0.455440  1
  Br  Br14  1  0.627543  0.843384  0.544568  1
  Br  Br15  1  0.843501  0.544800  0.627623  1
  Br  Br16  1  0.073200  0.217930  0.686203  1
  Br  Br17  1  0.315246  0.926587  0.783282  1
  Br  Br18  1  0.544501  0.627574  0.843101  1
  Br  Br19  1  0.785006  0.316111  0.928205  1
