# generated using pymatgen
data_LaSmDy2(Mo2O7)2
_symmetry_space_group_name_H-M   'P 1'
_cell_length_a   7.41993186
_cell_length_b   7.41993106
_cell_length_c   7.51809261
_cell_angle_alpha   60.06250796
_cell_angle_beta   60.06250792
_cell_angle_gamma   59.52945854
_symmetry_Int_Tables_number   1
_chemical_formula_structural   LaSmDy2(Mo2O7)2
_chemical_formula_sum   'La1 Sm1 Dy2 Mo4 O14'
_cell_volume   291.89793344
_cell_formula_units_Z   1
loop_
 _symmetry_equiv_pos_site_id
 _symmetry_equiv_pos_as_xyz
  1  'x, y, z'
loop_
 _atom_site_type_symbol
 _atom_site_label
 _atom_site_symmetry_multiplicity
 _atom_site_fract_x
 _atom_site_fract_y
 _atom_site_fract_z
 _atom_site_occupancy
  La  La0  1  0.125000  0.125000  0.625000  1
  Sm  Sm1  1  0.125000  0.125000  0.125000  1
  Dy  Dy2  1  0.625000  0.125000  0.125000  1
  Dy  Dy3  1  0.125000  0.625000  0.125000  1
  Mo  Mo4  1  0.125000  0.625000  0.625000  1
  Mo  Mo5  1  0.625000  0.125000  0.625000  1
  Mo  Mo6  1  0.625000  0.625000  0.125000  1
  Mo  Mo7  1  0.625000  0.625000  0.625000  1
  O  O8  1  0.716030  0.716030  0.286811  1
  O  O9  1  0.289438  0.289438  0.719713  1
  O  O10  1  0.702140  0.289289  0.716457  1
  O  O11  1  0.288612  0.706359  0.286541  1
  O  O12  1  0.289289  0.702140  0.716457  1
  O  O13  1  0.706359  0.288612  0.286541  1
  O  O14  1  0.533970  0.533970  0.963189  1
  O  O15  1  0.960562  0.960562  0.530287  1
  O  O16  1  0.547860  0.960711  0.533543  1
  O  O17  1  0.961388  0.543641  0.963459  1
  O  O18  1  0.960711  0.547860  0.533543  1
  O  O19  1  0.543641  0.961388  0.963459  1
  O  O20  1  0.253991  0.253991  0.244667  1
  O  O21  1  0.996009  0.996009  0.005333  1
