# generated using pymatgen
data_Zr10ZnGaPb6
_symmetry_space_group_name_H-M   'P 1'
_cell_length_a   8.82799500
_cell_length_b   8.82799481
_cell_length_c   5.98005300
_cell_angle_alpha   90.00000000
_cell_angle_beta   90.00000000
_cell_angle_gamma   119.99999698
_symmetry_Int_Tables_number   1
_chemical_formula_structural   Zr10ZnGaPb6
_chemical_formula_sum   'Zr10 Zn1 Ga1 Pb6'
_cell_volume   403.60805541
_cell_formula_units_Z   1
loop_
 _symmetry_equiv_pos_site_id
 _symmetry_equiv_pos_as_xyz
  1  'x, y, z'
loop_
 _atom_site_type_symbol
 _atom_site_label
 _atom_site_symmetry_multiplicity
 _atom_site_fract_x
 _atom_site_fract_y
 _atom_site_fract_z
 _atom_site_occupancy
  Zr  Zr0  1  0.333335  0.666664  0.999999  1
  Zr  Zr1  1  0.666658  0.333343  0.499999  1
  Zr  Zr2  1  0.666665  0.333336  0.000001  1
  Zr  Zr3  1  0.333342  0.666657  0.500001  1
  Zr  Zr4  1  0.263197  0.000011  0.248218  1
  Zr  Zr5  1  0.263202  0.263201  0.751774  1
  Zr  Zr6  1  0.999990  0.736804  0.751785  1
  Zr  Zr7  1  0.000010  0.263196  0.248215  1
  Zr  Zr8  1  0.736798  0.736799  0.248226  1
  Zr  Zr9  1  0.736803  0.999989  0.751782  1
  Zn  Zn10  1  0.000000  0.000000  0.500000  1
  Ga  Ga11  1  0.000000  0.000000  0.000000  1
  Pb  Pb12  1  0.612844  0.000001  0.250759  1
  Pb  Pb13  1  0.612841  0.612841  0.749244  1
  Pb  Pb14  1  0.999998  0.387159  0.749244  1
  Pb  Pb15  1  0.000002  0.612841  0.250756  1
  Pb  Pb16  1  0.387159  0.387159  0.250756  1
  Pb  Pb17  1  0.387156  0.999999  0.749241  1
