# generated using pymatgen
data_Yb8Pr2PdRu3
_symmetry_space_group_name_H-M   'P 1'
_cell_length_a   8.54394970
_cell_length_b   8.57704639
_cell_length_c   7.46627300
_cell_angle_alpha   83.10666987
_cell_angle_beta   82.96846386
_cell_angle_gamma   44.17991999
_symmetry_Int_Tables_number   1
_chemical_formula_structural   Yb8Pr2PdRu3
_chemical_formula_sum   'Yb8 Pr2 Pd1 Ru3'
_cell_volume   378.03208158
_cell_formula_units_Z   1
loop_
 _symmetry_equiv_pos_site_id
 _symmetry_equiv_pos_as_xyz
  1  'x, y, z'
loop_
 _atom_site_type_symbol
 _atom_site_label
 _atom_site_symmetry_multiplicity
 _atom_site_fract_x
 _atom_site_fract_y
 _atom_site_fract_z
 _atom_site_occupancy
  Yb  Yb0  1  0.022533  0.806334  0.923961  1
  Yb  Yb1  1  0.203998  0.979737  0.579555  1
  Yb  Yb2  1  0.981542  0.196793  0.083936  1
  Yb  Yb3  1  0.791881  0.036651  0.417029  1
  Yb  Yb4  1  0.367306  0.193445  0.826153  1
  Yb  Yb5  1  0.792021  0.638631  0.677662  1
  Yb  Yb6  1  0.639479  0.795852  0.179453  1
  Yb  Yb7  1  0.200446  0.359927  0.314755  1
  Pr  Pr8  1  0.578697  0.424922  0.755325  1
  Pr  Pr9  1  0.432626  0.572382  0.240214  1
  Pd  Pd10  1  0.169263  0.600948  0.579960  1
  Ru  Ru11  1  0.397056  0.820773  0.918241  1
  Ru  Ru12  1  0.821640  0.392998  0.425856  1
  Ru  Ru13  1  0.601511  0.180603  0.077898  1
