# generated using pymatgen
data_Sc22HgOsRu6
_symmetry_space_group_name_H-M   'P 1'
_cell_length_a   9.56940385
_cell_length_b   9.56940311
_cell_length_c   9.47150300
_cell_angle_alpha   60.33784679
_cell_angle_beta   60.33784932
_cell_angle_gamma   59.46968504
_symmetry_Int_Tables_number   1
_chemical_formula_structural   Sc22HgOsRu6
_chemical_formula_sum   'Sc22 Hg1 Os1 Ru6'
_cell_volume   613.88129055
_cell_formula_units_Z   1
loop_
 _symmetry_equiv_pos_site_id
 _symmetry_equiv_pos_as_xyz
  1  'x, y, z'
loop_
 _atom_site_type_symbol
 _atom_site_label
 _atom_site_symmetry_multiplicity
 _atom_site_fract_x
 _atom_site_fract_y
 _atom_site_fract_z
 _atom_site_occupancy
  Sc  Sc0  1  0.804060  0.804060  0.195940  1
  Sc  Sc1  1  0.193347  0.806653  0.198502  1
  Sc  Sc2  1  0.806653  0.193347  0.198502  1
  Sc  Sc3  1  0.195940  0.195940  0.804060  1
  Sc  Sc4  1  0.806653  0.193347  0.801498  1
  Sc  Sc5  1  0.193347  0.806653  0.801498  1
  Sc  Sc6  1  0.612037  0.612037  0.151955  1
  Sc  Sc7  1  0.602188  0.151672  0.623071  1
  Sc  Sc8  1  0.151672  0.602188  0.623071  1
  Sc  Sc9  1  0.612037  0.612037  0.623972  1
  Sc  Sc10  1  0.387963  0.387963  0.848045  1
  Sc  Sc11  1  0.397812  0.848328  0.376929  1
  Sc  Sc12  1  0.848328  0.397812  0.376929  1
  Sc  Sc13  1  0.387963  0.387963  0.376028  1
  Sc  Sc14  1  0.831346  0.831346  0.477300  1
  Sc  Sc15  1  0.842977  0.467136  0.844943  1
  Sc  Sc16  1  0.467136  0.842977  0.844943  1
  Sc  Sc17  1  0.831346  0.831346  0.860006  1
  Sc  Sc18  1  0.168654  0.168654  0.522700  1
  Sc  Sc19  1  0.157023  0.532864  0.155057  1
  Sc  Sc20  1  0.532864  0.157023  0.155057  1
  Sc  Sc21  1  0.168654  0.168654  0.139994  1
  Hg  Hg22  1  0.000000  0.000000  0.500000  1
  Os  Os23  1  0.500000  0.500000  0.500000  1
  Ru  Ru24  1  0.000000  0.000000  0.000000  1
  Ru  Ru25  1  0.500000  0.000000  0.500000  1
  Ru  Ru26  1  0.000000  0.500000  0.500000  1
  Ru  Ru27  1  0.500000  0.500000  0.000000  1
  Ru  Ru28  1  0.000000  0.500000  0.000000  1
  Ru  Ru29  1  0.500000  0.000000  0.000000  1
