# generated using pymatgen
data_Nd4Ga18Ir5Pd
_symmetry_space_group_name_H-M   'P 1'
_cell_length_a   7.66751154
_cell_length_b   7.66751142
_cell_length_c   9.62177413
_cell_angle_alpha   90.02722819
_cell_angle_beta   90.02722592
_cell_angle_gamma   119.57506497
_symmetry_Int_Tables_number   1
_chemical_formula_structural   Nd4Ga18Ir5Pd
_chemical_formula_sum   'Nd4 Ga18 Ir5 Pd1'
_cell_volume   491.96952663
_cell_formula_units_Z   1
loop_
 _symmetry_equiv_pos_site_id
 _symmetry_equiv_pos_as_xyz
  1  'x, y, z'
loop_
 _atom_site_type_symbol
 _atom_site_label
 _atom_site_symmetry_multiplicity
 _atom_site_fract_x
 _atom_site_fract_y
 _atom_site_fract_z
 _atom_site_occupancy
  Nd  Nd0  1  0.997778  0.670253  0.250756  1
  Nd  Nd1  1  0.002222  0.329747  0.749244  1
  Nd  Nd2  1  0.670253  0.997778  0.250756  1
  Nd  Nd3  1  0.329747  0.002222  0.749244  1
  Ga  Ga4  1  0.129728  0.129728  0.251585  1
  Ga  Ga5  1  0.870272  0.870272  0.748415  1
  Ga  Ga6  1  0.002202  0.338048  0.078799  1
  Ga  Ga7  1  0.997798  0.661952  0.921201  1
  Ga  Ga8  1  0.998536  0.665056  0.576571  1
  Ga  Ga9  1  0.334944  0.001464  0.423429  1
  Ga  Ga10  1  0.001464  0.334944  0.423429  1
  Ga  Ga11  1  0.665056  0.998536  0.576571  1
  Ga  Ga12  1  0.661952  0.997798  0.921201  1
  Ga  Ga13  1  0.338048  0.002202  0.078799  1
  Ga  Ga14  1  0.333454  0.333454  0.561714  1
  Ga  Ga15  1  0.666546  0.666546  0.438286  1
  Ga  Ga16  1  0.662603  0.662603  0.064083  1
  Ga  Ga17  1  0.337397  0.337397  0.935917  1
  Ga  Ga18  1  0.337165  0.545101  0.250136  1
  Ga  Ga19  1  0.662835  0.454899  0.749864  1
  Ga  Ga20  1  0.545101  0.337165  0.250136  1
  Ga  Ga21  1  0.454899  0.662835  0.749864  1
  Ir  Ir22  1  0.671257  0.328743  0.000000  1
  Ir  Ir23  1  0.328743  0.671257  0.000000  1
  Ir  Ir24  1  0.329251  0.670749  0.500000  1
  Ir  Ir25  1  0.670749  0.329251  0.500000  1
  Ir  Ir26  1  0.000000  0.000000  0.500000  1
  Pd  Pd27  1  0.000000  0.000000  0.000000  1
