# generated using pymatgen
data_TbNdCo6(SiB)2
_symmetry_space_group_name_H-M   'P 1'
_cell_length_a   5.19539800
_cell_length_b   5.19516201
_cell_length_c   6.45479900
_cell_angle_alpha   90.00000000
_cell_angle_beta   90.00000000
_cell_angle_gamma   120.00152811
_symmetry_Int_Tables_number   1
_chemical_formula_structural   TbNdCo6(SiB)2
_chemical_formula_sum   'Tb1 Nd1 Co6 Si2 B2'
_cell_volume   150.87753699
_cell_formula_units_Z   1
loop_
 _symmetry_equiv_pos_site_id
 _symmetry_equiv_pos_as_xyz
  1  'x, y, z'
loop_
 _atom_site_type_symbol
 _atom_site_label
 _atom_site_symmetry_multiplicity
 _atom_site_fract_x
 _atom_site_fract_y
 _atom_site_fract_z
 _atom_site_occupancy
  Tb  Tb0  1  0.999989  0.000000  0.500000  1
  Nd  Nd1  1  0.999970  0.000000  0.000000  1
  Co  Co2  1  0.499986  0.000000  0.285595  1
  Co  Co3  1  0.499986  0.500000  0.285573  1
  Co  Co4  1  0.999985  0.500000  0.285573  1
  Co  Co5  1  0.499986  0.000000  0.714405  1
  Co  Co6  1  0.499986  0.500000  0.714427  1
  Co  Co7  1  0.999985  0.500000  0.714427  1
  Si  Si8  1  0.333329  0.666696  0.000000  1
  Si  Si9  1  0.666634  0.333304  0.000000  1
  B  B10  1  0.333308  0.666651  0.500000  1
  B  B11  1  0.666657  0.333349  0.500000  1
