# generated using pymatgen
data_Nd6FeBr10
_symmetry_space_group_name_H-M   'P 1'
_cell_length_a   7.65490446
_cell_length_b   9.45016869
_cell_length_c   9.48949261
_cell_angle_alpha   108.16838806
_cell_angle_beta   96.72900980
_cell_angle_gamma   105.72650917
_symmetry_Int_Tables_number   1
_chemical_formula_structural   Nd6FeBr10
_chemical_formula_sum   'Nd6 Fe1 Br10'
_cell_volume   612.37415338
_cell_formula_units_Z   1
loop_
 _symmetry_equiv_pos_site_id
 _symmetry_equiv_pos_as_xyz
  1  'x, y, z'
loop_
 _atom_site_type_symbol
 _atom_site_label
 _atom_site_symmetry_multiplicity
 _atom_site_fract_x
 _atom_site_fract_y
 _atom_site_fract_z
 _atom_site_occupancy
  Nd  Nd0  1  0.469063  0.788977  0.588965  1
  Nd  Nd1  1  0.530937  0.211023  0.411035  1
  Nd  Nd2  1  0.377108  0.453986  0.740525  1
  Nd  Nd3  1  0.622892  0.546014  0.259475  1
  Nd  Nd4  1  0.864010  0.637485  0.682385  1
  Nd  Nd5  1  0.135990  0.362515  0.317615  1
  Fe  Fe6  1  0.500000  0.500000  0.500000  1
  Br  Br7  1  0.413621  0.133361  0.673377  1
  Br  Br8  1  0.586379  0.866639  0.326623  1
  Br  Br9  1  0.046542  0.676425  0.416124  1
  Br  Br10  1  0.953458  0.323575  0.583876  1
  Br  Br11  1  0.292193  0.756180  0.846417  1
  Br  Br12  1  0.707807  0.243820  0.153583  1
  Br  Br13  1  0.250275  0.415584  0.045565  1
  Br  Br14  1  0.749725  0.584416  0.954435  1
  Br  Br15  1  0.849279  0.953296  0.771173  1
  Br  Br16  1  0.150721  0.046704  0.228827  1
