# generated using pymatgen
data_HgSb16
_symmetry_space_group_name_H-M   'P 1'
_cell_length_a   4.42925557
_cell_length_b   4.42925473
_cell_length_c   29.93766800
_cell_angle_alpha   85.75769696
_cell_angle_beta   85.75769777
_cell_angle_gamma   60.00000496
_symmetry_Int_Tables_number   1
_chemical_formula_structural   HgSb16
_chemical_formula_sum   'Hg1 Sb16'
_cell_volume   506.78043275
_cell_formula_units_Z   1
loop_
 _symmetry_equiv_pos_site_id
 _symmetry_equiv_pos_as_xyz
  1  'x, y, z'
loop_
 _atom_site_type_symbol
 _atom_site_label
 _atom_site_symmetry_multiplicity
 _atom_site_fract_x
 _atom_site_fract_y
 _atom_site_fract_z
 _atom_site_occupancy
  Hg  Hg0  1  0.000000  0.000000  0.000000  1
  Sb  Sb1  1  0.296484  0.296484  0.110548  1
  Sb  Sb2  1  0.703516  0.703516  0.889452  1
  Sb  Sb3  1  0.233584  0.233584  0.299248  1
  Sb  Sb4  1  0.766416  0.766416  0.700752  1
  Sb  Sb5  1  0.472246  0.472246  0.583262  1
  Sb  Sb6  1  0.527754  0.527754  0.416738  1
  Sb  Sb7  1  0.353641  0.353641  0.939079  1
  Sb  Sb8  1  0.646359  0.646359  0.060921  1
  Sb  Sb9  1  0.060125  0.060125  0.819626  1
  Sb  Sb10  1  0.939875  0.939875  0.180374  1
  Sb  Sb11  1  0.409805  0.409805  0.770586  1
  Sb  Sb12  1  0.590195  0.590195  0.229414  1
  Sb  Sb13  1  0.116013  0.116013  0.651960  1
  Sb  Sb14  1  0.883987  0.883987  0.348040  1
  Sb  Sb15  1  0.178115  0.178115  0.465656  1
  Sb  Sb16  1  0.821885  0.821885  0.534344  1
