# generated using pymatgen
data_Tb5Dy3Ti3Si16Tc9
_symmetry_space_group_name_H-M   'P 1'
_cell_length_a   6.79344184
_cell_length_b   6.79348450
_cell_length_c   12.97745629
_cell_angle_alpha   89.93400389
_cell_angle_beta   90.07107779
_cell_angle_gamma   89.37620976
_symmetry_Int_Tables_number   1
_chemical_formula_structural   Tb5Dy3Ti3Si16Tc9
_chemical_formula_sum   'Tb5 Dy3 Ti3 Si16 Tc9'
_cell_volume   598.88806304
_cell_formula_units_Z   1
loop_
 _symmetry_equiv_pos_site_id
 _symmetry_equiv_pos_as_xyz
  1  'x, y, z'
loop_
 _atom_site_type_symbol
 _atom_site_label
 _atom_site_symmetry_multiplicity
 _atom_site_fract_x
 _atom_site_fract_y
 _atom_site_fract_z
 _atom_site_occupancy
  Tb  Tb0  1  0.823138  0.509195  0.283131  1
  Tb  Tb1  1  0.179659  0.488219  0.783236  1
  Tb  Tb2  1  0.662542  0.997838  0.971868  1
  Tb  Tb3  1  0.002939  0.336619  0.528762  1
  Tb  Tb4  1  0.997827  0.662583  0.028137  1
  Dy  Dy5  1  0.337272  0.002321  0.471281  1
  Dy  Dy6  1  0.509675  0.823724  0.716760  1
  Dy  Dy7  1  0.487795  0.179126  0.216729  1
  Ti  Ti8  1  0.155667  0.845100  0.249148  1
  Ti  Ti9  1  0.844994  0.155507  0.750930  1
  Ti  Ti10  1  0.666135  0.666154  0.500039  1
  Si  Si11  1  0.211540  0.116993  0.681030  1
  Si  Si12  1  0.398198  0.680862  0.940767  1
  Si  Si13  1  0.610194  0.308638  0.438460  1
  Si  Si14  1  0.680622  0.397824  0.059348  1
  Si  Si15  1  0.309096  0.611371  0.561568  1
  Si  Si16  1  0.786930  0.884654  0.182943  1
  Si  Si17  1  0.118147  0.210955  0.318879  1
  Si  Si18  1  0.883866  0.787266  0.816996  1
  Si  Si19  1  0.262586  0.985917  0.055417  1
  Si  Si20  1  0.525041  0.803787  0.314244  1
  Si  Si21  1  0.471955  0.197828  0.815146  1
  Si  Si22  1  0.802764  0.525540  0.685804  1
  Si  Si23  1  0.198724  0.471605  0.184715  1
  Si  Si24  1  0.730643  0.022241  0.557519  1
  Si  Si25  1  0.985832  0.262338  0.944696  1
  Si  Si26  1  0.022636  0.731663  0.442588  1
  Tc  Tc27  1  0.334130  0.333959  0.000328  1
  Tc  Tc28  1  0.182468  0.982118  0.864447  1
  Tc  Tc29  1  0.473644  0.693347  0.132293  1
  Tc  Tc30  1  0.523640  0.314579  0.632512  1
  Tc  Tc31  1  0.692712  0.473668  0.867724  1
  Tc  Tc32  1  0.315208  0.524076  0.367264  1
  Tc  Tc33  1  0.817930  0.011796  0.364013  1
  Tc  Tc34  1  0.982109  0.182109  0.135465  1
  Tc  Tc35  1  0.011745  0.818483  0.635814  1
