# generated using pymatgen
data_YHf5(SnRh)6
_symmetry_space_group_name_H-M   'P 1'
_cell_length_a   7.46709983
_cell_length_b   7.45177813
_cell_length_c   7.19893900
_cell_angle_alpha   90.00000000
_cell_angle_beta   90.00000000
_cell_angle_gamma   119.73297668
_symmetry_Int_Tables_number   1
_chemical_formula_structural   YHf5(SnRh)6
_chemical_formula_sum   'Y1 Hf5 Sn6 Rh6'
_cell_volume   347.83499939
_cell_formula_units_Z   1
loop_
 _symmetry_equiv_pos_site_id
 _symmetry_equiv_pos_as_xyz
  1  'x, y, z'
loop_
 _atom_site_type_symbol
 _atom_site_label
 _atom_site_symmetry_multiplicity
 _atom_site_fract_x
 _atom_site_fract_y
 _atom_site_fract_z
 _atom_site_occupancy
  Y  Y0  1  0.993444  0.398373  0.250000  1
  Hf  Hf1  1  0.004210  0.392274  0.750000  1
  Hf  Hf2  1  0.600937  0.612753  0.750000  1
  Hf  Hf3  1  0.391936  0.998076  0.750000  1
  Hf  Hf4  1  0.607151  0.600658  0.250000  1
  Hf  Hf5  1  0.397918  0.003166  0.250000  1
  Sn  Sn6  1  0.271880  0.269262  0.497084  1
  Sn  Sn7  1  0.997246  0.727670  0.510021  1
  Sn  Sn8  1  0.997246  0.727670  0.989979  1
  Sn  Sn9  1  0.730901  0.001390  0.497151  1
  Sn  Sn10  1  0.730901  0.001390  0.002849  1
  Sn  Sn11  1  0.271880  0.269262  0.002916  1
  Rh  Rh12  1  0.340429  0.672442  0.509976  1
  Rh  Rh13  1  0.661348  0.331643  0.533003  1
  Rh  Rh14  1  0.340429  0.672442  0.990024  1
  Rh  Rh15  1  0.000263  0.004176  0.750000  1
  Rh  Rh16  1  0.000537  0.985712  0.250000  1
  Rh  Rh17  1  0.661348  0.331643  0.966997  1
