# generated using pymatgen
data_NdCdNi3Pt
_symmetry_space_group_name_H-M   'P 1'
_cell_length_a   5.11682214
_cell_length_b   5.11682219
_cell_length_c   5.20432274
_cell_angle_alpha   60.55463126
_cell_angle_beta   60.55463229
_cell_angle_gamma   60.00000466
_symmetry_Int_Tables_number   1
_chemical_formula_structural   NdCdNi3Pt
_chemical_formula_sum   'Nd1 Cd1 Ni3 Pt1'
_cell_volume   97.14943213
_cell_formula_units_Z   1
loop_
 _symmetry_equiv_pos_site_id
 _symmetry_equiv_pos_as_xyz
  1  'x, y, z'
loop_
 _atom_site_type_symbol
 _atom_site_label
 _atom_site_symmetry_multiplicity
 _atom_site_fract_x
 _atom_site_fract_y
 _atom_site_fract_z
 _atom_site_occupancy
  Nd  Nd0  1  0.249136  0.249136  0.252592  1
  Cd  Cd1  1  0.003846  0.003846  0.988462  1
  Ni  Ni2  1  0.625391  0.121040  0.628180  1
  Ni  Ni3  1  0.121040  0.625391  0.628180  1
  Ni  Ni4  1  0.625391  0.625391  0.628180  1
  Pt  Pt5  1  0.625198  0.625198  0.124408  1
