# generated using pymatgen
data_Sm4Lu4B24MoOs3
_symmetry_space_group_name_H-M   'P 1'
_cell_length_a   3.65582900
_cell_length_b   9.16076877
_cell_length_c   11.59070376
_cell_angle_alpha   89.89614124
_cell_angle_beta   90.00000000
_cell_angle_gamma   90.00000000
_symmetry_Int_Tables_number   1
_chemical_formula_structural   Sm4Lu4B24MoOs3
_chemical_formula_sum   'Sm4 Lu4 B24 Mo1 Os3'
_cell_volume   388.17439692
_cell_formula_units_Z   1
loop_
 _symmetry_equiv_pos_site_id
 _symmetry_equiv_pos_as_xyz
  1  'x, y, z'
loop_
 _atom_site_type_symbol
 _atom_site_label
 _atom_site_symmetry_multiplicity
 _atom_site_fract_x
 _atom_site_fract_y
 _atom_site_fract_z
 _atom_site_occupancy
  Sm  Sm0  1  0.000000  0.321944  0.413546  1
  Sm  Sm1  1  0.000000  0.677476  0.584679  1
  Sm  Sm2  1  0.000000  0.820979  0.086521  1
  Sm  Sm3  1  0.000000  0.177521  0.914925  1
  Lu  Lu4  1  0.000000  0.945248  0.372515  1
  Lu  Lu5  1  0.000000  0.056895  0.628367  1
  Lu  Lu6  1  0.000000  0.444014  0.127400  1
  Lu  Lu7  1  0.000000  0.556219  0.871230  1
  B  B8  1  0.500000  0.552743  0.433589  1
  B  B9  1  0.500000  0.444576  0.569409  1
  B  B10  1  0.500000  0.055578  0.068972  1
  B  B11  1  0.500000  0.944561  0.931138  1
  B  B12  1  0.500000  0.753049  0.419264  1
  B  B13  1  0.500000  0.249880  0.583004  1
  B  B14  1  0.500000  0.250630  0.082566  1
  B  B15  1  0.500000  0.749286  0.917083  1
  B  B16  1  0.500000  0.794950  0.265153  1
  B  B17  1  0.500000  0.207997  0.734187  1
  B  B18  1  0.500000  0.291571  0.233171  1
  B  B19  1  0.500000  0.708519  0.765917  1
  B  B20  1  0.500000  0.630406  0.182966  1
  B  B21  1  0.500000  0.369261  0.815311  1
  B  B22  1  0.500000  0.130134  0.314380  1
  B  B23  1  0.500000  0.870219  0.685105  1
  B  B24  1  0.500000  0.984352  0.214025  1
  B  B25  1  0.500000  0.016025  0.786508  1
  B  B26  1  0.500000  0.479989  0.285057  1
  B  B27  1  0.500000  0.515333  0.714231  1
  B  B28  1  0.500000  0.600562  0.026084  1
  B  B29  1  0.500000  0.399338  0.971930  1
  B  B30  1  0.500000  0.100981  0.473021  1
  B  B31  1  0.500000  0.901073  0.528305  1
  Mo  Mo32  1  0.000000  0.639036  0.319793  1
  Os  Os33  1  0.000000  0.359549  0.681941  1
  Os  Os34  1  0.000000  0.139356  0.179701  1
  Os  Os35  1  0.000000  0.860748  0.819006  1
