# generated using pymatgen
data_La4ErPu3O14
_symmetry_space_group_name_H-M   'P 1'
_cell_length_a   7.91789763
_cell_length_b   7.91789794
_cell_length_c   7.84707200
_cell_angle_alpha   59.70098256
_cell_angle_beta   59.70098124
_cell_angle_gamma   60.00000372
_symmetry_Int_Tables_number   1
_chemical_formula_structural   La4ErPu3O14
_chemical_formula_sum   'La4 Er1 Pu3 O14'
_cell_volume   346.28582502
_cell_formula_units_Z   1
loop_
 _symmetry_equiv_pos_site_id
 _symmetry_equiv_pos_as_xyz
  1  'x, y, z'
loop_
 _atom_site_type_symbol
 _atom_site_label
 _atom_site_symmetry_multiplicity
 _atom_site_fract_x
 _atom_site_fract_y
 _atom_site_fract_z
 _atom_site_occupancy
  La  La0  1  0.625000  0.125000  0.125000  1
  La  La1  1  0.125000  0.125000  0.125000  1
  La  La2  1  0.125000  0.625000  0.125000  1
  La  La3  1  0.125000  0.125000  0.625000  1
  Er  Er4  1  0.625000  0.625000  0.125000  1
  Pu  Pu5  1  0.625000  0.625000  0.625000  1
  Pu  Pu6  1  0.625000  0.125000  0.625000  1
  Pu  Pu7  1  0.125000  0.625000  0.625000  1
  O  O8  1  0.715635  0.278988  0.289744  1
  O  O9  1  0.715635  0.715635  0.289744  1
  O  O10  1  0.278988  0.715635  0.289744  1
  O  O11  1  0.999686  0.999686  0.000939  1
  O  O12  1  0.717869  0.284916  0.712301  1
  O  O13  1  0.965084  0.532131  0.537699  1
  O  O14  1  0.284916  0.717869  0.712301  1
  O  O15  1  0.532131  0.965084  0.537699  1
  O  O16  1  0.250314  0.250314  0.249061  1
  O  O17  1  0.971012  0.534365  0.960256  1
  O  O18  1  0.534365  0.534365  0.960256  1
  O  O19  1  0.965084  0.965084  0.537699  1
  O  O20  1  0.534365  0.971012  0.960256  1
  O  O21  1  0.284916  0.284916  0.712301  1
