# generated using pymatgen
data_Ac2TeF4
_symmetry_space_group_name_H-M   'P 1'
_cell_length_a   8.77287666
_cell_length_b   8.77287700
_cell_length_c   8.77287700
_cell_angle_alpha   28.71988237
_cell_angle_beta   28.71987825
_cell_angle_gamma   28.71987757
_symmetry_Int_Tables_number   1
_chemical_formula_structural   Ac2TeF4
_chemical_formula_sum   'Ac2 Te1 F4'
_cell_volume   137.84225012
_cell_formula_units_Z   1
loop_
 _symmetry_equiv_pos_site_id
 _symmetry_equiv_pos_as_xyz
  1  'x, y, z'
loop_
 _atom_site_type_symbol
 _atom_site_label
 _atom_site_symmetry_multiplicity
 _atom_site_fract_x
 _atom_site_fract_y
 _atom_site_fract_z
 _atom_site_occupancy
  Ac  Ac0  1  0.760340  0.760340  0.760340  1
  Ac  Ac1  1  0.239660  0.239660  0.239660  1
  Te  Te2  1  0.000000  0.000000  0.000000  1
  F  F3  1  0.861227  0.861227  0.861227  1
  F  F4  1  0.138773  0.138773  0.138773  1
  F  F5  1  0.565597  0.565597  0.565597  1
  F  F6  1  0.434403  0.434403  0.434403  1
