# generated using pymatgen
data_DyLu2Co8MoP6
_symmetry_space_group_name_H-M   'P 1'
_cell_length_a   3.70800700
_cell_length_b   10.53083300
_cell_length_c   12.21197900
_cell_angle_alpha   90.00000000
_cell_angle_beta   90.00000000
_cell_angle_gamma   90.00000000
_symmetry_Int_Tables_number   1
_chemical_formula_structural   DyLu2Co8MoP6
_chemical_formula_sum   'Dy2 Lu4 Co16 Mo2 P12'
_cell_volume   476.85827107
_cell_formula_units_Z   2
loop_
 _symmetry_equiv_pos_site_id
 _symmetry_equiv_pos_as_xyz
  1  'x, y, z'
loop_
 _atom_site_type_symbol
 _atom_site_label
 _atom_site_symmetry_multiplicity
 _atom_site_fract_x
 _atom_site_fract_y
 _atom_site_fract_z
 _atom_site_occupancy
  Dy  Dy0  1  0.750000  0.250000  0.474847  1
  Dy  Dy1  1  0.250000  0.750000  0.525153  1
  Lu  Lu2  1  0.250000  0.930685  0.795295  1
  Lu  Lu3  1  0.250000  0.569315  0.795295  1
  Lu  Lu4  1  0.750000  0.069315  0.204705  1
  Lu  Lu5  1  0.750000  0.430685  0.204705  1
  Co  Co6  1  0.250000  0.250000  0.297380  1
  Co  Co7  1  0.750000  0.750000  0.702620  1
  Co  Co8  1  0.750000  0.250000  0.013884  1
  Co  Co9  1  0.250000  0.750000  0.986116  1
  Co  Co10  1  0.250000  0.417699  0.010260  1
  Co  Co11  1  0.250000  0.082301  0.010260  1
  Co  Co12  1  0.750000  0.582301  0.989740  1
  Co  Co13  1  0.750000  0.917699  0.989740  1
  Co  Co14  1  0.250000  0.454452  0.568861  1
  Co  Co15  1  0.250000  0.045548  0.568861  1
  Co  Co16  1  0.750000  0.545548  0.431139  1
  Co  Co17  1  0.750000  0.954452  0.431139  1
  Co  Co18  1  0.250000  0.872787  0.292783  1
  Co  Co19  1  0.250000  0.627213  0.292783  1
  Co  Co20  1  0.750000  0.127213  0.707217  1
  Co  Co21  1  0.750000  0.372787  0.707217  1
  Mo  Mo22  1  0.250000  0.250000  0.843671  1
  Mo  Mo23  1  0.750000  0.750000  0.156329  1
  P  P24  1  0.250000  0.250000  0.119809  1
  P  P25  1  0.750000  0.750000  0.880191  1
  P  P26  1  0.250000  0.250000  0.650479  1
  P  P27  1  0.750000  0.750000  0.349521  1
  P  P28  1  0.250000  0.438616  0.383015  1
  P  P29  1  0.250000  0.061384  0.383015  1
  P  P30  1  0.750000  0.561384  0.616985  1
  P  P31  1  0.750000  0.938616  0.616985  1
  P  P32  1  0.250000  0.906090  0.107733  1
  P  P33  1  0.250000  0.593910  0.107733  1
  P  P34  1  0.750000  0.093910  0.892267  1
  P  P35  1  0.750000  0.406090  0.892267  1
