# generated using pymatgen
data_Yb10CuBi6Pd
_symmetry_space_group_name_H-M   'P 1'
_cell_length_a   9.26797300
_cell_length_b   9.26797183
_cell_length_c   7.07892800
_cell_angle_alpha   90.00000000
_cell_angle_beta   90.00000000
_cell_angle_gamma   120.00000060
_symmetry_Int_Tables_number   1
_chemical_formula_structural   Yb10CuBi6Pd
_chemical_formula_sum   'Yb10 Cu1 Bi6 Pd1'
_cell_volume   526.58391532
_cell_formula_units_Z   1
loop_
 _symmetry_equiv_pos_site_id
 _symmetry_equiv_pos_as_xyz
  1  'x, y, z'
loop_
 _atom_site_type_symbol
 _atom_site_label
 _atom_site_symmetry_multiplicity
 _atom_site_fract_x
 _atom_site_fract_y
 _atom_site_fract_z
 _atom_site_occupancy
  Yb  Yb0  1  0.244987  0.244987  0.757217  1
  Yb  Yb1  1  0.755013  0.755013  0.242783  1
  Yb  Yb2  1  0.333333  0.666667  0.500000  1
  Yb  Yb3  1  0.244987  0.000000  0.242783  1
  Yb  Yb4  1  0.666667  0.333333  0.500000  1
  Yb  Yb5  1  0.000000  0.755013  0.757217  1
  Yb  Yb6  1  0.666667  0.333333  0.000000  1
  Yb  Yb7  1  0.000000  0.244987  0.242783  1
  Yb  Yb8  1  0.755013  0.000000  0.757217  1
  Yb  Yb9  1  0.333333  0.666667  0.000000  1
  Cu  Cu10  1  0.000000  0.000000  0.500000  1
  Bi  Bi11  1  0.397727  0.000000  0.747105  1
  Bi  Bi12  1  0.602273  0.000000  0.252895  1
  Bi  Bi13  1  0.602273  0.602273  0.747105  1
  Bi  Bi14  1  0.000000  0.602273  0.252895  1
  Bi  Bi15  1  0.000000  0.397727  0.747105  1
  Bi  Bi16  1  0.397727  0.397727  0.252895  1
  Pd  Pd17  1  0.000000  0.000000  0.000000  1
