# generated using pymatgen
data_Ba3S2Br
_symmetry_space_group_name_H-M   'P 1'
_cell_length_a   12.14632178
_cell_length_b   12.14632150
_cell_length_c   8.02162769
_cell_angle_alpha   71.25000311
_cell_angle_beta   71.25000499
_cell_angle_gamma   21.67633003
_symmetry_Int_Tables_number   1
_chemical_formula_structural   Ba3S2Br
_chemical_formula_sum   'Ba6 S4 Br2'
_cell_volume   413.05147953
_cell_formula_units_Z   2
loop_
 _symmetry_equiv_pos_site_id
 _symmetry_equiv_pos_as_xyz
  1  'x, y, z'
loop_
 _atom_site_type_symbol
 _atom_site_label
 _atom_site_symmetry_multiplicity
 _atom_site_fract_x
 _atom_site_fract_y
 _atom_site_fract_z
 _atom_site_occupancy
  Ba  Ba0  1  0.922916  0.922916  0.733513  1
  Ba  Ba1  1  0.253455  0.253455  0.719446  1
  Ba  Ba2  1  0.579386  0.579386  0.744964  1
  Ba  Ba3  1  0.077084  0.077084  0.266487  1
  Ba  Ba4  1  0.420614  0.420614  0.255036  1
  Ba  Ba5  1  0.746545  0.746545  0.280554  1
  S  S6  1  0.500000  0.500000  0.500000  1
  S  S7  1  0.834336  0.834336  0.499559  1
  S  S8  1  0.165664  0.165664  0.500441  1
  S  S9  1  0.000000  0.000000  0.000000  1
  Br  Br10  1  0.331872  0.331872  0.000271  1
  Br  Br11  1  0.668128  0.668128  0.999729  1
