# generated using pymatgen
data_Zr4In2Co3Au
_symmetry_space_group_name_H-M   'P 1'
_cell_length_a   7.42107926
_cell_length_b   7.42108002
_cell_length_c   3.29798200
_cell_angle_alpha   90.00000000
_cell_angle_beta   90.00000000
_cell_angle_gamma   91.85260527
_symmetry_Int_Tables_number   1
_chemical_formula_structural   Zr4In2Co3Au
_chemical_formula_sum   'Zr4 In2 Co3 Au1'
_cell_volume   181.53292286
_cell_formula_units_Z   1
loop_
 _symmetry_equiv_pos_site_id
 _symmetry_equiv_pos_as_xyz
  1  'x, y, z'
loop_
 _atom_site_type_symbol
 _atom_site_label
 _atom_site_symmetry_multiplicity
 _atom_site_fract_x
 _atom_site_fract_y
 _atom_site_fract_z
 _atom_site_occupancy
  Zr  Zr0  1  0.697355  0.159547  0.500000  1
  Zr  Zr1  1  0.142941  0.357059  0.500000  1
  Zr  Zr2  1  0.826865  0.673135  0.500000  1
  Zr  Zr3  1  0.340453  0.802645  0.500000  1
  In  In4  1  0.002578  0.993812  0.000000  1
  In  In5  1  0.506188  0.497422  0.000000  1
  Co  Co6  1  0.119579  0.631805  0.000000  1
  Co  Co7  1  0.624417  0.875583  0.000000  1
  Co  Co8  1  0.868195  0.380421  0.000000  1
  Au  Au9  1  0.371430  0.128570  0.000000  1
