# generated using pymatgen
data_La2TbDy2(Sn5Rh2)2
_symmetry_space_group_name_H-M   'P 1'
_cell_length_a   14.21468900
_cell_length_b   14.21468900
_cell_length_c   4.55385900
_cell_angle_alpha   90.00000000
_cell_angle_beta   90.00000000
_cell_angle_gamma   90.00000000
_symmetry_Int_Tables_number   1
_chemical_formula_structural   La2TbDy2(Sn5Rh2)2
_chemical_formula_sum   'La4 Tb2 Dy4 Sn20 Rh8'
_cell_volume   920.14083376
_cell_formula_units_Z   2
loop_
 _symmetry_equiv_pos_site_id
 _symmetry_equiv_pos_as_xyz
  1  'x, y, z'
loop_
 _atom_site_type_symbol
 _atom_site_label
 _atom_site_symmetry_multiplicity
 _atom_site_fract_x
 _atom_site_fract_y
 _atom_site_fract_z
 _atom_site_occupancy
  La  La0  1  0.888470  0.388470  0.500000  1
  La  La1  1  0.111530  0.611530  0.500000  1
  La  La2  1  0.388470  0.111530  0.500000  1
  La  La3  1  0.611530  0.888470  0.500000  1
  Tb  Tb4  1  0.500000  0.500000  0.000000  1
  Tb  Tb5  1  0.000000  0.000000  0.000000  1
  Dy  Dy6  1  0.677195  0.177195  0.500000  1
  Dy  Dy7  1  0.322805  0.822805  0.500000  1
  Dy  Dy8  1  0.177195  0.322805  0.500000  1
  Dy  Dy9  1  0.822805  0.677195  0.500000  1
  Sn  Sn10  1  0.570820  0.070820  0.000000  1
  Sn  Sn11  1  0.429180  0.929180  0.000000  1
  Sn  Sn12  1  0.070820  0.429180  0.000000  1
  Sn  Sn13  1  0.929180  0.570820  0.000000  1
  Sn  Sn14  1  0.654209  0.697790  0.000000  1
  Sn  Sn15  1  0.345791  0.302210  0.000000  1
  Sn  Sn16  1  0.154209  0.802210  0.000000  1
  Sn  Sn17  1  0.845791  0.197790  0.000000  1
  Sn  Sn18  1  0.302210  0.654209  0.000000  1
  Sn  Sn19  1  0.697790  0.345791  0.000000  1
  Sn  Sn20  1  0.197790  0.154209  0.000000  1
  Sn  Sn21  1  0.802210  0.845791  0.000000  1
  Sn  Sn22  1  0.661062  0.506502  0.500000  1
  Sn  Sn23  1  0.338938  0.493498  0.500000  1
  Sn  Sn24  1  0.161062  0.993498  0.500000  1
  Sn  Sn25  1  0.838938  0.006502  0.500000  1
  Sn  Sn26  1  0.493498  0.661062  0.500000  1
  Sn  Sn27  1  0.506502  0.338938  0.500000  1
  Sn  Sn28  1  0.006502  0.161062  0.500000  1
  Sn  Sn29  1  0.993498  0.838938  0.500000  1
  Rh  Rh30  1  0.745892  0.529468  0.000000  1
  Rh  Rh31  1  0.254108  0.470532  0.000000  1
  Rh  Rh32  1  0.245892  0.970532  0.000000  1
  Rh  Rh33  1  0.754108  0.029468  0.000000  1
  Rh  Rh34  1  0.470532  0.745892  0.000000  1
  Rh  Rh35  1  0.529468  0.254108  0.000000  1
  Rh  Rh36  1  0.029468  0.245892  0.000000  1
  Rh  Rh37  1  0.970532  0.754108  0.000000  1
