# generated using pymatgen
data_Tb4Zn2Co7Ni5B6
_symmetry_space_group_name_H-M   'P 1'
_cell_length_a   5.11381786
_cell_length_b   5.10227637
_cell_length_c   12.82613300
_cell_angle_alpha   90.00000000
_cell_angle_beta   90.00000000
_cell_angle_gamma   119.92537231
_symmetry_Int_Tables_number   1
_chemical_formula_structural   Tb4Zn2Co7Ni5B6
_chemical_formula_sum   'Tb4 Zn2 Co7 Ni5 B6'
_cell_volume   290.04254200
_cell_formula_units_Z   1
loop_
 _symmetry_equiv_pos_site_id
 _symmetry_equiv_pos_as_xyz
  1  'x, y, z'
loop_
 _atom_site_type_symbol
 _atom_site_label
 _atom_site_symmetry_multiplicity
 _atom_site_fract_x
 _atom_site_fract_y
 _atom_site_fract_z
 _atom_site_occupancy
  Tb  Tb0  1  0.000000  0.000000  0.004428  1
  Tb  Tb1  1  0.000000  0.000000  0.499760  1
  Tb  Tb2  1  0.000000  0.000000  0.736798  1
  Tb  Tb3  1  0.000000  0.000000  0.263742  1
  Zn  Zn4  1  0.669946  0.334973  0.000270  1
  Zn  Zn5  1  0.330054  0.665027  0.000270  1
  Co  Co6  1  0.000000  0.500000  0.162572  1
  Co  Co7  1  0.500000  0.500000  0.614978  1
  Co  Co8  1  0.500000  0.000000  0.614978  1
  Co  Co9  1  0.000000  0.500000  0.614171  1
  Co  Co10  1  0.500000  0.500000  0.384916  1
  Co  Co11  1  0.500000  0.000000  0.384916  1
  Co  Co12  1  0.000000  0.500000  0.384757  1
  Ni  Ni13  1  0.500000  0.500000  0.838908  1
  Ni  Ni14  1  0.500000  0.000000  0.838908  1
  Ni  Ni15  1  0.000000  0.500000  0.838871  1
  Ni  Ni16  1  0.500000  0.500000  0.160399  1
  Ni  Ni17  1  0.500000  0.000000  0.160399  1
  B  B18  1  0.666061  0.333030  0.499435  1
  B  B19  1  0.333939  0.666970  0.499435  1
  B  B20  1  0.667759  0.333879  0.727438  1
  B  B21  1  0.332241  0.666121  0.727438  1
  B  B22  1  0.329129  0.664566  0.271107  1
  B  B23  1  0.670871  0.335434  0.271107  1
