# generated using pymatgen
data_Dy4TmGa2Bi
_symmetry_space_group_name_H-M   'P 1'
_cell_length_a   8.75714234
_cell_length_b   8.75714214
_cell_length_c   8.75714240
_cell_angle_alpha   125.57317051
_cell_angle_beta   125.57317149
_cell_angle_gamma   80.59080182
_symmetry_Int_Tables_number   1
_chemical_formula_structural   Dy4TmGa2Bi
_chemical_formula_sum   'Dy8 Tm2 Ga4 Bi2'
_cell_volume   428.47606866
_cell_formula_units_Z   2
loop_
 _symmetry_equiv_pos_site_id
 _symmetry_equiv_pos_as_xyz
  1  'x, y, z'
loop_
 _atom_site_type_symbol
 _atom_site_label
 _atom_site_symmetry_multiplicity
 _atom_site_fract_x
 _atom_site_fract_y
 _atom_site_fract_z
 _atom_site_occupancy
  Dy  Dy0  1  0.513033  0.013033  0.808345  1
  Dy  Dy1  1  0.204688  0.704688  0.191655  1
  Dy  Dy2  1  0.013033  0.204688  0.500000  1
  Dy  Dy3  1  0.704688  0.513033  0.500000  1
  Dy  Dy4  1  0.486967  0.986967  0.191655  1
  Dy  Dy5  1  0.795312  0.295312  0.808345  1
  Dy  Dy6  1  0.986967  0.795312  0.500000  1
  Dy  Dy7  1  0.295312  0.486967  0.500000  1
  Tm  Tm8  1  0.500000  0.500000  0.000000  1
  Tm  Tm9  1  0.000000  0.000000  0.000000  1
  Ga  Ga10  1  0.146226  0.646226  0.792454  1
  Ga  Ga11  1  0.853774  0.353774  0.207546  1
  Ga  Ga12  1  0.646226  0.853774  0.500000  1
  Ga  Ga13  1  0.353774  0.146226  0.500000  1
  Bi  Bi14  1  0.250000  0.250000  0.000000  1
  Bi  Bi15  1  0.750000  0.750000  0.000000  1
