# generated using pymatgen
data_Rb5(TaSe4)2
_symmetry_space_group_name_H-M   'P 1'
_cell_length_a   12.45247083
_cell_length_b   12.45434546
_cell_length_c   12.45149567
_cell_angle_alpha   132.28861520
_cell_angle_beta   127.54353174
_cell_angle_gamma   73.60047030
_symmetry_Int_Tables_number   1
_chemical_formula_structural   Rb5(TaSe4)2
_chemical_formula_sum   'Rb10 Ta4 Se16'
_cell_volume   1105.51014782
_cell_formula_units_Z   2
loop_
 _symmetry_equiv_pos_site_id
 _symmetry_equiv_pos_as_xyz
  1  'x, y, z'
loop_
 _atom_site_type_symbol
 _atom_site_label
 _atom_site_symmetry_multiplicity
 _atom_site_fract_x
 _atom_site_fract_y
 _atom_site_fract_z
 _atom_site_occupancy
  Rb  Rb0  1  0.496418  0.246483  0.249977  1
  Rb  Rb1  1  0.003439  0.753510  0.249972  1
  Rb  Rb2  1  0.571376  0.712245  0.140836  1
  Rb  Rb3  1  0.428605  0.287768  0.859142  1
  Rb  Rb4  1  0.503523  0.753512  0.750082  1
  Rb  Rb5  1  0.071405  0.430505  0.359104  1
  Rb  Rb6  1  0.928647  0.569526  0.640919  1
  Rb  Rb7  1  0.996519  0.246495  0.750081  1
  Rb  Rb8  1  0.250050  0.999973  0.249977  1
  Rb  Rb9  1  0.750005  0.000020  0.749975  1
  Ta  Ta10  1  0.137189  0.914206  0.777044  1
  Ta  Ta11  1  0.862832  0.085807  0.222909  1
  Ta  Ta12  1  0.362837  0.640005  0.277147  1
  Ta  Ta13  1  0.637158  0.359988  0.722894  1
  Se  Se14  1  0.588655  0.585770  0.353933  1
  Se  Se15  1  0.742212  0.984379  0.242144  1
  Se  Se16  1  0.887676  0.875660  0.987860  1
  Se  Se17  1  0.768115  0.414226  0.002976  1
  Se  Se18  1  0.731847  0.234773  0.146071  1
  Se  Se19  1  0.757755  0.499811  0.742007  1
  Se  Se20  1  0.257783  0.015653  0.757850  1
  Se  Se21  1  0.231849  0.585796  0.997110  1
  Se  Se22  1  0.242258  0.500168  0.257987  1
  Se  Se23  1  0.268192  0.765269  0.853888  1
  Se  Se24  1  0.112298  0.124300  0.012034  1
  Se  Se25  1  0.911409  0.765292  0.497092  1
  Se  Se26  1  0.088656  0.234720  0.502880  1
  Se  Se27  1  0.612345  0.100077  0.487799  1
  Se  Se28  1  0.411293  0.414192  0.646065  1
  Se  Se29  1  0.387652  0.899873  0.512248  1
