# generated using pymatgen
data_Li(PbO2)6
_symmetry_space_group_name_H-M   'P 1'
_cell_length_a   6.90139600
_cell_length_b   5.33930944
_cell_length_c   15.81761146
_cell_angle_alpha   87.87365189
_cell_angle_beta   90.00000000
_cell_angle_gamma   90.00000000
_symmetry_Int_Tables_number   1
_chemical_formula_structural   Li(PbO2)6
_chemical_formula_sum   'Li2 Pb12 O24'
_cell_volume   582.45690753
_cell_formula_units_Z   2
loop_
 _symmetry_equiv_pos_site_id
 _symmetry_equiv_pos_as_xyz
  1  'x, y, z'
loop_
 _atom_site_type_symbol
 _atom_site_label
 _atom_site_symmetry_multiplicity
 _atom_site_fract_x
 _atom_site_fract_y
 _atom_site_fract_z
 _atom_site_occupancy
  Li  Li0  1  0.125591  0.928836  0.220721  1
  Li  Li1  1  0.874409  0.928836  0.720721  1
  Pb  Pb2  1  0.873630  0.477521  0.154448  1
  Pb  Pb3  1  0.376013  0.476458  0.153899  1
  Pb  Pb4  1  0.623987  0.476458  0.653899  1
  Pb  Pb5  1  0.126370  0.477521  0.654448  1
  Pb  Pb6  1  0.624439  0.535459  0.341726  1
  Pb  Pb7  1  0.125559  0.497392  0.348304  1
  Pb  Pb8  1  0.874441  0.497392  0.848304  1
  Pb  Pb9  1  0.375561  0.535459  0.841726  1
  Pb  Pb10  1  0.875375  0.998517  0.497422  1
  Pb  Pb11  1  0.374346  0.999333  0.500209  1
  Pb  Pb12  1  0.625654  0.999333  0.000209  1
  Pb  Pb13  1  0.124625  0.998517  0.997422  1
  O  O14  1  0.372864  0.174881  0.064002  1
  O  O15  1  0.877349  0.181701  0.062401  1
  O  O16  1  0.627136  0.174881  0.564002  1
  O  O17  1  0.122651  0.181701  0.562401  1
  O  O18  1  0.624927  0.309874  0.227056  1
  O  O19  1  0.124753  0.281529  0.223045  1
  O  O20  1  0.869070  0.319685  0.403344  1
  O  O21  1  0.380859  0.316530  0.403372  1
  O  O22  1  0.375073  0.309874  0.727056  1
  O  O23  1  0.875247  0.281529  0.723045  1
  O  O24  1  0.619141  0.316530  0.903372  1
  O  O25  1  0.130930  0.319685  0.903344  1
  O  O26  1  0.625004  0.680938  0.095235  1
  O  O27  1  0.124673  0.714980  0.108608  1
  O  O28  1  0.894778  0.704587  0.271928  1
  O  O29  1  0.355449  0.704082  0.271734  1
  O  O30  1  0.875327  0.714980  0.608608  1
  O  O31  1  0.374996  0.680938  0.595235  1
  O  O32  1  0.644551  0.704082  0.771734  1
  O  O33  1  0.105222  0.704587  0.771928  1
  O  O34  1  0.625025  0.817695  0.437000  1
  O  O35  1  0.124609  0.819001  0.435944  1
  O  O36  1  0.875391  0.819001  0.935944  1
  O  O37  1  0.374975  0.817695  0.937000  1
