# generated using pymatgen
data_Hf7Zr(Ni4P3)4
_symmetry_space_group_name_H-M   'P 1'
_cell_length_a   12.19079666
_cell_length_b   12.19079632
_cell_length_c   3.66261400
_cell_angle_alpha   90.00000000
_cell_angle_beta   90.00000000
_cell_angle_gamma   119.96241223
_symmetry_Int_Tables_number   1
_chemical_formula_structural   Hf7Zr(Ni4P3)4
_chemical_formula_sum   'Hf7 Zr1 Ni16 P12'
_cell_volume   471.57450079
_cell_formula_units_Z   1
loop_
 _symmetry_equiv_pos_site_id
 _symmetry_equiv_pos_as_xyz
  1  'x, y, z'
loop_
 _atom_site_type_symbol
 _atom_site_label
 _atom_site_symmetry_multiplicity
 _atom_site_fract_x
 _atom_site_fract_y
 _atom_site_fract_z
 _atom_site_occupancy
  Hf  Hf0  1  0.444950  0.444950  0.000000  1
  Hf  Hf1  1  0.999911  0.176930  0.500000  1
  Hf  Hf2  1  0.554677  0.000201  0.000000  1
  Hf  Hf3  1  0.333198  0.666638  0.000000  1
  Hf  Hf4  1  0.666638  0.333198  0.000000  1
  Hf  Hf5  1  0.000201  0.554677  0.000000  1
  Hf  Hf6  1  0.176930  0.999911  0.500000  1
  Zr  Zr7  1  0.822989  0.822989  0.500000  1
  Ni  Ni8  1  0.628555  0.819423  0.000000  1
  Ni  Ni9  1  0.370128  0.189669  0.000000  1
  Ni  Ni10  1  0.000807  0.725581  0.500000  1
  Ni  Ni11  1  0.274163  0.274163  0.500000  1
  Ni  Ni12  1  0.873718  0.354140  0.500000  1
  Ni  Ni13  1  0.725581  0.000807  0.500000  1
  Ni  Ni14  1  0.819423  0.628555  0.000000  1
  Ni  Ni15  1  0.180513  0.810304  0.000000  1
  Ni  Ni16  1  0.354140  0.873718  0.500000  1
  Ni  Ni17  1  0.126303  0.480291  0.500000  1
  Ni  Ni18  1  0.645776  0.519538  0.500000  1
  Ni  Ni19  1  0.001237  0.001237  0.000000  1
  Ni  Ni20  1  0.519538  0.645776  0.500000  1
  Ni  Ni21  1  0.480291  0.126303  0.500000  1
  Ni  Ni22  1  0.189669  0.370128  0.000000  1
  Ni  Ni23  1  0.810304  0.180513  0.000000  1
  P  P24  1  0.999931  0.348675  0.000000  1
  P  P25  1  0.827445  0.514571  0.500000  1
  P  P26  1  0.686828  0.172729  0.500000  1
  P  P27  1  0.176086  0.176086  0.000000  1
  P  P28  1  0.650246  0.650246  0.000000  1
  P  P29  1  0.824405  0.000493  0.000000  1
  P  P30  1  0.514571  0.827445  0.500000  1
  P  P31  1  0.172729  0.686828  0.500000  1
  P  P32  1  0.348675  0.999931  0.000000  1
  P  P33  1  0.485790  0.313161  0.500000  1
  P  P34  1  0.000493  0.824405  0.000000  1
  P  P35  1  0.313161  0.485790  0.500000  1
