# generated using pymatgen
data_Pa5Sn3As
_symmetry_space_group_name_H-M   'P 1'
_cell_length_a   9.21869100
_cell_length_b   9.21869073
_cell_length_c   6.23757500
_cell_angle_alpha   90.00000000
_cell_angle_beta   90.00000000
_cell_angle_gamma   120.00000454
_symmetry_Int_Tables_number   1
_chemical_formula_structural   Pa5Sn3As
_chemical_formula_sum   'Pa10 Sn6 As2'
_cell_volume   459.07632483
_cell_formula_units_Z   2
loop_
 _symmetry_equiv_pos_site_id
 _symmetry_equiv_pos_as_xyz
  1  'x, y, z'
loop_
 _atom_site_type_symbol
 _atom_site_label
 _atom_site_symmetry_multiplicity
 _atom_site_fract_x
 _atom_site_fract_y
 _atom_site_fract_z
 _atom_site_occupancy
  Pa  Pa0  1  0.666667  0.333333  0.000000  1
  Pa  Pa1  1  0.333333  0.666667  0.000000  1
  Pa  Pa2  1  0.333333  0.666667  0.500000  1
  Pa  Pa3  1  0.666667  0.333333  0.500000  1
  Pa  Pa4  1  0.734344  0.734344  0.750000  1
  Pa  Pa5  1  0.265656  0.000000  0.750000  1
  Pa  Pa6  1  0.000000  0.265656  0.750000  1
  Pa  Pa7  1  0.265656  0.265656  0.250000  1
  Pa  Pa8  1  0.734344  0.000000  0.250000  1
  Pa  Pa9  1  0.000000  0.734344  0.250000  1
  Sn  Sn10  1  0.386000  0.386000  0.750000  1
  Sn  Sn11  1  0.614000  0.000000  0.750000  1
  Sn  Sn12  1  0.000000  0.614000  0.750000  1
  Sn  Sn13  1  0.614000  0.614000  0.250000  1
  Sn  Sn14  1  0.386000  0.000000  0.250000  1
  Sn  Sn15  1  0.000000  0.386000  0.250000  1
  As  As16  1  0.000000  0.000000  0.000000  1
  As  As17  1  0.000000  0.000000  0.500000  1
