# generated using pymatgen
data_Rb3Sr(CeS3)2
_symmetry_space_group_name_H-M   'P 1'
_cell_length_a   7.32424256
_cell_length_b   7.32424263
_cell_length_c   7.96839600
_cell_angle_alpha   98.95040684
_cell_angle_beta   98.95040693
_cell_angle_gamma   119.78317000
_symmetry_Int_Tables_number   1
_chemical_formula_structural   Rb3Sr(CeS3)2
_chemical_formula_sum   'Rb3 Sr1 Ce2 S6'
_cell_volume   352.70418641
_cell_formula_units_Z   1
loop_
 _symmetry_equiv_pos_site_id
 _symmetry_equiv_pos_as_xyz
  1  'x, y, z'
loop_
 _atom_site_type_symbol
 _atom_site_label
 _atom_site_symmetry_multiplicity
 _atom_site_fract_x
 _atom_site_fract_y
 _atom_site_fract_z
 _atom_site_occupancy
  Rb  Rb0  1  0.840054  0.159946  0.500000  1
  Rb  Rb1  1  0.500000  0.500000  0.500000  1
  Rb  Rb2  1  0.159946  0.840054  0.500000  1
  Sr  Sr3  1  0.000000  0.000000  0.000000  1
  Ce  Ce4  1  0.667277  0.332723  0.000000  1
  Ce  Ce5  1  0.332723  0.667277  0.000000  1
  S  S6  1  0.713054  0.713054  0.195287  1
  S  S7  1  0.420240  0.067224  0.198672  1
  S  S8  1  0.067224  0.420240  0.198672  1
  S  S9  1  0.932777  0.579761  0.801329  1
  S  S10  1  0.579761  0.932777  0.801329  1
  S  S11  1  0.286947  0.286947  0.804713  1
