# generated using pymatgen
data_Nd7Ho(SiBr6)2
_symmetry_space_group_name_H-M   'P 1'
_cell_length_a   4.18255300
_cell_length_b   13.68292936
_cell_length_c   14.49976033
_cell_angle_alpha   89.62623455
_cell_angle_beta   90.00000000
_cell_angle_gamma   90.00000000
_symmetry_Int_Tables_number   1
_chemical_formula_structural   Nd7Ho(SiBr6)2
_chemical_formula_sum   'Nd7 Ho1 Si2 Br12'
_cell_volume   829.79749722
_cell_formula_units_Z   1
loop_
 _symmetry_equiv_pos_site_id
 _symmetry_equiv_pos_as_xyz
  1  'x, y, z'
loop_
 _atom_site_type_symbol
 _atom_site_label
 _atom_site_symmetry_multiplicity
 _atom_site_fract_x
 _atom_site_fract_y
 _atom_site_fract_z
 _atom_site_occupancy
  Nd  Nd0  1  0.500000  0.120200  0.339211  1
  Nd  Nd1  1  0.500000  0.880519  0.659767  1
  Nd  Nd2  1  0.500000  0.617284  0.159162  1
  Nd  Nd3  1  0.500000  0.380650  0.842145  1
  Nd  Nd4  1  0.000000  0.120266  0.579318  1
  Nd  Nd5  1  0.000000  0.879933  0.420060  1
  Nd  Nd6  1  0.000000  0.617517  0.921853  1
  Ho  Ho7  1  0.000000  0.383301  0.077497  1
  Si  Si8  1  0.500000  0.000346  0.499357  1
  Si  Si9  1  0.500000  0.496375  0.002343  1
  Br  Br10  1  0.500000  0.252989  0.158624  1
  Br  Br11  1  0.500000  0.755717  0.838117  1
  Br  Br12  1  0.500000  0.742492  0.337382  1
  Br  Br13  1  0.500000  0.256700  0.663108  1
  Br  Br14  1  0.000000  0.255841  0.410778  1
  Br  Br15  1  0.000000  0.744424  0.588633  1
  Br  Br16  1  0.000000  0.754307  0.088258  1
  Br  Br17  1  0.000000  0.246915  0.918877  1
  Br  Br18  1  0.000000  0.002610  0.242903  1
  Br  Br19  1  0.000000  0.998234  0.756298  1
  Br  Br20  1  0.000000  0.495092  0.251793  1
  Br  Br21  1  0.000000  0.498286  0.744516  1
