# generated using pymatgen
data_Ti8ReRu7
_symmetry_space_group_name_H-M   'P 1'
_cell_length_a   6.19110500
_cell_length_b   4.37806900
_cell_length_c   8.76158800
_cell_angle_alpha   90.00002617
_cell_angle_beta   90.00102725
_cell_angle_gamma   90.00000000
_symmetry_Int_Tables_number   1
_chemical_formula_structural   Ti8ReRu7
_chemical_formula_sum   'Ti8 Re1 Ru7'
_cell_volume   237.48358639
_cell_formula_units_Z   1
loop_
 _symmetry_equiv_pos_site_id
 _symmetry_equiv_pos_as_xyz
  1  'x, y, z'
loop_
 _atom_site_type_symbol
 _atom_site_label
 _atom_site_symmetry_multiplicity
 _atom_site_fract_x
 _atom_site_fract_y
 _atom_site_fract_z
 _atom_site_occupancy
  Ti  Ti0  1  0.000503  0.749999  0.124235  1
  Ti  Ti1  1  0.499512  0.749999  0.124238  1
  Ti  Ti2  1  0.000051  0.249999  0.374995  1
  Ti  Ti3  1  0.499977  0.249999  0.374997  1
  Ti  Ti4  1  0.499494  0.749999  0.625772  1
  Ti  Ti5  1  0.000474  0.749999  0.625780  1
  Ti  Ti6  1  0.499210  0.249999  0.874996  1
  Ti  Ti7  1  0.000767  0.249999  0.875001  1
  Re  Re8  1  0.250003  0.750000  0.874992  1
  Ru  Ru9  1  0.250010  0.249999  0.126464  1
  Ru  Ru10  1  0.750015  0.749999  0.375010  1
  Ru  Ru11  1  0.249983  0.249999  0.623544  1
  Ru  Ru12  1  0.749987  0.750000  0.875008  1
  Ru  Ru13  1  0.750017  0.249999  0.125904  1
  Ru  Ru14  1  0.250011  0.749999  0.375031  1
  Ru  Ru15  1  0.749987  0.249999  0.624037  1
