# generated using pymatgen
data_CaCu4BiO8
_symmetry_space_group_name_H-M   'P 1'
_cell_length_a   6.33547765
_cell_length_b   6.33547798
_cell_length_c   6.33547740
_cell_angle_alpha   125.45762096
_cell_angle_beta   125.45762248
_cell_angle_gamma   80.78141184
_symmetry_Int_Tables_number   1
_chemical_formula_structural   CaCu4BiO8
_chemical_formula_sum   'Ca1 Cu4 Bi1 O8'
_cell_volume   162.65409427
_cell_formula_units_Z   1
loop_
 _symmetry_equiv_pos_site_id
 _symmetry_equiv_pos_as_xyz
  1  'x, y, z'
loop_
 _atom_site_type_symbol
 _atom_site_label
 _atom_site_symmetry_multiplicity
 _atom_site_fract_x
 _atom_site_fract_y
 _atom_site_fract_z
 _atom_site_occupancy
  Ca  Ca0  1  0.000000  0.000000  0.000000  1
  Cu  Cu1  1  0.876081  0.627231  0.253734  1
  Cu  Cu2  1  0.373497  0.622347  0.746266  1
  Cu  Cu3  1  0.377653  0.123919  0.751150  1
  Cu  Cu4  1  0.372769  0.626503  0.248850  1
  Bi  Bi5  1  0.750000  0.250000  0.500000  1
  O  O6  1  0.022599  0.946635  0.370207  1
  O  O7  1  0.053365  0.423571  0.075964  1
  O  O8  1  0.347607  0.977401  0.924036  1
  O  O9  1  0.171631  0.594020  0.864444  1
  O  O10  1  0.405980  0.270425  0.577611  1
  O  O11  1  0.692813  0.828369  0.422389  1
  O  O12  1  0.576429  0.652393  0.629793  1
  O  O13  1  0.729575  0.307187  0.135556  1
