# generated using pymatgen
data_TbNp5(Ni3Sb4)2
_symmetry_space_group_name_H-M   'P 1'
_cell_length_a   8.20615733
_cell_length_b   8.19897323
_cell_length_c   8.21369700
_cell_angle_alpha   109.51372645
_cell_angle_beta   109.45507153
_cell_angle_gamma   109.46697674
_symmetry_Int_Tables_number   1
_chemical_formula_structural   TbNp5(Ni3Sb4)2
_chemical_formula_sum   'Tb1 Np5 Ni6 Sb8'
_cell_volume   425.30199765
_cell_formula_units_Z   1
loop_
 _symmetry_equiv_pos_site_id
 _symmetry_equiv_pos_as_xyz
  1  'x, y, z'
loop_
 _atom_site_type_symbol
 _atom_site_label
 _atom_site_symmetry_multiplicity
 _atom_site_fract_x
 _atom_site_fract_y
 _atom_site_fract_z
 _atom_site_occupancy
  Tb  Tb0  1  0.874861  0.250685  0.125223  1
  Np  Np1  1  0.622145  0.745511  0.374910  1
  Np  Np2  1  0.248863  0.128346  0.875600  1
  Np  Np3  1  0.751298  0.372066  0.625918  1
  Np  Np4  1  0.121979  0.869582  0.245460  1
  Np  Np5  1  0.380285  0.630249  0.754721  1
  Ni  Ni6  1  0.375022  0.249850  0.625075  1
  Ni  Ni7  1  0.124735  0.749712  0.876244  1
  Ni  Ni8  1  0.255263  0.629662  0.376258  1
  Ni  Ni9  1  0.748648  0.871049  0.124588  1
  Ni  Ni10  1  0.621618  0.377829  0.249465  1
  Ni  Ni11  1  0.874713  0.125235  0.745999  1
  Sb  Sb12  1  0.658977  0.499737  0.996808  1
  Sb  Sb13  1  0.498594  0.000867  0.661349  1
  Sb  Sb14  1  0.999954  0.659648  0.499966  1
  Sb  Sb15  1  0.839053  0.840779  0.838963  1
  Sb  Sb16  1  0.500617  0.000595  0.162627  1
  Sb  Sb17  1  0.162156  0.500884  0.000548  1
  Sb  Sb18  1  0.000865  0.158717  0.499729  1
  Sb  Sb19  1  0.340355  0.338996  0.340551  1
