# generated using pymatgen
data_Tb3Al12CoIr3
_symmetry_space_group_name_H-M   'P 1'
_cell_length_a   8.81510100
_cell_length_b   8.81510127
_cell_length_c   9.47329900
_cell_angle_alpha   90.00000000
_cell_angle_beta   90.00000000
_cell_angle_gamma   119.99999525
_symmetry_Int_Tables_number   1
_chemical_formula_structural   Tb3Al12CoIr3
_chemical_formula_sum   'Tb6 Al24 Co2 Ir6'
_cell_volume   637.50925771
_cell_formula_units_Z   2
loop_
 _symmetry_equiv_pos_site_id
 _symmetry_equiv_pos_as_xyz
  1  'x, y, z'
loop_
 _atom_site_type_symbol
 _atom_site_label
 _atom_site_symmetry_multiplicity
 _atom_site_fract_x
 _atom_site_fract_y
 _atom_site_fract_z
 _atom_site_occupancy
  Tb  Tb0  1  0.192769  0.385537  0.250000  1
  Tb  Tb1  1  0.807231  0.614463  0.750000  1
  Tb  Tb2  1  0.614463  0.807231  0.250000  1
  Tb  Tb3  1  0.385537  0.192769  0.750000  1
  Tb  Tb4  1  0.192769  0.807231  0.250000  1
  Tb  Tb5  1  0.807231  0.192769  0.750000  1
  Al  Al6  1  0.333333  0.666667  0.026882  1
  Al  Al7  1  0.666667  0.333333  0.973118  1
  Al  Al8  1  0.666667  0.333333  0.526882  1
  Al  Al9  1  0.333333  0.666667  0.473118  1
  Al  Al10  1  0.160729  0.321457  0.575247  1
  Al  Al11  1  0.839271  0.678543  0.424753  1
  Al  Al12  1  0.678543  0.839271  0.575247  1
  Al  Al13  1  0.839271  0.678543  0.075247  1
  Al  Al14  1  0.321457  0.160729  0.424753  1
  Al  Al15  1  0.160729  0.321457  0.924753  1
  Al  Al16  1  0.160729  0.839271  0.575247  1
  Al  Al17  1  0.321457  0.160729  0.075247  1
  Al  Al18  1  0.839271  0.160729  0.424753  1
  Al  Al19  1  0.678543  0.839271  0.924753  1
  Al  Al20  1  0.839271  0.160729  0.075247  1
  Al  Al21  1  0.160729  0.839271  0.924753  1
  Al  Al22  1  0.562615  0.125230  0.250000  1
  Al  Al23  1  0.437385  0.874770  0.750000  1
  Al  Al24  1  0.874770  0.437385  0.250000  1
  Al  Al25  1  0.125230  0.562615  0.750000  1
  Al  Al26  1  0.562615  0.437385  0.250000  1
  Al  Al27  1  0.437385  0.562615  0.750000  1
  Al  Al28  1  0.000000  0.000000  0.250000  1
  Al  Al29  1  0.000000  0.000000  0.750000  1
  Co  Co30  1  0.000000  0.000000  0.000000  1
  Co  Co31  1  0.000000  0.000000  0.500000  1
  Ir  Ir32  1  0.500000  0.000000  0.000000  1
  Ir  Ir33  1  0.000000  0.500000  0.000000  1
  Ir  Ir34  1  0.500000  0.000000  0.500000  1
  Ir  Ir35  1  0.500000  0.500000  0.000000  1
  Ir  Ir36  1  0.000000  0.500000  0.500000  1
  Ir  Ir37  1  0.500000  0.500000  0.500000  1
