# generated using pymatgen
data_Ho16ZnIn3Pd4
_symmetry_space_group_name_H-M   'P 1'
_cell_length_a   9.63881318
_cell_length_b   9.63881399
_cell_length_c   9.63881312
_cell_angle_alpha   59.96536575
_cell_angle_beta   59.96535884
_cell_angle_gamma   59.96536652
_symmetry_Int_Tables_number   1
_chemical_formula_structural   Ho16ZnIn3Pd4
_chemical_formula_sum   'Ho16 Zn1 In3 Pd4'
_cell_volume   632.72423381
_cell_formula_units_Z   1
loop_
 _symmetry_equiv_pos_site_id
 _symmetry_equiv_pos_as_xyz
  1  'x, y, z'
loop_
 _atom_site_type_symbol
 _atom_site_label
 _atom_site_symmetry_multiplicity
 _atom_site_fract_x
 _atom_site_fract_y
 _atom_site_fract_z
 _atom_site_occupancy
  Ho  Ho0  1  0.185644  0.185644  0.813829  1
  Ho  Ho1  1  0.604859  0.604859  0.186911  1
  Ho  Ho2  1  0.440658  0.060087  0.440658  1
  Ho  Ho3  1  0.440658  0.440658  0.060087  1
  Ho  Ho4  1  0.815693  0.178569  0.815693  1
  Ho  Ho5  1  0.185644  0.813829  0.185644  1
  Ho  Ho6  1  0.441852  0.059162  0.059162  1
  Ho  Ho7  1  0.178569  0.815693  0.815693  1
  Ho  Ho8  1  0.059162  0.441852  0.059162  1
  Ho  Ho9  1  0.815693  0.815693  0.178569  1
  Ho  Ho10  1  0.186911  0.604859  0.604859  1
  Ho  Ho11  1  0.060087  0.440658  0.440658  1
  Ho  Ho12  1  0.059162  0.059162  0.441852  1
  Ho  Ho13  1  0.813829  0.185644  0.185644  1
  Ho  Ho14  1  0.604859  0.186911  0.604859  1
  Ho  Ho15  1  0.601546  0.601546  0.601546  1
  Zn  Zn16  1  0.834832  0.834832  0.834832  1
  In  In17  1  0.832558  0.832558  0.505280  1
  In  In18  1  0.505280  0.832558  0.832558  1
  In  In19  1  0.832558  0.505280  0.832558  1
  Pd  Pd20  1  0.393117  0.818260  0.393117  1
  Pd  Pd21  1  0.395454  0.395454  0.395454  1
  Pd  Pd22  1  0.818260  0.393117  0.393117  1
  Pd  Pd23  1  0.393117  0.393117  0.818260  1
