# generated using pymatgen
data_K6ScGaF12
_symmetry_space_group_name_H-M   'P 1'
_cell_length_a   6.41550104
_cell_length_b   6.18650702
_cell_length_c   10.77139026
_cell_angle_alpha   55.13396259
_cell_angle_beta   90.15723805
_cell_angle_gamma   89.88158045
_symmetry_Int_Tables_number   1
_chemical_formula_structural   K6ScGaF12
_chemical_formula_sum   'K6 Sc1 Ga1 F12'
_cell_volume   350.76456055
_cell_formula_units_Z   1
loop_
 _symmetry_equiv_pos_site_id
 _symmetry_equiv_pos_as_xyz
  1  'x, y, z'
loop_
 _atom_site_type_symbol
 _atom_site_label
 _atom_site_symmetry_multiplicity
 _atom_site_fract_x
 _atom_site_fract_y
 _atom_site_fract_z
 _atom_site_occupancy
  K  K0  1  0.500000  0.500000  0.000000  1
  K  K1  1  0.000000  0.500000  0.500000  1
  K  K2  1  0.048504  0.726060  0.759742  1
  K  K3  1  0.951496  0.273940  0.240258  1
  K  K4  1  0.552531  0.258667  0.754842  1
  K  K5  1  0.447469  0.741333  0.245158  1
  Sc  Sc6  1  0.500000  0.000000  0.500000  1
  Ga  Ga7  1  0.000000  0.000000  0.000000  1
  F  F8  1  0.762935  0.772545  0.563820  1
  F  F9  1  0.237065  0.227455  0.436180  1
  F  F10  1  0.249088  0.217340  0.942072  1
  F  F11  1  0.750912  0.782660  0.057928  1
  F  F12  1  0.454617  0.879795  0.718494  1
  F  F13  1  0.545383  0.120205  0.281506  1
  F  F14  1  0.957948  0.112729  0.793265  1
  F  F15  1  0.042052  0.887271  0.206735  1
  F  F16  1  0.328588  0.687180  0.544171  1
  F  F17  1  0.671412  0.312820  0.455829  1
  F  F18  1  0.830499  0.293777  0.960289  1
  F  F19  1  0.169501  0.706223  0.039711  1
