# generated using pymatgen
data_Dy8Si12Ir3Rh
_symmetry_space_group_name_H-M   'P 1'
_cell_length_a   8.17322500
_cell_length_b   8.17322520
_cell_length_c   7.93256900
_cell_angle_alpha   90.00000000
_cell_angle_beta   90.00000000
_cell_angle_gamma   119.99999514
_symmetry_Int_Tables_number   1
_chemical_formula_structural   Dy8Si12Ir3Rh
_chemical_formula_sum   'Dy8 Si12 Ir3 Rh1'
_cell_volume   458.91413168
_cell_formula_units_Z   1
loop_
 _symmetry_equiv_pos_site_id
 _symmetry_equiv_pos_as_xyz
  1  'x, y, z'
loop_
 _atom_site_type_symbol
 _atom_site_label
 _atom_site_symmetry_multiplicity
 _atom_site_fract_x
 _atom_site_fract_y
 _atom_site_fract_z
 _atom_site_occupancy
  Dy  Dy0  1  0.000000  0.000000  0.249318  1
  Dy  Dy1  1  0.000000  0.000000  0.750320  1
  Dy  Dy2  1  0.509422  0.490578  0.250121  1
  Dy  Dy3  1  0.509422  0.018844  0.250121  1
  Dy  Dy4  1  0.981156  0.490578  0.250121  1
  Dy  Dy5  1  0.490974  0.509026  0.749926  1
  Dy  Dy6  1  0.490974  0.981947  0.749926  1
  Dy  Dy7  1  0.018053  0.509026  0.749926  1
  Si  Si8  1  0.166778  0.833222  0.499069  1
  Si  Si9  1  0.166778  0.333557  0.499069  1
  Si  Si10  1  0.666443  0.833222  0.499069  1
  Si  Si11  1  0.833303  0.166697  0.500596  1
  Si  Si12  1  0.833303  0.666604  0.500596  1
  Si  Si13  1  0.333396  0.166697  0.500596  1
  Si  Si14  1  0.833464  0.166536  0.999387  1
  Si  Si15  1  0.833464  0.666927  0.999387  1
  Si  Si16  1  0.333073  0.166536  0.999387  1
  Si  Si17  1  0.167049  0.832951  0.000210  1
  Si  Si18  1  0.167049  0.334099  0.000210  1
  Si  Si19  1  0.665901  0.832951  0.000210  1
  Ir  Ir20  1  0.333333  0.666667  0.468604  1
  Ir  Ir21  1  0.666667  0.333333  0.532594  1
  Ir  Ir22  1  0.666667  0.333333  0.966833  1
  Rh  Rh23  1  0.333333  0.666667  0.034403  1
