# generated using pymatgen
data_Zr8Nb11VGe16
_symmetry_space_group_name_H-M   'P 1'
_cell_length_a   6.84760783
_cell_length_b   6.98975750
_cell_length_c   13.31303013
_cell_angle_alpha   89.93438528
_cell_angle_beta   90.04355031
_cell_angle_gamma   89.92870085
_symmetry_Int_Tables_number   1
_chemical_formula_structural   Zr8Nb11VGe16
_chemical_formula_sum   'Zr8 Nb11 V1 Ge16'
_cell_volume   637.20203846
_cell_formula_units_Z   1
loop_
 _symmetry_equiv_pos_site_id
 _symmetry_equiv_pos_as_xyz
  1  'x, y, z'
loop_
 _atom_site_type_symbol
 _atom_site_label
 _atom_site_symmetry_multiplicity
 _atom_site_fract_x
 _atom_site_fract_y
 _atom_site_fract_z
 _atom_site_occupancy
  Zr  Zr0  1  0.492257  0.675129  0.091890  1
  Zr  Zr1  1  0.991512  0.826159  0.406725  1
  Zr  Zr2  1  0.509115  0.325667  0.591820  1
  Zr  Zr3  1  0.008835  0.174289  0.908770  1
  Zr  Zr4  1  0.510361  0.325380  0.908360  1
  Zr  Zr5  1  0.008778  0.174197  0.591851  1
  Zr  Zr6  1  0.490316  0.673591  0.407018  1
  Zr  Zr7  1  0.990823  0.826067  0.092224  1
  Nb  Nb8  1  0.336415  0.007614  0.249286  1
  Nb  Nb9  1  0.837028  0.491206  0.248879  1
  Nb  Nb10  1  0.662638  0.991641  0.750366  1
  Nb  Nb11  1  0.162919  0.507609  0.751273  1
  Nb  Nb12  1  0.660651  0.163905  0.124120  1
  Nb  Nb13  1  0.160617  0.334782  0.374245  1
  Nb  Nb14  1  0.338900  0.834531  0.624909  1
  Nb  Nb15  1  0.840636  0.663412  0.876175  1
  Nb  Nb16  1  0.337103  0.834559  0.877666  1
  Nb  Nb17  1  0.838565  0.664817  0.624817  1
  Nb  Nb18  1  0.662013  0.165641  0.373799  1
  V  V19  1  0.160548  0.338152  0.126050  1
  Ge  Ge20  1  0.695534  0.851614  0.249924  1
  Ge  Ge21  1  0.194542  0.645546  0.247799  1
  Ge  Ge22  1  0.304982  0.148326  0.750358  1
  Ge  Ge23  1  0.805195  0.350722  0.750290  1
  Ge  Ge24  1  0.680267  0.959203  0.959917  1
  Ge  Ge25  1  0.180730  0.539557  0.539728  1
  Ge  Ge26  1  0.319666  0.039650  0.459416  1
  Ge  Ge27  1  0.825565  0.458073  0.041749  1
  Ge  Ge28  1  0.313365  0.049474  0.042331  1
  Ge  Ge29  1  0.818647  0.460530  0.459452  1
  Ge  Ge30  1  0.680819  0.960511  0.539487  1
  Ge  Ge31  1  0.181872  0.535604  0.964737  1
  Ge  Ge32  1  0.459590  0.384265  0.246870  1
  Ge  Ge33  1  0.967079  0.118361  0.246015  1
  Ge  Ge34  1  0.535961  0.614502  0.751035  1
  Ge  Ge35  1  0.036153  0.885713  0.750650  1
