# generated using pymatgen
data_Y3Tm9GaCo4Rh
_symmetry_space_group_name_H-M   'P 1'
_cell_length_a   8.18346977
_cell_length_b   8.19168293
_cell_length_c   8.19168202
_cell_angle_alpha   110.87546624
_cell_angle_beta   110.65972184
_cell_angle_gamma   106.94722762
_symmetry_Int_Tables_number   1
_chemical_formula_structural   Y3Tm9GaCo4Rh
_chemical_formula_sum   'Y3 Tm9 Ga1 Co4 Rh1'
_cell_volume   421.90410827
_cell_formula_units_Z   1
loop_
 _symmetry_equiv_pos_site_id
 _symmetry_equiv_pos_as_xyz
  1  'x, y, z'
loop_
 _atom_site_type_symbol
 _atom_site_label
 _atom_site_symmetry_multiplicity
 _atom_site_fract_x
 _atom_site_fract_y
 _atom_site_fract_z
 _atom_site_occupancy
  Y  Y0  1  0.589414  0.280543  0.308871  1
  Y  Y1  1  0.185970  0.212056  0.399444  1
  Y  Y2  1  0.185970  0.786526  0.973915  1
  Tm  Tm3  1  0.685151  0.489094  0.806766  1
  Tm  Tm4  1  0.685151  0.878384  0.196057  1
  Tm  Tm5  1  0.973934  0.278688  0.695246  1
  Tm  Tm6  1  0.026531  0.718069  0.308461  1
  Tm  Tm7  1  0.315612  0.120020  0.804141  1
  Tm  Tm8  1  0.315612  0.511471  0.195593  1
  Tm  Tm9  1  0.813691  0.211651  0.024372  1
  Tm  Tm10  1  0.813691  0.789318  0.602040  1
  Tm  Tm11  1  0.416705  0.721877  0.694828  1
  Ga  Ga12  1  0.499486  0.999455  0.500030  1
  Co  Co13  1  0.881807  0.886711  0.995096  1
  Co  Co14  1  0.375777  0.499639  0.876139  1
  Co  Co15  1  0.622927  0.500863  0.122064  1
  Co  Co16  1  0.107296  0.113315  0.993980  1
  Rh  Rh17  1  0.005276  0.502320  0.502956  1
