# generated using pymatgen
data_PrTa4(NbCl9)2
_symmetry_space_group_name_H-M   'P 1'
_cell_length_a   10.30149707
_cell_length_b   10.29939162
_cell_length_c   10.29776847
_cell_angle_alpha   55.89443419
_cell_angle_beta   55.90593441
_cell_angle_gamma   55.90586121
_symmetry_Int_Tables_number   1
_chemical_formula_structural   PrTa4(NbCl9)2
_chemical_formula_sum   'Pr1 Ta4 Nb2 Cl18'
_cell_volume   699.19585942
_cell_formula_units_Z   1
loop_
 _symmetry_equiv_pos_site_id
 _symmetry_equiv_pos_as_xyz
  1  'x, y, z'
loop_
 _atom_site_type_symbol
 _atom_site_label
 _atom_site_symmetry_multiplicity
 _atom_site_fract_x
 _atom_site_fract_y
 _atom_site_fract_z
 _atom_site_occupancy
  Pr  Pr0  1  0.999446  0.999688  0.000889  1
  Ta  Ta1  1  0.412069  0.302829  0.646437  1
  Ta  Ta2  1  0.353550  0.588310  0.696870  1
  Ta  Ta3  1  0.698057  0.352879  0.588113  1
  Ta  Ta4  1  0.302655  0.647273  0.410991  1
  Nb  Nb5  1  0.647821  0.411522  0.301345  1
  Nb  Nb6  1  0.589030  0.698199  0.352033  1
  Cl  Cl7  1  0.567023  0.165471  0.443549  1
  Cl  Cl8  1  0.227910  0.371231  0.901952  1
  Cl  Cl9  1  0.903527  0.226601  0.373205  1
  Cl  Cl10  1  0.368405  0.902829  0.227801  1
  Cl  Cl11  1  0.773566  0.629844  0.095174  1
  Cl  Cl12  1  0.098087  0.771883  0.628746  1
  Cl  Cl13  1  0.695184  0.956728  0.165297  1
  Cl  Cl14  1  0.952013  0.166243  0.695623  1
  Cl  Cl15  1  0.167476  0.693736  0.952139  1
  Cl  Cl16  1  0.304988  0.048586  0.833224  1
  Cl  Cl17  1  0.046674  0.832167  0.306796  1
  Cl  Cl18  1  0.835609  0.303890  0.043656  1
  Cl  Cl19  1  0.559112  0.431059  0.832814  1
  Cl  Cl20  1  0.167249  0.441100  0.568751  1
  Cl  Cl21  1  0.438038  0.570686  0.167158  1
  Cl  Cl22  1  0.429298  0.832796  0.561841  1
  Cl  Cl23  1  0.834510  0.556361  0.433210  1
  Cl  Cl24  1  0.628704  0.098089  0.772385  1
