# generated using pymatgen
data_Tb11Ce(TcRu)2
_symmetry_space_group_name_H-M   'P 1'
_cell_length_a   6.33665630
_cell_length_b   7.34043952
_cell_length_c   9.36764400
_cell_angle_alpha   90.00000000
_cell_angle_beta   90.00000000
_cell_angle_gamma   91.13564191
_symmetry_Int_Tables_number   1
_chemical_formula_structural   Tb11Ce(TcRu)2
_chemical_formula_sum   'Tb11 Ce1 Tc2 Ru2'
_cell_volume   435.63952938
_cell_formula_units_Z   1
loop_
 _symmetry_equiv_pos_site_id
 _symmetry_equiv_pos_as_xyz
  1  'x, y, z'
loop_
 _atom_site_type_symbol
 _atom_site_label
 _atom_site_symmetry_multiplicity
 _atom_site_fract_x
 _atom_site_fract_y
 _atom_site_fract_z
 _atom_site_occupancy
  Tb  Tb0  1  0.333076  0.675354  0.064358  1
  Tb  Tb1  1  0.165211  0.178545  0.434879  1
  Tb  Tb2  1  0.668871  0.324445  0.565713  1
  Tb  Tb3  1  0.831641  0.824635  0.933336  1
  Tb  Tb4  1  0.668871  0.324445  0.934287  1
  Tb  Tb5  1  0.831641  0.824635  0.566664  1
  Tb  Tb6  1  0.333076  0.675354  0.435642  1
  Tb  Tb7  1  0.165211  0.178545  0.065121  1
  Tb  Tb8  1  0.627460  0.042272  0.250000  1
  Tb  Tb9  1  0.138523  0.457406  0.750000  1
  Tb  Tb10  1  0.362182  0.957275  0.750000  1
  Ce  Ce11  1  0.857919  0.556854  0.250000  1
  Tc  Tc12  1  0.014960  0.858848  0.250000  1
  Tc  Tc13  1  0.499822  0.391793  0.250000  1
  Ru  Ru14  1  0.961288  0.114578  0.750000  1
  Ru  Ru15  1  0.540247  0.615016  0.750000  1
