# generated using pymatgen
data_Nd2Dy2Zn10SiSn
_symmetry_space_group_name_H-M   'P 1'
_cell_length_a   8.38149329
_cell_length_b   8.38149226
_cell_length_c   8.91379200
_cell_angle_alpha   90.00000000
_cell_angle_beta   90.00000000
_cell_angle_gamma   149.64295374
_symmetry_Int_Tables_number   1
_chemical_formula_structural   Nd2Dy2Zn10SiSn
_chemical_formula_sum   'Nd2 Dy2 Zn10 Si1 Sn1'
_cell_volume   316.46764819
_cell_formula_units_Z   1
loop_
 _symmetry_equiv_pos_site_id
 _symmetry_equiv_pos_as_xyz
  1  'x, y, z'
loop_
 _atom_site_type_symbol
 _atom_site_label
 _atom_site_symmetry_multiplicity
 _atom_site_fract_x
 _atom_site_fract_y
 _atom_site_fract_z
 _atom_site_occupancy
  Nd  Nd0  1  0.000782  0.999218  0.486257  1
  Nd  Nd1  1  0.000782  0.999218  0.013743  1
  Dy  Dy2  1  0.201921  0.798079  0.250000  1
  Dy  Dy3  1  0.795030  0.204970  0.750000  1
  Zn  Zn4  1  0.811660  0.188340  0.390922  1
  Zn  Zn5  1  0.187058  0.812942  0.606674  1
  Zn  Zn6  1  0.811660  0.188340  0.109078  1
  Zn  Zn7  1  0.187058  0.812942  0.893326  1
  Zn  Zn8  1  0.651054  0.348946  0.472737  1
  Zn  Zn9  1  0.343324  0.656676  0.516023  1
  Zn  Zn10  1  0.651054  0.348946  0.027263  1
  Zn  Zn11  1  0.343324  0.656676  0.983977  1
  Zn  Zn12  1  0.404439  0.595561  0.250000  1
  Zn  Zn13  1  0.606925  0.393075  0.750000  1
  Si  Si14  1  0.558967  0.441033  0.250000  1
  Sn  Sn15  1  0.444958  0.555042  0.750000  1
