# generated using pymatgen
data_VCoI18
_symmetry_space_group_name_H-M   'P 1'
_cell_length_a   9.91235878
_cell_length_b   9.94245272
_cell_length_c   9.89511071
_cell_angle_alpha   94.17397987
_cell_angle_beta   94.21297422
_cell_angle_gamma   94.12099005
_symmetry_Int_Tables_number   1
_chemical_formula_structural   VCoI18
_chemical_formula_sum   'V1 Co1 I18'
_cell_volume   967.05293448
_cell_formula_units_Z   1
loop_
 _symmetry_equiv_pos_site_id
 _symmetry_equiv_pos_as_xyz
  1  'x, y, z'
loop_
 _atom_site_type_symbol
 _atom_site_label
 _atom_site_symmetry_multiplicity
 _atom_site_fract_x
 _atom_site_fract_y
 _atom_site_fract_z
 _atom_site_occupancy
  V  V0  1  0.500000  0.500000  0.500000  1
  Co  Co1  1  0.000000  0.000000  0.000000  1
  I  I2  1  0.777804  0.488871  0.520321  1
  I  I3  1  0.519791  0.776721  0.488390  1
  I  I4  1  0.489274  0.520747  0.778188  1
  I  I5  1  0.222196  0.511129  0.479679  1
  I  I6  1  0.480209  0.223279  0.511610  1
  I  I7  1  0.510726  0.479253  0.221812  1
  I  I8  1  0.894184  0.365546  0.763383  1
  I  I9  1  0.762550  0.892923  0.365538  1
  I  I10  1  0.365880  0.762937  0.894150  1
  I  I11  1  0.105816  0.634454  0.236617  1
  I  I12  1  0.237450  0.107077  0.634462  1
  I  I13  1  0.634120  0.237063  0.105850  1
  I  I14  1  0.998294  0.966794  0.735629  1
  I  I15  1  0.736050  0.998472  0.965740  1
  I  I16  1  0.965775  0.736904  0.997238  1
  I  I17  1  0.001706  0.033206  0.264371  1
  I  I18  1  0.263950  0.001528  0.034260  1
  I  I19  1  0.034225  0.263096  0.002762  1
