# generated using pymatgen
data_Dy4Lu8OsRu3
_symmetry_space_group_name_H-M   'P 1'
_cell_length_a   6.22855402
_cell_length_b   7.29851930
_cell_length_c   8.92727900
_cell_angle_alpha   90.00000000
_cell_angle_beta   90.00000000
_cell_angle_gamma   89.92621891
_symmetry_Int_Tables_number   1
_chemical_formula_structural   Dy4Lu8OsRu3
_chemical_formula_sum   'Dy4 Lu8 Os1 Ru3'
_cell_volume   405.82681903
_cell_formula_units_Z   1
loop_
 _symmetry_equiv_pos_site_id
 _symmetry_equiv_pos_as_xyz
  1  'x, y, z'
loop_
 _atom_site_type_symbol
 _atom_site_label
 _atom_site_symmetry_multiplicity
 _atom_site_fract_x
 _atom_site_fract_y
 _atom_site_fract_z
 _atom_site_occupancy
  Dy  Dy0  1  0.869300  0.539087  0.250000  1
  Dy  Dy1  1  0.628745  0.040337  0.250000  1
  Dy  Dy2  1  0.130123  0.459521  0.750000  1
  Dy  Dy3  1  0.370126  0.959408  0.750000  1
  Lu  Lu4  1  0.332504  0.676491  0.064332  1
  Lu  Lu5  1  0.166793  0.175783  0.436250  1
  Lu  Lu6  1  0.666576  0.323971  0.563957  1
  Lu  Lu7  1  0.834518  0.824245  0.937335  1
  Lu  Lu8  1  0.666576  0.323971  0.936043  1
  Lu  Lu9  1  0.834518  0.824245  0.562665  1
  Lu  Lu10  1  0.332504  0.676491  0.435668  1
  Lu  Lu11  1  0.166793  0.175783  0.063750  1
  Os  Os12  1  0.042395  0.884481  0.250000  1
  Ru  Ru13  1  0.458923  0.384778  0.250000  1
  Ru  Ru14  1  0.958909  0.115958  0.750000  1
  Ru  Ru15  1  0.540697  0.615453  0.750000  1
