# generated using pymatgen
data_Ho5Nb3(Co4P3)4
_symmetry_space_group_name_H-M   'P 1'
_cell_length_a   12.17102000
_cell_length_b   12.17102042
_cell_length_c   3.69671900
_cell_angle_alpha   90.00000000
_cell_angle_beta   90.00000000
_cell_angle_gamma   119.99999885
_symmetry_Int_Tables_number   1
_chemical_formula_structural   Ho5Nb3(Co4P3)4
_chemical_formula_sum   'Ho5 Nb3 Co16 P12'
_cell_volume   474.24312495
_cell_formula_units_Z   1
loop_
 _symmetry_equiv_pos_site_id
 _symmetry_equiv_pos_as_xyz
  1  'x, y, z'
loop_
 _atom_site_type_symbol
 _atom_site_label
 _atom_site_symmetry_multiplicity
 _atom_site_fract_x
 _atom_site_fract_y
 _atom_site_fract_z
 _atom_site_occupancy
  Ho  Ho0  1  0.817324  0.000000  0.500000  1
  Ho  Ho1  1  0.000000  0.817324  0.500000  1
  Ho  Ho2  1  0.182676  0.182676  0.500000  1
  Ho  Ho3  1  0.333333  0.666667  0.000000  1
  Ho  Ho4  1  0.666667  0.333333  0.000000  1
  Nb  Nb5  1  0.445188  0.000000  0.000000  1
  Nb  Nb6  1  0.000000  0.445188  0.000000  1
  Nb  Nb7  1  0.554812  0.554812  0.000000  1
  Co  Co8  1  0.279273  0.000000  0.500000  1
  Co  Co9  1  0.000000  0.279273  0.500000  1
  Co  Co10  1  0.720727  0.720727  0.500000  1
  Co  Co11  1  0.626628  0.803402  0.000000  1
  Co  Co12  1  0.196598  0.823226  0.000000  1
  Co  Co13  1  0.176774  0.373372  0.000000  1
  Co  Co14  1  0.373372  0.176774  0.000000  1
  Co  Co15  1  0.803402  0.626628  0.000000  1
  Co  Co16  1  0.823226  0.196598  0.000000  1
  Co  Co17  1  0.519492  0.872929  0.500000  1
  Co  Co18  1  0.127071  0.646563  0.500000  1
  Co  Co19  1  0.353437  0.480508  0.500000  1
  Co  Co20  1  0.480508  0.353437  0.500000  1
  Co  Co21  1  0.872929  0.519492  0.500000  1
  Co  Co22  1  0.646563  0.127071  0.500000  1
  Co  Co23  1  0.000000  0.000000  0.000000  1
  P  P24  1  0.178323  0.000000  0.000000  1
  P  P25  1  0.000000  0.178323  0.000000  1
  P  P26  1  0.821677  0.821677  0.000000  1
  P  P27  1  0.520393  0.688412  0.500000  1
  P  P28  1  0.311588  0.831980  0.500000  1
  P  P29  1  0.168020  0.479607  0.500000  1
  P  P30  1  0.479607  0.168020  0.500000  1
  P  P31  1  0.688412  0.520393  0.500000  1
  P  P32  1  0.831980  0.311588  0.500000  1
  P  P33  1  0.645037  0.000000  0.000000  1
  P  P34  1  0.000000  0.645037  0.000000  1
  P  P35  1  0.354963  0.354963  0.000000  1
