# generated using pymatgen
data_Er8B24Ir3Ru
_symmetry_space_group_name_H-M   'P 1'
_cell_length_a   3.62535100
_cell_length_b   9.14635222
_cell_length_c   11.46311329
_cell_angle_alpha   90.02545453
_cell_angle_beta   90.00000000
_cell_angle_gamma   90.00000000
_symmetry_Int_Tables_number   1
_chemical_formula_structural   Er8B24Ir3Ru
_chemical_formula_sum   'Er8 B24 Ir3 Ru1'
_cell_volume   380.10232319
_cell_formula_units_Z   1
loop_
 _symmetry_equiv_pos_site_id
 _symmetry_equiv_pos_as_xyz
  1  'x, y, z'
loop_
 _atom_site_type_symbol
 _atom_site_label
 _atom_site_symmetry_multiplicity
 _atom_site_fract_x
 _atom_site_fract_y
 _atom_site_fract_z
 _atom_site_occupancy
  Er  Er0  1  0.000000  0.320776  0.413391  1
  Er  Er1  1  0.000000  0.680295  0.587747  1
  Er  Er2  1  0.000000  0.821071  0.084931  1
  Er  Er3  1  0.000000  0.177200  0.913156  1
  Er  Er4  1  0.000000  0.944423  0.373903  1
  Er  Er5  1  0.000000  0.054019  0.627040  1
  Er  Er6  1  0.000000  0.444448  0.125934  1
  Er  Er7  1  0.000000  0.557394  0.874038  1
  B  B8  1  0.500000  0.553743  0.434583  1
  B  B9  1  0.500000  0.446248  0.565491  1
  B  B10  1  0.500000  0.053456  0.065643  1
  B  B11  1  0.500000  0.945718  0.933704  1
  B  B12  1  0.500000  0.750029  0.421074  1
  B  B13  1  0.500000  0.250059  0.579029  1
  B  B14  1  0.500000  0.249722  0.079013  1
  B  B15  1  0.500000  0.751502  0.920095  1
  B  B16  1  0.500000  0.793622  0.264784  1
  B  B17  1  0.500000  0.206531  0.734637  1
  B  B18  1  0.500000  0.293994  0.235243  1
  B  B19  1  0.500000  0.707411  0.765630  1
  B  B20  1  0.500000  0.632369  0.183901  1
  B  B21  1  0.500000  0.367717  0.816043  1
  B  B22  1  0.500000  0.132841  0.316064  1
  B  B23  1  0.500000  0.867759  0.685094  1
  B  B24  1  0.500000  0.981888  0.213180  1
  B  B25  1  0.500000  0.016529  0.786608  1
  B  B26  1  0.500000  0.482013  0.286575  1
  B  B27  1  0.500000  0.517955  0.713701  1
  B  B28  1  0.500000  0.609777  0.030403  1
  B  B29  1  0.500000  0.389835  0.969954  1
  B  B30  1  0.500000  0.109989  0.469811  1
  B  B31  1  0.500000  0.890023  0.529811  1
  Ir  Ir32  1  0.000000  0.638429  0.321775  1
  Ir  Ir33  1  0.000000  0.361737  0.678650  1
  Ir  Ir34  1  0.000000  0.138045  0.178144  1
  Ru  Ru35  1  0.000000  0.861432  0.821220  1
