# generated using pymatgen
data_PaPOsN
_symmetry_space_group_name_H-M   'P 1'
_cell_length_a   4.01241100
_cell_length_b   4.01241100
_cell_length_c   7.73661300
_cell_angle_alpha   90.00000000
_cell_angle_beta   90.00000000
_cell_angle_gamma   90.00000000
_symmetry_Int_Tables_number   1
_chemical_formula_structural   PaPOsN
_chemical_formula_sum   'Pa2 P2 Os2 N2'
_cell_volume   124.55515252
_cell_formula_units_Z   2
loop_
 _symmetry_equiv_pos_site_id
 _symmetry_equiv_pos_as_xyz
  1  'x, y, z'
loop_
 _atom_site_type_symbol
 _atom_site_label
 _atom_site_symmetry_multiplicity
 _atom_site_fract_x
 _atom_site_fract_y
 _atom_site_fract_z
 _atom_site_occupancy
  Pa  Pa0  1  0.000000  0.000000  0.147786  1
  Pa  Pa1  1  0.500001  0.500001  0.852216  1
  P  P2  1  0.500001  0.500001  0.342308  1
  P  P3  1  0.000000  0.000000  0.657691  1
  Os  Os4  1  0.500001  0.000000  0.500000  1
  Os  Os5  1  0.000000  0.500001  0.500000  1
  N  N6  1  0.500001  0.000000  0.000000  1
  N  N7  1  0.000000  0.500001  0.000000  1
