# generated using pymatgen
data_Th3ZnCo3Ge2
_symmetry_space_group_name_H-M   'P 1'
_cell_length_a   7.09464700
_cell_length_b   7.04194699
_cell_length_c   3.92353400
_cell_angle_alpha   90.00000000
_cell_angle_beta   90.00000000
_cell_angle_gamma   120.24786533
_symmetry_Int_Tables_number   1
_chemical_formula_structural   Th3ZnCo3Ge2
_chemical_formula_sum   'Th3 Zn1 Co3 Ge2'
_cell_volume   169.33294029
_cell_formula_units_Z   1
loop_
 _symmetry_equiv_pos_site_id
 _symmetry_equiv_pos_as_xyz
  1  'x, y, z'
loop_
 _atom_site_type_symbol
 _atom_site_label
 _atom_site_symmetry_multiplicity
 _atom_site_fract_x
 _atom_site_fract_y
 _atom_site_fract_z
 _atom_site_occupancy
  Th  Th0  1  0.584246  0.000000  0.000000  1
  Th  Th1  1  0.003690  0.586541  0.000000  1
  Th  Th2  1  0.417149  0.413459  0.000000  1
  Zn  Zn3  1  0.235507  0.000000  0.500000  1
  Co  Co4  1  0.335903  0.655304  0.500000  1
  Co  Co5  1  0.680600  0.344696  0.500000  1
  Co  Co6  1  0.972357  0.000000  0.000000  1
  Ge  Ge7  1  0.005112  0.239678  0.500000  1
  Ge  Ge8  1  0.765436  0.760322  0.500000  1
