# generated using pymatgen
data_HoMg2Si3P3Pd20
_symmetry_space_group_name_H-M   'P 1'
_cell_length_a   8.63721294
_cell_length_b   8.63327734
_cell_length_c   8.63157997
_cell_angle_alpha   60.03651445
_cell_angle_beta   59.98894827
_cell_angle_gamma   59.97195310
_symmetry_Int_Tables_number   1
_chemical_formula_structural   HoMg2Si3P3Pd20
_chemical_formula_sum   'Ho1 Mg2 Si3 P3 Pd20'
_cell_volume   455.10943798
_cell_formula_units_Z   1
loop_
 _symmetry_equiv_pos_site_id
 _symmetry_equiv_pos_as_xyz
  1  'x, y, z'
loop_
 _atom_site_type_symbol
 _atom_site_label
 _atom_site_symmetry_multiplicity
 _atom_site_fract_x
 _atom_site_fract_y
 _atom_site_fract_z
 _atom_site_occupancy
  Ho  Ho0  1  0.748907  0.751093  0.748906  1
  Mg  Mg1  1  0.249006  0.250993  0.249007  1
  Mg  Mg2  1  0.002396  0.997604  0.002396  1
  Si  Si3  1  0.733726  0.266132  0.264705  1
  Si  Si4  1  0.264705  0.735438  0.733726  1
  Si  Si5  1  0.266135  0.733865  0.266135  1
  P  P6  1  0.734457  0.265543  0.734456  1
  P  P7  1  0.265044  0.266723  0.733166  1
  P  P8  1  0.733166  0.735067  0.265044  1
  Pd  Pd9  1  0.380276  0.380147  0.381164  1
  Pd  Pd10  1  0.615445  0.613563  0.613354  1
  Pd  Pd11  1  0.381378  0.381048  0.856265  1
  Pd  Pd12  1  0.381165  0.858413  0.380276  1
  Pd  Pd13  1  0.615830  0.615823  0.155018  1
  Pd  Pd14  1  0.613352  0.157639  0.615446  1
  Pd  Pd15  1  0.856266  0.381311  0.381377  1
  Pd  Pd16  1  0.155018  0.613328  0.615831  1
  Pd  Pd17  1  0.344505  0.001031  0.997343  1
  Pd  Pd18  1  0.658704  0.999318  0.999400  1
  Pd  Pd19  1  0.999401  0.342578  0.658703  1
  Pd  Pd20  1  0.997343  0.657121  0.344505  1
  Pd  Pd21  1  0.001875  0.343523  0.998131  1
  Pd  Pd22  1  0.658794  0.995676  0.345973  1
  Pd  Pd23  1  0.998130  0.656472  0.001875  1
  Pd  Pd24  1  0.345973  0.999557  0.658794  1
  Pd  Pd25  1  0.998353  0.998216  0.346346  1
  Pd  Pd26  1  0.996434  0.000341  0.657870  1
  Pd  Pd27  1  0.657871  0.345353  0.996435  1
  Pd  Pd28  1  0.346344  0.657085  0.998354  1
