# generated using pymatgen
data_Dy9ErIr5Pt
_symmetry_space_group_name_H-M   'P 1'
_cell_length_a   10.92594876
_cell_length_b   10.93043900
_cell_length_c   6.33337000
_cell_angle_alpha   90.00000000
_cell_angle_beta   89.95456948
_cell_angle_gamma   90.00000000
_symmetry_Int_Tables_number   1
_chemical_formula_structural   Dy9ErIr5Pt
_chemical_formula_sum   'Dy18 Er2 Ir10 Pt2'
_cell_volume   756.36511261
_cell_formula_units_Z   2
loop_
 _symmetry_equiv_pos_site_id
 _symmetry_equiv_pos_as_xyz
  1  'x, y, z'
loop_
 _atom_site_type_symbol
 _atom_site_label
 _atom_site_symmetry_multiplicity
 _atom_site_fract_x
 _atom_site_fract_y
 _atom_site_fract_z
 _atom_site_occupancy
  Dy  Dy0  1  0.291249  0.088178  0.375773  1
  Dy  Dy1  1  0.291249  0.911822  0.875773  1
  Dy  Dy2  1  0.705444  0.089902  0.873828  1
  Dy  Dy3  1  0.705444  0.910098  0.373828  1
  Dy  Dy4  1  0.584481  0.790514  0.878170  1
  Dy  Dy5  1  0.584481  0.209486  0.378170  1
  Dy  Dy6  1  0.411076  0.790960  0.377271  1
  Dy  Dy7  1  0.411076  0.209040  0.877271  1
  Dy  Dy8  1  0.209268  0.411692  0.622586  1
  Dy  Dy9  1  0.209268  0.588308  0.122586  1
  Dy  Dy10  1  0.790542  0.414681  0.123022  1
  Dy  Dy11  1  0.790542  0.585319  0.623022  1
  Dy  Dy12  1  0.913547  0.707077  0.126836  1
  Dy  Dy13  1  0.913547  0.292923  0.626836  1
  Dy  Dy14  1  0.091297  0.706820  0.622734  1
  Dy  Dy15  1  0.091297  0.293180  0.122734  1
  Dy  Dy16  1  0.002817  0.999618  0.499990  1
  Dy  Dy17  1  0.002817  0.000382  0.999990  1
  Er  Er18  1  0.499947  0.499557  0.999955  1
  Er  Er19  1  0.499947  0.500443  0.499955  1
  Ir  Ir20  1  0.153015  0.153841  0.750063  1
  Ir  Ir21  1  0.153015  0.846159  0.250063  1
  Ir  Ir22  1  0.654128  0.346550  0.749561  1
  Ir  Ir23  1  0.654128  0.653450  0.249561  1
  Ir  Ir24  1  0.347405  0.346980  0.250267  1
  Ir  Ir25  1  0.347405  0.653020  0.750267  1
  Ir  Ir26  1  0.500798  0.999794  0.122944  1
  Ir  Ir27  1  0.500798  0.000206  0.622944  1
  Ir  Ir28  1  0.999555  0.500160  0.877240  1
  Ir  Ir29  1  0.999555  0.499840  0.377240  1
  Pt  Pt30  1  0.845431  0.153515  0.249757  1
  Pt  Pt31  1  0.845431  0.846485  0.749757  1
