# generated using pymatgen
data_DyPdF7
_symmetry_space_group_name_H-M   'P 1'
_cell_length_a   5.52302300
_cell_length_b   8.84889374
_cell_length_c   11.94137952
_cell_angle_alpha   62.46800997
_cell_angle_beta   90.00000000
_cell_angle_gamma   90.00000000
_symmetry_Int_Tables_number   1
_chemical_formula_structural   DyPdF7
_chemical_formula_sum   'Dy4 Pd4 F28'
_cell_volume   517.51500196
_cell_formula_units_Z   4
loop_
 _symmetry_equiv_pos_site_id
 _symmetry_equiv_pos_as_xyz
  1  'x, y, z'
loop_
 _atom_site_type_symbol
 _atom_site_label
 _atom_site_symmetry_multiplicity
 _atom_site_fract_x
 _atom_site_fract_y
 _atom_site_fract_z
 _atom_site_occupancy
  Dy  Dy0  1  0.761762  0.813135  0.764405  1
  Dy  Dy1  1  0.261762  0.186865  0.735595  1
  Dy  Dy2  1  0.238238  0.186865  0.235595  1
  Dy  Dy3  1  0.738238  0.813135  0.264405  1
  Pd  Pd4  1  0.758814  0.272396  0.956909  1
  Pd  Pd5  1  0.258814  0.727604  0.543091  1
  Pd  Pd6  1  0.241186  0.727604  0.043091  1
  Pd  Pd7  1  0.741186  0.272396  0.456909  1
  F  F8  1  0.433891  0.702838  0.916228  1
  F  F9  1  0.933891  0.297162  0.583772  1
  F  F10  1  0.566109  0.297162  0.083772  1
  F  F11  1  0.066109  0.702838  0.416228  1
  F  F12  1  0.440703  0.278658  0.540979  1
  F  F13  1  0.940703  0.721342  0.959021  1
  F  F14  1  0.559297  0.721342  0.459021  1
  F  F15  1  0.059297  0.278658  0.040979  1
  F  F16  1  0.774804  0.520217  0.858888  1
  F  F17  1  0.274804  0.479783  0.641112  1
  F  F18  1  0.225196  0.479783  0.141112  1
  F  F19  1  0.725196  0.520217  0.358888  1
  F  F20  1  0.754284  0.025381  0.048883  1
  F  F21  1  0.254284  0.974619  0.451117  1
  F  F22  1  0.245716  0.974619  0.951117  1
  F  F23  1  0.745716  0.025381  0.548883  1
  F  F24  1  0.965617  0.724523  0.634710  1
  F  F25  1  0.465617  0.275477  0.865290  1
  F  F26  1  0.034383  0.275477  0.365290  1
  F  F27  1  0.534383  0.724523  0.134710  1
  F  F28  1  0.054126  0.745154  0.175430  1
  F  F29  1  0.554126  0.254846  0.324570  1
  F  F30  1  0.945874  0.254846  0.824570  1
  F  F31  1  0.445874  0.745154  0.675430  1
  F  F32  1  0.412427  0.969133  0.232035  1
  F  F33  1  0.912427  0.030867  0.267965  1
  F  F34  1  0.587573  0.030867  0.767965  1
  F  F35  1  0.087573  0.969133  0.732035  1
