# generated using pymatgen
data_Dy3Pa(Al3Co)6
_symmetry_space_group_name_H-M   'P 1'
_cell_length_a   7.41248042
_cell_length_b   7.40713823
_cell_length_c   9.27540900
_cell_angle_alpha   90.00000000
_cell_angle_beta   90.00000000
_cell_angle_gamma   119.24568534
_symmetry_Int_Tables_number   1
_chemical_formula_structural   Dy3Pa(Al3Co)6
_chemical_formula_sum   'Dy3 Pa1 Al18 Co6'
_cell_volume   444.35373931
_cell_formula_units_Z   1
loop_
 _symmetry_equiv_pos_site_id
 _symmetry_equiv_pos_as_xyz
  1  'x, y, z'
loop_
 _atom_site_type_symbol
 _atom_site_label
 _atom_site_symmetry_multiplicity
 _atom_site_fract_x
 _atom_site_fract_y
 _atom_site_fract_z
 _atom_site_occupancy
  Dy  Dy0  1  0.006429  0.328411  0.750000  1
  Dy  Dy1  1  0.673858  0.993048  0.250000  1
  Dy  Dy2  1  0.327552  0.005749  0.750000  1
  Pa  Pa3  1  0.994217  0.673584  0.250000  1
  Al  Al4  1  0.129168  0.128175  0.250000  1
  Al  Al5  1  0.876001  0.876813  0.750000  1
  Al  Al6  1  0.331407  0.331499  0.544361  1
  Al  Al7  1  0.664678  0.667055  0.041767  1
  Al  Al8  1  0.331407  0.331499  0.955639  1
  Al  Al9  1  0.664678  0.667055  0.458233  1
  Al  Al10  1  0.339470  0.552548  0.250000  1
  Al  Al11  1  0.659665  0.444753  0.750000  1
  Al  Al12  1  0.552195  0.341291  0.250000  1
  Al  Al13  1  0.445012  0.660619  0.750000  1
  Al  Al14  1  0.998150  0.333031  0.071943  1
  Al  Al15  1  0.001434  0.664412  0.574401  1
  Al  Al16  1  0.338876  0.000740  0.428083  1
  Al  Al17  1  0.665111  0.003083  0.927704  1
  Al  Al18  1  0.001434  0.664412  0.925599  1
  Al  Al19  1  0.998150  0.333031  0.428057  1
  Al  Al20  1  0.665111  0.003083  0.572296  1
  Al  Al21  1  0.338876  0.000740  0.071917  1
  Co  Co22  1  0.998990  0.994998  0.004769  1
  Co  Co23  1  0.998990  0.994998  0.495231  1
  Co  Co24  1  0.673961  0.331709  0.002829  1
  Co  Co25  1  0.325607  0.670979  0.497280  1
  Co  Co26  1  0.325607  0.670979  0.002720  1
  Co  Co27  1  0.673961  0.331709  0.497171  1
