# generated using pymatgen
data_La9ErC4I15
_symmetry_space_group_name_H-M   'P 1'
_cell_length_a   9.91171983
_cell_length_b   10.82927649
_cell_length_c   11.91034731
_cell_angle_alpha   93.67843572
_cell_angle_beta   114.16779472
_cell_angle_gamma   109.52492210
_symmetry_Int_Tables_number   1
_chemical_formula_structural   La9ErC4I15
_chemical_formula_sum   'La9 Er1 C4 I15'
_cell_volume   1068.84377181
_cell_formula_units_Z   1
loop_
 _symmetry_equiv_pos_site_id
 _symmetry_equiv_pos_as_xyz
  1  'x, y, z'
loop_
 _atom_site_type_symbol
 _atom_site_label
 _atom_site_symmetry_multiplicity
 _atom_site_fract_x
 _atom_site_fract_y
 _atom_site_fract_z
 _atom_site_occupancy
  La  La0  1  0.343693  0.745598  0.164728  1
  La  La1  1  0.778261  0.883860  0.258001  1
  La  La2  1  0.529247  0.187531  0.103935  1
  La  La3  1  0.221845  0.114819  0.743158  1
  La  La4  1  0.402818  0.458889  0.656970  1
  La  La5  1  0.472591  0.812647  0.897754  1
  La  La6  1  0.705276  0.567073  0.044569  1
  La  La7  1  0.294993  0.432411  0.956061  1
  La  La8  1  0.656594  0.255122  0.832096  1
  Er  Er9  1  0.592785  0.546343  0.331784  1
  C  C10  1  0.482517  0.300200  0.937203  1
  C  C11  1  0.518320  0.698363  0.062910  1
  C  C12  1  0.452842  0.361472  0.833657  1
  C  C13  1  0.546598  0.636660  0.166058  1
  I  I14  1  0.206673  0.906697  0.937945  1
  I  I15  1  0.102037  0.185311  0.467037  1
  I  I16  1  0.150570  0.554363  0.703923  1
  I  I17  1  0.403773  0.966993  0.646413  1
  I  I18  1  0.716335  0.734042  0.822374  1
  I  I19  1  0.299698  0.277734  0.189125  1
  I  I20  1  0.837777  0.450152  0.303857  1
  I  I21  1  0.880535  0.796618  0.525505  1
  I  I22  1  0.371549  0.626472  0.412242  1
  I  I23  1  0.056810  0.832409  0.222149  1
  I  I24  1  0.794566  0.096083  0.062698  1
  I  I25  1  0.642163  0.375721  0.582470  1
  I  I26  1  0.944322  0.166106  0.779797  1
  I  I27  1  0.594641  0.031269  0.353749  1
  I  I28  1  0.000169  0.499043  0.001831  1
