# generated using pymatgen
data_DyScB6Os
_symmetry_space_group_name_H-M   'P 1'
_cell_length_a   3.57016200
_cell_length_b   8.97876600
_cell_length_c   11.35782400
_cell_angle_alpha   90.00000000
_cell_angle_beta   90.00000000
_cell_angle_gamma   90.00000000
_symmetry_Int_Tables_number   1
_chemical_formula_structural   DyScB6Os
_chemical_formula_sum   'Dy4 Sc4 B24 Os4'
_cell_volume   364.08242159
_cell_formula_units_Z   4
loop_
 _symmetry_equiv_pos_site_id
 _symmetry_equiv_pos_as_xyz
  1  'x, y, z'
loop_
 _atom_site_type_symbol
 _atom_site_label
 _atom_site_symmetry_multiplicity
 _atom_site_fract_x
 _atom_site_fract_y
 _atom_site_fract_z
 _atom_site_occupancy
  Dy  Dy0  1  0.000000  0.820118  0.085274  1
  Dy  Dy1  1  0.000000  0.179882  0.914726  1
  Dy  Dy2  1  0.000000  0.320118  0.414726  1
  Dy  Dy3  1  0.000000  0.679882  0.585274  1
  Sc  Sc4  1  0.000000  0.445348  0.126113  1
  Sc  Sc5  1  0.000000  0.554652  0.873887  1
  Sc  Sc6  1  0.000000  0.945348  0.373887  1
  Sc  Sc7  1  0.000000  0.054652  0.626113  1
  B  B8  1  0.500000  0.055418  0.067212  1
  B  B9  1  0.500000  0.944582  0.932788  1
  B  B10  1  0.500000  0.555418  0.432788  1
  B  B11  1  0.500000  0.444582  0.567212  1
  B  B12  1  0.500000  0.253650  0.081545  1
  B  B13  1  0.500000  0.746350  0.918455  1
  B  B14  1  0.500000  0.753650  0.418455  1
  B  B15  1  0.500000  0.246350  0.581545  1
  B  B16  1  0.500000  0.293910  0.234989  1
  B  B17  1  0.500000  0.706090  0.765011  1
  B  B18  1  0.500000  0.793910  0.265011  1
  B  B19  1  0.500000  0.206090  0.734989  1
  B  B20  1  0.500000  0.129216  0.317582  1
  B  B21  1  0.500000  0.870784  0.682418  1
  B  B22  1  0.500000  0.629216  0.182418  1
  B  B23  1  0.500000  0.370784  0.817582  1
  B  B24  1  0.500000  0.482335  0.285679  1
  B  B25  1  0.500000  0.517665  0.714321  1
  B  B26  1  0.500000  0.982335  0.214321  1
  B  B27  1  0.500000  0.017665  0.785679  1
  B  B28  1  0.500000  0.099457  0.473186  1
  B  B29  1  0.500000  0.900543  0.526814  1
  B  B30  1  0.500000  0.599457  0.026814  1
  B  B31  1  0.500000  0.400543  0.973186  1
  Os  Os32  1  0.000000  0.140249  0.181506  1
  Os  Os33  1  0.000000  0.859751  0.818494  1
  Os  Os34  1  0.000000  0.640249  0.318494  1
  Os  Os35  1  0.000000  0.359751  0.681506  1
