# generated using pymatgen
data_Lu9ThPt8
_symmetry_space_group_name_H-M   'P 1'
_cell_length_a   7.32946200
_cell_length_b   7.42370202
_cell_length_c   14.61333500
_cell_angle_alpha   89.99600982
_cell_angle_beta   90.00000000
_cell_angle_gamma   90.00000000
_symmetry_Int_Tables_number   1
_chemical_formula_structural   Lu9ThPt8
_chemical_formula_sum   'Lu18 Th2 Pt16'
_cell_volume   795.13700952
_cell_formula_units_Z   2
loop_
 _symmetry_equiv_pos_site_id
 _symmetry_equiv_pos_as_xyz
  1  'x, y, z'
loop_
 _atom_site_type_symbol
 _atom_site_label
 _atom_site_symmetry_multiplicity
 _atom_site_fract_x
 _atom_site_fract_y
 _atom_site_fract_z
 _atom_site_occupancy
  Lu  Lu0  1  0.627041  0.170242  0.619703  1
  Lu  Lu1  1  0.127041  0.329758  0.880297  1
  Lu  Lu2  1  0.367376  0.835677  0.122934  1
  Lu  Lu3  1  0.867376  0.664323  0.377066  1
  Lu  Lu4  1  0.371336  0.831297  0.379933  1
  Lu  Lu5  1  0.871336  0.668703  0.120067  1
  Lu  Lu6  1  0.630049  0.167163  0.881084  1
  Lu  Lu7  1  0.130049  0.332837  0.618916  1
  Lu  Lu8  1  0.473442  0.670503  0.598211  1
  Lu  Lu9  1  0.973442  0.829497  0.901789  1
  Lu  Lu10  1  0.527611  0.324944  0.098952  1
  Lu  Lu11  1  0.027611  0.175056  0.401048  1
  Lu  Lu12  1  0.527187  0.328086  0.401425  1
  Lu  Lu13  1  0.027187  0.171914  0.098575  1
  Lu  Lu14  1  0.794096  0.504878  0.749770  1
  Lu  Lu15  1  0.294096  0.995122  0.750230  1
  Lu  Lu16  1  0.206806  0.492941  0.250361  1
  Lu  Lu17  1  0.706806  0.007059  0.249639  1
  Th  Th18  1  0.471163  0.672227  0.904954  1
  Th  Th19  1  0.971163  0.827773  0.595046  1
  Pt  Pt20  1  0.705411  0.980181  0.454044  1
  Pt  Pt21  1  0.205411  0.519819  0.045956  1
  Pt  Pt22  1  0.293314  0.026687  0.958192  1
  Pt  Pt23  1  0.793314  0.473313  0.541808  1
  Pt  Pt24  1  0.298601  0.026265  0.542033  1
  Pt  Pt25  1  0.798601  0.473735  0.957967  1
  Pt  Pt26  1  0.705641  0.977409  0.044450  1
  Pt  Pt27  1  0.205641  0.522591  0.455550  1
  Pt  Pt28  1  0.425922  0.375328  0.749564  1
  Pt  Pt29  1  0.925922  0.124672  0.750436  1
  Pt  Pt30  1  0.574301  0.620913  0.249565  1
  Pt  Pt31  1  0.074301  0.879087  0.250435  1
  Pt  Pt32  1  0.656858  0.858984  0.749886  1
  Pt  Pt33  1  0.156858  0.641016  0.750114  1
  Pt  Pt34  1  0.343847  0.142445  0.250166  1
  Pt  Pt35  1  0.843847  0.357555  0.249834  1
