# generated using pymatgen
data_Na2(GaAs)3
_symmetry_space_group_name_H-M   'P 1'
_cell_length_a   4.04164400
_cell_length_b   6.87449600
_cell_length_c   25.99051200
_cell_angle_alpha   90.00000000
_cell_angle_beta   90.00000000
_cell_angle_gamma   90.00000000
_symmetry_Int_Tables_number   1
_chemical_formula_structural   Na2(GaAs)3
_chemical_formula_sum   'Na8 Ga12 As12'
_cell_volume   722.12728619
_cell_formula_units_Z   4
loop_
 _symmetry_equiv_pos_site_id
 _symmetry_equiv_pos_as_xyz
  1  'x, y, z'
loop_
 _atom_site_type_symbol
 _atom_site_label
 _atom_site_symmetry_multiplicity
 _atom_site_fract_x
 _atom_site_fract_y
 _atom_site_fract_z
 _atom_site_occupancy
  Na  Na0  1  0.250000  0.226201  0.495965  1
  Na  Na1  1  0.750000  0.773799  0.504035  1
  Na  Na2  1  0.750000  0.726201  0.004035  1
  Na  Na3  1  0.250000  0.273799  0.995965  1
  Na  Na4  1  0.250000  0.253609  0.815735  1
  Na  Na5  1  0.750000  0.746391  0.184265  1
  Na  Na6  1  0.750000  0.753609  0.684265  1
  Na  Na7  1  0.250000  0.246391  0.315735  1
  Ga  Ga8  1  0.250000  0.550812  0.614663  1
  Ga  Ga9  1  0.750000  0.449188  0.385337  1
  Ga  Ga10  1  0.750000  0.050812  0.885337  1
  Ga  Ga11  1  0.250000  0.949188  0.114663  1
  Ga  Ga12  1  0.250000  0.079332  0.207824  1
  Ga  Ga13  1  0.750000  0.920668  0.792176  1
  Ga  Ga14  1  0.750000  0.579332  0.292176  1
  Ga  Ga15  1  0.250000  0.420668  0.707824  1
  Ga  Ga16  1  0.750000  0.392777  0.121690  1
  Ga  Ga17  1  0.250000  0.607223  0.878310  1
  Ga  Ga18  1  0.250000  0.892777  0.378310  1
  Ga  Ga19  1  0.750000  0.107223  0.621690  1
  As  As20  1  0.750000  0.196728  0.718890  1
  As  As21  1  0.250000  0.803272  0.281110  1
  As  As22  1  0.250000  0.696728  0.781110  1
  As  As23  1  0.750000  0.303272  0.218890  1
  As  As24  1  0.250000  0.913451  0.593299  1
  As  As25  1  0.750000  0.086549  0.406701  1
  As  As26  1  0.750000  0.413451  0.906701  1
  As  As27  1  0.250000  0.586549  0.093299  1
  As  As28  1  0.750000  0.410848  0.571364  1
  As  As29  1  0.250000  0.589152  0.428636  1
  As  As30  1  0.250000  0.910848  0.928636  1
  As  As31  1  0.750000  0.089152  0.071364  1
