# generated using pymatgen
data_Dy3YLuPb3
_symmetry_space_group_name_H-M   'P 1'
_cell_length_a   9.02931901
_cell_length_b   9.02999556
_cell_length_c   6.61060700
_cell_angle_alpha   90.00109718
_cell_angle_beta   89.99944977
_cell_angle_gamma   120.00246905
_symmetry_Int_Tables_number   1
_chemical_formula_structural   Dy3YLuPb3
_chemical_formula_sum   'Dy6 Y2 Lu2 Pb6'
_cell_volume   466.77082047
_cell_formula_units_Z   2
loop_
 _symmetry_equiv_pos_site_id
 _symmetry_equiv_pos_as_xyz
  1  'x, y, z'
loop_
 _atom_site_type_symbol
 _atom_site_label
 _atom_site_symmetry_multiplicity
 _atom_site_fract_x
 _atom_site_fract_y
 _atom_site_fract_z
 _atom_site_occupancy
  Dy  Dy0  1  0.999921  0.761696  0.750699  1
  Dy  Dy1  1  0.761743  0.761788  0.249296  1
  Dy  Dy2  1  0.999921  0.238225  0.249301  1
  Dy  Dy3  1  0.761743  0.999955  0.750704  1
  Dy  Dy4  1  0.333342  0.666672  0.500000  1
  Dy  Dy5  1  0.666700  0.333350  0.500000  1
  Y  Y6  1  0.238215  0.238245  0.750689  1
  Y  Y7  1  0.238215  0.999970  0.249311  1
  Lu  Lu8  1  0.333358  0.666679  0.000000  1
  Lu  Lu9  1  0.666674  0.333337  0.000000  1
  Pb  Pb10  1  0.999994  0.395504  0.752553  1
  Pb  Pb11  1  0.395563  0.395553  0.247448  1
  Pb  Pb12  1  0.604527  0.999985  0.247443  1
  Pb  Pb13  1  0.604527  0.604542  0.752557  1
  Pb  Pb14  1  0.395563  0.000010  0.752552  1
  Pb  Pb15  1  0.999994  0.604490  0.247447  1
