# generated using pymatgen
data_TaNb11Ga8(RhC)4
_symmetry_space_group_name_H-M   'P 1'
_cell_length_a   8.34858757
_cell_length_b   8.34856916
_cell_length_c   8.35004007
_cell_angle_alpha   59.99462454
_cell_angle_beta   59.99422918
_cell_angle_gamma   59.98109525
_symmetry_Int_Tables_number   1
_chemical_formula_structural   TaNb11Ga8(RhC)4
_chemical_formula_sum   'Ta1 Nb11 Ga8 Rh4 C4'
_cell_volume   411.43378590
_cell_formula_units_Z   1
loop_
 _symmetry_equiv_pos_site_id
 _symmetry_equiv_pos_as_xyz
  1  'x, y, z'
loop_
 _atom_site_type_symbol
 _atom_site_label
 _atom_site_symmetry_multiplicity
 _atom_site_fract_x
 _atom_site_fract_y
 _atom_site_fract_z
 _atom_site_occupancy
  Ta  Ta0  1  0.813453  0.813476  0.186501  1
  Nb  Nb1  1  0.187140  0.187133  0.812863  1
  Nb  Nb2  1  0.813372  0.186535  0.813574  1
  Nb  Nb3  1  0.186523  0.813382  0.186514  1
  Nb  Nb4  1  0.186582  0.813372  0.813579  1
  Nb  Nb5  1  0.813343  0.186589  0.186494  1
  Nb  Nb6  1  0.435761  0.435776  0.064221  1
  Nb  Nb7  1  0.063300  0.063309  0.436694  1
  Nb  Nb8  1  0.436550  0.063220  0.437117  1
  Nb  Nb9  1  0.063187  0.436562  0.063124  1
  Nb  Nb10  1  0.063267  0.436544  0.437116  1
  Nb  Nb11  1  0.436534  0.063251  0.063095  1
  Ga  Ga12  1  0.756053  0.413840  0.415198  1
  Ga  Ga13  1  0.413858  0.756072  0.414944  1
  Ga  Ga14  1  0.415301  0.415335  0.755199  1
  Ga  Ga15  1  0.415402  0.415328  0.414073  1
  Ga  Ga16  1  0.494329  0.834202  0.835875  1
  Ga  Ga17  1  0.834243  0.494327  0.835623  1
  Ga  Ga18  1  0.835493  0.835500  0.494377  1
  Ga  Ga19  1  0.835587  0.835494  0.834531  1
  Rh  Rh20  1  0.124708  0.624728  0.625261  1
  Rh  Rh21  1  0.624725  0.124653  0.625298  1
  Rh  Rh22  1  0.626669  0.626420  0.125232  1
  Rh  Rh23  1  0.626352  0.626613  0.621796  1
  C  C24  1  0.625795  0.122896  0.125657  1
  C  C25  1  0.122873  0.625816  0.125647  1
  C  C26  1  0.124821  0.124799  0.625264  1
  C  C27  1  0.124780  0.124826  0.125130  1
