# generated using pymatgen
data_NdHo3(Sc3Sn4)2
_symmetry_space_group_name_H-M   'P 1'
_cell_length_a   7.67879404
_cell_length_b   7.95425304
_cell_length_c   14.82817700
_cell_angle_alpha   90.00269398
_cell_angle_beta   89.99382183
_cell_angle_gamma   90.00546029
_symmetry_Int_Tables_number   1
_chemical_formula_structural   NdHo3(Sc3Sn4)2
_chemical_formula_sum   'Nd2 Ho6 Sc12 Sn16'
_cell_volume   905.69126408
_cell_formula_units_Z   2
loop_
 _symmetry_equiv_pos_site_id
 _symmetry_equiv_pos_as_xyz
  1  'x, y, z'
loop_
 _atom_site_type_symbol
 _atom_site_label
 _atom_site_symmetry_multiplicity
 _atom_site_fract_x
 _atom_site_fract_y
 _atom_site_fract_z
 _atom_site_occupancy
  Nd  Nd0  1  0.995129  0.175935  0.094172  1
  Nd  Nd1  1  0.004871  0.824065  0.905828  1
  Ho  Ho2  1  0.508588  0.676163  0.904744  1
  Ho  Ho3  1  0.008369  0.822534  0.594455  1
  Ho  Ho4  1  0.491412  0.323837  0.095256  1
  Ho  Ho5  1  0.991631  0.177466  0.405545  1
  Ho  Ho6  1  0.493100  0.322382  0.407873  1
  Ho  Ho7  1  0.506900  0.677618  0.592127  1
  Sc  Sc8  1  0.168301  0.496363  0.749255  1
  Sc  Sc9  1  0.831699  0.503637  0.250745  1
  Sc  Sc10  1  0.331790  0.995317  0.251040  1
  Sc  Sc11  1  0.668210  0.004683  0.748960  1
  Sc  Sc12  1  0.339748  0.160263  0.627007  1
  Sc  Sc13  1  0.660252  0.839737  0.372993  1
  Sc  Sc14  1  0.161171  0.661404  0.373797  1
  Sc  Sc15  1  0.661239  0.837840  0.128963  1
  Sc  Sc16  1  0.838829  0.338596  0.626203  1
  Sc  Sc17  1  0.338761  0.162160  0.871037  1
  Sc  Sc18  1  0.837937  0.340433  0.872484  1
  Sc  Sc19  1  0.162063  0.659567  0.127516  1
  Sn  Sn20  1  0.030527  0.126417  0.749286  1
  Sn  Sn21  1  0.969473  0.873583  0.250714  1
  Sn  Sn22  1  0.469242  0.623665  0.251350  1
  Sn  Sn23  1  0.530758  0.376335  0.748650  1
  Sn  Sn24  1  0.312808  0.848980  0.748023  1
  Sn  Sn25  1  0.687192  0.151020  0.251977  1
  Sn  Sn26  1  0.192316  0.351372  0.252801  1
  Sn  Sn27  1  0.807684  0.648628  0.747199  1
  Sn  Sn28  1  0.182356  0.456579  0.542569  1
  Sn  Sn29  1  0.817644  0.543421  0.457431  1
  Sn  Sn30  1  0.316033  0.958039  0.457710  1
  Sn  Sn31  1  0.814147  0.543238  0.042718  1
  Sn  Sn32  1  0.683967  0.041961  0.542290  1
  Sn  Sn33  1  0.185853  0.456762  0.957282  1
  Sn  Sn34  1  0.673340  0.044278  0.957172  1
  Sn  Sn35  1  0.326660  0.955722  0.042828  1
