# generated using pymatgen
data_Mg2Zr(TaRu2)3
_symmetry_space_group_name_H-M   'P 1'
_cell_length_a   4.48133000
_cell_length_b   6.33161800
_cell_length_c   13.44234100
_cell_angle_alpha   90.00000000
_cell_angle_beta   89.99784765
_cell_angle_gamma   90.00000000
_symmetry_Int_Tables_number   1
_chemical_formula_structural   Mg2Zr(TaRu2)3
_chemical_formula_sum   'Mg4 Zr2 Ta6 Ru12'
_cell_volume   381.41392022
_cell_formula_units_Z   2
loop_
 _symmetry_equiv_pos_site_id
 _symmetry_equiv_pos_as_xyz
  1  'x, y, z'
loop_
 _atom_site_type_symbol
 _atom_site_label
 _atom_site_symmetry_multiplicity
 _atom_site_fract_x
 _atom_site_fract_y
 _atom_site_fract_z
 _atom_site_occupancy
  Mg  Mg0  1  0.999887  0.000000  0.335820  1
  Mg  Mg1  1  0.500001  0.499999  0.501719  1
  Mg  Mg2  1  0.000128  0.000000  0.664945  1
  Mg  Mg3  1  0.500106  0.499999  0.830862  1
  Zr  Zr4  1  0.000003  0.000000  0.997276  1
  Zr  Zr5  1  0.499889  0.499999  0.169397  1
  Ta  Ta6  1  0.999985  0.499999  0.991620  1
  Ta  Ta7  1  0.499951  0.000000  0.175028  1
  Ta  Ta8  1  0.999924  0.499999  0.344812  1
  Ta  Ta9  1  0.500015  0.000000  0.502265  1
  Ta  Ta10  1  0.000088  0.499999  0.664435  1
  Ta  Ta11  1  0.500058  0.000000  0.821854  1
  Ru  Ru12  1  0.499992  0.250244  0.000526  1
  Ru  Ru13  1  0.499992  0.749755  0.000526  1
  Ru  Ru14  1  0.999918  0.249665  0.166149  1
  Ru  Ru15  1  0.999918  0.750334  0.166149  1
  Ru  Ru16  1  0.499879  0.250325  0.333749  1
  Ru  Ru17  1  0.499879  0.749675  0.333749  1
  Ru  Ru18  1  0.000008  0.249494  0.500718  1
  Ru  Ru19  1  0.000008  0.750506  0.500718  1
  Ru  Ru20  1  0.500075  0.250618  0.665925  1
  Ru  Ru21  1  0.500075  0.749382  0.665925  1
  Ru  Ru22  1  0.000104  0.249718  0.832917  1
  Ru  Ru23  1  0.000104  0.750281  0.832917  1
