# generated using pymatgen
data_La8MgGa7Rh8
_symmetry_space_group_name_H-M   'P 1'
_cell_length_a   4.16931100
_cell_length_b   7.43274891
_cell_length_c   16.46409496
_cell_angle_alpha   90.50791231
_cell_angle_beta   90.00000000
_cell_angle_gamma   90.00000000
_symmetry_Int_Tables_number   1
_chemical_formula_structural   La8MgGa7Rh8
_chemical_formula_sum   'La8 Mg1 Ga7 Rh8'
_cell_volume   510.19306504
_cell_formula_units_Z   1
loop_
 _symmetry_equiv_pos_site_id
 _symmetry_equiv_pos_as_xyz
  1  'x, y, z'
loop_
 _atom_site_type_symbol
 _atom_site_label
 _atom_site_symmetry_multiplicity
 _atom_site_fract_x
 _atom_site_fract_y
 _atom_site_fract_z
 _atom_site_occupancy
  La  La0  1  0.750000  0.832722  0.063136  1
  La  La1  1  0.750000  0.955509  0.283971  1
  La  La2  1  0.250000  0.542984  0.777746  1
  La  La3  1  0.750000  0.456741  0.218382  1
  La  La4  1  0.250000  0.158233  0.942732  1
  La  La5  1  0.250000  0.045855  0.717064  1
  La  La6  1  0.250000  0.669129  0.558095  1
  La  La7  1  0.750000  0.331396  0.440684  1
  Mg  Mg8  1  0.750000  0.500445  0.937981  1
  Ga  Ga9  1  0.750000  0.999069  0.561018  1
  Ga  Ga10  1  0.250000  0.002617  0.439331  1
  Ga  Ga11  1  0.750000  0.372675  0.648238  1
  Ga  Ga12  1  0.250000  0.501277  0.062248  1
  Ga  Ga13  1  0.250000  0.627887  0.350268  1
  Ga  Ga14  1  0.750000  0.869629  0.848576  1
  Ga  Ga15  1  0.250000  0.128525  0.151840  1
  Rh  Rh16  1  0.250000  0.235468  0.569149  1
  Rh  Rh17  1  0.250000  0.756027  0.183776  1
  Rh  Rh18  1  0.750000  0.767235  0.429269  1
  Rh  Rh19  1  0.250000  0.250535  0.318789  1
  Rh  Rh20  1  0.750000  0.750668  0.681363  1
  Rh  Rh21  1  0.750000  0.264450  0.072521  1
  Rh  Rh22  1  0.250000  0.744211  0.929601  1
  Rh  Rh23  1  0.750000  0.236711  0.814220  1
