# generated using pymatgen
data_Tb10Er6MgIn3Ni4
_symmetry_space_group_name_H-M   'P 1'
_cell_length_a   9.60721518
_cell_length_b   9.56334095
_cell_length_c   9.56334200
_cell_angle_alpha   59.99999636
_cell_angle_beta   60.15095027
_cell_angle_gamma   60.15094759
_symmetry_Int_Tables_number   1
_chemical_formula_structural   Tb10Er6MgIn3Ni4
_chemical_formula_sum   'Tb10 Er6 Mg1 In3 Ni4'
_cell_volume   622.71447154
_cell_formula_units_Z   1
loop_
 _symmetry_equiv_pos_site_id
 _symmetry_equiv_pos_as_xyz
  1  'x, y, z'
loop_
 _atom_site_type_symbol
 _atom_site_label
 _atom_site_symmetry_multiplicity
 _atom_site_fract_x
 _atom_site_fract_y
 _atom_site_fract_z
 _atom_site_occupancy
  Tb  Tb0  1  0.185875  0.814037  0.814037  1
  Tb  Tb1  1  0.812553  0.187300  0.187300  1
  Tb  Tb2  1  0.812553  0.187300  0.812847  1
  Tb  Tb3  1  0.185875  0.814037  0.186053  1
  Tb  Tb4  1  0.812553  0.812847  0.187300  1
  Tb  Tb5  1  0.185875  0.186053  0.814037  1
  Tb  Tb6  1  0.598704  0.596934  0.596934  1
  Tb  Tb7  1  0.598704  0.596934  0.207426  1
  Tb  Tb8  1  0.598704  0.207426  0.596934  1
  Tb  Tb9  1  0.204187  0.598604  0.598604  1
  Er  Er10  1  0.061271  0.437996  0.437996  1
  Er  Er11  1  0.433995  0.064730  0.064730  1
  Er  Er12  1  0.433995  0.064730  0.436545  1
  Er  Er13  1  0.061271  0.437996  0.062736  1
  Er  Er14  1  0.433995  0.436545  0.064730  1
  Er  Er15  1  0.061271  0.062736  0.437996  1
  Mg  Mg16  1  0.518630  0.827123  0.827123  1
  In  In17  1  0.832393  0.831977  0.831977  1
  In  In18  1  0.832393  0.831977  0.503653  1
  In  In19  1  0.832393  0.503653  0.831977  1
  Ni  Ni20  1  0.392266  0.390795  0.390795  1
  Ni  Ni21  1  0.392266  0.390795  0.826143  1
  Ni  Ni22  1  0.392266  0.826143  0.390795  1
  Ni  Ni23  1  0.826012  0.391329  0.391329  1
