# generated using pymatgen
data_Er4LuVMoO12
_symmetry_space_group_name_H-M   'P 1'
_cell_length_a   6.72801591
_cell_length_b   6.72600599
_cell_length_c   7.29115286
_cell_angle_alpha   74.09523123
_cell_angle_beta   74.07058552
_cell_angle_gamma   51.37344252
_symmetry_Int_Tables_number   1
_chemical_formula_structural   Er4LuVMoO12
_chemical_formula_sum   'Er4 Lu1 V1 Mo1 O12'
_cell_volume   245.53695675
_cell_formula_units_Z   1
loop_
 _symmetry_equiv_pos_site_id
 _symmetry_equiv_pos_as_xyz
  1  'x, y, z'
loop_
 _atom_site_type_symbol
 _atom_site_label
 _atom_site_symmetry_multiplicity
 _atom_site_fract_x
 _atom_site_fract_y
 _atom_site_fract_z
 _atom_site_occupancy
  Er  Er0  1  0.704041  0.688953  0.637299  1
  Er  Er1  1  0.312937  0.309133  0.822856  1
  Er  Er2  1  0.691069  0.686555  0.176247  1
  Er  Er3  1  0.001773  0.999487  0.499379  1
  Lu  Lu4  1  0.311794  0.296157  0.361683  1
  V  V5  1  0.750720  0.248092  0.000963  1
  Mo  Mo6  1  0.230429  0.768907  0.000748  1
  O  O7  1  0.899433  0.424390  0.918004  1
  O  O8  1  0.430876  0.899248  0.917209  1
  O  O9  1  0.101689  0.567626  0.084965  1
  O  O10  1  0.574202  0.101409  0.084531  1
  O  O11  1  0.102769  0.590811  0.571571  1
  O  O12  1  0.595641  0.094464  0.572746  1
  O  O13  1  0.910819  0.401612  0.423732  1
  O  O14  1  0.406631  0.902379  0.424974  1
  O  O15  1  0.990164  0.007900  0.808864  1
  O  O16  1  0.991307  0.009052  0.192178  1
  O  O17  1  0.497144  0.502204  0.808801  1
  O  O18  1  0.496566  0.501621  0.193249  1
