# generated using pymatgen
data_Er8Ga12NiPd3
_symmetry_space_group_name_H-M   'P 1'
_cell_length_a   8.84457500
_cell_length_b   8.84457643
_cell_length_c   6.93169400
_cell_angle_alpha   90.00000000
_cell_angle_beta   90.00000000
_cell_angle_gamma   119.99999839
_symmetry_Int_Tables_number   1
_chemical_formula_structural   Er8Ga12NiPd3
_chemical_formula_sum   'Er8 Ga12 Ni1 Pd3'
_cell_volume   469.59561141
_cell_formula_units_Z   1
loop_
 _symmetry_equiv_pos_site_id
 _symmetry_equiv_pos_as_xyz
  1  'x, y, z'
loop_
 _atom_site_type_symbol
 _atom_site_label
 _atom_site_symmetry_multiplicity
 _atom_site_fract_x
 _atom_site_fract_y
 _atom_site_fract_z
 _atom_site_occupancy
  Er  Er0  1  0.000000  0.000000  0.247688  1
  Er  Er1  1  0.000000  0.000000  0.744860  1
  Er  Er2  1  0.519277  0.038556  0.251993  1
  Er  Er3  1  0.519277  0.480723  0.251993  1
  Er  Er4  1  0.961444  0.480723  0.251993  1
  Er  Er5  1  0.482742  0.965485  0.750469  1
  Er  Er6  1  0.482742  0.517258  0.750469  1
  Er  Er7  1  0.034515  0.517258  0.750469  1
  Ga  Ga8  1  0.167340  0.334679  0.044831  1
  Ga  Ga9  1  0.166472  0.833528  0.456409  1
  Ga  Ga10  1  0.667054  0.833528  0.456409  1
  Ga  Ga11  1  0.665321  0.832660  0.044831  1
  Ga  Ga12  1  0.167340  0.832660  0.044831  1
  Ga  Ga13  1  0.833459  0.666918  0.956295  1
  Ga  Ga14  1  0.833459  0.166541  0.956295  1
  Ga  Ga15  1  0.333082  0.166541  0.956295  1
  Ga  Ga16  1  0.166472  0.332946  0.456409  1
  Ga  Ga17  1  0.343521  0.171761  0.544398  1
  Ga  Ga18  1  0.828239  0.656479  0.544398  1
  Ga  Ga19  1  0.828239  0.171761  0.544398  1
  Ni  Ni20  1  0.666667  0.333333  0.525224  1
  Pd  Pd21  1  0.333333  0.666667  0.029097  1
  Pd  Pd22  1  0.333333  0.666667  0.471960  1
  Pd  Pd23  1  0.666667  0.333333  0.967982  1
