# generated using pymatgen
data_Dy3Tm(MoN3)4
_symmetry_space_group_name_H-M   'P 1'
_cell_length_a   7.31723815
_cell_length_b   7.31723859
_cell_length_c   6.26544206
_cell_angle_alpha   73.47604166
_cell_angle_beta   73.47603962
_cell_angle_gamma   81.33078583
_symmetry_Int_Tables_number   1
_chemical_formula_structural   Dy3Tm(MoN3)4
_chemical_formula_sum   'Dy3 Tm1 Mo4 N12'
_cell_volume   307.43623068
_cell_formula_units_Z   1
loop_
 _symmetry_equiv_pos_site_id
 _symmetry_equiv_pos_as_xyz
  1  'x, y, z'
loop_
 _atom_site_type_symbol
 _atom_site_label
 _atom_site_symmetry_multiplicity
 _atom_site_fract_x
 _atom_site_fract_y
 _atom_site_fract_z
 _atom_site_occupancy
  Dy  Dy0  1  0.707114  0.292886  0.250000  1
  Dy  Dy1  1  0.086862  0.913138  0.250000  1
  Dy  Dy2  1  0.292938  0.707062  0.750000  1
  Tm  Tm3  1  0.912529  0.087471  0.750000  1
  Mo  Mo4  1  0.800712  0.619037  0.772359  1
  Mo  Mo5  1  0.199348  0.379913  0.229009  1
  Mo  Mo6  1  0.620087  0.800652  0.270991  1
  Mo  Mo7  1  0.380963  0.199288  0.727641  1
  N  N8  1  0.217288  0.000967  0.844609  1
  N  N9  1  0.367580  0.347271  0.431455  1
  N  N10  1  0.634714  0.653755  0.567132  1
  N  N11  1  0.625744  0.110600  0.663810  1
  N  N12  1  0.999033  0.782712  0.655391  1
  N  N13  1  0.781435  0.000980  0.149239  1
  N  N14  1  0.110409  0.624151  0.161444  1
  N  N15  1  0.889400  0.374256  0.836190  1
  N  N16  1  0.999020  0.218565  0.350761  1
  N  N17  1  0.346245  0.365286  0.932868  1
  N  N18  1  0.652729  0.632420  0.068545  1
  N  N19  1  0.375849  0.889591  0.338556  1
