# generated using pymatgen
data_Ho4Er6NiBi5
_symmetry_space_group_name_H-M   'P 1'
_cell_length_a   8.03405800
_cell_length_b   9.33999400
_cell_length_c   12.03073900
_cell_angle_alpha   90.00000000
_cell_angle_beta   90.00000000
_cell_angle_gamma   90.00000000
_symmetry_Int_Tables_number   1
_chemical_formula_structural   Ho4Er6NiBi5
_chemical_formula_sum   'Ho8 Er12 Ni2 Bi10'
_cell_volume   902.76323691
_cell_formula_units_Z   2
loop_
 _symmetry_equiv_pos_site_id
 _symmetry_equiv_pos_as_xyz
  1  'x, y, z'
loop_
 _atom_site_type_symbol
 _atom_site_label
 _atom_site_symmetry_multiplicity
 _atom_site_fract_x
 _atom_site_fract_y
 _atom_site_fract_z
 _atom_site_occupancy
  Ho  Ho0  1  0.574094  0.500000  0.774030  1
  Ho  Ho1  1  0.425906  0.500000  0.274030  1
  Ho  Ho2  1  0.907184  0.000000  0.202517  1
  Ho  Ho3  1  0.092816  0.000000  0.702517  1
  Ho  Ho4  1  0.260717  0.500000  0.993741  1
  Ho  Ho5  1  0.739283  0.500000  0.493741  1
  Ho  Ho6  1  0.089958  0.500000  0.717002  1
  Ho  Ho7  1  0.910042  0.500000  0.217002  1
  Er  Er8  1  0.431746  0.177874  0.562847  1
  Er  Er9  1  0.568254  0.822126  0.062847  1
  Er  Er10  1  0.070691  0.723902  0.436169  1
  Er  Er11  1  0.929309  0.276098  0.936169  1
  Er  Er12  1  0.070691  0.276098  0.436169  1
  Er  Er13  1  0.929309  0.723902  0.936169  1
  Er  Er14  1  0.431746  0.822126  0.562847  1
  Er  Er15  1  0.568254  0.177874  0.062847  1
  Er  Er16  1  0.200467  0.000000  0.998800  1
  Er  Er17  1  0.799533  0.000000  0.498800  1
  Er  Er18  1  0.377040  0.000000  0.305332  1
  Er  Er19  1  0.622960  0.000000  0.805332  1
  Ni  Ni20  1  0.168637  0.000000  0.485607  1
  Ni  Ni21  1  0.831363  0.000000  0.985607  1
  Bi  Bi22  1  0.814829  0.741817  0.672856  1
  Bi  Bi23  1  0.185171  0.258183  0.172856  1
  Bi  Bi24  1  0.681066  0.241536  0.325187  1
  Bi  Bi25  1  0.318934  0.758464  0.825187  1
  Bi  Bi26  1  0.681066  0.758464  0.325187  1
  Bi  Bi27  1  0.318934  0.241536  0.825187  1
  Bi  Bi28  1  0.814829  0.258183  0.672856  1
  Bi  Bi29  1  0.185171  0.741817  0.172856  1
  Bi  Bi30  1  0.347436  0.500000  0.528855  1
  Bi  Bi31  1  0.652564  0.500000  0.028855  1
