# generated using pymatgen
data_AcIn2Pd3
_symmetry_space_group_name_H-M   'P 1'
_cell_length_a   4.75535500
_cell_length_b   10.39454000
_cell_length_c   10.53571000
_cell_angle_alpha   90.00000000
_cell_angle_beta   90.00000000
_cell_angle_gamma   90.00000000
_symmetry_Int_Tables_number   1
_chemical_formula_structural   AcIn2Pd3
_chemical_formula_sum   'Ac4 In8 Pd12'
_cell_volume   520.77727708
_cell_formula_units_Z   4
loop_
 _symmetry_equiv_pos_site_id
 _symmetry_equiv_pos_as_xyz
  1  'x, y, z'
loop_
 _atom_site_type_symbol
 _atom_site_label
 _atom_site_symmetry_multiplicity
 _atom_site_fract_x
 _atom_site_fract_y
 _atom_site_fract_z
 _atom_site_occupancy
  Ac  Ac0  1  0.250000  0.435478  0.733201  1
  Ac  Ac1  1  0.250000  0.064522  0.233201  1
  Ac  Ac2  1  0.750000  0.564522  0.266799  1
  Ac  Ac3  1  0.750000  0.935478  0.766799  1
  In  In4  1  0.250000  0.873464  0.512455  1
  In  In5  1  0.250000  0.626536  0.012455  1
  In  In6  1  0.750000  0.126536  0.487545  1
  In  In7  1  0.750000  0.373464  0.987545  1
  In  In8  1  0.250000  0.151808  0.894928  1
  In  In9  1  0.250000  0.348192  0.394928  1
  In  In10  1  0.750000  0.848192  0.105072  1
  In  In11  1  0.750000  0.651808  0.605072  1
  Pd  Pd12  1  0.250000  0.131789  0.619452  1
  Pd  Pd13  1  0.250000  0.368211  0.119452  1
  Pd  Pd14  1  0.750000  0.868211  0.380548  1
  Pd  Pd15  1  0.750000  0.631789  0.880548  1
  Pd  Pd16  1  0.250000  0.730757  0.742025  1
  Pd  Pd17  1  0.250000  0.769243  0.242025  1
  Pd  Pd18  1  0.750000  0.269243  0.257975  1
  Pd  Pd19  1  0.750000  0.230757  0.757975  1
  Pd  Pd20  1  0.250000  0.894794  0.977131  1
  Pd  Pd21  1  0.250000  0.605206  0.477131  1
  Pd  Pd22  1  0.750000  0.105206  0.022869  1
  Pd  Pd23  1  0.750000  0.394794  0.522869  1
