# generated using pymatgen
data_Rb3Na2TiAs3
_symmetry_space_group_name_H-M   'P 1'
_cell_length_a   10.89858198
_cell_length_b   10.89858251
_cell_length_c   15.79125900
_cell_angle_alpha   90.00000000
_cell_angle_beta   90.00000000
_cell_angle_gamma   142.83376214
_symmetry_Int_Tables_number   1
_chemical_formula_structural   Rb3Na2TiAs3
_chemical_formula_sum   'Rb12 Na8 Ti4 As12'
_cell_volume   1133.14873106
_cell_formula_units_Z   4
loop_
 _symmetry_equiv_pos_site_id
 _symmetry_equiv_pos_as_xyz
  1  'x, y, z'
loop_
 _atom_site_type_symbol
 _atom_site_label
 _atom_site_symmetry_multiplicity
 _atom_site_fract_x
 _atom_site_fract_y
 _atom_site_fract_z
 _atom_site_occupancy
  Rb  Rb0  1  0.604640  0.940756  0.824976  1
  Rb  Rb1  1  0.272703  0.272703  0.317111  1
  Rb  Rb2  1  0.227297  0.227297  0.817111  1
  Rb  Rb3  1  0.727297  0.727297  0.682889  1
  Rb  Rb4  1  0.440756  0.104640  0.675024  1
  Rb  Rb5  1  0.895360  0.559244  0.324976  1
  Rb  Rb6  1  0.059244  0.395360  0.175024  1
  Rb  Rb7  1  0.395360  0.059244  0.175024  1
  Rb  Rb8  1  0.559244  0.895360  0.324976  1
  Rb  Rb9  1  0.104640  0.440756  0.675024  1
  Rb  Rb10  1  0.940756  0.604640  0.824976  1
  Rb  Rb11  1  0.772703  0.772703  0.182889  1
  Na  Na12  1  0.079981  0.920019  0.000000  1
  Na  Na13  1  0.579981  0.420019  0.500000  1
  Na  Na14  1  0.920019  0.079981  0.000000  1
  Na  Na15  1  0.754921  0.245079  0.000000  1
  Na  Na16  1  0.745079  0.254921  0.500000  1
  Na  Na17  1  0.245079  0.754921  0.000000  1
  Na  Na18  1  0.254921  0.745079  0.500000  1
  Na  Na19  1  0.420019  0.579981  0.500000  1
  Ti  Ti20  1  0.084345  0.915655  0.500000  1
  Ti  Ti21  1  0.415655  0.584345  0.000000  1
  Ti  Ti22  1  0.915655  0.084345  0.500000  1
  Ti  Ti23  1  0.584345  0.415655  0.000000  1
  As  As24  1  0.054082  0.360617  0.406334  1
  As  As25  1  0.860617  0.554082  0.093666  1
  As  As26  1  0.445918  0.139383  0.906334  1
  As  As27  1  0.639383  0.945918  0.593666  1
  As  As28  1  0.945918  0.639383  0.593666  1
  As  As29  1  0.139383  0.445918  0.906334  1
  As  As30  1  0.554082  0.860617  0.093666  1
  As  As31  1  0.360617  0.054082  0.406334  1
  As  As32  1  0.192368  0.192368  0.584183  1
  As  As33  1  0.692368  0.692368  0.915817  1
  As  As34  1  0.307632  0.307632  0.084183  1
  As  As35  1  0.807632  0.807632  0.415817  1
