# generated using pymatgen
data_Tb11YCo4SnPd
_symmetry_space_group_name_H-M   'P 1'
_cell_length_a   8.34715497
_cell_length_b   8.34671776
_cell_length_c   8.34706435
_cell_angle_alpha   111.11444586
_cell_angle_beta   110.29363145
_cell_angle_gamma   107.03803462
_symmetry_Int_Tables_number   1
_chemical_formula_structural   Tb11YCo4SnPd
_chemical_formula_sum   'Tb11 Y1 Co4 Sn1 Pd1'
_cell_volume   447.02785278
_cell_formula_units_Z   1
loop_
 _symmetry_equiv_pos_site_id
 _symmetry_equiv_pos_as_xyz
  1  'x, y, z'
loop_
 _atom_site_type_symbol
 _atom_site_label
 _atom_site_symmetry_multiplicity
 _atom_site_fract_x
 _atom_site_fract_y
 _atom_site_fract_z
 _atom_site_occupancy
  Tb  Tb0  1  0.589941  0.788871  0.801090  1
  Tb  Tb1  1  0.012403  0.211648  0.800780  1
  Tb  Tb2  1  0.986861  0.787061  0.199877  1
  Tb  Tb3  1  0.186332  0.294059  0.480456  1
  Tb  Tb4  1  0.813339  0.705289  0.518585  1
  Tb  Tb5  1  0.186347  0.705937  0.892310  1
  Tb  Tb6  1  0.813312  0.294765  0.108067  1
  Tb  Tb7  1  0.314394  0.619294  0.305444  1
  Tb  Tb8  1  0.685248  0.380222  0.694943  1
  Tb  Tb9  1  0.314386  0.008992  0.695193  1
  Tb  Tb10  1  0.685207  0.990367  0.305088  1
  Y  Y11  1  0.415930  0.215535  0.200475  1
  Co  Co12  1  0.377077  0.999422  0.377714  1
  Co  Co13  1  0.619339  0.999546  0.619914  1
  Co  Co14  1  0.111887  0.611749  0.500165  1
  Co  Co15  1  0.885506  0.387433  0.498058  1
  Sn  Sn16  1  0.499394  0.499420  0.999996  1
  Pd  Pd17  1  0.003096  0.000390  0.001848  1
