# generated using pymatgen
data_AlZn2CuTe4
_symmetry_space_group_name_H-M   'P 1'
_cell_length_a   7.49605256
_cell_length_b   7.49605229
_cell_length_c   7.49605316
_cell_angle_alpha   131.64832658
_cell_angle_beta   131.64831940
_cell_angle_gamma   70.78503181
_symmetry_Int_Tables_number   1
_chemical_formula_structural   AlZn2CuTe4
_chemical_formula_sum   'Al1 Zn2 Cu1 Te4'
_cell_volume   230.36317852
_cell_formula_units_Z   1
loop_
 _symmetry_equiv_pos_site_id
 _symmetry_equiv_pos_as_xyz
  1  'x, y, z'
loop_
 _atom_site_type_symbol
 _atom_site_label
 _atom_site_symmetry_multiplicity
 _atom_site_fract_x
 _atom_site_fract_y
 _atom_site_fract_z
 _atom_site_occupancy
  Al  Al0  1  0.500000  0.500000  0.000000  1
  Zn  Zn1  1  0.750000  0.250000  0.500000  1
  Zn  Zn2  1  0.250000  0.750000  0.500000  1
  Cu  Cu3  1  0.000000  0.000000  0.000000  1
  Te  Te4  1  0.124047  0.124047  0.492101  1
  Te  Te5  1  0.875953  0.368055  0.000000  1
  Te  Te6  1  0.631945  0.631945  0.507899  1
  Te  Te7  1  0.368055  0.875953  0.000000  1
