# generated using pymatgen
data_Er19TmBi11Sb
_symmetry_space_group_name_H-M   'P 1'
_cell_length_a   8.17610608
_cell_length_b   9.45817101
_cell_length_c   11.92691109
_cell_angle_alpha   90.00126991
_cell_angle_beta   89.95220885
_cell_angle_gamma   89.99547134
_symmetry_Int_Tables_number   1
_chemical_formula_structural   Er19TmBi11Sb
_chemical_formula_sum   'Er19 Tm1 Bi11 Sb1'
_cell_volume   922.31975047
_cell_formula_units_Z   1
loop_
 _symmetry_equiv_pos_site_id
 _symmetry_equiv_pos_as_xyz
  1  'x, y, z'
loop_
 _atom_site_type_symbol
 _atom_site_label
 _atom_site_symmetry_multiplicity
 _atom_site_fract_x
 _atom_site_fract_y
 _atom_site_fract_z
 _atom_site_occupancy
  Er  Er0  1  0.028407  0.250031  0.511383  1
  Er  Er1  1  0.976131  0.749931  0.489155  1
  Er  Er2  1  0.475016  0.749995  0.011346  1
  Er  Er3  1  0.525397  0.249982  0.988530  1
  Er  Er4  1  0.356019  0.249979  0.286116  1
  Er  Er5  1  0.645037  0.749934  0.716925  1
  Er  Er6  1  0.145038  0.749897  0.782399  1
  Er  Er7  1  0.855174  0.249993  0.217324  1
  Er  Er8  1  0.189176  0.250014  0.780096  1
  Er  Er9  1  0.812390  0.749996  0.217923  1
  Er  Er10  1  0.312788  0.749959  0.282104  1
  Er  Er11  1  0.682634  0.250011  0.715015  1
  Er  Er12  1  0.193062  0.065317  0.059863  1
  Er  Er13  1  0.806984  0.935109  0.940409  1
  Er  Er14  1  0.308303  0.938611  0.559352  1
  Er  Er15  1  0.806966  0.564906  0.940408  1
  Er  Er16  1  0.690232  0.067414  0.441966  1
  Er  Er17  1  0.193091  0.434685  0.059860  1
  Er  Er18  1  0.690270  0.432650  0.441955  1
  Tm  Tm19  1  0.308287  0.561509  0.559380  1
  Bi  Bi20  1  0.594152  0.749911  0.457272  1
  Bi  Bi21  1  0.093817  0.749996  0.042586  1
  Bi  Bi22  1  0.906914  0.250001  0.956589  1
  Bi  Bi23  1  0.066510  0.003626  0.325895  1
  Bi  Bi24  1  0.932930  0.996684  0.674219  1
  Bi  Bi25  1  0.433265  0.996038  0.825755  1
  Bi  Bi26  1  0.932976  0.503281  0.674210  1
  Bi  Bi27  1  0.566678  0.004025  0.174409  1
  Bi  Bi28  1  0.066491  0.496338  0.325923  1
  Bi  Bi29  1  0.566663  0.495960  0.174419  1
  Bi  Bi30  1  0.433239  0.503935  0.825726  1
  Sb  Sb31  1  0.405971  0.250281  0.541488  1
