# generated using pymatgen
data_Lu2Sc2ReB12Ru
_symmetry_space_group_name_H-M   'P 1'
_cell_length_a   3.54752200
_cell_length_b   8.93843852
_cell_length_c   11.29961022
_cell_angle_alpha   90.09911486
_cell_angle_beta   90.00000000
_cell_angle_gamma   90.00000000
_symmetry_Int_Tables_number   1
_chemical_formula_structural   Lu2Sc2ReB12Ru
_chemical_formula_sum   'Lu4 Sc4 Re2 B24 Ru2'
_cell_volume   358.30227653
_cell_formula_units_Z   2
loop_
 _symmetry_equiv_pos_site_id
 _symmetry_equiv_pos_as_xyz
  1  'x, y, z'
loop_
 _atom_site_type_symbol
 _atom_site_label
 _atom_site_symmetry_multiplicity
 _atom_site_fract_x
 _atom_site_fract_y
 _atom_site_fract_z
 _atom_site_occupancy
  Lu  Lu0  1  0.000000  0.318199  0.412720  1
  Lu  Lu1  1  0.000000  0.681801  0.587280  1
  Lu  Lu2  1  0.000000  0.822318  0.085124  1
  Lu  Lu3  1  0.000000  0.177682  0.914876  1
  Sc  Sc4  1  0.000000  0.944261  0.371853  1
  Sc  Sc5  1  0.000000  0.055739  0.628147  1
  Sc  Sc6  1  0.000000  0.442983  0.128249  1
  Sc  Sc7  1  0.000000  0.557017  0.871751  1
  Re  Re8  1  0.000000  0.139056  0.181125  1
  Re  Re9  1  0.000000  0.860944  0.818875  1
  B  B10  1  0.500000  0.553915  0.433940  1
  B  B11  1  0.500000  0.446085  0.566060  1
  B  B12  1  0.500000  0.053129  0.066168  1
  B  B13  1  0.500000  0.946871  0.933832  1
  B  B14  1  0.500000  0.752431  0.419611  1
  B  B15  1  0.500000  0.247569  0.580389  1
  B  B16  1  0.500000  0.252886  0.080279  1
  B  B17  1  0.500000  0.747114  0.919721  1
  B  B18  1  0.500000  0.792858  0.265148  1
  B  B19  1  0.500000  0.207142  0.734852  1
  B  B20  1  0.500000  0.294461  0.235789  1
  B  B21  1  0.500000  0.705539  0.764211  1
  B  B22  1  0.500000  0.628615  0.183370  1
  B  B23  1  0.500000  0.371385  0.816630  1
  B  B24  1  0.500000  0.128747  0.317403  1
  B  B25  1  0.500000  0.871253  0.682597  1
  B  B26  1  0.500000  0.979342  0.213706  1
  B  B27  1  0.500000  0.020658  0.786294  1
  B  B28  1  0.500000  0.480598  0.287098  1
  B  B29  1  0.500000  0.519402  0.712902  1
  B  B30  1  0.500000  0.598288  0.027162  1
  B  B31  1  0.500000  0.401712  0.972838  1
  B  B32  1  0.500000  0.098869  0.473076  1
  B  B33  1  0.500000  0.901131  0.526924  1
  Ru  Ru34  1  0.000000  0.638795  0.319997  1
  Ru  Ru35  1  0.000000  0.361205  0.680003  1
