# generated using pymatgen
data_HfNb3(GaRh5)2
_symmetry_space_group_name_H-M   'P 1'
_cell_length_a   4.03725000
_cell_length_b   5.52660007
_cell_length_c   10.89078413
_cell_angle_alpha   89.92861880
_cell_angle_beta   90.00000000
_cell_angle_gamma   90.00000000
_symmetry_Int_Tables_number   1
_chemical_formula_structural   HfNb3(GaRh5)2
_chemical_formula_sum   'Hf1 Nb3 Ga2 Rh10'
_cell_volume   242.99788504
_cell_formula_units_Z   1
loop_
 _symmetry_equiv_pos_site_id
 _symmetry_equiv_pos_as_xyz
  1  'x, y, z'
loop_
 _atom_site_type_symbol
 _atom_site_label
 _atom_site_symmetry_multiplicity
 _atom_site_fract_x
 _atom_site_fract_y
 _atom_site_fract_z
 _atom_site_occupancy
  Hf  Hf0  1  0.500000  0.312884  0.138489  1
  Nb  Nb1  1  0.500000  0.183999  0.638717  1
  Nb  Nb2  1  0.500000  0.814153  0.358224  1
  Nb  Nb3  1  0.500000  0.683216  0.860623  1
  Ga  Ga4  1  0.000000  0.501082  0.500823  1
  Ga  Ga5  1  0.000000  0.999110  0.998688  1
  Rh  Rh6  1  0.500000  0.196729  0.885978  1
  Rh  Rh7  1  0.500000  0.805410  0.110227  1
  Rh  Rh8  1  0.500000  0.699442  0.611220  1
  Rh  Rh9  1  0.500000  0.300156  0.393568  1
  Rh  Rh10  1  0.000000  0.435432  0.745062  1
  Rh  Rh11  1  0.000000  0.567446  0.257501  1
  Rh  Rh12  1  0.000000  0.999970  0.501228  1
  Rh  Rh13  1  0.000000  0.505462  0.996788  1
  Rh  Rh14  1  0.000000  0.060079  0.249289  1
  Rh  Rh15  1  0.000000  0.935430  0.753577  1
