# generated using pymatgen
data_Ac3TlI3
_symmetry_space_group_name_H-M   'P 1'
_cell_length_a   11.71725667
_cell_length_b   11.71725384
_cell_length_c   11.71750800
_cell_angle_alpha   109.47020605
_cell_angle_beta   109.47006461
_cell_angle_gamma   109.47436911
_symmetry_Int_Tables_number   1
_chemical_formula_structural   Ac3TlI3
_chemical_formula_sum   'Ac12 Tl4 I12'
_cell_volume   1238.39704842
_cell_formula_units_Z   4
loop_
 _symmetry_equiv_pos_site_id
 _symmetry_equiv_pos_as_xyz
  1  'x, y, z'
loop_
 _atom_site_type_symbol
 _atom_site_label
 _atom_site_symmetry_multiplicity
 _atom_site_fract_x
 _atom_site_fract_y
 _atom_site_fract_z
 _atom_site_occupancy
  Ac  Ac0  1  0.481123  0.490562  0.240561  1
  Ac  Ac1  1  0.750000  0.240562  0.259439  1
  Ac  Ac2  1  0.750000  0.009439  0.490560  1
  Ac  Ac3  1  0.240561  0.481123  0.490561  1
  Ac  Ac4  1  0.259437  0.750001  0.240563  1
  Ac  Ac5  1  0.018879  0.259440  0.009440  1
  Ac  Ac6  1  0.009438  0.018875  0.259437  1
  Ac  Ac7  1  0.490561  0.750000  0.009440  1
  Ac  Ac8  1  0.490560  0.240562  0.481123  1
  Ac  Ac9  1  0.009441  0.490562  0.750002  1
  Ac  Ac10  1  0.259440  0.009438  0.018877  1
  Ac  Ac11  1  0.240560  0.259438  0.749999  1
  Tl  Tl12  1  0.250001  0.249999  0.249999  1
  Tl  Tl13  1  0.500000  0.000001  0.250001  1
  Tl  Tl14  1  0.000000  0.250000  0.500000  1
  Tl  Tl15  1  0.250000  0.500000  0.000000  1
  I  I16  1  0.250001  0.755928  0.744072  1
  I  I17  1  0.511856  0.505929  0.755928  1
  I  I18  1  0.988144  0.744071  0.994072  1
  I  I19  1  0.744072  0.250000  0.755928  1
  I  I20  1  0.994072  0.988144  0.744072  1
  I  I21  1  0.249999  0.994071  0.505928  1
  I  I22  1  0.755928  0.511856  0.505929  1
  I  I23  1  0.505928  0.250000  0.994072  1
  I  I24  1  0.755928  0.744072  0.249999  1
  I  I25  1  0.744072  0.994071  0.988144  1
  I  I26  1  0.994072  0.505929  0.250000  1
  I  I27  1  0.505928  0.755928  0.511856  1
