# generated using pymatgen
data_LiPr3Al7Pd
_symmetry_space_group_name_H-M   'P 1'
_cell_length_a   9.46522370
_cell_length_b   9.46522445
_cell_length_c   9.46522400
_cell_angle_alpha   34.81276367
_cell_angle_beta   34.81275714
_cell_angle_gamma   34.81276024
_symmetry_Int_Tables_number   1
_chemical_formula_structural   LiPr3Al7Pd
_chemical_formula_sum   'Li1 Pr3 Al7 Pd1'
_cell_volume   246.69603919
_cell_formula_units_Z   1
loop_
 _symmetry_equiv_pos_site_id
 _symmetry_equiv_pos_as_xyz
  1  'x, y, z'
loop_
 _atom_site_type_symbol
 _atom_site_label
 _atom_site_symmetry_multiplicity
 _atom_site_fract_x
 _atom_site_fract_y
 _atom_site_fract_z
 _atom_site_occupancy
  Li  Li0  1  0.335006  0.335006  0.335006  1
  Pr  Pr1  1  0.000129  0.000129  0.000129  1
  Pr  Pr2  1  0.857798  0.857798  0.857798  1
  Pr  Pr3  1  0.141630  0.141630  0.141630  1
  Al  Al4  1  0.418669  0.418669  0.924109  1
  Al  Al5  1  0.924109  0.418669  0.418669  1
  Al  Al6  1  0.418669  0.924109  0.418669  1
  Al  Al7  1  0.500725  0.500725  0.500725  1
  Al  Al8  1  0.582896  0.073070  0.582896  1
  Al  Al9  1  0.073070  0.582896  0.582896  1
  Al  Al10  1  0.582896  0.582896  0.073070  1
  Pd  Pd11  1  0.664403  0.664403  0.664403  1
