# generated using pymatgen
data_Pr3Nd(PaOs3)2
_symmetry_space_group_name_H-M   'P 1'
_cell_length_a   5.89558400
_cell_length_b   5.89558269
_cell_length_c   8.42813800
_cell_angle_alpha   90.00000000
_cell_angle_beta   90.00000000
_cell_angle_gamma   120.00000736
_symmetry_Int_Tables_number   1
_chemical_formula_structural   Pr3Nd(PaOs3)2
_chemical_formula_sum   'Pr3 Nd1 Pa2 Os6'
_cell_volume   253.69727593
_cell_formula_units_Z   1
loop_
 _symmetry_equiv_pos_site_id
 _symmetry_equiv_pos_as_xyz
  1  'x, y, z'
loop_
 _atom_site_type_symbol
 _atom_site_label
 _atom_site_symmetry_multiplicity
 _atom_site_fract_x
 _atom_site_fract_y
 _atom_site_fract_z
 _atom_site_occupancy
  Pr  Pr0  1  0.333333  0.666667  0.434932  1
  Pr  Pr1  1  0.666667  0.333333  0.565024  1
  Pr  Pr2  1  0.666667  0.333333  0.935025  1
  Nd  Nd3  1  0.333333  0.666667  0.064919  1
  Pa  Pa4  1  0.000000  0.000000  0.000005  1
  Pa  Pa5  1  0.000000  0.000000  0.499995  1
  Os  Os6  1  0.167268  0.334534  0.750108  1
  Os  Os7  1  0.167268  0.832732  0.750108  1
  Os  Os8  1  0.334408  0.167205  0.249926  1
  Os  Os9  1  0.832795  0.665592  0.249926  1
  Os  Os10  1  0.665466  0.832732  0.750108  1
  Os  Os11  1  0.832795  0.167205  0.249926  1
