# generated using pymatgen
data_Gd10Si16Hg
_symmetry_space_group_name_H-M   'P 1'
_cell_length_a   11.23147078
_cell_length_b   11.22883020
_cell_length_c   11.23147200
_cell_angle_alpha   144.96394972
_cell_angle_beta   136.28416120
_cell_angle_gamma   57.21405881
_symmetry_Int_Tables_number   1
_chemical_formula_structural   Gd10Si16Hg
_chemical_formula_sum   'Gd10 Si16 Hg1'
_cell_volume   557.44247694
_cell_formula_units_Z   1
loop_
 _symmetry_equiv_pos_site_id
 _symmetry_equiv_pos_as_xyz
  1  'x, y, z'
loop_
 _atom_site_type_symbol
 _atom_site_label
 _atom_site_symmetry_multiplicity
 _atom_site_fract_x
 _atom_site_fract_y
 _atom_site_fract_z
 _atom_site_occupancy
  Gd  Gd0  1  0.054648  0.567813  0.026756  1
  Gd  Gd1  1  0.353423  0.369589  0.520429  1
  Gd  Gd2  1  0.157783  0.164840  0.522734  1
  Gd  Gd3  1  0.449565  0.963672  0.014130  1
  Gd  Gd4  1  0.642107  0.164840  0.007059  1
  Gd  Gd5  1  0.949543  0.963672  0.514108  1
  Gd  Gd6  1  0.849160  0.369589  0.016166  1
  Gd  Gd7  1  0.541057  0.567813  0.513165  1
  Gd  Gd8  1  0.256247  0.766874  0.016636  1
  Gd  Gd9  1  0.750238  0.766874  0.510626  1
  Si  Si10  1  0.114262  0.071410  0.957149  1
  Si  Si11  1  0.797056  0.159748  0.362691  1
  Si  Si12  1  0.299935  0.900208  0.600274  1
  Si  Si13  1  0.399832  0.499766  0.099935  1
  Si  Si14  1  0.876881  0.861179  0.984299  1
  Si  Si15  1  0.104738  0.711459  0.606722  1
  Si  Si16  1  0.199467  0.591133  0.391666  1
  Si  Si17  1  0.701200  0.296290  0.595091  1
  Si  Si18  1  0.004700  0.431218  0.426518  1
  Si  Si19  1  0.713420  0.665408  0.951988  1
  Si  Si20  1  0.601775  0.702257  0.100481  1
  Si  Si21  1  0.997655  0.078642  0.080988  1
  Si  Si22  1  0.501522  0.402126  0.900604  1
  Si  Si23  1  0.287735  0.241578  0.953845  1
  Si  Si24  1  0.588385  0.041756  0.453370  1
  Si  Si25  1  0.411851  0.861938  0.450086  1
  Hg  Hg26  1  0.895818  0.507224  0.611406  1
