# generated using pymatgen
data_Ho5Tm11Cd4TcNi3
_symmetry_space_group_name_H-M   'P 1'
_cell_length_a   9.50399344
_cell_length_b   9.50078668
_cell_length_c   9.50078612
_cell_angle_alpha   59.40557727
_cell_angle_beta   59.41414918
_cell_angle_gamma   59.41414718
_symmetry_Int_Tables_number   1
_chemical_formula_structural   Ho5Tm11Cd4TcNi3
_chemical_formula_sum   'Ho5 Tm11 Cd4 Tc1 Ni3'
_cell_volume   598.48477086
_cell_formula_units_Z   1
loop_
 _symmetry_equiv_pos_site_id
 _symmetry_equiv_pos_as_xyz
  1  'x, y, z'
loop_
 _atom_site_type_symbol
 _atom_site_label
 _atom_site_symmetry_multiplicity
 _atom_site_fract_x
 _atom_site_fract_y
 _atom_site_fract_z
 _atom_site_occupancy
  Ho  Ho0  1  0.554992  0.939950  0.939950  1
  Ho  Ho1  1  0.565465  0.935946  0.565132  1
  Ho  Ho2  1  0.939964  0.555108  0.939566  1
  Ho  Ho3  1  0.565465  0.565132  0.935946  1
  Ho  Ho4  1  0.939964  0.939566  0.555108  1
  Tm  Tm5  1  0.346440  0.346826  0.346826  1
  Tm  Tm6  1  0.352068  0.352256  0.954127  1
  Tm  Tm7  1  0.352068  0.954127  0.352256  1
  Tm  Tm8  1  0.953768  0.352358  0.352358  1
  Tm  Tm9  1  0.810881  0.187087  0.187087  1
  Tm  Tm10  1  0.186567  0.811582  0.811582  1
  Tm  Tm11  1  0.186930  0.810706  0.187383  1
  Tm  Tm12  1  0.811778  0.186680  0.811397  1
  Tm  Tm13  1  0.186930  0.187383  0.810706  1
  Tm  Tm14  1  0.811778  0.811397  0.186680  1
  Tm  Tm15  1  0.936492  0.564912  0.564912  1
  Cd  Cd16  1  0.579995  0.579636  0.579636  1
  Cd  Cd17  1  0.579435  0.579525  0.256313  1
  Cd  Cd18  1  0.579435  0.256313  0.579525  1
  Cd  Cd19  1  0.255851  0.579562  0.579562  1
  Tc  Tc20  1  0.144059  0.144036  0.144036  1
  Ni  Ni21  1  0.142043  0.142258  0.575523  1
  Ni  Ni22  1  0.142043  0.575523  0.142258  1
  Ni  Ni23  1  0.575585  0.142129  0.142129  1
