# generated using pymatgen
data_DyY6Ho13Pt16
_symmetry_space_group_name_H-M   'P 1'
_cell_length_a   7.48104102
_cell_length_b   7.56172907
_cell_length_c   14.74660101
_cell_angle_alpha   90.00364157
_cell_angle_beta   90.00036748
_cell_angle_gamma   89.99644207
_symmetry_Int_Tables_number   1
_chemical_formula_structural   DyY6Ho13Pt16
_chemical_formula_sum   'Dy1 Y6 Ho13 Pt16'
_cell_volume   834.20939639
_cell_formula_units_Z   1
loop_
 _symmetry_equiv_pos_site_id
 _symmetry_equiv_pos_as_xyz
  1  'x, y, z'
loop_
 _atom_site_type_symbol
 _atom_site_label
 _atom_site_symmetry_multiplicity
 _atom_site_fract_x
 _atom_site_fract_y
 _atom_site_fract_z
 _atom_site_occupancy
  Dy  Dy0  1  0.497857  0.680136  0.093061  1
  Y  Y1  1  0.501942  0.319990  0.592961  1
  Y  Y2  1  0.001902  0.179994  0.907034  1
  Y  Y3  1  0.001761  0.179787  0.592914  1
  Y  Y4  1  0.501844  0.320057  0.907019  1
  Y  Y5  1  0.498097  0.680047  0.407065  1
  Y  Y6  1  0.998136  0.819998  0.092920  1
  Ho  Ho7  1  0.681372  0.988418  0.250067  1
  Ho  Ho8  1  0.181251  0.511641  0.250078  1
  Ho  Ho9  1  0.818732  0.488468  0.749949  1
  Ho  Ho10  1  0.318746  0.011495  0.750028  1
  Ho  Ho11  1  0.656335  0.832513  0.622257  1
  Ho  Ho12  1  0.156305  0.667526  0.877706  1
  Ho  Ho13  1  0.843670  0.332467  0.377774  1
  Ho  Ho14  1  0.343605  0.167510  0.122258  1
  Ho  Ho15  1  0.343504  0.167429  0.377776  1
  Ho  Ho16  1  0.843662  0.332439  0.122299  1
  Ho  Ho17  1  0.156223  0.667632  0.622182  1
  Ho  Ho18  1  0.656355  0.832470  0.877747  1
  Ho  Ho19  1  0.997587  0.819657  0.406884  1
  Pt  Pt20  1  0.816257  0.642366  0.250416  1
  Pt  Pt21  1  0.315844  0.857844  0.249933  1
  Pt  Pt22  1  0.684196  0.141865  0.749985  1
  Pt  Pt23  1  0.184220  0.358158  0.749989  1
  Pt  Pt24  1  0.546651  0.386655  0.249908  1
  Pt  Pt25  1  0.046525  0.113217  0.250223  1
  Pt  Pt26  1  0.953323  0.886472  0.750000  1
  Pt  Pt27  1  0.453325  0.613524  0.749992  1
  Pt  Pt28  1  0.817345  0.533346  0.541834  1
  Pt  Pt29  1  0.317272  0.966860  0.958066  1
  Pt  Pt30  1  0.683835  0.032268  0.457750  1
  Pt  Pt31  1  0.183248  0.467381  0.042153  1
  Pt  Pt32  1  0.182518  0.467790  0.457770  1
  Pt  Pt33  1  0.682675  0.032678  0.042102  1
  Pt  Pt34  1  0.316889  0.966879  0.541894  1
  Pt  Pt35  1  0.816992  0.533022  0.958003  1
