# generated using pymatgen
data_Tb5TmTh2(MgRu)2
_symmetry_space_group_name_H-M   'P 1'
_cell_length_a   9.76943398
_cell_length_b   9.77381810
_cell_length_c   9.77381698
_cell_angle_alpha   59.97033006
_cell_angle_beta   60.01483344
_cell_angle_gamma   60.01483196
_symmetry_Int_Tables_number   1
_chemical_formula_structural   Tb5TmTh2(MgRu)2
_chemical_formula_sum   'Tb10 Tm2 Th4 Mg4 Ru4'
_cell_volume   659.90689992
_cell_formula_units_Z   2
loop_
 _symmetry_equiv_pos_site_id
 _symmetry_equiv_pos_as_xyz
  1  'x, y, z'
loop_
 _atom_site_type_symbol
 _atom_site_label
 _atom_site_symmetry_multiplicity
 _atom_site_fract_x
 _atom_site_fract_y
 _atom_site_fract_z
 _atom_site_occupancy
  Tb  Tb0  1  0.436469  0.063531  0.436469  1
  Tb  Tb1  1  0.063531  0.436469  0.063531  1
  Tb  Tb2  1  0.436469  0.436469  0.063531  1
  Tb  Tb3  1  0.063531  0.063531  0.436469  1
  Tb  Tb4  1  0.185972  0.814028  0.814028  1
  Tb  Tb5  1  0.814028  0.185972  0.185972  1
  Tb  Tb6  1  0.813967  0.186033  0.813967  1
  Tb  Tb7  1  0.186033  0.813967  0.186033  1
  Tb  Tb8  1  0.813967  0.813967  0.186033  1
  Tb  Tb9  1  0.186033  0.186033  0.813967  1
  Tm  Tm10  1  0.063157  0.436843  0.436843  1
  Tm  Tm11  1  0.436843  0.063157  0.063157  1
  Th  Th12  1  0.596471  0.595572  0.595572  1
  Th  Th13  1  0.595572  0.596471  0.212388  1
  Th  Th14  1  0.595572  0.212388  0.596471  1
  Th  Th15  1  0.212388  0.595572  0.595572  1
  Mg  Mg16  1  0.829528  0.829938  0.829938  1
  Mg  Mg17  1  0.829938  0.829528  0.510597  1
  Mg  Mg18  1  0.829938  0.510597  0.829528  1
  Mg  Mg19  1  0.510597  0.829938  0.829938  1
  Ru  Ru20  1  0.393070  0.393890  0.393890  1
  Ru  Ru21  1  0.393890  0.393070  0.819149  1
  Ru  Ru22  1  0.393890  0.819149  0.393070  1
  Ru  Ru23  1  0.819149  0.393890  0.393890  1
