# generated using pymatgen
data_Tm5Mn2Co17P12
_symmetry_space_group_name_H-M   'P 1'
_cell_length_a   11.98610400
_cell_length_b   11.97643303
_cell_length_c   3.64747000
_cell_angle_alpha   90.00000000
_cell_angle_beta   90.00000000
_cell_angle_gamma   119.97331804
_symmetry_Int_Tables_number   1
_chemical_formula_structural   Tm5Mn2Co17P12
_chemical_formula_sum   'Tm5 Mn2 Co17 P12'
_cell_volume   453.57028653
_cell_formula_units_Z   1
loop_
 _symmetry_equiv_pos_site_id
 _symmetry_equiv_pos_as_xyz
  1  'x, y, z'
loop_
 _atom_site_type_symbol
 _atom_site_label
 _atom_site_symmetry_multiplicity
 _atom_site_fract_x
 _atom_site_fract_y
 _atom_site_fract_z
 _atom_site_occupancy
  Tm  Tm0  1  0.666501  0.333294  0.000000  1
  Tm  Tm1  1  0.333499  0.666794  0.000000  1
  Tm  Tm2  1  0.813832  0.814442  0.500000  1
  Tm  Tm3  1  0.186168  0.000609  0.500000  1
  Tm  Tm4  1  0.000000  0.187950  0.500000  1
  Mn  Mn5  1  0.443658  0.443219  0.000000  1
  Mn  Mn6  1  0.556342  0.999561  0.000000  1
  Co  Co7  1  0.874623  0.358754  0.500000  1
  Co  Co8  1  0.643545  0.517041  0.500000  1
  Co  Co9  1  0.483074  0.125978  0.500000  1
  Co  Co10  1  0.356455  0.873495  0.500000  1
  Co  Co11  1  0.516926  0.642904  0.500000  1
  Co  Co12  1  0.125377  0.484131  0.500000  1
  Co  Co13  1  0.000000  0.551901  0.000000  1
  Co  Co14  1  0.801798  0.179431  0.000000  1
  Co  Co15  1  0.822971  0.622769  0.000000  1
  Co  Co16  1  0.375894  0.197697  0.000000  1
  Co  Co17  1  0.177029  0.799798  0.000000  1
  Co  Co18  1  0.624106  0.821803  0.000000  1
  Co  Co19  1  0.198202  0.377634  0.000000  1
  Co  Co20  1  0.282784  0.283261  0.500000  1
  Co  Co21  1  0.717216  0.000478  0.500000  1
  Co  Co22  1  0.000000  0.715440  0.500000  1
  Co  Co23  1  0.000000  0.999134  0.000000  1
  P  P24  1  0.685445  0.166677  0.500000  1
  P  P25  1  0.834238  0.519277  0.500000  1
  P  P26  1  0.480440  0.314230  0.500000  1
  P  P27  1  0.165762  0.685039  0.500000  1
  P  P28  1  0.519560  0.833790  0.500000  1
  P  P29  1  0.314555  0.481233  0.500000  1
  P  P30  1  0.179098  0.179914  0.000000  1
  P  P31  1  0.820902  0.000815  0.000000  1
  P  P32  1  0.000000  0.819533  0.000000  1
  P  P33  1  0.636790  0.635980  0.000000  1
  P  P34  1  0.363210  0.999190  0.000000  1
  P  P35  1  0.000000  0.366802  0.000000  1
