# generated using pymatgen
data_Sm5NpI18
_symmetry_space_group_name_H-M   'P 1'
_cell_length_a   7.90516502
_cell_length_b   7.90516535
_cell_length_c   25.46165400
_cell_angle_alpha   89.99554979
_cell_angle_beta   89.99555704
_cell_angle_gamma   119.99646214
_symmetry_Int_Tables_number   1
_chemical_formula_structural   Sm5NpI18
_chemical_formula_sum   'Sm5 Np1 I18'
_cell_volume   1378.01713818
_cell_formula_units_Z   1
loop_
 _symmetry_equiv_pos_site_id
 _symmetry_equiv_pos_as_xyz
  1  'x, y, z'
loop_
 _atom_site_type_symbol
 _atom_site_label
 _atom_site_symmetry_multiplicity
 _atom_site_fract_x
 _atom_site_fract_y
 _atom_site_fract_z
 _atom_site_occupancy
  Sm  Sm0  1  0.221546  0.110724  0.999969  1
  Sm  Sm1  1  0.554634  0.777226  0.999978  1
  Sm  Sm2  1  0.222774  0.445367  0.333355  1
  Sm  Sm3  1  0.889276  0.778454  0.333364  1
  Sm  Sm4  1  0.888561  0.111440  0.666666  1
  Np  Np5  1  0.222372  0.777626  0.666666  1
  I  I6  1  0.520947  0.444064  0.071590  1
  I  I7  1  0.888074  0.077060  0.071449  1
  I  I8  1  0.255310  0.811317  0.071609  1
  I  I9  1  0.188683  0.744690  0.261724  1
  I  I10  1  0.922941  0.111927  0.261885  1
  I  I11  1  0.555935  0.479053  0.261743  1
  I  I12  1  0.923323  0.479077  0.405081  1
  I  I13  1  0.189171  0.111894  0.404900  1
  I  I14  1  0.556078  0.744817  0.405027  1
  I  I15  1  0.558633  0.812207  0.594936  1
  I  I16  1  0.189802  0.079026  0.594884  1
  I  I17  1  0.920777  0.441817  0.595048  1
  I  I18  1  0.558182  0.079223  0.738285  1
  I  I19  1  0.920975  0.810198  0.738449  1
  I  I20  1  0.187792  0.441367  0.738397  1
  I  I21  1  0.255184  0.443922  0.928307  1
  I  I22  1  0.888106  0.810830  0.928433  1
  I  I23  1  0.520922  0.076677  0.928253  1
