# generated using pymatgen
data_Y4Lu8In2FeTc2
_symmetry_space_group_name_H-M   'P 1'
_cell_length_a   8.32933292
_cell_length_b   8.32933438
_cell_length_c   8.32933411
_cell_angle_alpha   108.60741451
_cell_angle_beta   108.60742192
_cell_angle_gamma   111.21298813
_symmetry_Int_Tables_number   1
_chemical_formula_structural   Y4Lu8In2FeTc2
_chemical_formula_sum   'Y4 Lu8 In2 Fe1 Tc2'
_cell_volume   444.53584533
_cell_formula_units_Z   1
loop_
 _symmetry_equiv_pos_site_id
 _symmetry_equiv_pos_as_xyz
  1  'x, y, z'
loop_
 _atom_site_type_symbol
 _atom_site_label
 _atom_site_symmetry_multiplicity
 _atom_site_fract_x
 _atom_site_fract_y
 _atom_site_fract_z
 _atom_site_occupancy
  Y  Y0  1  0.301780  0.301780  0.606586  1
  Y  Y1  1  0.695194  0.695194  0.393414  1
  Y  Y2  1  0.695194  0.301780  0.000000  1
  Y  Y3  1  0.301780  0.695194  0.000000  1
  Lu  Lu4  1  0.189095  0.427960  0.238865  1
  Lu  Lu5  1  0.808041  0.572097  0.764056  1
  Lu  Lu6  1  0.189095  0.950229  0.761135  1
  Lu  Lu7  1  0.950229  0.189095  0.761135  1
  Lu  Lu8  1  0.808041  0.043985  0.235944  1
  Lu  Lu9  1  0.043985  0.808041  0.235944  1
  Lu  Lu10  1  0.427960  0.189095  0.238865  1
  Lu  Lu11  1  0.572097  0.808041  0.764056  1
  In  In12  1  0.998177  0.498177  0.500000  1
  In  In13  1  0.498177  0.998177  0.500000  1
  Fe  Fe14  1  0.632489  0.632489  0.000000  1
  Tc  Tc15  1  0.387651  0.387651  0.000000  1
  Tc  Tc16  1  0.001015  0.001015  0.000000  1
