# generated using pymatgen
data_YbFeP2O7
_symmetry_space_group_name_H-M   'P 1'
_cell_length_a   5.50011220
_cell_length_b   5.50008768
_cell_length_c   4.62456627
_cell_angle_alpha   84.16047299
_cell_angle_beta   84.15943024
_cell_angle_gamma   105.07915499
_symmetry_Int_Tables_number   1
_chemical_formula_structural   YbFeP2O7
_chemical_formula_sum   'Yb1 Fe1 P2 O7'
_cell_volume   133.17740826
_cell_formula_units_Z   1
loop_
 _symmetry_equiv_pos_site_id
 _symmetry_equiv_pos_as_xyz
  1  'x, y, z'
loop_
 _atom_site_type_symbol
 _atom_site_label
 _atom_site_symmetry_multiplicity
 _atom_site_fract_x
 _atom_site_fract_y
 _atom_site_fract_z
 _atom_site_occupancy
  Yb  Yb0  1  0.372278  0.627714  0.999997  1
  Fe  Fe1  1  0.992445  0.007562  0.000038  1
  P  P2  1  0.453265  0.114072  0.412034  1
  P  P3  1  0.885922  0.546741  0.587966  1
  O  O4  1  0.275811  0.213704  0.221569  1
  O  O5  1  0.786286  0.724193  0.778435  1
  O  O6  1  0.617903  0.978201  0.240094  1
  O  O7  1  0.021802  0.382100  0.759878  1
  O  O8  1  0.317878  0.959246  0.703962  1
  O  O9  1  0.040748  0.682129  0.296032  1
  O  O10  1  0.620363  0.379637  0.499995  1
