# generated using pymatgen
data_Th8Cr(Si4Tc)3
_symmetry_space_group_name_H-M   'P 1'
_cell_length_a   8.34254400
_cell_length_b   8.34254433
_cell_length_c   8.28251200
_cell_angle_alpha   90.00000000
_cell_angle_beta   90.00000000
_cell_angle_gamma   119.99999074
_symmetry_Int_Tables_number   1
_chemical_formula_structural   Th8Cr(Si4Tc)3
_chemical_formula_sum   'Th8 Cr1 Si12 Tc3'
_cell_volume   499.21747021
_cell_formula_units_Z   1
loop_
 _symmetry_equiv_pos_site_id
 _symmetry_equiv_pos_as_xyz
  1  'x, y, z'
loop_
 _atom_site_type_symbol
 _atom_site_label
 _atom_site_symmetry_multiplicity
 _atom_site_fract_x
 _atom_site_fract_y
 _atom_site_fract_z
 _atom_site_occupancy
  Th  Th0  1  0.498050  0.501950  0.751428  1
  Th  Th1  1  0.498239  0.501761  0.248554  1
  Th  Th2  1  0.003899  0.501950  0.751428  1
  Th  Th3  1  0.003522  0.501761  0.248554  1
  Th  Th4  1  0.498050  0.996101  0.751428  1
  Th  Th5  1  0.498239  0.996478  0.248554  1
  Th  Th6  1  0.000000  0.000000  0.749412  1
  Th  Th7  1  0.000000  0.000000  0.250580  1
  Cr  Cr8  1  0.666667  0.333333  0.500426  1
  Si  Si9  1  0.834229  0.165771  0.999827  1
  Si  Si10  1  0.164941  0.835059  0.000135  1
  Si  Si11  1  0.331544  0.165771  0.999827  1
  Si  Si12  1  0.165773  0.834227  0.499886  1
  Si  Si13  1  0.670117  0.835059  0.000135  1
  Si  Si14  1  0.833656  0.166344  0.500095  1
  Si  Si15  1  0.834229  0.668456  0.999827  1
  Si  Si16  1  0.668453  0.834227  0.499886  1
  Si  Si17  1  0.164941  0.329883  0.000135  1
  Si  Si18  1  0.332690  0.166344  0.500095  1
  Si  Si19  1  0.165773  0.331547  0.499886  1
  Si  Si20  1  0.833656  0.667310  0.500095  1
  Tc  Tc21  1  0.666667  0.333333  0.999950  1
  Tc  Tc22  1  0.333333  0.666667  0.000188  1
  Tc  Tc23  1  0.333333  0.666667  0.499669  1
