# generated using pymatgen
data_YbY(ThPt2)2
_symmetry_space_group_name_H-M   'P 1'
_cell_length_a   4.54399900
_cell_length_b   5.75473104
_cell_length_c   7.21863197
_cell_angle_alpha   88.41300472
_cell_angle_beta   90.00000000
_cell_angle_gamma   90.00000000
_symmetry_Int_Tables_number   1
_chemical_formula_structural   YbY(ThPt2)2
_chemical_formula_sum   'Yb1 Y1 Th2 Pt4'
_cell_volume   188.69115486
_cell_formula_units_Z   1
loop_
 _symmetry_equiv_pos_site_id
 _symmetry_equiv_pos_as_xyz
  1  'x, y, z'
loop_
 _atom_site_type_symbol
 _atom_site_label
 _atom_site_symmetry_multiplicity
 _atom_site_fract_x
 _atom_site_fract_y
 _atom_site_fract_z
 _atom_site_occupancy
  Yb  Yb0  1  0.250000  0.356146  0.680903  1
  Y  Y1  1  0.750000  0.641062  0.320489  1
  Th  Th2  1  0.250000  0.146615  0.185213  1
  Th  Th3  1  0.750000  0.853425  0.815043  1
  Pt  Pt4  1  0.750000  0.154924  0.450941  1
  Pt  Pt5  1  0.250000  0.844694  0.541587  1
  Pt  Pt6  1  0.250000  0.668004  0.046726  1
  Pt  Pt7  1  0.750000  0.335130  0.959097  1
