# generated using pymatgen
data_HoHf3(NiP2)2
_symmetry_space_group_name_H-M   'P 1'
_cell_length_a   3.79958600
_cell_length_b   3.79958650
_cell_length_c   13.13478300
_cell_angle_alpha   90.00000000
_cell_angle_beta   90.00000000
_cell_angle_gamma   120.00001306
_symmetry_Int_Tables_number   1
_chemical_formula_structural   HoHf3(NiP2)2
_chemical_formula_sum   'Ho1 Hf3 Ni2 P4'
_cell_volume   164.22001653
_cell_formula_units_Z   1
loop_
 _symmetry_equiv_pos_site_id
 _symmetry_equiv_pos_as_xyz
  1  'x, y, z'
loop_
 _atom_site_type_symbol
 _atom_site_label
 _atom_site_symmetry_multiplicity
 _atom_site_fract_x
 _atom_site_fract_y
 _atom_site_fract_z
 _atom_site_occupancy
  Ho  Ho0  1  0.333333  0.666667  0.387712  1
  Hf  Hf1  1  0.666667  0.333333  0.621637  1
  Hf  Hf2  1  0.666667  0.333333  0.893240  1
  Hf  Hf3  1  0.333333  0.666667  0.102501  1
  Ni  Ni4  1  0.000000  0.000000  0.231252  1
  Ni  Ni5  1  0.000000  0.000000  0.758430  1
  P  P6  1  0.000000  0.000000  0.513024  1
  P  P7  1  0.000000  0.000000  0.997561  1
  P  P8  1  0.333333  0.666667  0.754451  1
  P  P9  1  0.666667  0.333333  0.240192  1
