# generated using pymatgen
data_Lu4Zn2B4IrRh9
_symmetry_space_group_name_H-M   'P 1'
_cell_length_a   9.46630871
_cell_length_b   9.46630871
_cell_length_c   3.15273000
_cell_angle_alpha   90.00000000
_cell_angle_beta   90.00000000
_cell_angle_gamma   90.18775173
_symmetry_Int_Tables_number   1
_chemical_formula_structural   Lu4Zn2B4IrRh9
_chemical_formula_sum   'Lu4 Zn2 B4 Ir1 Rh9'
_cell_volume   282.51777283
_cell_formula_units_Z   1
loop_
 _symmetry_equiv_pos_site_id
 _symmetry_equiv_pos_as_xyz
  1  'x, y, z'
loop_
 _atom_site_type_symbol
 _atom_site_label
 _atom_site_symmetry_multiplicity
 _atom_site_fract_x
 _atom_site_fract_y
 _atom_site_fract_z
 _atom_site_occupancy
  Lu  Lu0  1  0.675601  0.175601  0.000000  1
  Lu  Lu1  1  0.324399  0.824399  0.000000  1
  Lu  Lu2  1  0.177336  0.322664  0.000000  1
  Lu  Lu3  1  0.822664  0.677336  0.000000  1
  Zn  Zn4  1  0.000000  0.000000  0.000000  1
  Zn  Zn5  1  0.500000  0.500000  0.000000  1
  B  B6  1  0.123450  0.623450  0.000000  1
  B  B7  1  0.876550  0.376550  0.000000  1
  B  B8  1  0.623587  0.876413  0.000000  1
  B  B9  1  0.376413  0.123587  0.000000  1
  Ir  Ir10  1  0.000000  0.500000  0.500000  1
  Rh  Rh11  1  0.219450  0.069469  0.500000  1
  Rh  Rh12  1  0.780550  0.930531  0.500000  1
  Rh  Rh13  1  0.070533  0.781500  0.500000  1
  Rh  Rh14  1  0.718500  0.429467  0.500000  1
  Rh  Rh15  1  0.929467  0.218500  0.500000  1
  Rh  Rh16  1  0.281500  0.570533  0.500000  1
  Rh  Rh17  1  0.569469  0.719450  0.500000  1
  Rh  Rh18  1  0.430531  0.280550  0.500000  1
  Rh  Rh19  1  0.500000  0.000000  0.500000  1
