# generated using pymatgen
data_LaNd(Fe8P5)2
_symmetry_space_group_name_H-M   'P 1'
_cell_length_a   3.59812200
_cell_length_b   9.13379000
_cell_length_c   10.57239400
_cell_angle_alpha   90.00000000
_cell_angle_beta   90.00000000
_cell_angle_gamma   90.00000000
_symmetry_Int_Tables_number   1
_chemical_formula_structural   LaNd(Fe8P5)2
_chemical_formula_sum   'La1 Nd1 Fe16 P10'
_cell_volume   347.45634474
_cell_formula_units_Z   1
loop_
 _symmetry_equiv_pos_site_id
 _symmetry_equiv_pos_as_xyz
  1  'x, y, z'
loop_
 _atom_site_type_symbol
 _atom_site_label
 _atom_site_symmetry_multiplicity
 _atom_site_fract_x
 _atom_site_fract_y
 _atom_site_fract_z
 _atom_site_occupancy
  La  La0  1  0.500000  0.180481  0.500000  1
  Nd  Nd1  1  0.000000  0.818651  0.000000  1
  Fe  Fe2  1  0.000000  0.519010  0.170222  1
  Fe  Fe3  1  0.000000  0.456401  0.500000  1
  Fe  Fe4  1  0.500000  0.890372  0.258187  1
  Fe  Fe5  1  0.500000  0.482487  0.328788  1
  Fe  Fe6  1  0.500000  0.845941  0.500000  1
  Fe  Fe7  1  0.500000  0.307596  0.144660  1
  Fe  Fe8  1  0.500000  0.544151  0.000000  1
  Fe  Fe9  1  0.000000  0.692246  0.644898  1
  Fe  Fe10  1  0.000000  0.153602  0.000000  1
  Fe  Fe11  1  0.000000  0.692246  0.355102  1
  Fe  Fe12  1  0.500000  0.482487  0.671212  1
  Fe  Fe13  1  0.500000  0.307596  0.855340  1
  Fe  Fe14  1  0.000000  0.108875  0.240330  1
  Fe  Fe15  1  0.500000  0.890372  0.741813  1
  Fe  Fe16  1  0.000000  0.519010  0.829778  1
  Fe  Fe17  1  0.000000  0.108875  0.759670  1
  P  P18  1  0.000000  0.338890  0.689562  1
  P  P19  1  0.000000  0.932703  0.379671  1
  P  P20  1  0.000000  0.390518  0.000000  1
  P  P21  1  0.500000  0.662135  0.188045  1
  P  P22  1  0.500000  0.066323  0.119031  1
  P  P23  1  0.500000  0.662135  0.811955  1
  P  P24  1  0.000000  0.932703  0.620329  1
  P  P25  1  0.000000  0.338890  0.310438  1
  P  P26  1  0.500000  0.608977  0.500000  1
  P  P27  1  0.500000  0.066323  0.880969  1
