# generated using pymatgen
data_Y8Ti3Si16Mo9
_symmetry_space_group_name_H-M   'P 1'
_cell_length_a   6.92559525
_cell_length_b   6.92559619
_cell_length_c   12.83217918
_cell_angle_alpha   90.01124703
_cell_angle_beta   89.98875408
_cell_angle_gamma   89.79813708
_symmetry_Int_Tables_number   1
_chemical_formula_structural   Y8Ti3Si16Mo9
_chemical_formula_sum   'Y8 Ti3 Si16 Mo9'
_cell_volume   615.47720823
_cell_formula_units_Z   1
loop_
 _symmetry_equiv_pos_site_id
 _symmetry_equiv_pos_as_xyz
  1  'x, y, z'
loop_
 _atom_site_type_symbol
 _atom_site_label
 _atom_site_symmetry_multiplicity
 _atom_site_fract_x
 _atom_site_fract_y
 _atom_site_fract_z
 _atom_site_occupancy
  Y  Y0  1  0.001486  0.338101  0.217132  1
  Y  Y1  1  0.160605  0.498704  0.468400  1
  Y  Y2  1  0.840178  0.499934  0.968462  1
  Y  Y3  1  0.498704  0.160605  0.531600  1
  Y  Y4  1  0.499934  0.840178  0.031538  1
  Y  Y5  1  0.002539  0.661481  0.718975  1
  Y  Y6  1  0.338101  0.001486  0.782868  1
  Y  Y7  1  0.661481  0.002539  0.281025  1
  Ti  Ti8  1  0.330021  0.667588  0.248334  1
  Ti  Ti9  1  0.667588  0.330021  0.751666  1
  Ti  Ti10  1  0.831559  0.831559  0.500000  1
  Si  Si11  1  0.040802  0.288748  0.814460  1
  Si  Si12  1  0.213114  0.535232  0.060793  1
  Si  Si13  1  0.789129  0.459338  0.563439  1
  Si  Si14  1  0.535232  0.213114  0.939207  1
  Si  Si15  1  0.459338  0.789129  0.436561  1
  Si  Si16  1  0.960793  0.709349  0.313251  1
  Si  Si17  1  0.288748  0.040802  0.185540  1
  Si  Si18  1  0.709349  0.960793  0.686749  1
  Si  Si19  1  0.299115  0.371894  0.683785  1
  Si  Si20  1  0.124954  0.803282  0.934404  1
  Si  Si21  1  0.872326  0.201134  0.433818  1
  Si  Si22  1  0.803282  0.124954  0.065596  1
  Si  Si23  1  0.201134  0.872326  0.566182  1
  Si  Si24  1  0.703661  0.626976  0.184318  1
  Si  Si25  1  0.371894  0.299115  0.316215  1
  Si  Si26  1  0.626976  0.703661  0.815682  1
  Mo  Mo27  1  0.993411  0.160035  0.624497  1
  Mo  Mo28  1  0.343301  0.498090  0.872525  1
  Mo  Mo29  1  0.660253  0.507085  0.374190  1
  Mo  Mo30  1  0.498090  0.343301  0.127475  1
  Mo  Mo31  1  0.507085  0.660253  0.625810  1
  Mo  Mo32  1  0.005351  0.832312  0.124936  1
  Mo  Mo33  1  0.160035  0.993411  0.375503  1
  Mo  Mo34  1  0.832312  0.005351  0.875064  1
  Mo  Mo35  1  0.168119  0.168119  0.000000  1
