# generated using pymatgen
data_La4Nd3Ho3Sn8
_symmetry_space_group_name_H-M   'P 1'
_cell_length_a   8.29482400
_cell_length_b   8.45760631
_cell_length_c   15.97661700
_cell_angle_alpha   89.98456776
_cell_angle_beta   90.00000000
_cell_angle_gamma   90.00000000
_symmetry_Int_Tables_number   1
_chemical_formula_structural   La4Nd3Ho3Sn8
_chemical_formula_sum   'La8 Nd6 Ho6 Sn16'
_cell_volume   1120.82923246
_cell_formula_units_Z   2
loop_
 _symmetry_equiv_pos_site_id
 _symmetry_equiv_pos_as_xyz
  1  'x, y, z'
loop_
 _atom_site_type_symbol
 _atom_site_label
 _atom_site_symmetry_multiplicity
 _atom_site_fract_x
 _atom_site_fract_y
 _atom_site_fract_z
 _atom_site_occupancy
  La  La0  1  0.517636  0.320405  0.901710  1
  La  La1  1  0.017636  0.179595  0.598290  1
  La  La2  1  0.482297  0.680042  0.403447  1
  La  La3  1  0.982297  0.819958  0.096553  1
  La  La4  1  0.482101  0.680469  0.097420  1
  La  La5  1  0.982101  0.819531  0.402580  1
  La  La6  1  0.517989  0.320309  0.598134  1
  La  La7  1  0.017989  0.179691  0.901866  1
  Nd  Nd8  1  0.365766  0.836767  0.878647  1
  Nd  Nd9  1  0.865766  0.663233  0.621353  1
  Nd  Nd10  1  0.634739  0.163899  0.378454  1
  Nd  Nd11  1  0.134739  0.336101  0.121546  1
  Nd  Nd12  1  0.636259  0.163083  0.119788  1
  Nd  Nd13  1  0.136259  0.336917  0.380212  1
  Ho  Ho14  1  0.362917  0.837765  0.623613  1
  Ho  Ho15  1  0.862917  0.662235  0.876387  1
  Ho  Ho16  1  0.197800  0.503808  0.749630  1
  Ho  Ho17  1  0.697800  0.996192  0.750370  1
  Ho  Ho18  1  0.802146  0.497950  0.249841  1
  Ho  Ho19  1  0.302146  0.002050  0.250159  1
  Sn  Sn20  1  0.296485  0.036195  0.044084  1
  Sn  Sn21  1  0.796485  0.463805  0.455916  1
  Sn  Sn22  1  0.697178  0.961897  0.544673  1
  Sn  Sn23  1  0.197178  0.538103  0.955327  1
  Sn  Sn24  1  0.707186  0.959142  0.955181  1
  Sn  Sn25  1  0.207186  0.540858  0.544819  1
  Sn  Sn26  1  0.297930  0.033842  0.458883  1
  Sn  Sn27  1  0.797930  0.466158  0.041117  1
  Sn  Sn28  1  0.563212  0.621305  0.749954  1
  Sn  Sn29  1  0.063212  0.878695  0.750046  1
  Sn  Sn30  1  0.436825  0.380548  0.249833  1
  Sn  Sn31  1  0.936825  0.119452  0.250167  1
  Sn  Sn32  1  0.325567  0.142646  0.749187  1
  Sn  Sn33  1  0.825567  0.357354  0.750813  1
  Sn  Sn34  1  0.675965  0.855862  0.250019  1
  Sn  Sn35  1  0.175965  0.644138  0.249981  1
