# generated using pymatgen
data_RbSm(GaO2)4
_symmetry_space_group_name_H-M   'P 1'
_cell_length_a   6.79384248
_cell_length_b   6.79384220
_cell_length_c   6.79384222
_cell_angle_alpha   134.23320150
_cell_angle_beta   103.39533688
_cell_angle_gamma   94.05711314
_symmetry_Int_Tables_number   1
_chemical_formula_structural   RbSm(GaO2)4
_chemical_formula_sum   'Rb1 Sm1 Ga4 O8'
_cell_volume   206.06616264
_cell_formula_units_Z   1
loop_
 _symmetry_equiv_pos_site_id
 _symmetry_equiv_pos_as_xyz
  1  'x, y, z'
loop_
 _atom_site_type_symbol
 _atom_site_label
 _atom_site_symmetry_multiplicity
 _atom_site_fract_x
 _atom_site_fract_y
 _atom_site_fract_z
 _atom_site_occupancy
  Rb  Rb0  1  0.000000  0.005824  0.005824  1
  Sm  Sm1  1  0.500000  0.913570  0.413570  1
  Ga  Ga2  1  0.877090  0.626401  0.161161  1
  Ga  Ga3  1  0.534760  0.284071  0.161161  1
  Ga  Ga4  1  0.122910  0.284071  0.749311  1
  Ga  Ga5  1  0.465240  0.626401  0.749311  1
  O  O6  1  0.478158  0.271868  0.410269  1
  O  O7  1  0.521842  0.932111  0.793712  1
  O  O8  1  0.778428  0.591714  0.370142  1
  O  O9  1  0.221572  0.591714  0.813285  1
  O  O10  1  0.138400  0.932111  0.410269  1
  O  O11  1  0.861600  0.271868  0.793712  1
  O  O12  1  0.323881  0.417769  0.093887  1
  O  O13  1  0.676119  0.770006  0.093887  1
