# generated using pymatgen
data_La2Si2P4Pd21
_symmetry_space_group_name_H-M   'P 1'
_cell_length_a   8.70352842
_cell_length_b   8.70356405
_cell_length_c   8.70172600
_cell_angle_alpha   60.00681587
_cell_angle_beta   60.00693541
_cell_angle_gamma   60.03586528
_symmetry_Int_Tables_number   1
_chemical_formula_structural   La2Si2P4Pd21
_chemical_formula_sum   'La2 Si2 P4 Pd21'
_cell_volume   466.27874266
_cell_formula_units_Z   1
loop_
 _symmetry_equiv_pos_site_id
 _symmetry_equiv_pos_as_xyz
  1  'x, y, z'
loop_
 _atom_site_type_symbol
 _atom_site_label
 _atom_site_symmetry_multiplicity
 _atom_site_fract_x
 _atom_site_fract_y
 _atom_site_fract_z
 _atom_site_occupancy
  La  La0  1  0.749932  0.749940  0.750766  1
  La  La1  1  0.250064  0.250065  0.250640  1
  Si  Si2  1  0.738396  0.261605  0.739858  1
  Si  Si3  1  0.261606  0.738394  0.739856  1
  P  P4  1  0.738322  0.738321  0.263322  1
  P  P5  1  0.260366  0.739634  0.262124  1
  P  P6  1  0.739632  0.260368  0.262125  1
  P  P7  1  0.261678  0.261678  0.739965  1
  Pd  Pd8  1  0.000000  0.000000  0.997257  1
  Pd  Pd9  1  0.613305  0.613305  0.159864  1
  Pd  Pd10  1  0.613327  0.158782  0.612993  1
  Pd  Pd11  1  0.158781  0.613326  0.612990  1
  Pd  Pd12  1  0.614761  0.614757  0.612803  1
  Pd  Pd13  1  0.385243  0.385238  0.842322  1
  Pd  Pd14  1  0.386674  0.841219  0.385096  1
  Pd  Pd15  1  0.841219  0.386673  0.385102  1
  Pd  Pd16  1  0.386694  0.386695  0.386477  1
  Pd  Pd17  1  0.000000  0.999998  0.343231  1
  Pd  Pd18  1  0.656197  0.000897  0.342067  1
  Pd  Pd19  1  0.000896  0.656200  0.342065  1
  Pd  Pd20  1  0.655104  0.344897  0.002312  1
  Pd  Pd21  1  0.999102  0.343804  0.999160  1
  Pd  Pd22  1  0.003029  0.343913  0.654637  1
  Pd  Pd23  1  0.344897  0.655103  0.002315  1
  Pd  Pd24  1  0.343916  0.003027  0.654635  1
  Pd  Pd25  1  0.343799  0.999105  0.999161  1
  Pd  Pd26  1  0.000000  0.000001  0.653700  1
  Pd  Pd27  1  0.996973  0.656083  0.001578  1
  Pd  Pd28  1  0.656087  0.996972  0.001579  1
