# generated using pymatgen
data_Ga3Si3(B4Ir9)2
_symmetry_space_group_name_H-M   'P 1'
_cell_length_a   9.01000900
_cell_length_b   9.01000989
_cell_length_c   5.74610300
_cell_angle_alpha   90.00000000
_cell_angle_beta   90.00000000
_cell_angle_gamma   119.99999306
_symmetry_Int_Tables_number   1
_chemical_formula_structural   Ga3Si3(B4Ir9)2
_chemical_formula_sum   'Ga3 Si3 B8 Ir18'
_cell_volume   403.97506654
_cell_formula_units_Z   1
loop_
 _symmetry_equiv_pos_site_id
 _symmetry_equiv_pos_as_xyz
  1  'x, y, z'
loop_
 _atom_site_type_symbol
 _atom_site_label
 _atom_site_symmetry_multiplicity
 _atom_site_fract_x
 _atom_site_fract_y
 _atom_site_fract_z
 _atom_site_occupancy
  Ga  Ga0  1  0.445953  0.986417  0.250000  1
  Ga  Ga1  1  0.540463  0.554047  0.250000  1
  Ga  Ga2  1  0.013583  0.459537  0.250000  1
  Si  Si3  1  0.471328  0.017292  0.750000  1
  Si  Si4  1  0.545965  0.528672  0.750000  1
  Si  Si5  1  0.982708  0.454035  0.750000  1
  B  B6  1  0.811121  0.001509  0.503036  1
  B  B7  1  0.811121  0.001509  0.996964  1
  B  B8  1  0.998491  0.809612  0.503036  1
  B  B9  1  0.190388  0.188879  0.503036  1
  B  B10  1  0.190388  0.188879  0.996964  1
  B  B11  1  0.998491  0.809612  0.996964  1
  B  B12  1  0.666667  0.333333  0.250000  1
  B  B13  1  0.333333  0.666667  0.750000  1
  Ir  Ir14  1  0.813134  0.533983  0.505261  1
  Ir  Ir15  1  0.534308  0.818415  0.503891  1
  Ir  Ir16  1  0.996793  0.190663  0.750000  1
  Ir  Ir17  1  0.284106  0.465692  0.503891  1
  Ir  Ir18  1  0.006073  0.183960  0.250000  1
  Ir  Ir19  1  0.720850  0.186866  0.505261  1
  Ir  Ir20  1  0.816040  0.822114  0.250000  1
  Ir  Ir21  1  0.181585  0.715894  0.503891  1
  Ir  Ir22  1  0.466017  0.279150  0.505261  1
  Ir  Ir23  1  0.813134  0.533983  0.994739  1
  Ir  Ir24  1  0.466017  0.279150  0.994739  1
  Ir  Ir25  1  0.193871  0.003207  0.750000  1
  Ir  Ir26  1  0.177886  0.993927  0.250000  1
  Ir  Ir27  1  0.181585  0.715894  0.996109  1
  Ir  Ir28  1  0.809337  0.806129  0.750000  1
  Ir  Ir29  1  0.720850  0.186866  0.994739  1
  Ir  Ir30  1  0.284106  0.465692  0.996109  1
  Ir  Ir31  1  0.534308  0.818415  0.996109  1
