# generated using pymatgen
data_MgPb(ClO4)4
_symmetry_space_group_name_H-M   'P 1'
_cell_length_a   5.12186956
_cell_length_b   7.58060970
_cell_length_c   9.18889776
_cell_angle_alpha   90.25906325
_cell_angle_beta   91.58916905
_cell_angle_gamma   98.43293914
_symmetry_Int_Tables_number   1
_chemical_formula_structural   MgPb(ClO4)4
_chemical_formula_sum   'Mg1 Pb1 Cl4 O16'
_cell_volume   352.76991175
_cell_formula_units_Z   1
loop_
 _symmetry_equiv_pos_site_id
 _symmetry_equiv_pos_as_xyz
  1  'x, y, z'
loop_
 _atom_site_type_symbol
 _atom_site_label
 _atom_site_symmetry_multiplicity
 _atom_site_fract_x
 _atom_site_fract_y
 _atom_site_fract_z
 _atom_site_occupancy
  Mg  Mg0  1  0.000000  0.000000  0.000000  1
  Pb  Pb1  1  0.500000  0.500000  0.500000  1
  Cl  Cl2  1  0.564878  0.237255  0.152472  1
  Cl  Cl3  1  0.947769  0.231338  0.685708  1
  Cl  Cl4  1  0.435122  0.762745  0.847528  1
  Cl  Cl5  1  0.052231  0.768662  0.314292  1
  O  O6  1  0.568068  0.259853  0.311459  1
  O  O7  1  0.941715  0.190606  0.841516  1
  O  O8  1  0.431932  0.740147  0.688541  1
  O  O9  1  0.058285  0.809394  0.158484  1
  O  O10  1  0.287627  0.193158  0.102294  1
  O  O11  1  0.222321  0.245443  0.639164  1
  O  O12  1  0.712373  0.806842  0.897706  1
  O  O13  1  0.777679  0.754557  0.360836  1
  O  O14  1  0.699870  0.082133  0.122859  1
  O  O15  1  0.863908  0.409397  0.669024  1
  O  O16  1  0.300130  0.917867  0.877141  1
  O  O17  1  0.136092  0.590603  0.330976  1
  O  O18  1  0.689287  0.394041  0.082991  1
  O  O19  1  0.777656  0.099466  0.602500  1
  O  O20  1  0.310713  0.605959  0.917009  1
  O  O21  1  0.222344  0.900534  0.397500  1
