# generated using pymatgen
data_Tb2Dy(HoAl6)3
_symmetry_space_group_name_H-M   'P 1'
_cell_length_a   14.41602538
_cell_length_b   14.41602524
_cell_length_c   14.41602700
_cell_angle_alpha   24.94923346
_cell_angle_beta   24.94923466
_cell_angle_gamma   24.94923268
_symmetry_Int_Tables_number   1
_chemical_formula_structural   Tb2Dy(HoAl6)3
_chemical_formula_sum   'Tb2 Dy1 Ho3 Al18'
_cell_volume   468.93813010
_cell_formula_units_Z   1
loop_
 _symmetry_equiv_pos_site_id
 _symmetry_equiv_pos_as_xyz
  1  'x, y, z'
loop_
 _atom_site_type_symbol
 _atom_site_label
 _atom_site_symmetry_multiplicity
 _atom_site_fract_x
 _atom_site_fract_y
 _atom_site_fract_z
 _atom_site_occupancy
  Tb  Tb0  1  0.999915  0.999915  0.999915  1
  Tb  Tb1  1  0.500063  0.500063  0.500063  1
  Dy  Dy2  1  0.608499  0.608499  0.608499  1
  Ho  Ho3  1  0.108525  0.108525  0.108525  1
  Ho  Ho4  1  0.891458  0.891458  0.891458  1
  Ho  Ho5  1  0.391307  0.391307  0.391307  1
  Al  Al6  1  0.927570  0.368732  0.368732  1
  Al  Al7  1  0.427141  0.868885  0.868885  1
  Al  Al8  1  0.368732  0.368732  0.927570  1
  Al  Al9  1  0.868885  0.868885  0.427141  1
  Al  Al10  1  0.368732  0.927570  0.368732  1
  Al  Al11  1  0.868885  0.427141  0.868885  1
  Al  Al12  1  0.572883  0.131082  0.131082  1
  Al  Al13  1  0.072888  0.631014  0.631014  1
  Al  Al14  1  0.131082  0.131082  0.572883  1
  Al  Al15  1  0.631014  0.631014  0.072888  1
  Al  Al16  1  0.131082  0.572883  0.131082  1
  Al  Al17  1  0.631014  0.072888  0.631014  1
  Al  Al18  1  0.500450  0.500450  0.999165  1
  Al  Al19  1  0.000124  0.000124  0.500006  1
  Al  Al20  1  0.500450  0.999165  0.500450  1
  Al  Al21  1  0.000124  0.500006  0.000124  1
  Al  Al22  1  0.999165  0.500450  0.500450  1
  Al  Al23  1  0.500006  0.000124  0.000124  1
