# generated using pymatgen
data_Zr7ScTa2Ti9Si16Mo
_symmetry_space_group_name_H-M   'P 1'
_cell_length_a   6.61981277
_cell_length_b   6.78945414
_cell_length_c   12.96220100
_cell_angle_alpha   90.00854020
_cell_angle_beta   89.93882506
_cell_angle_gamma   90.00779825
_symmetry_Int_Tables_number   1
_chemical_formula_structural   Zr7ScTa2Ti9Si16Mo
_chemical_formula_sum   'Zr7 Sc1 Ta2 Ti9 Si16 Mo1'
_cell_volume   582.58468118
_cell_formula_units_Z   1
loop_
 _symmetry_equiv_pos_site_id
 _symmetry_equiv_pos_as_xyz
  1  'x, y, z'
loop_
 _atom_site_type_symbol
 _atom_site_label
 _atom_site_symmetry_multiplicity
 _atom_site_fract_x
 _atom_site_fract_y
 _atom_site_fract_z
 _atom_site_occupancy
  Zr  Zr0  1  0.499273  0.328134  0.095811  1
  Zr  Zr1  1  0.999830  0.172667  0.405083  1
  Zr  Zr2  1  0.499248  0.673203  0.595365  1
  Zr  Zr3  1  0.998950  0.824003  0.904686  1
  Zr  Zr4  1  0.499107  0.672592  0.904476  1
  Zr  Zr5  1  0.999774  0.826282  0.594862  1
  Zr  Zr6  1  0.498203  0.326814  0.403780  1
  Sc  Sc7  1  0.999810  0.173107  0.094799  1
  Ta  Ta8  1  0.163650  0.495446  0.750052  1
  Ta  Ta9  1  0.337212  0.993355  0.250238  1
  Ti  Ti10  1  0.836267  0.327734  0.624975  1
  Ti  Ti11  1  0.334966  0.173358  0.874766  1
  Ti  Ti12  1  0.167095  0.673501  0.125350  1
  Ti  Ti13  1  0.665436  0.827745  0.375149  1
  Ti  Ti14  1  0.164908  0.671728  0.375222  1
  Ti  Ti15  1  0.664958  0.827373  0.124341  1
  Ti  Ti16  1  0.835480  0.328800  0.874999  1
  Ti  Ti17  1  0.335149  0.172860  0.625332  1
  Ti  Ti18  1  0.663436  0.005552  0.749932  1
  Si  Si19  1  0.668820  0.038899  0.539330  1
  Si  Si20  1  0.169286  0.460104  0.962489  1
  Si  Si21  1  0.330324  0.963060  0.038044  1
  Si  Si22  1  0.831303  0.537911  0.461090  1
  Si  Si23  1  0.331180  0.961263  0.462055  1
  Si  Si24  1  0.833046  0.537147  0.040025  1
  Si  Si25  1  0.666442  0.037916  0.960115  1
  Si  Si26  1  0.168994  0.460788  0.537985  1
  Si  Si27  1  0.540951  0.378033  0.750131  1
  Si  Si28  1  0.036422  0.118388  0.750332  1
  Si  Si29  1  0.464007  0.617628  0.250149  1
  Si  Si30  1  0.960713  0.879897  0.249568  1
  Si  Si31  1  0.792387  0.635418  0.750068  1
  Si  Si32  1  0.297035  0.869621  0.750015  1
  Si  Si33  1  0.201000  0.366368  0.248961  1
  Si  Si34  1  0.708032  0.135676  0.249032  1
  Mo  Mo35  1  0.837307  0.507628  0.251390  1
