# generated using pymatgen
data_Ca2Nd4GaSi3
_symmetry_space_group_name_H-M   'P 1'
_cell_length_a   7.80044165
_cell_length_b   7.80044165
_cell_length_c   4.36841400
_cell_angle_alpha   90.00000000
_cell_angle_beta   90.00000000
_cell_angle_gamma   89.30214322
_symmetry_Int_Tables_number   1
_chemical_formula_structural   Ca2Nd4GaSi3
_chemical_formula_sum   'Ca2 Nd4 Ga1 Si3'
_cell_volume   265.78468999
_cell_formula_units_Z   1
loop_
 _symmetry_equiv_pos_site_id
 _symmetry_equiv_pos_as_xyz
  1  'x, y, z'
loop_
 _atom_site_type_symbol
 _atom_site_label
 _atom_site_symmetry_multiplicity
 _atom_site_fract_x
 _atom_site_fract_y
 _atom_site_fract_z
 _atom_site_occupancy
  Ca  Ca0  1  0.502650  0.499362  0.000000  1
  Ca  Ca1  1  0.999362  0.002650  0.000000  1
  Nd  Nd2  1  0.677371  0.177371  0.500000  1
  Nd  Nd3  1  0.326280  0.826280  0.500000  1
  Nd  Nd4  1  0.178810  0.316782  0.500000  1
  Nd  Nd5  1  0.816782  0.678810  0.500000  1
  Ga  Ga6  1  0.113959  0.613959  0.000000  1
  Si  Si7  1  0.885274  0.385274  0.000000  1
  Si  Si8  1  0.610735  0.888777  0.000000  1
  Si  Si9  1  0.388777  0.110735  0.000000  1
