# generated using pymatgen
data_Er15LuIn4RuRh3
_symmetry_space_group_name_H-M   'P 1'
_cell_length_a   9.56770629
_cell_length_b   9.56960862
_cell_length_c   9.56609200
_cell_angle_alpha   60.01214841
_cell_angle_beta   60.00557422
_cell_angle_gamma   59.96261899
_symmetry_Int_Tables_number   1
_chemical_formula_structural   Er15LuIn4RuRh3
_chemical_formula_sum   'Er15 Lu1 In4 Ru1 Rh3'
_cell_volume   619.23692476
_cell_formula_units_Z   1
loop_
 _symmetry_equiv_pos_site_id
 _symmetry_equiv_pos_as_xyz
  1  'x, y, z'
loop_
 _atom_site_type_symbol
 _atom_site_label
 _atom_site_symmetry_multiplicity
 _atom_site_fract_x
 _atom_site_fract_y
 _atom_site_fract_z
 _atom_site_occupancy
  Er  Er0  1  0.437658  0.061628  0.062087  1
  Er  Er1  1  0.437658  0.061628  0.438628  1
  Er  Er2  1  0.060585  0.436958  0.059934  1
  Er  Er3  1  0.649826  0.048966  0.650604  1
  Er  Er4  1  0.190155  0.810197  0.809790  1
  Er  Er5  1  0.062181  0.061134  0.438343  1
  Er  Er6  1  0.810621  0.192293  0.187253  1
  Er  Er7  1  0.809556  0.809248  0.190598  1
  Er  Er8  1  0.651248  0.650050  0.046718  1
  Er  Er9  1  0.651248  0.650050  0.651983  1
  Er  Er10  1  0.060585  0.436958  0.442523  1
  Er  Er11  1  0.047861  0.649299  0.651420  1
  Er  Er12  1  0.810621  0.192293  0.809833  1
  Er  Er13  1  0.441362  0.437032  0.060803  1
  Er  Er14  1  0.190155  0.810197  0.189859  1
  Lu  Lu15  1  0.188406  0.192439  0.809577  1
  In  In16  1  0.417298  0.747628  0.417538  1
  In  In17  1  0.417508  0.416025  0.749309  1
  In  In18  1  0.749430  0.415879  0.417346  1
  In  In19  1  0.417508  0.416025  0.417159  1
  Ru  Ru20  1  0.859249  0.425412  0.857669  1
  Rh  Rh21  1  0.858042  0.858873  0.424743  1
  Rh  Rh22  1  0.423196  0.860912  0.857946  1
  Rh  Rh23  1  0.858042  0.858873  0.858341  1
