# generated using pymatgen
data_Er5Ni2P12Ir17
_symmetry_space_group_name_H-M   'P 1'
_cell_length_a   12.66593500
_cell_length_b   12.68585207
_cell_length_c   3.94273100
_cell_angle_alpha   90.00000000
_cell_angle_beta   90.00000000
_cell_angle_gamma   119.94807505
_symmetry_Int_Tables_number   1
_chemical_formula_structural   Er5Ni2P12Ir17
_chemical_formula_sum   'Er5 Ni2 P12 Ir17'
_cell_volume   548.92331239
_cell_formula_units_Z   1
loop_
 _symmetry_equiv_pos_site_id
 _symmetry_equiv_pos_as_xyz
  1  'x, y, z'
loop_
 _atom_site_type_symbol
 _atom_site_label
 _atom_site_symmetry_multiplicity
 _atom_site_fract_x
 _atom_site_fract_y
 _atom_site_fract_z
 _atom_site_occupancy
  Er  Er0  1  0.333527  0.665052  0.500000  1
  Er  Er1  1  0.668478  0.334948  0.500000  1
  Er  Er2  1  0.000724  0.811060  0.000000  1
  Er  Er3  1  0.189665  0.188940  0.000000  1
  Er  Er4  1  0.814809  0.000000  0.000000  1
  Ni  Ni5  1  0.999013  0.461809  0.500000  1
  Ni  Ni6  1  0.537204  0.538191  0.500000  1
  P  P7  1  0.000054  0.634462  0.500000  1
  P  P8  1  0.365592  0.365538  0.500000  1
  P  P9  1  0.642643  0.000000  0.500000  1
  P  P10  1  0.515474  0.685568  0.000000  1
  P  P11  1  0.310079  0.826096  0.000000  1
  P  P12  1  0.170544  0.482648  0.000000  1
  P  P13  1  0.483981  0.173904  0.000000  1
  P  P14  1  0.687896  0.517352  0.000000  1
  P  P15  1  0.829905  0.314432  0.000000  1
  P  P16  1  0.999511  0.179277  0.500000  1
  P  P17  1  0.820234  0.820723  0.500000  1
  P  P18  1  0.177488  0.000000  0.500000  1
  Ir  Ir19  1  0.505512  0.866732  0.000000  1
  Ir  Ir20  1  0.132009  0.638701  0.000000  1
  Ir  Ir21  1  0.359811  0.491391  0.000000  1
  Ir  Ir22  1  0.493311  0.361299  0.000000  1
  Ir  Ir23  1  0.868422  0.508609  0.000000  1
  Ir  Ir24  1  0.638781  0.133268  0.000000  1
  Ir  Ir25  1  0.461518  0.000000  0.500000  1
  Ir  Ir26  1  0.998683  0.283621  0.000000  1
  Ir  Ir27  1  0.715062  0.716379  0.000000  1
  Ir  Ir28  1  0.283592  0.000000  0.000000  1
  Ir  Ir29  1  0.623404  0.805844  0.500000  1
  Ir  Ir30  1  0.196629  0.821032  0.500000  1
  Ir  Ir31  1  0.179391  0.374193  0.500000  1
  Ir  Ir32  1  0.375598  0.178968  0.500000  1
  Ir  Ir33  1  0.805197  0.625807  0.500000  1
  Ir  Ir34  1  0.817560  0.194156  0.500000  1
  Ir  Ir35  1  0.998698  0.000000  0.500000  1
