# generated using pymatgen
data_Pr4Y12Cd4PdRu3
_symmetry_space_group_name_H-M   'P 1'
_cell_length_a   9.79149781
_cell_length_b   9.81394194
_cell_length_c   9.81394077
_cell_angle_alpha   59.58777458
_cell_angle_beta   59.39945171
_cell_angle_gamma   59.39945481
_symmetry_Int_Tables_number   1
_chemical_formula_structural   Pr4Y12Cd4PdRu3
_chemical_formula_sum   'Pr4 Y12 Cd4 Pd1 Ru3'
_cell_volume   658.67668644
_cell_formula_units_Z   1
loop_
 _symmetry_equiv_pos_site_id
 _symmetry_equiv_pos_as_xyz
  1  'x, y, z'
loop_
 _atom_site_type_symbol
 _atom_site_label
 _atom_site_symmetry_multiplicity
 _atom_site_fract_x
 _atom_site_fract_y
 _atom_site_fract_z
 _atom_site_occupancy
  Pr  Pr0  1  0.559723  0.935056  0.567633  1
  Pr  Pr1  1  0.937157  0.561089  0.937633  1
  Pr  Pr2  1  0.559723  0.567633  0.935056  1
  Pr  Pr3  1  0.937157  0.937633  0.561089  1
  Y  Y4  1  0.348193  0.350403  0.350403  1
  Y  Y5  1  0.343419  0.354690  0.955462  1
  Y  Y6  1  0.343419  0.955462  0.354690  1
  Y  Y7  1  0.963209  0.344634  0.344634  1
  Y  Y8  1  0.817716  0.187477  0.187477  1
  Y  Y9  1  0.182973  0.814140  0.814140  1
  Y  Y10  1  0.188126  0.811149  0.187407  1
  Y  Y11  1  0.815915  0.189310  0.804412  1
  Y  Y12  1  0.188126  0.187407  0.811149  1
  Y  Y13  1  0.815915  0.804412  0.189310  1
  Y  Y14  1  0.943698  0.553849  0.553849  1
  Y  Y15  1  0.550659  0.945065  0.945065  1
  Cd  Cd16  1  0.581641  0.577587  0.577587  1
  Cd  Cd17  1  0.578248  0.581800  0.260528  1
  Cd  Cd18  1  0.578248  0.260528  0.581800  1
  Cd  Cd19  1  0.259637  0.578367  0.578367  1
  Pd  Pd20  1  0.574103  0.141348  0.141348  1
  Ru  Ru21  1  0.150356  0.136120  0.136120  1
  Ru  Ru22  1  0.141320  0.147369  0.577473  1
  Ru  Ru23  1  0.141320  0.577473  0.147369  1
