# generated using pymatgen
data_Tb2Mn3Al20Rh
_symmetry_space_group_name_H-M   'P 1'
_cell_length_a   6.83433201
_cell_length_b   6.82957101
_cell_length_c   9.07111922
_cell_angle_alpha   90.10479806
_cell_angle_beta   90.20882740
_cell_angle_gamma   97.04348154
_symmetry_Int_Tables_number   1
_chemical_formula_structural   Tb2Mn3Al20Rh
_chemical_formula_sum   'Tb2 Mn3 Al20 Rh1'
_cell_volume   420.20039960
_cell_formula_units_Z   1
loop_
 _symmetry_equiv_pos_site_id
 _symmetry_equiv_pos_as_xyz
  1  'x, y, z'
loop_
 _atom_site_type_symbol
 _atom_site_label
 _atom_site_symmetry_multiplicity
 _atom_site_fract_x
 _atom_site_fract_y
 _atom_site_fract_z
 _atom_site_occupancy
  Tb  Tb0  1  0.877082  0.129376  0.748255  1
  Tb  Tb1  1  0.122918  0.870623  0.251745  1
  Mn  Mn2  1  0.000000  0.500001  0.000000  1
  Mn  Mn3  1  0.500000  0.000001  0.499999  1
  Mn  Mn4  1  0.000001  0.500001  0.500000  1
  Al  Al5  1  0.411589  0.137204  0.745608  1
  Al  Al6  1  0.135154  0.413238  0.250169  1
  Al  Al7  1  0.588411  0.862796  0.254392  1
  Al  Al8  1  0.864846  0.586762  0.749831  1
  Al  Al9  1  0.523383  0.780617  0.743908  1
  Al  Al10  1  0.782876  0.521989  0.250387  1
  Al  Al11  1  0.476617  0.219383  0.256092  1
  Al  Al12  1  0.217124  0.478011  0.749613  1
  Al  Al13  1  0.841900  0.157117  0.403558  1
  Al  Al14  1  0.158100  0.842883  0.596443  1
  Al  Al15  1  0.848408  0.160536  0.098648  1
  Al  Al16  1  0.151592  0.839464  0.901352  1
  Al  Al17  1  0.628203  0.380835  0.952974  1
  Al  Al18  1  0.371797  0.619165  0.047026  1
  Al  Al19  1  0.625612  0.375173  0.545001  1
  Al  Al20  1  0.374388  0.624826  0.454999  1
  Al  Al21  1  0.776275  0.768530  0.002849  1
  Al  Al22  1  0.772072  0.771233  0.501108  1
  Al  Al23  1  0.223725  0.231469  0.997151  1
  Al  Al24  1  0.227927  0.228766  0.498892  1
  Rh  Rh25  1  0.500000  0.000000  0.000000  1
