# generated using pymatgen
data_HfSc(NbP)2
_symmetry_space_group_name_H-M   'P 1'
_cell_length_a   3.54652300
_cell_length_b   6.91793000
_cell_length_c   8.33037300
_cell_angle_alpha   90.00000000
_cell_angle_beta   90.00000000
_cell_angle_gamma   90.00000000
_symmetry_Int_Tables_number   1
_chemical_formula_structural   HfSc(NbP)2
_chemical_formula_sum   'Hf2 Sc2 Nb4 P4'
_cell_volume   204.38235156
_cell_formula_units_Z   2
loop_
 _symmetry_equiv_pos_site_id
 _symmetry_equiv_pos_as_xyz
  1  'x, y, z'
loop_
 _atom_site_type_symbol
 _atom_site_label
 _atom_site_symmetry_multiplicity
 _atom_site_fract_x
 _atom_site_fract_y
 _atom_site_fract_z
 _atom_site_occupancy
  Hf  Hf0  1  0.750000  0.465745  0.168147  1
  Hf  Hf1  1  0.750000  0.965745  0.331853  1
  Sc  Sc2  1  0.250000  0.033772  0.664331  1
  Sc  Sc3  1  0.250000  0.533772  0.835669  1
  Nb  Nb4  1  0.750000  0.862588  0.941932  1
  Nb  Nb5  1  0.250000  0.640219  0.439507  1
  Nb  Nb6  1  0.750000  0.362588  0.558068  1
  Nb  Nb7  1  0.250000  0.140219  0.060493  1
  P  P8  1  0.250000  0.261489  0.358900  1
  P  P9  1  0.250000  0.761489  0.141100  1
  P  P10  1  0.750000  0.736186  0.644996  1
  P  P11  1  0.750000  0.236186  0.855004  1
