# generated using pymatgen
data_Tb7Dy5Tc3Ru
_symmetry_space_group_name_H-M   'P 1'
_cell_length_a   6.30453224
_cell_length_b   7.40235677
_cell_length_c   9.20629108
_cell_angle_alpha   89.99046999
_cell_angle_beta   90.01201840
_cell_angle_gamma   89.93587684
_symmetry_Int_Tables_number   1
_chemical_formula_structural   Tb7Dy5Tc3Ru
_chemical_formula_sum   'Tb7 Dy5 Tc3 Ru1'
_cell_volume   429.64256209
_cell_formula_units_Z   1
loop_
 _symmetry_equiv_pos_site_id
 _symmetry_equiv_pos_as_xyz
  1  'x, y, z'
loop_
 _atom_site_type_symbol
 _atom_site_label
 _atom_site_symmetry_multiplicity
 _atom_site_fract_x
 _atom_site_fract_y
 _atom_site_fract_z
 _atom_site_occupancy
  Tb  Tb0  1  0.335569  0.676555  0.063721  1
  Tb  Tb1  1  0.162640  0.175586  0.437212  1
  Tb  Tb2  1  0.662057  0.324167  0.563045  1
  Tb  Tb3  1  0.874277  0.542572  0.249951  1
  Tb  Tb4  1  0.625451  0.040617  0.249798  1
  Tb  Tb5  1  0.130630  0.457251  0.750113  1
  Tb  Tb6  1  0.373478  0.955943  0.750083  1
  Dy  Dy7  1  0.836636  0.824582  0.937134  1
  Dy  Dy8  1  0.662154  0.323982  0.937000  1
  Dy  Dy9  1  0.836711  0.824268  0.562922  1
  Dy  Dy10  1  0.335631  0.676751  0.436248  1
  Dy  Dy11  1  0.162380  0.175595  0.062634  1
  Tc  Tc12  1  0.038270  0.886059  0.250088  1
  Tc  Tc13  1  0.462423  0.387788  0.249609  1
  Tc  Tc14  1  0.962080  0.113838  0.750545  1
  Ru  Ru15  1  0.539618  0.614447  0.749895  1
