# generated using pymatgen
data_Ho7Er9Zn3InRh4
_symmetry_space_group_name_H-M   'P 1'
_cell_length_a   9.48480496
_cell_length_b   9.47656674
_cell_length_c   9.48273789
_cell_angle_alpha   59.84471218
_cell_angle_beta   59.80329370
_cell_angle_gamma   59.83660895
_symmetry_Int_Tables_number   1
_chemical_formula_structural   Ho7Er9Zn3InRh4
_chemical_formula_sum   'Ho7 Er9 Zn3 In1 Rh4'
_cell_volume   600.34560307
_cell_formula_units_Z   1
loop_
 _symmetry_equiv_pos_site_id
 _symmetry_equiv_pos_as_xyz
  1  'x, y, z'
loop_
 _atom_site_type_symbol
 _atom_site_label
 _atom_site_symmetry_multiplicity
 _atom_site_fract_x
 _atom_site_fract_y
 _atom_site_fract_z
 _atom_site_occupancy
  Ho  Ho0  1  0.190111  0.190404  0.810403  1
  Ho  Ho1  1  0.436657  0.062904  0.062704  1
  Ho  Ho2  1  0.434277  0.059798  0.433534  1
  Ho  Ho3  1  0.062634  0.436602  0.063232  1
  Ho  Ho4  1  0.647047  0.057827  0.646573  1
  Ho  Ho5  1  0.192296  0.808768  0.809584  1
  Ho  Ho6  1  0.062610  0.063328  0.436190  1
  Er  Er7  1  0.810025  0.190164  0.190172  1
  Er  Er8  1  0.809372  0.809175  0.192130  1
  Er  Er9  1  0.646846  0.646629  0.057851  1
  Er  Er10  1  0.648287  0.648094  0.647752  1
  Er  Er11  1  0.059280  0.434741  0.433948  1
  Er  Er12  1  0.057327  0.646934  0.646801  1
  Er  Er13  1  0.808914  0.192306  0.809533  1
  Er  Er14  1  0.434354  0.434381  0.059395  1
  Er  Er15  1  0.190349  0.809648  0.190748  1
  Zn  Zn16  1  0.421710  0.742918  0.421650  1
  Zn  Zn17  1  0.421728  0.421792  0.743056  1
  Zn  Zn18  1  0.743211  0.421838  0.421609  1
  In  In19  1  0.422505  0.423004  0.422441  1
  Rh  Rh20  1  0.855955  0.430613  0.856289  1
  Rh  Rh21  1  0.856912  0.855929  0.429960  1
  Rh  Rh22  1  0.430625  0.855515  0.856959  1
  Rh  Rh23  1  0.856970  0.856688  0.857487  1
