# generated using pymatgen
data_Dy9TmBi6
_symmetry_space_group_name_H-M   'P 1'
_cell_length_a   8.26748400
_cell_length_b   9.52697601
_cell_length_c   12.06452702
_cell_angle_alpha   89.99391746
_cell_angle_beta   90.00000000
_cell_angle_gamma   90.00000000
_symmetry_Int_Tables_number   1
_chemical_formula_structural   Dy9TmBi6
_chemical_formula_sum   'Dy18 Tm2 Bi12'
_cell_volume   950.25186958
_cell_formula_units_Z   2
loop_
 _symmetry_equiv_pos_site_id
 _symmetry_equiv_pos_as_xyz
  1  'x, y, z'
loop_
 _atom_site_type_symbol
 _atom_site_label
 _atom_site_symmetry_multiplicity
 _atom_site_fract_x
 _atom_site_fract_y
 _atom_site_fract_z
 _atom_site_occupancy
  Dy  Dy0  1  0.352129  0.750129  0.215673  1
  Dy  Dy1  1  0.852129  0.749871  0.284327  1
  Dy  Dy2  1  0.647508  0.249929  0.784398  1
  Dy  Dy3  1  0.147508  0.250071  0.715602  1
  Dy  Dy4  1  0.307734  0.063731  0.941663  1
  Dy  Dy5  1  0.807734  0.436269  0.558337  1
  Dy  Dy6  1  0.307430  0.436327  0.941447  1
  Dy  Dy7  1  0.807430  0.063673  0.558553  1
  Dy  Dy8  1  0.692666  0.935949  0.058474  1
  Dy  Dy9  1  0.192666  0.564051  0.441526  1
  Dy  Dy10  1  0.474825  0.249780  0.488004  1
  Dy  Dy11  1  0.974825  0.250220  0.011996  1
  Dy  Dy12  1  0.524228  0.750296  0.511691  1
  Dy  Dy13  1  0.024228  0.749704  0.988309  1
  Dy  Dy14  1  0.312616  0.249998  0.218809  1
  Dy  Dy15  1  0.812616  0.250002  0.281191  1
  Dy  Dy16  1  0.687266  0.749762  0.781354  1
  Dy  Dy17  1  0.187266  0.750238  0.718646  1
  Tm  Tm18  1  0.692716  0.564909  0.058507  1
  Tm  Tm19  1  0.192716  0.935091  0.441493  1
  Bi  Bi20  1  0.407756  0.749471  0.957213  1
  Bi  Bi21  1  0.907756  0.750529  0.542787  1
  Bi  Bi22  1  0.593090  0.251741  0.043271  1
  Bi  Bi23  1  0.093090  0.248259  0.456729  1
  Bi  Bi24  1  0.565135  0.995492  0.325488  1
  Bi  Bi25  1  0.065135  0.504508  0.174512  1
  Bi  Bi26  1  0.434674  0.495563  0.674616  1
  Bi  Bi27  1  0.934674  0.004437  0.825384  1
  Bi  Bi28  1  0.434654  0.004512  0.674424  1
  Bi  Bi29  1  0.934654  0.495488  0.825576  1
  Bi  Bi30  1  0.565575  0.504511  0.325275  1
  Bi  Bi31  1  0.065575  0.995489  0.174725  1
