# generated using pymatgen
data_Ho4Si2TcB8
_symmetry_space_group_name_H-M   'P 1'
_cell_length_a   7.07259800
_cell_length_b   7.07259800
_cell_length_c   7.56373900
_cell_angle_alpha   90.00000000
_cell_angle_beta   90.00000000
_cell_angle_gamma   90.00000000
_symmetry_Int_Tables_number   1
_chemical_formula_structural   Ho4Si2TcB8
_chemical_formula_sum   'Ho8 Si4 Tc2 B16'
_cell_volume   378.35064799
_cell_formula_units_Z   2
loop_
 _symmetry_equiv_pos_site_id
 _symmetry_equiv_pos_as_xyz
  1  'x, y, z'
loop_
 _atom_site_type_symbol
 _atom_site_label
 _atom_site_symmetry_multiplicity
 _atom_site_fract_x
 _atom_site_fract_y
 _atom_site_fract_z
 _atom_site_occupancy
  Ho  Ho0  1  0.679627  0.179627  0.238083  1
  Ho  Ho1  1  0.320373  0.820373  0.761917  1
  Ho  Ho2  1  0.320373  0.820373  0.238083  1
  Ho  Ho3  1  0.820373  0.679627  0.238083  1
  Ho  Ho4  1  0.820373  0.679627  0.761917  1
  Ho  Ho5  1  0.679627  0.179627  0.761917  1
  Ho  Ho6  1  0.179627  0.320373  0.761917  1
  Ho  Ho7  1  0.179627  0.320373  0.238083  1
  Si  Si8  1  0.123928  0.623928  0.500000  1
  Si  Si9  1  0.876072  0.376072  0.500000  1
  Si  Si10  1  0.376072  0.123928  0.500000  1
  Si  Si11  1  0.623928  0.876072  0.500000  1
  Tc  Tc12  1  0.000000  0.000000  0.500000  1
  Tc  Tc13  1  0.500000  0.500000  0.500000  1
  B  B14  1  0.172182  0.040040  0.000000  1
  B  B15  1  0.827818  0.959960  0.000000  1
  B  B16  1  0.959960  0.172182  0.000000  1
  B  B17  1  0.327818  0.540040  0.000000  1
  B  B18  1  0.040040  0.827818  0.000000  1
  B  B19  1  0.672182  0.459960  0.000000  1
  B  B20  1  0.540040  0.672182  0.000000  1
  B  B21  1  0.459960  0.327818  0.000000  1
  B  B22  1  0.090346  0.590346  0.000000  1
  B  B23  1  0.909654  0.409654  0.000000  1
  B  B24  1  0.409654  0.090346  0.000000  1
  B  B25  1  0.590346  0.909654  0.000000  1
  B  B26  1  0.000000  0.000000  0.176118  1
  B  B27  1  0.000000  0.000000  0.823882  1
  B  B28  1  0.500000  0.500000  0.823882  1
  B  B29  1  0.500000  0.500000  0.176118  1
