# generated using pymatgen
data_CsRb4SrNbAs4
_symmetry_space_group_name_H-M   'P 1'
_cell_length_a   10.96488857
_cell_length_b   10.97308083
_cell_length_c   8.16615212
_cell_angle_alpha   88.25320899
_cell_angle_beta   87.58770404
_cell_angle_gamma   121.45679006
_symmetry_Int_Tables_number   1
_chemical_formula_structural   CsRb4SrNbAs4
_chemical_formula_sum   'Cs2 Rb8 Sr2 Nb2 As8'
_cell_volume   835.81022072
_cell_formula_units_Z   2
loop_
 _symmetry_equiv_pos_site_id
 _symmetry_equiv_pos_as_xyz
  1  'x, y, z'
loop_
 _atom_site_type_symbol
 _atom_site_label
 _atom_site_symmetry_multiplicity
 _atom_site_fract_x
 _atom_site_fract_y
 _atom_site_fract_z
 _atom_site_occupancy
  Cs  Cs0  1  0.729817  0.862536  0.153486  1
  Cs  Cs1  1  0.149200  0.286132  0.233266  1
  Rb  Rb2  1  0.466206  0.525798  0.493538  1
  Rb  Rb3  1  0.058588  0.529395  0.497908  1
  Rb  Rb4  1  0.525658  0.466450  0.997755  1
  Rb  Rb5  1  0.528678  0.058764  0.999805  1
  Rb  Rb6  1  0.861285  0.144195  0.681155  1
  Rb  Rb7  1  0.292944  0.151482  0.727946  1
  Rb  Rb8  1  0.856164  0.716099  0.656957  1
  Rb  Rb9  1  0.143630  0.861304  0.183288  1
  Sr  Sr10  1  0.463195  0.937010  0.491683  1
  Sr  Sr11  1  0.935519  0.464413  0.993823  1
  Nb  Nb12  1  0.670297  0.328396  0.396157  1
  Nb  Nb13  1  0.327260  0.671949  0.886710  1
  As  As14  1  0.690819  0.343373  0.702967  1
  As  As15  1  0.343037  0.690440  0.193109  1
  As  As16  1  0.787353  0.199856  0.286700  1
  As  As17  1  0.409777  0.184251  0.330917  1
  As  As18  1  0.800073  0.577244  0.260604  1
  As  As19  1  0.197081  0.790448  0.783636  1
  As  As20  1  0.577433  0.799874  0.752220  1
  As  As21  1  0.185986  0.410589  0.824947  1
