# generated using pymatgen
data_Sm2Hg5
_symmetry_space_group_name_H-M   'P 1'
_cell_length_a   18.50607573
_cell_length_b   18.50607600
_cell_length_c   5.14048700
_cell_angle_alpha   90.00000000
_cell_angle_beta   90.00000000
_cell_angle_gamma   168.11990581
_symmetry_Int_Tables_number   1
_chemical_formula_structural   Sm2Hg5
_chemical_formula_sum   'Sm4 Hg10'
_cell_volume   362.42137822
_cell_formula_units_Z   2
loop_
 _symmetry_equiv_pos_site_id
 _symmetry_equiv_pos_as_xyz
  1  'x, y, z'
loop_
 _atom_site_type_symbol
 _atom_site_label
 _atom_site_symmetry_multiplicity
 _atom_site_fract_x
 _atom_site_fract_y
 _atom_site_fract_z
 _atom_site_occupancy
  Sm  Sm0  1  0.930933  0.069067  0.500000  1
  Sm  Sm1  1  0.069067  0.930933  0.500000  1
  Sm  Sm2  1  0.793340  0.206660  0.500000  1
  Sm  Sm3  1  0.206660  0.793340  0.500000  1
  Hg  Hg4  1  0.637383  0.362617  0.500000  1
  Hg  Hg5  1  0.362617  0.637383  0.500000  1
  Hg  Hg6  1  0.717696  0.282304  0.000000  1
  Hg  Hg7  1  0.282304  0.717696  0.000000  1
  Hg  Hg8  1  0.500000  0.500000  0.500000  1
  Hg  Hg9  1  0.570022  0.429978  0.000000  1
  Hg  Hg10  1  0.429978  0.570022  0.000000  1
  Hg  Hg11  1  0.852452  0.147548  0.000000  1
  Hg  Hg12  1  0.147548  0.852452  0.000000  1
  Hg  Hg13  1  0.000000  0.000000  0.000000  1
