# generated using pymatgen
data_Li2YPa5(Co4P3)4
_symmetry_space_group_name_H-M   'P 1'
_cell_length_a   3.73569100
_cell_length_b   10.46178900
_cell_length_c   12.32755200
_cell_angle_alpha   90.00000000
_cell_angle_beta   90.00000000
_cell_angle_gamma   90.00000000
_symmetry_Int_Tables_number   1
_chemical_formula_structural   Li2YPa5(Co4P3)4
_chemical_formula_sum   'Li2 Y1 Pa5 Co16 P12'
_cell_volume   481.78552301
_cell_formula_units_Z   1
loop_
 _symmetry_equiv_pos_site_id
 _symmetry_equiv_pos_as_xyz
  1  'x, y, z'
loop_
 _atom_site_type_symbol
 _atom_site_label
 _atom_site_symmetry_multiplicity
 _atom_site_fract_x
 _atom_site_fract_y
 _atom_site_fract_z
 _atom_site_occupancy
  Li  Li0  1  0.500000  0.500000  0.152663  1
  Li  Li1  1  0.000000  0.000000  0.848763  1
  Y  Y2  1  0.500000  0.000000  0.480404  1
  Pa  Pa3  1  0.000000  0.500000  0.523828  1
  Pa  Pa4  1  0.500000  0.820818  0.207501  1
  Pa  Pa5  1  0.500000  0.179182  0.207501  1
  Pa  Pa6  1  0.000000  0.680906  0.792566  1
  Pa  Pa7  1  0.000000  0.319094  0.792566  1
  Co  Co8  1  0.500000  0.500000  0.700929  1
  Co  Co9  1  0.000000  0.000000  0.289737  1
  Co  Co10  1  0.000000  0.500000  0.986021  1
  Co  Co11  1  0.500000  0.000000  0.013543  1
  Co  Co12  1  0.500000  0.331745  0.998366  1
  Co  Co13  1  0.500000  0.668255  0.998366  1
  Co  Co14  1  0.000000  0.169421  0.002127  1
  Co  Co15  1  0.000000  0.830579  0.002127  1
  Co  Co16  1  0.500000  0.299861  0.431331  1
  Co  Co17  1  0.500000  0.700139  0.431331  1
  Co  Co18  1  0.000000  0.202098  0.568294  1
  Co  Co19  1  0.000000  0.797902  0.568294  1
  Co  Co20  1  0.500000  0.873469  0.709181  1
  Co  Co21  1  0.500000  0.126531  0.709181  1
  Co  Co22  1  0.000000  0.625817  0.294128  1
  Co  Co23  1  0.000000  0.374183  0.294128  1
  P  P24  1  0.500000  0.500000  0.886021  1
  P  P25  1  0.000000  0.000000  0.110573  1
  P  P26  1  0.500000  0.500000  0.345297  1
  P  P27  1  0.000000  0.000000  0.655405  1
  P  P28  1  0.500000  0.308693  0.612253  1
  P  P29  1  0.500000  0.691307  0.612253  1
  P  P30  1  0.000000  0.186484  0.386430  1
  P  P31  1  0.000000  0.813516  0.386430  1
  P  P32  1  0.500000  0.844001  0.894429  1
  P  P33  1  0.500000  0.155999  0.894429  1
  P  P34  1  0.000000  0.655092  0.106802  1
  P  P35  1  0.000000  0.344908  0.106802  1
