# generated using pymatgen
data_Cs2AsPRu2
_symmetry_space_group_name_H-M   'P 1'
_cell_length_a   4.12841900
_cell_length_b   4.12841900
_cell_length_c   12.09890700
_cell_angle_alpha   90.00000000
_cell_angle_beta   90.00000000
_cell_angle_gamma   90.00000000
_symmetry_Int_Tables_number   1
_chemical_formula_structural   Cs2AsPRu2
_chemical_formula_sum   'Cs2 As1 P1 Ru2'
_cell_volume   206.21187670
_cell_formula_units_Z   1
loop_
 _symmetry_equiv_pos_site_id
 _symmetry_equiv_pos_as_xyz
  1  'x, y, z'
loop_
 _atom_site_type_symbol
 _atom_site_label
 _atom_site_symmetry_multiplicity
 _atom_site_fract_x
 _atom_site_fract_y
 _atom_site_fract_z
 _atom_site_occupancy
  Cs  Cs0  1  0.000000  0.500000  0.725650  1
  Cs  Cs1  1  0.500000  0.000000  0.269013  1
  As  As2  1  0.500000  0.000000  0.895733  1
  P  P3  1  0.000000  0.500000  0.096070  1
  Ru  Ru4  1  0.500000  0.500000  0.006766  1
  Ru  Ru5  1  0.000000  0.000000  0.006766  1
