# generated using pymatgen
data_YEr3(MoN3)4
_symmetry_space_group_name_H-M   'P 1'
_cell_length_a   7.31759123
_cell_length_b   7.31759098
_cell_length_c   6.26176006
_cell_angle_alpha   73.37141260
_cell_angle_beta   73.37140955
_cell_angle_gamma   81.20473156
_symmetry_Int_Tables_number   1
_chemical_formula_structural   YEr3(MoN3)4
_chemical_formula_sum   'Y1 Er3 Mo4 N12'
_cell_volume   306.91903046
_cell_formula_units_Z   1
loop_
 _symmetry_equiv_pos_site_id
 _symmetry_equiv_pos_as_xyz
  1  'x, y, z'
loop_
 _atom_site_type_symbol
 _atom_site_label
 _atom_site_symmetry_multiplicity
 _atom_site_fract_x
 _atom_site_fract_y
 _atom_site_fract_z
 _atom_site_occupancy
  Y  Y0  1  0.293168  0.706832  0.750000  1
  Er  Er1  1  0.912294  0.087706  0.750000  1
  Er  Er2  1  0.708443  0.291557  0.250000  1
  Er  Er3  1  0.087067  0.912933  0.250000  1
  Mo  Mo4  1  0.800324  0.618955  0.773708  1
  Mo  Mo5  1  0.199158  0.380129  0.227586  1
  Mo  Mo6  1  0.619871  0.800842  0.272414  1
  Mo  Mo7  1  0.381045  0.199676  0.726292  1
  N  N8  1  0.217358  0.001352  0.847784  1
  N  N9  1  0.368239  0.345774  0.428865  1
  N  N10  1  0.634008  0.654126  0.569069  1
  N  N11  1  0.626285  0.111888  0.660753  1
  N  N12  1  0.998648  0.782642  0.652216  1
  N  N13  1  0.781276  0.001478  0.153192  1
  N  N14  1  0.111448  0.625368  0.163338  1
  N  N15  1  0.888112  0.373715  0.839247  1
  N  N16  1  0.998522  0.218724  0.346808  1
  N  N17  1  0.345874  0.365992  0.930931  1
  N  N18  1  0.654226  0.631761  0.071135  1
  N  N19  1  0.374632  0.888552  0.336662  1
