# generated using pymatgen
data_NdY15Cd4(OsPd)2
_symmetry_space_group_name_H-M   'P 1'
_cell_length_a   9.73106182
_cell_length_b   9.73106232
_cell_length_c   9.81406300
_cell_angle_alpha   59.71744784
_cell_angle_beta   59.71744612
_cell_angle_gamma   59.28119559
_symmetry_Int_Tables_number   1
_chemical_formula_structural   NdY15Cd4(OsPd)2
_chemical_formula_sum   'Nd1 Y15 Cd4 Os2 Pd2'
_cell_volume   650.71597380
_cell_formula_units_Z   1
loop_
 _symmetry_equiv_pos_site_id
 _symmetry_equiv_pos_as_xyz
  1  'x, y, z'
loop_
 _atom_site_type_symbol
 _atom_site_label
 _atom_site_symmetry_multiplicity
 _atom_site_fract_x
 _atom_site_fract_y
 _atom_site_fract_z
 _atom_site_occupancy
  Nd  Nd0  1  0.937782  0.937782  0.562218  1
  Y  Y1  1  0.350773  0.350773  0.354042  1
  Y  Y2  1  0.350773  0.350773  0.944411  1
  Y  Y3  1  0.346106  0.954846  0.349524  1
  Y  Y4  1  0.954846  0.346106  0.349524  1
  Y  Y5  1  0.816115  0.187800  0.189589  1
  Y  Y6  1  0.187800  0.816115  0.806497  1
  Y  Y7  1  0.187800  0.816115  0.189589  1
  Y  Y8  1  0.816115  0.187800  0.806497  1
  Y  Y9  1  0.187896  0.187896  0.812104  1
  Y  Y10  1  0.808543  0.808543  0.191457  1
  Y  Y11  1  0.937032  0.555037  0.567795  1
  Y  Y12  1  0.555037  0.937032  0.940135  1
  Y  Y13  1  0.555037  0.937032  0.567795  1
  Y  Y14  1  0.937032  0.555037  0.940135  1
  Y  Y15  1  0.564258  0.564258  0.935742  1
  Cd  Cd16  1  0.580453  0.580453  0.581072  1
  Cd  Cd17  1  0.580453  0.580453  0.258024  1
  Cd  Cd18  1  0.578531  0.257584  0.581943  1
  Cd  Cd19  1  0.257584  0.578531  0.581943  1
  Os  Os20  1  0.145720  0.145720  0.135266  1
  Os  Os21  1  0.145720  0.145720  0.573293  1
  Pd  Pd22  1  0.146038  0.572554  0.140703  1
  Pd  Pd23  1  0.572554  0.146038  0.140703  1
