# generated using pymatgen
data_YbSm7(Si3Pt)4
_symmetry_space_group_name_H-M   'P 1'
_cell_length_a   8.19833700
_cell_length_b   8.20410670
_cell_length_c   8.38689300
_cell_angle_alpha   90.00000000
_cell_angle_beta   90.00000000
_cell_angle_gamma   120.02327318
_symmetry_Int_Tables_number   1
_chemical_formula_structural   YbSm7(Si3Pt)4
_chemical_formula_sum   'Yb1 Sm7 Si12 Pt4'
_cell_volume   488.41264968
_cell_formula_units_Z   1
loop_
 _symmetry_equiv_pos_site_id
 _symmetry_equiv_pos_as_xyz
  1  'x, y, z'
loop_
 _atom_site_type_symbol
 _atom_site_label
 _atom_site_symmetry_multiplicity
 _atom_site_fract_x
 _atom_site_fract_y
 _atom_site_fract_z
 _atom_site_occupancy
  Yb  Yb0  1  0.000450  0.500225  0.750000  1
  Sm  Sm1  1  0.000229  0.000114  0.250000  1
  Sm  Sm2  1  0.999970  0.999986  0.750000  1
  Sm  Sm3  1  0.500100  0.499630  0.250000  1
  Sm  Sm4  1  0.500100  0.000469  0.250000  1
  Sm  Sm5  1  0.999530  0.499766  0.250000  1
  Sm  Sm6  1  0.499710  0.500329  0.750000  1
  Sm  Sm7  1  0.499710  0.999380  0.750000  1
  Si  Si8  1  0.165444  0.834136  0.499090  1
  Si  Si9  1  0.165444  0.331309  0.499090  1
  Si  Si10  1  0.668399  0.834200  0.498208  1
  Si  Si11  1  0.834574  0.165854  0.501409  1
  Si  Si12  1  0.834574  0.668719  0.501409  1
  Si  Si13  1  0.331631  0.165815  0.500833  1
  Si  Si14  1  0.834574  0.165854  0.998591  1
  Si  Si15  1  0.834574  0.668719  0.998591  1
  Si  Si16  1  0.331631  0.165815  0.999167  1
  Si  Si17  1  0.165444  0.834136  0.000910  1
  Si  Si18  1  0.165444  0.331309  0.000910  1
  Si  Si19  1  0.668399  0.834200  0.001792  1
  Pt  Pt20  1  0.332557  0.666279  0.502014  1
  Pt  Pt21  1  0.667478  0.333739  0.501303  1
  Pt  Pt22  1  0.667478  0.333739  0.998697  1
  Pt  Pt23  1  0.332557  0.666279  0.997986  1
