# generated using pymatgen
data_MnCdSnO4
_symmetry_space_group_name_H-M   'P 1'
_cell_length_a   6.52397990
_cell_length_b   6.52397996
_cell_length_c   6.52397983
_cell_angle_alpha   121.17937167
_cell_angle_beta   120.24378584
_cell_angle_gamma   88.77382063
_symmetry_Int_Tables_number   1
_chemical_formula_structural   MnCdSnO4
_chemical_formula_sum   'Mn2 Cd2 Sn2 O8'
_cell_volume   194.16968955
_cell_formula_units_Z   2
loop_
 _symmetry_equiv_pos_site_id
 _symmetry_equiv_pos_as_xyz
  1  'x, y, z'
loop_
 _atom_site_type_symbol
 _atom_site_label
 _atom_site_symmetry_multiplicity
 _atom_site_fract_x
 _atom_site_fract_y
 _atom_site_fract_z
 _atom_site_occupancy
  Mn  Mn0  1  0.500000  0.000000  0.000000  1
  Mn  Mn1  1  0.500000  0.500000  0.500000  1
  Cd  Cd2  1  0.891411  0.141411  0.750000  1
  Cd  Cd3  1  0.108589  0.858589  0.250000  1
  Sn  Sn4  1  0.500000  0.500000  0.000000  1
  Sn  Sn5  1  0.000000  0.500000  0.500000  1
  O  O6  1  0.745266  0.275570  0.030304  1
  O  O7  1  0.745266  0.714961  0.469696  1
  O  O8  1  0.753992  0.278978  0.475014  1
  O  O9  1  0.303963  0.278978  0.024986  1
  O  O10  1  0.696037  0.721022  0.975014  1
  O  O11  1  0.246008  0.721022  0.524986  1
  O  O12  1  0.254734  0.285039  0.530304  1
  O  O13  1  0.254734  0.724430  0.969696  1
