# generated using pymatgen
data_Ta9Al2Si4W
_symmetry_space_group_name_H-M   'P 1'
_cell_length_a   7.58241067
_cell_length_b   7.58240993
_cell_length_c   7.58241006
_cell_angle_alpha   128.37115904
_cell_angle_beta   128.37115369
_cell_angle_gamma   76.02453467
_symmetry_Int_Tables_number   1
_chemical_formula_structural   Ta9Al2Si4W
_chemical_formula_sum   'Ta9 Al2 Si4 W1'
_cell_volume   260.51531334
_cell_formula_units_Z   1
loop_
 _symmetry_equiv_pos_site_id
 _symmetry_equiv_pos_as_xyz
  1  'x, y, z'
loop_
 _atom_site_type_symbol
 _atom_site_label
 _atom_site_symmetry_multiplicity
 _atom_site_fract_x
 _atom_site_fract_y
 _atom_site_fract_z
 _atom_site_occupancy
  Ta  Ta0  1  0.015556  0.187605  0.499792  1
  Ta  Ta1  1  0.687813  0.515763  0.500208  1
  Ta  Ta2  1  0.515763  0.015556  0.827951  1
  Ta  Ta3  1  0.187605  0.687813  0.172049  1
  Ta  Ta4  1  0.984444  0.812395  0.500208  1
  Ta  Ta5  1  0.312187  0.484237  0.499792  1
  Ta  Ta6  1  0.484237  0.984444  0.172049  1
  Ta  Ta7  1  0.812395  0.312187  0.827951  1
  Ta  Ta8  1  0.500000  0.500000  0.000000  1
  Al  Al9  1  0.750326  0.750326  0.000000  1
  Al  Al10  1  0.249674  0.249674  0.000000  1
  Si  Si11  1  0.367840  0.129353  0.497193  1
  Si  Si12  1  0.632160  0.870647  0.502807  1
  Si  Si13  1  0.870647  0.367840  0.238487  1
  Si  Si14  1  0.129353  0.632160  0.761513  1
  W  W15  1  0.000000  0.000000  0.000000  1
