# generated using pymatgen
data_Nd8Sc12Ga5Si11
_symmetry_space_group_name_H-M   'P 1'
_cell_length_a   7.28046561
_cell_length_b   7.52691843
_cell_length_c   14.40451503
_cell_angle_alpha   89.98406430
_cell_angle_beta   90.05710040
_cell_angle_gamma   90.08052791
_symmetry_Int_Tables_number   1
_chemical_formula_structural   Nd8Sc12Ga5Si11
_chemical_formula_sum   'Nd8 Sc12 Ga5 Si11'
_cell_volume   789.35859842
_cell_formula_units_Z   1
loop_
 _symmetry_equiv_pos_site_id
 _symmetry_equiv_pos_as_xyz
  1  'x, y, z'
loop_
 _atom_site_type_symbol
 _atom_site_label
 _atom_site_symmetry_multiplicity
 _atom_site_fract_x
 _atom_site_fract_y
 _atom_site_fract_z
 _atom_site_occupancy
  Nd  Nd0  1  0.013007  0.172411  0.400112  1
  Nd  Nd1  1  0.512915  0.327739  0.400207  1
  Nd  Nd2  1  0.488962  0.673408  0.899428  1
  Nd  Nd3  1  0.488343  0.674245  0.598600  1
  Nd  Nd4  1  0.988380  0.825950  0.598486  1
  Nd  Nd5  1  0.987274  0.830223  0.900174  1
  Nd  Nd6  1  0.511922  0.327029  0.100246  1
  Nd  Nd7  1  0.010236  0.172541  0.100342  1
  Sc  Sc8  1  0.328665  0.173307  0.625692  1
  Sc  Sc9  1  0.670857  0.823166  0.374230  1
  Sc  Sc10  1  0.663318  0.001666  0.751581  1
  Sc  Sc11  1  0.170524  0.676822  0.374010  1
  Sc  Sc12  1  0.827034  0.323772  0.873968  1
  Sc  Sc13  1  0.828916  0.326144  0.625722  1
  Sc  Sc14  1  0.837545  0.502419  0.251222  1
  Sc  Sc15  1  0.338080  0.997075  0.251891  1
  Sc  Sc16  1  0.332045  0.174986  0.872845  1
  Sc  Sc17  1  0.170336  0.673845  0.127490  1
  Sc  Sc18  1  0.669979  0.826101  0.126572  1
  Sc  Sc19  1  0.161978  0.497291  0.750514  1
  Ga  Ga20  1  0.154684  0.459294  0.538718  1
  Ga  Ga21  1  0.844240  0.541284  0.039777  1
  Ga  Ga22  1  0.344405  0.958883  0.039003  1
  Ga  Ga23  1  0.155945  0.458315  0.959637  1
  Ga  Ga24  1  0.654784  0.040965  0.538689  1
  Si  Si25  1  0.286941  0.881091  0.749671  1
  Si  Si26  1  0.466518  0.622900  0.250968  1
  Si  Si27  1  0.033671  0.123440  0.749367  1
  Si  Si28  1  0.533510  0.378434  0.749270  1
  Si  Si29  1  0.966379  0.877671  0.250470  1
  Si  Si30  1  0.711331  0.118875  0.250829  1
  Si  Si31  1  0.347347  0.961161  0.459789  1
  Si  Si32  1  0.847487  0.538891  0.459799  1
  Si  Si33  1  0.788738  0.618394  0.749488  1
  Si  Si34  1  0.211495  0.381050  0.250655  1
  Si  Si35  1  0.652210  0.039215  0.960539  1
