# generated using pymatgen
data_Tb8TaTi2Si16Mo9
_symmetry_space_group_name_H-M   'P 1'
_cell_length_a   6.93626306
_cell_length_b   6.93626345
_cell_length_c   12.87039623
_cell_angle_alpha   90.03430426
_cell_angle_beta   89.96569594
_cell_angle_gamma   89.71939607
_symmetry_Int_Tables_number   1
_chemical_formula_structural   Tb8TaTi2Si16Mo9
_chemical_formula_sum   'Tb8 Ta1 Ti2 Si16 Mo9'
_cell_volume   619.20961028
_cell_formula_units_Z   1
loop_
 _symmetry_equiv_pos_site_id
 _symmetry_equiv_pos_as_xyz
  1  'x, y, z'
loop_
 _atom_site_type_symbol
 _atom_site_label
 _atom_site_symmetry_multiplicity
 _atom_site_fract_x
 _atom_site_fract_y
 _atom_site_fract_z
 _atom_site_occupancy
  Tb  Tb0  1  0.340087  0.002317  0.468818  1
  Tb  Tb1  1  0.497123  0.838773  0.719127  1
  Tb  Tb2  1  0.499936  0.162205  0.217629  1
  Tb  Tb3  1  0.838773  0.497123  0.280873  1
  Tb  Tb4  1  0.162205  0.499936  0.782371  1
  Tb  Tb5  1  0.659043  0.999366  0.968529  1
  Tb  Tb6  1  0.002317  0.340087  0.531182  1
  Tb  Tb7  1  0.999366  0.659043  0.031471  1
  Ta  Ta8  1  0.669189  0.669189  0.500000  1
  Ti  Ti9  1  0.169949  0.831222  0.248732  1
  Ti  Ti10  1  0.831222  0.169949  0.751268  1
  Si  Si11  1  0.200475  0.128079  0.684705  1
  Si  Si12  1  0.374644  0.695764  0.935609  1
  Si  Si13  1  0.627606  0.298150  0.433671  1
  Si  Si14  1  0.695764  0.374644  0.064391  1
  Si  Si15  1  0.298150  0.627606  0.566329  1
  Si  Si16  1  0.798010  0.872597  0.184808  1
  Si  Si17  1  0.128079  0.200475  0.315295  1
  Si  Si18  1  0.872597  0.798010  0.815192  1
  Si  Si19  1  0.286455  0.963426  0.061259  1
  Si  Si20  1  0.539678  0.789864  0.312785  1
  Si  Si21  1  0.457436  0.212257  0.815270  1
  Si  Si22  1  0.789864  0.539678  0.687215  1
  Si  Si23  1  0.212257  0.457436  0.184730  1
  Si  Si24  1  0.711463  0.042792  0.564563  1
  Si  Si25  1  0.963426  0.286455  0.938741  1
  Si  Si26  1  0.042792  0.711463  0.435437  1
  Mo  Mo27  1  0.331552  0.331552  0.000000  1
  Mo  Mo28  1  0.156055  0.002406  0.873219  1
  Mo  Mo29  1  0.495946  0.667128  0.124971  1
  Mo  Mo30  1  0.504670  0.339448  0.624604  1
  Mo  Mo31  1  0.667128  0.495946  0.875029  1
  Mo  Mo32  1  0.339448  0.504670  0.375396  1
  Mo  Mo33  1  0.841135  0.993753  0.374625  1
  Mo  Mo34  1  0.002406  0.156055  0.126781  1
  Mo  Mo35  1  0.993753  0.841135  0.625375  1
