# generated using pymatgen
data_Ho6ZrCr(Co4P3)4
_symmetry_space_group_name_H-M   'P 1'
_cell_length_a   3.70639200
_cell_length_b   10.60614200
_cell_length_c   12.30413600
_cell_angle_alpha   90.00000000
_cell_angle_beta   90.00000000
_cell_angle_gamma   90.00000000
_symmetry_Int_Tables_number   1
_chemical_formula_structural   Ho6ZrCr(Co4P3)4
_chemical_formula_sum   'Ho6 Zr1 Cr1 Co16 P12'
_cell_volume   483.68198258
_cell_formula_units_Z   1
loop_
 _symmetry_equiv_pos_site_id
 _symmetry_equiv_pos_as_xyz
  1  'x, y, z'
loop_
 _atom_site_type_symbol
 _atom_site_label
 _atom_site_symmetry_multiplicity
 _atom_site_fract_x
 _atom_site_fract_y
 _atom_site_fract_z
 _atom_site_occupancy
  Ho  Ho0  1  0.000000  0.500000  0.529314  1
  Ho  Ho1  1  0.500000  0.000000  0.477586  1
  Ho  Ho2  1  0.500000  0.822196  0.205865  1
  Ho  Ho3  1  0.500000  0.177804  0.205865  1
  Ho  Ho4  1  0.000000  0.682211  0.795594  1
  Ho  Ho5  1  0.000000  0.317789  0.795594  1
  Zr  Zr6  1  0.500000  0.500000  0.154990  1
  Cr  Cr7  1  0.000000  0.000000  0.841451  1
  Co  Co8  1  0.000000  0.500000  0.983007  1
  Co  Co9  1  0.500000  0.000000  0.009651  1
  Co  Co10  1  0.500000  0.293623  0.434966  1
  Co  Co11  1  0.500000  0.706377  0.434966  1
  Co  Co12  1  0.000000  0.202412  0.570565  1
  Co  Co13  1  0.000000  0.797588  0.570565  1
  Co  Co14  1  0.500000  0.880211  0.707090  1
  Co  Co15  1  0.500000  0.119789  0.707090  1
  Co  Co16  1  0.000000  0.623585  0.298108  1
  Co  Co17  1  0.000000  0.376415  0.298108  1
  Co  Co18  1  0.500000  0.326402  0.987749  1
  Co  Co19  1  0.500000  0.673598  0.987749  1
  Co  Co20  1  0.000000  0.162026  0.002180  1
  Co  Co21  1  0.000000  0.837974  0.002180  1
  Co  Co22  1  0.500000  0.500000  0.702830  1
  Co  Co23  1  0.000000  0.000000  0.296795  1
  P  P24  1  0.500000  0.309889  0.617977  1
  P  P25  1  0.500000  0.690111  0.617977  1
  P  P26  1  0.000000  0.187196  0.386125  1
  P  P27  1  0.000000  0.812804  0.386125  1
  P  P28  1  0.500000  0.500000  0.881502  1
  P  P29  1  0.000000  0.000000  0.116515  1
  P  P30  1  0.500000  0.850825  0.886930  1
  P  P31  1  0.500000  0.149175  0.886930  1
  P  P32  1  0.000000  0.664884  0.100996  1
  P  P33  1  0.000000  0.335116  0.100996  1
  P  P34  1  0.500000  0.500000  0.362585  1
  P  P35  1  0.000000  0.000000  0.655483  1
