# generated using pymatgen
data_Ba6In(IrO6)2
_symmetry_space_group_name_H-M   'P 1'
_cell_length_a   9.26987185
_cell_length_b   9.26987154
_cell_length_c   7.32877812
_cell_angle_alpha   67.72462906
_cell_angle_beta   67.72463021
_cell_angle_gamma   36.87799892
_symmetry_Int_Tables_number   1
_chemical_formula_structural   Ba6In(IrO6)2
_chemical_formula_sum   'Ba6 In1 Ir2 O12'
_cell_volume   346.44971782
_cell_formula_units_Z   1
loop_
 _symmetry_equiv_pos_site_id
 _symmetry_equiv_pos_as_xyz
  1  'x, y, z'
loop_
 _atom_site_type_symbol
 _atom_site_label
 _atom_site_symmetry_multiplicity
 _atom_site_fract_x
 _atom_site_fract_y
 _atom_site_fract_z
 _atom_site_occupancy
  Ba  Ba0  1  0.214804  0.214804  0.708008  1
  Ba  Ba1  1  0.881806  0.881806  0.710510  1
  Ba  Ba2  1  0.548129  0.548129  0.711573  1
  Ba  Ba3  1  0.785196  0.785196  0.291992  1
  Ba  Ba4  1  0.451871  0.451871  0.288427  1
  Ba  Ba5  1  0.118194  0.118194  0.289490  1
  In  In6  1  0.000000  0.000000  0.000000  1
  Ir  Ir7  1  0.670611  0.670611  0.000367  1
  Ir  Ir8  1  0.329389  0.329389  0.999633  1
  O  O9  1  0.279880  0.279880  0.308257  1
  O  O10  1  0.947407  0.947407  0.316441  1
  O  O11  1  0.617187  0.617187  0.308961  1
  O  O12  1  0.720120  0.720120  0.691743  1
  O  O13  1  0.382813  0.382813  0.691039  1
  O  O14  1  0.052593  0.052593  0.683559  1
  O  O15  1  0.000000  0.500000  0.000000  1
  O  O16  1  0.645596  0.174842  0.000492  1
  O  O17  1  0.354404  0.825158  0.999508  1
  O  O18  1  0.500000  0.000000  0.000000  1
  O  O19  1  0.174842  0.645596  0.000492  1
  O  O20  1  0.825158  0.354404  0.999508  1
