# generated using pymatgen
data_Tm3Lu13(Ga3Ir)2
_symmetry_space_group_name_H-M   'P 1'
_cell_length_a   9.87171519
_cell_length_b   9.87171483
_cell_length_c   6.89039801
_cell_angle_alpha   89.99206142
_cell_angle_beta   90.00794203
_cell_angle_gamma   120.03830306
_symmetry_Int_Tables_number   1
_chemical_formula_structural   Tm3Lu13(Ga3Ir)2
_chemical_formula_sum   'Tm3 Lu13 Ga6 Ir2'
_cell_volume   581.28939544
_cell_formula_units_Z   1
loop_
 _symmetry_equiv_pos_site_id
 _symmetry_equiv_pos_as_xyz
  1  'x, y, z'
loop_
 _atom_site_type_symbol
 _atom_site_label
 _atom_site_symmetry_multiplicity
 _atom_site_fract_x
 _atom_site_fract_y
 _atom_site_fract_z
 _atom_site_occupancy
  Tm  Tm0  1  0.533819  0.466181  0.794764  1
  Tm  Tm1  1  0.000029  0.999971  0.266809  1
  Tm  Tm2  1  0.000009  0.999991  0.766818  1
  Lu  Lu3  1  0.171848  0.828152  0.989486  1
  Lu  Lu4  1  0.343656  0.171547  0.488921  1
  Lu  Lu5  1  0.828453  0.656344  0.488921  1
  Lu  Lu6  1  0.171341  0.343497  0.989982  1
  Lu  Lu7  1  0.656503  0.828659  0.989982  1
  Lu  Lu8  1  0.828311  0.171689  0.489532  1
  Lu  Lu9  1  0.333079  0.666921  0.662944  1
  Lu  Lu10  1  0.666830  0.333170  0.162970  1
  Lu  Lu11  1  0.465545  0.534455  0.295008  1
  Lu  Lu12  1  0.931630  0.465757  0.795015  1
  Lu  Lu13  1  0.534243  0.068370  0.795015  1
  Lu  Lu14  1  0.465770  0.931529  0.295084  1
  Lu  Lu15  1  0.068471  0.534230  0.295084  1
  Ga  Ga16  1  0.163431  0.836569  0.541103  1
  Ga  Ga17  1  0.326488  0.163016  0.040661  1
  Ga  Ga18  1  0.836984  0.673512  0.040661  1
  Ga  Ga19  1  0.163757  0.326979  0.540817  1
  Ga  Ga20  1  0.673021  0.836243  0.540817  1
  Ga  Ga21  1  0.836367  0.163633  0.041077  1
  Ir  Ir22  1  0.333255  0.666745  0.056498  1
  Ir  Ir23  1  0.667161  0.332839  0.556038  1
