# generated using pymatgen
data_SmY2Be2(PPd5)4
_symmetry_space_group_name_H-M   'P 1'
_cell_length_a   8.68345153
_cell_length_b   8.60117311
_cell_length_c   8.60117370
_cell_angle_alpha   60.63389769
_cell_angle_beta   59.68305623
_cell_angle_gamma   59.68305892
_symmetry_Int_Tables_number   1
_chemical_formula_structural   SmY2Be2(PPd5)4
_chemical_formula_sum   'Sm1 Y2 Be2 P4 Pd20'
_cell_volume   454.16386461
_cell_formula_units_Z   1
loop_
 _symmetry_equiv_pos_site_id
 _symmetry_equiv_pos_as_xyz
  1  'x, y, z'
loop_
 _atom_site_type_symbol
 _atom_site_label
 _atom_site_symmetry_multiplicity
 _atom_site_fract_x
 _atom_site_fract_y
 _atom_site_fract_z
 _atom_site_occupancy
  Sm  Sm0  1  0.750000  0.750000  0.750000  1
  Y  Y1  1  0.250000  0.250000  0.250000  1
  Y  Y2  1  0.000000  0.000000  0.000000  1
  Be  Be3  1  0.733193  0.266807  0.266807  1
  Be  Be4  1  0.266807  0.733193  0.733193  1
  P  P5  1  0.266126  0.733874  0.266126  1
  P  P6  1  0.733874  0.266126  0.733874  1
  P  P7  1  0.266126  0.266126  0.733874  1
  P  P8  1  0.733874  0.733874  0.266126  1
  Pd  Pd9  1  0.388329  0.382843  0.382843  1
  Pd  Pd10  1  0.611060  0.616755  0.616755  1
  Pd  Pd11  1  0.382843  0.388329  0.845983  1
  Pd  Pd12  1  0.382843  0.845983  0.388329  1
  Pd  Pd13  1  0.616755  0.611060  0.155431  1
  Pd  Pd14  1  0.616755  0.155431  0.611060  1
  Pd  Pd15  1  0.845983  0.382843  0.382843  1
  Pd  Pd16  1  0.155431  0.616755  0.616755  1
  Pd  Pd17  1  0.344409  0.000238  0.000238  1
  Pd  Pd18  1  0.655116  0.000238  0.000238  1
  Pd  Pd19  1  0.000238  0.344409  0.655116  1
  Pd  Pd20  1  0.000238  0.655116  0.344409  1
  Pd  Pd21  1  0.997296  0.343592  0.003073  1
  Pd  Pd22  1  0.656038  0.003073  0.343592  1
  Pd  Pd23  1  0.003073  0.656038  0.997296  1
  Pd  Pd24  1  0.343592  0.997296  0.656038  1
  Pd  Pd25  1  0.997296  0.003073  0.343592  1
  Pd  Pd26  1  0.003073  0.997296  0.656038  1
  Pd  Pd27  1  0.656038  0.343592  0.003073  1
  Pd  Pd28  1  0.343592  0.656038  0.997296  1
