# generated using pymatgen
data_Tb6Al4Pd13
_symmetry_space_group_name_H-M   'P 1'
_cell_length_a   8.28290104
_cell_length_b   8.28289944
_cell_length_c   8.28290000
_cell_angle_alpha   109.47122445
_cell_angle_beta   109.47122053
_cell_angle_gamma   109.47121775
_symmetry_Int_Tables_number   1
_chemical_formula_structural   Tb6Al4Pd13
_chemical_formula_sum   'Tb6 Al4 Pd13'
_cell_volume   437.44694169
_cell_formula_units_Z   1
loop_
 _symmetry_equiv_pos_site_id
 _symmetry_equiv_pos_as_xyz
  1  'x, y, z'
loop_
 _atom_site_type_symbol
 _atom_site_label
 _atom_site_symmetry_multiplicity
 _atom_site_fract_x
 _atom_site_fract_y
 _atom_site_fract_z
 _atom_site_occupancy
  Tb  Tb0  1  0.000000  0.301456  0.301456  1
  Tb  Tb1  1  0.000000  0.698544  0.698544  1
  Tb  Tb2  1  0.301456  0.000000  0.301456  1
  Tb  Tb3  1  0.698544  0.698544  0.000000  1
  Tb  Tb4  1  0.698544  0.000000  0.698544  1
  Tb  Tb5  1  0.301456  0.301456  0.000000  1
  Al  Al6  1  0.000000  0.000000  0.500000  1
  Al  Al7  1  0.500000  0.000000  0.000000  1
  Al  Al8  1  0.000000  0.500000  0.000000  1
  Al  Al9  1  0.500000  0.500000  0.500000  1
  Pd  Pd10  1  0.322010  0.677990  0.000000  1
  Pd  Pd11  1  0.000000  0.322010  0.677990  1
  Pd  Pd12  1  0.677990  0.000000  0.322010  1
  Pd  Pd13  1  0.355980  0.677990  0.677990  1
  Pd  Pd14  1  0.677990  0.355980  0.677990  1
  Pd  Pd15  1  0.644020  0.322010  0.322010  1
  Pd  Pd16  1  0.322010  0.644020  0.322010  1
  Pd  Pd17  1  0.322010  0.322010  0.644020  1
  Pd  Pd18  1  0.000000  0.677990  0.322010  1
  Pd  Pd19  1  0.677990  0.677990  0.355980  1
  Pd  Pd20  1  0.322010  0.000000  0.677990  1
  Pd  Pd21  1  0.000000  0.000000  0.000000  1
  Pd  Pd22  1  0.677990  0.322010  0.000000  1
