# generated using pymatgen
data_Pr6AlGa3Ir4
_symmetry_space_group_name_H-M   'P 1'
_cell_length_a   5.81695100
_cell_length_b   8.16666400
_cell_length_c   13.72314100
_cell_angle_alpha   90.00000000
_cell_angle_beta   90.00000000
_cell_angle_gamma   90.00000000
_symmetry_Int_Tables_number   1
_chemical_formula_structural   Pr6AlGa3Ir4
_chemical_formula_sum   'Pr12 Al2 Ga6 Ir8'
_cell_volume   651.91897036
_cell_formula_units_Z   2
loop_
 _symmetry_equiv_pos_site_id
 _symmetry_equiv_pos_as_xyz
  1  'x, y, z'
loop_
 _atom_site_type_symbol
 _atom_site_label
 _atom_site_symmetry_multiplicity
 _atom_site_fract_x
 _atom_site_fract_y
 _atom_site_fract_z
 _atom_site_occupancy
  Pr  Pr0  1  0.143901  0.894702  0.598640  1
  Pr  Pr1  1  0.856099  0.105298  0.098640  1
  Pr  Pr2  1  0.143901  0.605298  0.401360  1
  Pr  Pr3  1  0.856099  0.394702  0.901360  1
  Pr  Pr4  1  0.855980  0.104664  0.400777  1
  Pr  Pr5  1  0.144020  0.895336  0.900777  1
  Pr  Pr6  1  0.855980  0.395336  0.599223  1
  Pr  Pr7  1  0.144020  0.604664  0.099223  1
  Pr  Pr8  1  0.372400  0.251865  0.750018  1
  Pr  Pr9  1  0.627600  0.748135  0.250018  1
  Pr  Pr10  1  0.372400  0.248135  0.249982  1
  Pr  Pr11  1  0.627600  0.751865  0.749982  1
  Al  Al12  1  0.386519  0.250000  0.500000  1
  Al  Al13  1  0.613481  0.750000  0.000000  1
  Ga  Ga14  1  0.865093  0.102525  0.749832  1
  Ga  Ga15  1  0.134907  0.897475  0.249832  1
  Ga  Ga16  1  0.865093  0.397475  0.250168  1
  Ga  Ga17  1  0.134907  0.602525  0.750168  1
  Ga  Ga18  1  0.620642  0.750000  0.500000  1
  Ga  Ga19  1  0.379358  0.250000  0.000000  1
  Ir  Ir20  1  0.641450  0.033092  0.591503  1
  Ir  Ir21  1  0.358550  0.966908  0.091503  1
  Ir  Ir22  1  0.641450  0.466908  0.408497  1
  Ir  Ir23  1  0.358550  0.533092  0.908497  1
  Ir  Ir24  1  0.354699  0.972045  0.409022  1
  Ir  Ir25  1  0.645301  0.027955  0.909022  1
  Ir  Ir26  1  0.354699  0.527955  0.590978  1
  Ir  Ir27  1  0.645301  0.472045  0.090978  1
