# generated using pymatgen
data_Zr2GaNiRh4
_symmetry_space_group_name_H-M   'P 1'
_cell_length_a   5.51616039
_cell_length_b   5.51616029
_cell_length_c   8.16904800
_cell_angle_alpha   90.00000000
_cell_angle_beta   90.00000000
_cell_angle_gamma   97.75982343
_symmetry_Int_Tables_number   1
_chemical_formula_structural   Zr2GaNiRh4
_chemical_formula_sum   'Zr4 Ga2 Ni2 Rh8'
_cell_volume   246.29179979
_cell_formula_units_Z   2
loop_
 _symmetry_equiv_pos_site_id
 _symmetry_equiv_pos_as_xyz
  1  'x, y, z'
loop_
 _atom_site_type_symbol
 _atom_site_label
 _atom_site_symmetry_multiplicity
 _atom_site_fract_x
 _atom_site_fract_y
 _atom_site_fract_z
 _atom_site_occupancy
  Zr  Zr0  1  0.777982  0.222018  0.500000  1
  Zr  Zr1  1  0.222018  0.777982  0.000000  1
  Zr  Zr2  1  0.222018  0.777982  0.500000  1
  Zr  Zr3  1  0.777982  0.222018  0.000000  1
  Ga  Ga4  1  0.502203  0.502203  0.750000  1
  Ga  Ga5  1  0.497797  0.497797  0.250000  1
  Ni  Ni6  1  0.000254  0.000254  0.250000  1
  Ni  Ni7  1  0.999746  0.999746  0.750000  1
  Rh  Rh8  1  0.726012  0.726012  0.000954  1
  Rh  Rh9  1  0.726012  0.726012  0.499046  1
  Rh  Rh10  1  0.273988  0.273988  0.999046  1
  Rh  Rh11  1  0.273988  0.273988  0.500954  1
  Rh  Rh12  1  0.500153  0.000253  0.750000  1
  Rh  Rh13  1  0.499847  0.999747  0.250000  1
  Rh  Rh14  1  0.000253  0.500153  0.750000  1
  Rh  Rh15  1  0.999747  0.499847  0.250000  1
