# generated using pymatgen
data_Nd12Co2I17
_symmetry_space_group_name_H-M   'P 1'
_cell_length_a   9.99305186
_cell_length_b   11.96784646
_cell_length_c   11.96793631
_cell_angle_alpha   92.96755455
_cell_angle_beta   104.50757686
_cell_angle_gamma   114.97515480
_symmetry_Int_Tables_number   1
_chemical_formula_structural   Nd12Co2I17
_chemical_formula_sum   'Nd12 Co2 I17'
_cell_volume   1235.69297596
_cell_formula_units_Z   1
loop_
 _symmetry_equiv_pos_site_id
 _symmetry_equiv_pos_as_xyz
  1  'x, y, z'
loop_
 _atom_site_type_symbol
 _atom_site_label
 _atom_site_symmetry_multiplicity
 _atom_site_fract_x
 _atom_site_fract_y
 _atom_site_fract_z
 _atom_site_occupancy
  Nd  Nd0  1  0.055545  0.507550  0.321429  1
  Nd  Nd1  1  0.991975  0.811130  0.584013  1
  Nd  Nd2  1  0.645930  0.240105  0.282042  1
  Nd  Nd3  1  0.008025  0.188870  0.415987  1
  Nd  Nd4  1  0.214545  0.665380  0.986915  1
  Nd  Nd5  1  0.260745  0.981796  0.891958  1
  Nd  Nd6  1  0.354070  0.759895  0.717958  1
  Nd  Nd7  1  0.944455  0.492450  0.678571  1
  Nd  Nd8  1  0.739255  0.018204  0.108042  1
  Nd  Nd9  1  0.150212  0.288483  0.150340  1
  Nd  Nd10  1  0.785455  0.334620  0.013085  1
  Nd  Nd11  1  0.849788  0.711517  0.849660  1
  Co  Co12  1  0.102689  0.738059  0.784053  1
  Co  Co13  1  0.897311  0.261941  0.215947  1
  I  I14  1  0.781870  0.528550  0.417337  1
  I  I15  1  0.639487  0.416425  0.760017  1
  I  I16  1  0.842937  0.894684  0.325076  1
  I  I17  1  0.326544  0.212395  0.369389  1
  I  I18  1  0.157063  0.105316  0.674924  1
  I  I19  1  0.590192  0.055637  0.839135  1
  I  I20  1  0.755252  0.184660  0.539543  1
  I  I21  1  0.550553  0.707839  0.954936  1
  I  I22  1  0.360513  0.583575  0.239983  1
  I  I23  1  0.218130  0.471450  0.582663  1
  I  I24  1  0.056709  0.360814  0.891190  1
  I  I25  1  0.449447  0.292161  0.045064  1
  I  I26  1  0.000000  0.000000  0.000000  1
  I  I27  1  0.244748  0.815340  0.460457  1
  I  I28  1  0.409808  0.944363  0.160865  1
  I  I29  1  0.673456  0.787605  0.630611  1
  I  I30  1  0.943291  0.639186  0.108810  1
