# generated using pymatgen
data_Pu3Th(NiB10)2
_symmetry_space_group_name_H-M   'P 1'
_cell_length_a   4.14738500
_cell_length_b   5.58568358
_cell_length_c   11.09662745
_cell_angle_alpha   90.10529837
_cell_angle_beta   90.00000000
_cell_angle_gamma   90.00000000
_symmetry_Int_Tables_number   1
_chemical_formula_structural   Pu3Th(NiB10)2
_chemical_formula_sum   'Pu3 Th1 Ni2 B20'
_cell_volume   257.06381851
_cell_formula_units_Z   1
loop_
 _symmetry_equiv_pos_site_id
 _symmetry_equiv_pos_as_xyz
  1  'x, y, z'
loop_
 _atom_site_type_symbol
 _atom_site_label
 _atom_site_symmetry_multiplicity
 _atom_site_fract_x
 _atom_site_fract_y
 _atom_site_fract_z
 _atom_site_occupancy
  Pu  Pu0  1  0.500000  0.318272  0.860097  1
  Pu  Pu1  1  0.500000  0.684559  0.137212  1
  Pu  Pu2  1  0.500000  0.815537  0.641004  1
  Th  Th3  1  0.500000  0.187868  0.362794  1
  Ni  Ni4  1  0.000000  0.497613  0.499929  1
  Ni  Ni5  1  0.000000  0.999145  0.999875  1
  B  B6  1  0.000000  0.123540  0.542147  1
  B  B7  1  0.000000  0.871908  0.460846  1
  B  B8  1  0.000000  0.625684  0.959566  1
  B  B9  1  0.000000  0.374122  0.038927  1
  B  B10  1  0.000000  0.158350  0.699490  1
  B  B11  1  0.000000  0.842644  0.301800  1
  B  B12  1  0.301559  0.200212  0.111961  1
  B  B13  1  0.301791  0.799558  0.886427  1
  B  B14  1  0.698764  0.699333  0.385843  1
  B  B15  1  0.698101  0.298355  0.615145  1
  B  B16  1  0.698209  0.799558  0.886427  1
  B  B17  1  0.698441  0.200212  0.111961  1
  B  B18  1  0.301899  0.298355  0.615145  1
  B  B19  1  0.301236  0.699333  0.385843  1
  B  B20  1  0.000000  0.030915  0.186839  1
  B  B21  1  0.000000  0.970819  0.813712  1
  B  B22  1  0.000000  0.531792  0.311283  1
  B  B23  1  0.000000  0.470925  0.687235  1
  B  B24  1  0.000000  0.342765  0.196382  1
  B  B25  1  0.000000  0.658624  0.802111  1
