# generated using pymatgen
data_Pr4DyIr2Rh
_symmetry_space_group_name_H-M   'P 1'
_cell_length_a   11.21729500
_cell_length_b   11.21729500
_cell_length_c   6.62514000
_cell_angle_alpha   90.00000000
_cell_angle_beta   90.00000000
_cell_angle_gamma   90.00000000
_symmetry_Int_Tables_number   1
_chemical_formula_structural   Pr4DyIr2Rh
_chemical_formula_sum   'Pr16 Dy4 Ir8 Rh4'
_cell_volume   833.62617553
_cell_formula_units_Z   4
loop_
 _symmetry_equiv_pos_site_id
 _symmetry_equiv_pos_as_xyz
  1  'x, y, z'
loop_
 _atom_site_type_symbol
 _atom_site_label
 _atom_site_symmetry_multiplicity
 _atom_site_fract_x
 _atom_site_fract_y
 _atom_site_fract_z
 _atom_site_occupancy
  Pr  Pr0  1  0.288249  0.088495  0.384150  1
  Pr  Pr1  1  0.288249  0.911505  0.884150  1
  Pr  Pr2  1  0.711751  0.088495  0.884150  1
  Pr  Pr3  1  0.711751  0.911505  0.384150  1
  Pr  Pr4  1  0.588495  0.788249  0.884150  1
  Pr  Pr5  1  0.588495  0.211751  0.384150  1
  Pr  Pr6  1  0.411505  0.788249  0.384150  1
  Pr  Pr7  1  0.411505  0.211751  0.884150  1
  Pr  Pr8  1  0.211751  0.411505  0.615850  1
  Pr  Pr9  1  0.211751  0.588495  0.115850  1
  Pr  Pr10  1  0.788249  0.411505  0.115850  1
  Pr  Pr11  1  0.788249  0.588495  0.615850  1
  Pr  Pr12  1  0.911505  0.711751  0.115850  1
  Pr  Pr13  1  0.911505  0.288249  0.615850  1
  Pr  Pr14  1  0.088495  0.711751  0.615850  1
  Pr  Pr15  1  0.088495  0.288249  0.115850  1
  Dy  Dy16  1  0.000000  0.000000  0.500000  1
  Dy  Dy17  1  0.000000  0.000000  0.000000  1
  Dy  Dy18  1  0.500000  0.500000  0.000000  1
  Dy  Dy19  1  0.500000  0.500000  0.500000  1
  Ir  Ir20  1  0.851230  0.148770  0.250000  1
  Ir  Ir21  1  0.851230  0.851230  0.750000  1
  Ir  Ir22  1  0.148770  0.148770  0.750000  1
  Ir  Ir23  1  0.148770  0.851230  0.250000  1
  Ir  Ir24  1  0.648770  0.351230  0.750000  1
  Ir  Ir25  1  0.648770  0.648770  0.250000  1
  Ir  Ir26  1  0.351230  0.351230  0.250000  1
  Ir  Ir27  1  0.351230  0.648770  0.750000  1
  Rh  Rh28  1  0.500000  0.000000  0.118526  1
  Rh  Rh29  1  0.500000  0.000000  0.618526  1
  Rh  Rh30  1  0.000000  0.500000  0.881474  1
  Rh  Rh31  1  0.000000  0.500000  0.381474  1
