# generated using pymatgen
data_YEr2Tm(NiPt)2
_symmetry_space_group_name_H-M   'P 1'
_cell_length_a   4.33542500
_cell_length_b   5.46573961
_cell_length_c   7.02466412
_cell_angle_alpha   90.62995305
_cell_angle_beta   90.00000000
_cell_angle_gamma   90.00000000
_symmetry_Int_Tables_number   1
_chemical_formula_structural   YEr2Tm(NiPt)2
_chemical_formula_sum   'Y1 Er2 Tm1 Ni2 Pt2'
_cell_volume   166.44851652
_cell_formula_units_Z   1
loop_
 _symmetry_equiv_pos_site_id
 _symmetry_equiv_pos_as_xyz
  1  'x, y, z'
loop_
 _atom_site_type_symbol
 _atom_site_label
 _atom_site_symmetry_multiplicity
 _atom_site_fract_x
 _atom_site_fract_y
 _atom_site_fract_z
 _atom_site_occupancy
  Y  Y0  1  0.500000  0.614907  0.817516  1
  Er  Er1  1  0.000000  0.116970  0.678935  1
  Er  Er2  1  0.000000  0.881953  0.180255  1
  Tm  Tm3  1  0.500000  0.385872  0.319834  1
  Ni  Ni4  1  0.000000  0.605822  0.535373  1
  Ni  Ni5  1  0.000000  0.389053  0.047033  1
  Pt  Pt6  1  0.500000  0.889102  0.456549  1
  Pt  Pt7  1  0.500000  0.116320  0.964507  1
