# generated using pymatgen
data_Er3In4CoNi
_symmetry_space_group_name_H-M   'P 1'
_cell_length_a   7.85452900
_cell_length_b   7.85452905
_cell_length_c   3.61232000
_cell_angle_alpha   90.00000000
_cell_angle_beta   90.00000000
_cell_angle_gamma   120.00000285
_symmetry_Int_Tables_number   1
_chemical_formula_structural   Er3In4CoNi
_chemical_formula_sum   'Er3 In4 Co1 Ni1'
_cell_volume   192.99992172
_cell_formula_units_Z   1
loop_
 _symmetry_equiv_pos_site_id
 _symmetry_equiv_pos_as_xyz
  1  'x, y, z'
loop_
 _atom_site_type_symbol
 _atom_site_label
 _atom_site_symmetry_multiplicity
 _atom_site_fract_x
 _atom_site_fract_y
 _atom_site_fract_z
 _atom_site_occupancy
  Er  Er0  1  0.709843  0.951966  0.500000  1
  Er  Er1  1  0.242123  0.290157  0.500000  1
  Er  Er2  1  0.048034  0.757877  0.500000  1
  In  In3  1  0.919258  0.334605  0.000000  1
  In  In4  1  0.415348  0.080742  0.000000  1
  In  In5  1  0.665395  0.584652  0.000000  1
  In  In6  1  0.333333  0.666667  0.000000  1
  Co  Co7  1  0.000000  0.000000  0.000000  1
  Ni  Ni8  1  0.666667  0.333333  0.500000  1
