# generated using pymatgen
data_NpPS
_symmetry_space_group_name_H-M   'P 1'
_cell_length_a   5.33114400
_cell_length_b   5.36162400
_cell_length_c   15.97876400
_cell_angle_alpha   90.00000000
_cell_angle_beta   90.00000000
_cell_angle_gamma   90.00000000
_symmetry_Int_Tables_number   1
_chemical_formula_structural   NpPS
_chemical_formula_sum   'Np8 P8 S8'
_cell_volume   456.73043278
_cell_formula_units_Z   8
loop_
 _symmetry_equiv_pos_site_id
 _symmetry_equiv_pos_as_xyz
  1  'x, y, z'
loop_
 _atom_site_type_symbol
 _atom_site_label
 _atom_site_symmetry_multiplicity
 _atom_site_fract_x
 _atom_site_fract_y
 _atom_site_fract_z
 _atom_site_occupancy
  Np  Np0  1  0.750000  0.007244  0.355652  1
  Np  Np1  1  0.250000  0.492756  0.855652  1
  Np  Np2  1  0.750000  0.507244  0.144348  1
  Np  Np3  1  0.250000  0.992756  0.644348  1
  Np  Np4  1  0.750000  0.494184  0.635027  1
  Np  Np5  1  0.250000  0.005816  0.135027  1
  Np  Np6  1  0.750000  0.994184  0.864973  1
  Np  Np7  1  0.250000  0.505816  0.364973  1
  P  P8  1  0.508646  0.279820  0.000483  1
  P  P9  1  0.491354  0.220180  0.500483  1
  P  P10  1  0.991354  0.779820  0.499517  1
  P  P11  1  0.008646  0.720180  0.999517  1
  P  P12  1  0.491354  0.720180  0.999517  1
  P  P13  1  0.508646  0.779820  0.499517  1
  P  P14  1  0.008646  0.220180  0.500483  1
  P  P15  1  0.991354  0.279820  0.000483  1
  S  S16  1  0.750000  0.006902  0.178460  1
  S  S17  1  0.250000  0.493098  0.678460  1
  S  S18  1  0.750000  0.506902  0.321540  1
  S  S19  1  0.250000  0.993098  0.821540  1
  S  S20  1  0.750000  0.494442  0.815585  1
  S  S21  1  0.250000  0.005558  0.315585  1
  S  S22  1  0.750000  0.994442  0.684415  1
  S  S23  1  0.250000  0.505558  0.184415  1
