# generated using pymatgen
data_ErNiSnH
_symmetry_space_group_name_H-M   'P 1'
_cell_length_a   4.21341200
_cell_length_b   7.06674600
_cell_length_c   8.27007400
_cell_angle_alpha   90.00000000
_cell_angle_beta   90.00000000
_cell_angle_gamma   90.00000000
_symmetry_Int_Tables_number   1
_chemical_formula_structural   ErNiSnH
_chemical_formula_sum   'Er4 Ni4 Sn4 H4'
_cell_volume   246.24238288
_cell_formula_units_Z   4
loop_
 _symmetry_equiv_pos_site_id
 _symmetry_equiv_pos_as_xyz
  1  'x, y, z'
loop_
 _atom_site_type_symbol
 _atom_site_label
 _atom_site_symmetry_multiplicity
 _atom_site_fract_x
 _atom_site_fract_y
 _atom_site_fract_z
 _atom_site_occupancy
  Er  Er0  1  0.750000  0.015964  0.685663  1
  Er  Er1  1  0.250000  0.984036  0.314337  1
  Er  Er2  1  0.250000  0.484036  0.185663  1
  Er  Er3  1  0.750000  0.515964  0.814337  1
  Ni  Ni4  1  0.750000  0.772137  0.108459  1
  Ni  Ni5  1  0.250000  0.227863  0.891541  1
  Ni  Ni6  1  0.250000  0.727863  0.608459  1
  Ni  Ni7  1  0.750000  0.272137  0.391541  1
  Sn  Sn8  1  0.750000  0.656636  0.428040  1
  Sn  Sn9  1  0.250000  0.343364  0.571960  1
  Sn  Sn10  1  0.250000  0.843364  0.928040  1
  Sn  Sn11  1  0.750000  0.156636  0.071960  1
  H  H12  1  0.250000  0.450748  0.922047  1
  H  H13  1  0.750000  0.549252  0.077953  1
  H  H14  1  0.750000  0.049252  0.422047  1
  H  H15  1  0.250000  0.950748  0.577953  1
