# generated using pymatgen
data_Tb2TmGaSn6
_symmetry_space_group_name_H-M   'P 1'
_cell_length_a   13.12765352
_cell_length_b   13.12765405
_cell_length_c   4.34118600
_cell_angle_alpha   90.00000000
_cell_angle_beta   90.00000000
_cell_angle_gamma   160.08038526
_symmetry_Int_Tables_number   1
_chemical_formula_structural   Tb2TmGaSn6
_chemical_formula_sum   'Tb2 Tm1 Ga1 Sn6'
_cell_volume   254.89221992
_cell_formula_units_Z   1
loop_
 _symmetry_equiv_pos_site_id
 _symmetry_equiv_pos_as_xyz
  1  'x, y, z'
loop_
 _atom_site_type_symbol
 _atom_site_label
 _atom_site_symmetry_multiplicity
 _atom_site_fract_x
 _atom_site_fract_y
 _atom_site_fract_z
 _atom_site_occupancy
  Tb  Tb0  1  0.999792  0.000208  0.500000  1
  Tb  Tb1  1  0.689152  0.310848  0.000000  1
  Tm  Tm2  1  0.311155  0.688845  0.000000  1
  Ga  Ga3  1  0.499988  0.500012  0.000000  1
  Sn  Sn4  1  0.404598  0.595402  0.500000  1
  Sn  Sn5  1  0.594866  0.405134  0.500000  1
  Sn  Sn6  1  0.092844  0.907156  0.000000  1
  Sn  Sn7  1  0.906885  0.093115  0.000000  1
  Sn  Sn8  1  0.211290  0.788710  0.500000  1
  Sn  Sn9  1  0.789430  0.210570  0.500000  1
