# generated using pymatgen
data_DyLuFe12P7
_symmetry_space_group_name_H-M   'P 1'
_cell_length_a   8.94156000
_cell_length_b   8.94155991
_cell_length_c   3.63593500
_cell_angle_alpha   90.00000000
_cell_angle_beta   90.00000000
_cell_angle_gamma   120.00000035
_symmetry_Int_Tables_number   1
_chemical_formula_structural   DyLuFe12P7
_chemical_formula_sum   'Dy1 Lu1 Fe12 P7'
_cell_volume   251.75223017
_cell_formula_units_Z   1
loop_
 _symmetry_equiv_pos_site_id
 _symmetry_equiv_pos_as_xyz
  1  'x, y, z'
loop_
 _atom_site_type_symbol
 _atom_site_label
 _atom_site_symmetry_multiplicity
 _atom_site_fract_x
 _atom_site_fract_y
 _atom_site_fract_z
 _atom_site_occupancy
  Dy  Dy0  1  0.333333  0.666667  0.000000  1
  Lu  Lu1  1  0.000000  0.000000  0.500000  1
  Fe  Fe2  1  0.724283  0.759695  0.000000  1
  Fe  Fe3  1  0.240305  0.964588  0.000000  1
  Fe  Fe4  1  0.035412  0.275717  0.000000  1
  Fe  Fe5  1  0.941873  0.489342  0.000000  1
  Fe  Fe6  1  0.510658  0.452530  0.000000  1
  Fe  Fe7  1  0.547470  0.058127  0.000000  1
  Fe  Fe8  1  0.098677  0.718381  0.500000  1
  Fe  Fe9  1  0.281619  0.380296  0.500000  1
  Fe  Fe10  1  0.619704  0.901323  0.500000  1
  Fe  Fe11  1  0.761746  0.545965  0.500000  1
  Fe  Fe12  1  0.454035  0.215782  0.500000  1
  Fe  Fe13  1  0.784218  0.238254  0.500000  1
  P  P14  1  0.965419  0.746703  0.000000  1
  P  P15  1  0.253297  0.218716  0.000000  1
  P  P16  1  0.781284  0.034581  0.000000  1
  P  P17  1  0.066995  0.444763  0.500000  1
  P  P18  1  0.555237  0.622230  0.500000  1
  P  P19  1  0.377770  0.933005  0.500000  1
  P  P20  1  0.666667  0.333333  0.000000  1
