# generated using pymatgen
data_TbHo2U(Co3Si5)2
_symmetry_space_group_name_H-M   'P 1'
_cell_length_a   7.86925721
_cell_length_b   7.84539116
_cell_length_c   7.84539234
_cell_angle_alpha   138.50006415
_cell_angle_beta   104.94841177
_cell_angle_gamma   89.56071135
_symmetry_Int_Tables_number   1
_chemical_formula_structural   TbHo2U(Co3Si5)2
_chemical_formula_sum   'Tb1 Ho2 U1 Co6 Si10'
_cell_volume   296.77513587
_cell_formula_units_Z   1
loop_
 _symmetry_equiv_pos_site_id
 _symmetry_equiv_pos_as_xyz
  1  'x, y, z'
loop_
 _atom_site_type_symbol
 _atom_site_label
 _atom_site_symmetry_multiplicity
 _atom_site_fract_x
 _atom_site_fract_y
 _atom_site_fract_z
 _atom_site_occupancy
  Tb  Tb0  1  0.602789  0.868337  0.734451  1
  Ho  Ho1  1  0.866923  0.633152  0.233772  1
  Ho  Ho2  1  0.132342  0.365844  0.766497  1
  U  U3  1  0.401035  0.134187  0.266848  1
  Co  Co4  1  0.002627  0.249545  0.249599  1
  Co  Co5  1  0.744537  0.135185  0.609353  1
  Co  Co6  1  0.524644  0.638748  0.885896  1
  Co  Co7  1  0.474162  0.359762  0.114400  1
  Co  Co8  1  0.002627  0.753028  0.753083  1
  Co  Co9  1  0.251881  0.863825  0.388054  1
  Si  Si10  1  0.054946  0.898451  0.156495  1
  Si  Si11  1  0.946072  0.102923  0.843150  1
  Si  Si12  1  0.255510  0.600660  0.654851  1
  Si  Si13  1  0.743776  0.397737  0.346039  1
  Si  Si14  1  0.228936  0.978833  0.748628  1
  Si  Si15  1  0.771456  0.518172  0.747430  1
  Si  Si16  1  0.771456  0.024026  0.253283  1
  Si  Si17  1  0.497673  0.251284  0.751678  1
  Si  Si18  1  0.497673  0.745995  0.246389  1
  Si  Si19  1  0.228936  0.480307  0.250103  1
