# generated using pymatgen
data_PrPa3(Co5P3)4
_symmetry_space_group_name_H-M   'P 1'
_cell_length_a   3.70403400
_cell_length_b   10.39150638
_cell_length_c   11.72373273
_cell_angle_alpha   89.84552303
_cell_angle_beta   90.00000000
_cell_angle_gamma   90.00000000
_symmetry_Int_Tables_number   1
_chemical_formula_structural   PrPa3(Co5P3)4
_chemical_formula_sum   'Pr1 Pa3 Co20 P12'
_cell_volume   451.25061153
_cell_formula_units_Z   1
loop_
 _symmetry_equiv_pos_site_id
 _symmetry_equiv_pos_as_xyz
  1  'x, y, z'
loop_
 _atom_site_type_symbol
 _atom_site_label
 _atom_site_symmetry_multiplicity
 _atom_site_fract_x
 _atom_site_fract_y
 _atom_site_fract_z
 _atom_site_occupancy
  Pr  Pr0  1  0.750000  0.084060  0.797811  1
  Pa  Pa1  1  0.250000  0.583515  0.701322  1
  Pa  Pa2  1  0.250000  0.916159  0.201871  1
  Pa  Pa3  1  0.750000  0.417733  0.298718  1
  Co  Co4  1  0.250000  0.715201  0.991561  1
  Co  Co5  1  0.250000  0.786124  0.487634  1
  Co  Co6  1  0.750000  0.285722  0.008897  1
  Co  Co7  1  0.750000  0.216403  0.506055  1
  Co  Co8  1  0.250000  0.409286  0.480128  1
  Co  Co9  1  0.250000  0.091225  0.993096  1
  Co  Co10  1  0.750000  0.591440  0.520667  1
  Co  Co11  1  0.750000  0.905243  0.020283  1
  Co  Co12  1  0.250000  0.222235  0.179419  1
  Co  Co13  1  0.250000  0.283508  0.674580  1
  Co  Co14  1  0.750000  0.778111  0.823807  1
  Co  Co15  1  0.750000  0.718952  0.322342  1
  Co  Co16  1  0.250000  0.878749  0.696361  1
  Co  Co17  1  0.250000  0.615551  0.199697  1
  Co  Co18  1  0.750000  0.114595  0.299954  1
  Co  Co19  1  0.750000  0.388586  0.800823  1
  Co  Co20  1  0.250000  0.472186  0.930656  1
  Co  Co21  1  0.250000  0.027843  0.427365  1
  Co  Co22  1  0.750000  0.527963  0.070153  1
  Co  Co23  1  0.750000  0.970721  0.565634  1
  P  P24  1  0.250000  0.416744  0.111437  1
  P  P25  1  0.250000  0.083469  0.608011  1
  P  P26  1  0.750000  0.584271  0.889782  1
  P  P27  1  0.750000  0.913803  0.389119  1
  P  P28  1  0.250000  0.276751  0.871548  1
  P  P29  1  0.250000  0.223624  0.370941  1
  P  P30  1  0.750000  0.722771  0.129494  1
  P  P31  1  0.750000  0.777443  0.629341  1
  P  P32  1  0.250000  0.607029  0.392448  1
  P  P33  1  0.250000  0.893852  0.892569  1
  P  P34  1  0.750000  0.392677  0.608452  1
  P  P35  1  0.750000  0.106453  0.108026  1
