# generated using pymatgen
data_Yb3HoNbOs7
_symmetry_space_group_name_H-M   'P 1'
_cell_length_a   5.41203400
_cell_length_b   5.41203406
_cell_length_c   8.61698500
_cell_angle_alpha   90.00000000
_cell_angle_beta   90.00000000
_cell_angle_gamma   119.99999963
_symmetry_Int_Tables_number   1
_chemical_formula_structural   Yb3HoNbOs7
_chemical_formula_sum   'Yb3 Ho1 Nb1 Os7'
_cell_volume   218.57828179
_cell_formula_units_Z   1
loop_
 _symmetry_equiv_pos_site_id
 _symmetry_equiv_pos_as_xyz
  1  'x, y, z'
loop_
 _atom_site_type_symbol
 _atom_site_label
 _atom_site_symmetry_multiplicity
 _atom_site_fract_x
 _atom_site_fract_y
 _atom_site_fract_z
 _atom_site_occupancy
  Yb  Yb0  1  0.666667  0.333333  0.576029  1
  Yb  Yb1  1  0.666667  0.333333  0.935206  1
  Yb  Yb2  1  0.333333  0.666667  0.059467  1
  Ho  Ho3  1  0.333333  0.666667  0.424915  1
  Nb  Nb4  1  0.000000  0.000000  0.499948  1
  Os  Os5  1  0.000000  0.000000  0.002149  1
  Os  Os6  1  0.826842  0.173158  0.248903  1
  Os  Os7  1  0.826842  0.653684  0.248903  1
  Os  Os8  1  0.346316  0.173158  0.248903  1
  Os  Os9  1  0.172693  0.827307  0.751858  1
  Os  Os10  1  0.172693  0.345385  0.751858  1
  Os  Os11  1  0.654615  0.827307  0.751858  1
