# generated using pymatgen
data_Ac4GaCoSi6
_symmetry_space_group_name_H-M   'P 1'
_cell_length_a   8.32926900
_cell_length_b   8.32926827
_cell_length_c   4.65834900
_cell_angle_alpha   90.00000000
_cell_angle_beta   90.00000000
_cell_angle_gamma   119.99999891
_symmetry_Int_Tables_number   1
_chemical_formula_structural   Ac4GaCoSi6
_chemical_formula_sum   'Ac4 Ga1 Co1 Si6'
_cell_volume   279.88292078
_cell_formula_units_Z   1
loop_
 _symmetry_equiv_pos_site_id
 _symmetry_equiv_pos_as_xyz
  1  'x, y, z'
loop_
 _atom_site_type_symbol
 _atom_site_label
 _atom_site_symmetry_multiplicity
 _atom_site_fract_x
 _atom_site_fract_y
 _atom_site_fract_z
 _atom_site_occupancy
  Ac  Ac0  1  0.503382  0.496618  0.000000  1
  Ac  Ac1  1  0.993236  0.496618  0.000000  1
  Ac  Ac2  1  0.503382  0.006764  0.000000  1
  Ac  Ac3  1  0.000000  0.000000  0.000000  1
  Ga  Ga4  1  0.333333  0.666667  0.500000  1
  Co  Co5  1  0.666667  0.333333  0.500000  1
  Si  Si6  1  0.824046  0.648093  0.500000  1
  Si  Si7  1  0.159834  0.840166  0.500000  1
  Si  Si8  1  0.680331  0.840166  0.500000  1
  Si  Si9  1  0.159834  0.319669  0.500000  1
  Si  Si10  1  0.824046  0.175954  0.500000  1
  Si  Si11  1  0.351907  0.175954  0.500000  1
