# generated using pymatgen
data_LaNd15(YIr3)4
_symmetry_space_group_name_H-M   'P 1'
_cell_length_a   11.23371933
_cell_length_b   11.23531064
_cell_length_c   6.53210652
_cell_angle_alpha   89.98439828
_cell_angle_beta   89.95694770
_cell_angle_gamma   89.96473582
_symmetry_Int_Tables_number   1
_chemical_formula_structural   LaNd15(YIr3)4
_chemical_formula_sum   'La1 Nd15 Y4 Ir12'
_cell_volume   824.44500397
_cell_formula_units_Z   1
loop_
 _symmetry_equiv_pos_site_id
 _symmetry_equiv_pos_as_xyz
  1  'x, y, z'
loop_
 _atom_site_type_symbol
 _atom_site_label
 _atom_site_symmetry_multiplicity
 _atom_site_fract_x
 _atom_site_fract_y
 _atom_site_fract_z
 _atom_site_occupancy
  La  La0  1  0.289338  0.088249  0.380932  1
  Nd  Nd1  1  0.289505  0.911578  0.880518  1
  Nd  Nd2  1  0.710394  0.088003  0.880657  1
  Nd  Nd3  1  0.710586  0.911962  0.380633  1
  Nd  Nd4  1  0.587950  0.789546  0.880569  1
  Nd  Nd5  1  0.588477  0.210698  0.380497  1
  Nd  Nd6  1  0.412135  0.789082  0.380519  1
  Nd  Nd7  1  0.412355  0.210742  0.880603  1
  Nd  Nd8  1  0.210402  0.412257  0.619722  1
  Nd  Nd9  1  0.210452  0.587958  0.119393  1
  Nd  Nd10  1  0.789572  0.412042  0.119390  1
  Nd  Nd11  1  0.789570  0.587932  0.619390  1
  Nd  Nd12  1  0.911993  0.710452  0.119456  1
  Nd  Nd13  1  0.911898  0.289579  0.619312  1
  Nd  Nd14  1  0.087959  0.710413  0.619542  1
  Nd  Nd15  1  0.087712  0.289808  0.119091  1
  Y  Y16  1  0.999541  0.999774  0.500195  1
  Y  Y17  1  0.999839  0.000005  0.999775  1
  Y  Y18  1  0.499998  0.499968  0.000026  1
  Y  Y19  1  0.500115  0.500041  0.500133  1
  Ir  Ir20  1  0.849496  0.150467  0.249966  1
  Ir  Ir21  1  0.849519  0.849576  0.750001  1
  Ir  Ir22  1  0.150720  0.150413  0.749723  1
  Ir  Ir23  1  0.150441  0.849309  0.249828  1
  Ir  Ir24  1  0.650500  0.349556  0.750029  1
  Ir  Ir25  1  0.650427  0.650551  0.249902  1
  Ir  Ir26  1  0.349555  0.349620  0.250007  1
  Ir  Ir27  1  0.349535  0.650497  0.749992  1
  Ir  Ir28  1  0.499801  0.000075  0.120898  1
  Ir  Ir29  1  0.500190  0.999874  0.620800  1
  Ir  Ir30  1  0.000048  0.499914  0.879302  1
  Ir  Ir31  1  0.999980  0.500062  0.379196  1
