# generated using pymatgen
data_Y5(GeB4)2
_symmetry_space_group_name_H-M   'P 1'
_cell_length_a   7.26271100
_cell_length_b   7.26271100
_cell_length_c   8.16384300
_cell_angle_alpha   90.00000000
_cell_angle_beta   90.00000000
_cell_angle_gamma   90.00000000
_symmetry_Int_Tables_number   1
_chemical_formula_structural   Y5(GeB4)2
_chemical_formula_sum   'Y10 Ge4 B16'
_cell_volume   430.61799054
_cell_formula_units_Z   2
loop_
 _symmetry_equiv_pos_site_id
 _symmetry_equiv_pos_as_xyz
  1  'x, y, z'
loop_
 _atom_site_type_symbol
 _atom_site_label
 _atom_site_symmetry_multiplicity
 _atom_site_fract_x
 _atom_site_fract_y
 _atom_site_fract_z
 _atom_site_occupancy
  Y  Y0  1  0.680475  0.180475  0.220776  1
  Y  Y1  1  0.319525  0.819525  0.779224  1
  Y  Y2  1  0.319525  0.819525  0.220776  1
  Y  Y3  1  0.819525  0.680475  0.220776  1
  Y  Y4  1  0.819525  0.680475  0.779224  1
  Y  Y5  1  0.680475  0.180475  0.779224  1
  Y  Y6  1  0.180475  0.319525  0.779224  1
  Y  Y7  1  0.180475  0.319525  0.220776  1
  Y  Y8  1  0.000000  0.000000  0.500000  1
  Y  Y9  1  0.500000  0.500000  0.500000  1
  Ge  Ge10  1  0.119993  0.619993  0.500000  1
  Ge  Ge11  1  0.880007  0.380007  0.500000  1
  Ge  Ge12  1  0.380007  0.119993  0.500000  1
  Ge  Ge13  1  0.619993  0.880007  0.500000  1
  B  B14  1  0.172107  0.039293  0.000000  1
  B  B15  1  0.827893  0.960707  0.000000  1
  B  B16  1  0.960707  0.172107  0.000000  1
  B  B17  1  0.327893  0.539293  0.000000  1
  B  B18  1  0.039293  0.827893  0.000000  1
  B  B19  1  0.672107  0.460707  0.000000  1
  B  B20  1  0.539293  0.672107  0.000000  1
  B  B21  1  0.460707  0.327893  0.000000  1
  B  B22  1  0.090334  0.590334  0.000000  1
  B  B23  1  0.909666  0.409666  0.000000  1
  B  B24  1  0.409666  0.090334  0.000000  1
  B  B25  1  0.590334  0.909666  0.000000  1
  B  B26  1  0.000000  0.000000  0.161078  1
  B  B27  1  0.000000  0.000000  0.838922  1
  B  B28  1  0.500000  0.500000  0.838922  1
  B  B29  1  0.500000  0.500000  0.161078  1
