# generated using pymatgen
data_LaV(FeSi)2
_symmetry_space_group_name_H-M   'P 1'
_cell_length_a   3.98768800
_cell_length_b   3.98768740
_cell_length_c   13.79203400
_cell_angle_alpha   90.00000000
_cell_angle_beta   90.00000000
_cell_angle_gamma   119.99998835
_symmetry_Int_Tables_number   1
_chemical_formula_structural   LaV(FeSi)2
_chemical_formula_sum   'La2 V2 Fe4 Si4'
_cell_volume   189.93337250
_cell_formula_units_Z   2
loop_
 _symmetry_equiv_pos_site_id
 _symmetry_equiv_pos_as_xyz
  1  'x, y, z'
loop_
 _atom_site_type_symbol
 _atom_site_label
 _atom_site_symmetry_multiplicity
 _atom_site_fract_x
 _atom_site_fract_y
 _atom_site_fract_z
 _atom_site_occupancy
  La  La0  1  0.000000  0.000000  0.250000  1
  La  La1  1  0.000000  0.000000  0.750000  1
  V  V2  1  0.000000  0.000000  0.000000  1
  V  V3  1  0.000000  0.000000  0.500000  1
  Fe  Fe4  1  0.666667  0.333334  0.059303  1
  Fe  Fe5  1  0.666667  0.333334  0.440698  1
  Fe  Fe6  1  0.333334  0.666667  0.559303  1
  Fe  Fe7  1  0.333334  0.666667  0.940697  1
  Si  Si8  1  0.333334  0.666667  0.106775  1
  Si  Si9  1  0.333334  0.666667  0.393225  1
  Si  Si10  1  0.666667  0.333334  0.606775  1
  Si  Si11  1  0.666667  0.333334  0.893225  1
