# generated using pymatgen
data_HoEr3(Tm3Ru2)2
_symmetry_space_group_name_H-M   'P 1'
_cell_length_a   6.25217035
_cell_length_b   7.23387603
_cell_length_c   8.35689118
_cell_angle_alpha   96.86146354
_cell_angle_beta   112.04793642
_cell_angle_gamma   89.99713499
_symmetry_Int_Tables_number   1
_chemical_formula_structural   HoEr3(Tm3Ru2)2
_chemical_formula_sum   'Ho1 Er3 Tm6 Ru4'
_cell_volume   347.39907758
_cell_formula_units_Z   1
loop_
 _symmetry_equiv_pos_site_id
 _symmetry_equiv_pos_as_xyz
  1  'x, y, z'
loop_
 _atom_site_type_symbol
 _atom_site_label
 _atom_site_symmetry_multiplicity
 _atom_site_fract_x
 _atom_site_fract_y
 _atom_site_fract_z
 _atom_site_occupancy
  Ho  Ho0  1  0.790546  0.083908  0.812944  1
  Er  Er1  1  0.977850  0.415901  0.186821  1
  Er  Er2  1  0.209136  0.915888  0.186989  1
  Er  Er3  1  0.022568  0.584172  0.813435  1
  Tm  Tm4  1  0.205444  0.184248  0.565314  1
  Tm  Tm5  1  0.640345  0.315757  0.434681  1
  Tm  Tm6  1  0.794242  0.815618  0.434367  1
  Tm  Tm7  1  0.359527  0.684334  0.565140  1
  Tm  Tm8  1  0.419508  0.249818  0.999981  1
  Tm  Tm9  1  0.580472  0.750145  0.000254  1
  Ru  Ru10  1  0.601675  0.424319  0.779157  1
  Ru  Ru11  1  0.822760  0.076733  0.220788  1
  Ru  Ru12  1  0.398104  0.576005  0.220770  1
  Ru  Ru13  1  0.177823  0.923153  0.779360  1
