# generated using pymatgen
data_Yb3Nb(Pt2O7)2
_symmetry_space_group_name_H-M   'P 1'
_cell_length_a   7.13641243
_cell_length_b   7.19399401
_cell_length_c   7.13641300
_cell_angle_alpha   60.26441557
_cell_angle_beta   59.99999271
_cell_angle_gamma   60.26441533
_symmetry_Int_Tables_number   1
_chemical_formula_structural   Yb3Nb(Pt2O7)2
_chemical_formula_sum   'Yb3 Nb1 Pt4 O14'
_cell_volume   260.09929296
_cell_formula_units_Z   1
loop_
 _symmetry_equiv_pos_site_id
 _symmetry_equiv_pos_as_xyz
  1  'x, y, z'
loop_
 _atom_site_type_symbol
 _atom_site_label
 _atom_site_symmetry_multiplicity
 _atom_site_fract_x
 _atom_site_fract_y
 _atom_site_fract_z
 _atom_site_occupancy
  Yb  Yb0  1  0.125000  0.125000  0.125000  1
  Yb  Yb1  1  0.625000  0.125000  0.125000  1
  Yb  Yb2  1  0.125000  0.125000  0.625000  1
  Nb  Nb3  1  0.125000  0.625000  0.125000  1
  Pt  Pt4  1  0.625000  0.625000  0.625000  1
  Pt  Pt5  1  0.125000  0.625000  0.625000  1
  Pt  Pt6  1  0.625000  0.625000  0.125000  1
  Pt  Pt7  1  0.625000  0.125000  0.625000  1
  O  O8  1  0.015294  0.954117  0.015294  1
  O  O9  1  0.234706  0.295883  0.234706  1
  O  O10  1  0.512884  0.549491  0.968812  1
  O  O11  1  0.283051  0.288148  0.714401  1
  O  O12  1  0.968812  0.549491  0.968812  1
  O  O13  1  0.968812  0.549491  0.512884  1
  O  O14  1  0.535599  0.961852  0.966949  1
  O  O15  1  0.535599  0.961852  0.535599  1
  O  O16  1  0.966949  0.961852  0.535599  1
  O  O17  1  0.714401  0.288148  0.283051  1
  O  O18  1  0.281188  0.700509  0.737116  1
  O  O19  1  0.737116  0.700509  0.281188  1
  O  O20  1  0.714401  0.288148  0.714401  1
  O  O21  1  0.281188  0.700509  0.281188  1
