# generated using pymatgen
data_Ac2As3Au
_symmetry_space_group_name_H-M   'P 1'
_cell_length_a   4.52783900
_cell_length_b   8.45686500
_cell_length_c   17.13196100
_cell_angle_alpha   90.00000000
_cell_angle_beta   90.00000000
_cell_angle_gamma   90.00000000
_symmetry_Int_Tables_number   1
_chemical_formula_structural   Ac2As3Au
_chemical_formula_sum   'Ac8 As12 Au4'
_cell_volume   656.00545510
_cell_formula_units_Z   4
loop_
 _symmetry_equiv_pos_site_id
 _symmetry_equiv_pos_as_xyz
  1  'x, y, z'
loop_
 _atom_site_type_symbol
 _atom_site_label
 _atom_site_symmetry_multiplicity
 _atom_site_fract_x
 _atom_site_fract_y
 _atom_site_fract_z
 _atom_site_occupancy
  Ac  Ac0  1  0.250000  0.228921  0.476799  1
  Ac  Ac1  1  0.750000  0.920070  0.790219  1
  Ac  Ac2  1  0.750000  0.271079  0.976799  1
  Ac  Ac3  1  0.750000  0.420070  0.709781  1
  Ac  Ac4  1  0.250000  0.579930  0.290219  1
  Ac  Ac5  1  0.250000  0.079930  0.209781  1
  Ac  Ac6  1  0.750000  0.771079  0.523201  1
  Ac  Ac7  1  0.250000  0.728921  0.023201  1
  As  As8  1  0.250000  0.381761  0.096442  1
  As  As9  1  0.250000  0.706029  0.705570  1
  As  As10  1  0.750000  0.118239  0.596442  1
  As  As11  1  0.750000  0.293971  0.294430  1
  As  As12  1  0.750000  0.793971  0.205570  1
  As  As13  1  0.250000  0.881761  0.403558  1
  As  As14  1  0.250000  0.533928  0.588123  1
  As  As15  1  0.750000  0.618239  0.903558  1
  As  As16  1  0.750000  0.966072  0.088123  1
  As  As17  1  0.250000  0.206029  0.794430  1
  As  As18  1  0.750000  0.466072  0.411877  1
  As  As19  1  0.250000  0.033928  0.911877  1
  Au  Au20  1  0.250000  0.995671  0.642063  1
  Au  Au21  1  0.750000  0.004329  0.357937  1
  Au  Au22  1  0.250000  0.495671  0.857937  1
  Au  Au23  1  0.750000  0.504329  0.142063  1
