# generated using pymatgen
data_BaFe2BPO7
_symmetry_space_group_name_H-M   'P 1'
_cell_length_a   9.31517100
_cell_length_b   6.74181159
_cell_length_c   10.47823108
_cell_angle_alpha   68.25363402
_cell_angle_beta   90.00000000
_cell_angle_gamma   90.00000000
_symmetry_Int_Tables_number   1
_chemical_formula_structural   BaFe2BPO7
_chemical_formula_sum   'Ba4 Fe8 B4 P4 O28'
_cell_volume   611.21369613
_cell_formula_units_Z   4
loop_
 _symmetry_equiv_pos_site_id
 _symmetry_equiv_pos_as_xyz
  1  'x, y, z'
loop_
 _atom_site_type_symbol
 _atom_site_label
 _atom_site_symmetry_multiplicity
 _atom_site_fract_x
 _atom_site_fract_y
 _atom_site_fract_z
 _atom_site_occupancy
  Ba  Ba0  1  0.703649  0.156906  0.491258  1
  Ba  Ba1  1  0.203649  0.843094  0.008742  1
  Ba  Ba2  1  0.296351  0.843094  0.508742  1
  Ba  Ba3  1  0.796351  0.156906  0.991258  1
  Fe  Fe4  1  0.822636  0.708299  0.853353  1
  Fe  Fe5  1  0.322636  0.291701  0.646647  1
  Fe  Fe6  1  0.177364  0.291701  0.146647  1
  Fe  Fe7  1  0.677364  0.708299  0.353353  1
  Fe  Fe8  1  0.055864  0.430078  0.377750  1
  Fe  Fe9  1  0.555864  0.569922  0.122250  1
  Fe  Fe10  1  0.944136  0.569922  0.622250  1
  Fe  Fe11  1  0.444136  0.430078  0.877750  1
  B  B12  1  0.624870  0.534771  0.670673  1
  B  B13  1  0.124870  0.465229  0.829327  1
  B  B14  1  0.375130  0.465229  0.329327  1
  B  B15  1  0.875130  0.534771  0.170673  1
  P  P16  1  0.010066  0.046465  0.689180  1
  P  P17  1  0.510066  0.953535  0.810820  1
  P  P18  1  0.989934  0.953535  0.310820  1
  P  P19  1  0.489934  0.046465  0.189180  1
  O  O20  1  0.958705  0.271855  0.590168  1
  O  O21  1  0.458705  0.728145  0.909832  1
  O  O22  1  0.041295  0.728145  0.409832  1
  O  O23  1  0.541295  0.271855  0.090168  1
  O  O24  1  0.971227  0.994812  0.842647  1
  O  O25  1  0.471227  0.005188  0.657353  1
  O  O26  1  0.028773  0.005188  0.157353  1
  O  O27  1  0.528773  0.994812  0.342647  1
  O  O28  1  0.924660  0.881069  0.645848  1
  O  O29  1  0.424660  0.118931  0.854152  1
  O  O30  1  0.075340  0.118931  0.354152  1
  O  O31  1  0.575340  0.881069  0.145848  1
  O  O32  1  0.665252  0.502953  0.804977  1
  O  O33  1  0.165252  0.497047  0.695023  1
  O  O34  1  0.334748  0.497047  0.195023  1
  O  O35  1  0.834748  0.502953  0.304977  1
  O  O36  1  0.978479  0.483036  0.850230  1
  O  O37  1  0.478479  0.516964  0.649770  1
  O  O38  1  0.021521  0.516964  0.149770  1
  O  O39  1  0.521521  0.483036  0.350230  1
  O  O40  1  0.175002  0.028062  0.678357  1
  O  O41  1  0.675002  0.971938  0.821643  1
  O  O42  1  0.824998  0.971938  0.321643  1
  O  O43  1  0.324998  0.028062  0.178357  1
  O  O44  1  0.773387  0.580755  0.066892  1
  O  O45  1  0.273387  0.419245  0.433108  1
  O  O46  1  0.226613  0.419245  0.933108  1
  O  O47  1  0.726613  0.580755  0.566892  1
