# generated using pymatgen
data_Eu4CuGe8Pt7
_symmetry_space_group_name_H-M   'P 1'
_cell_length_a   4.46919087
_cell_length_b   8.95573846
_cell_length_c   9.80284165
_cell_angle_alpha   88.94854397
_cell_angle_beta   90.06761603
_cell_angle_gamma   89.70516867
_symmetry_Int_Tables_number   1
_chemical_formula_structural   Eu4CuGe8Pt7
_chemical_formula_sum   'Eu4 Cu1 Ge8 Pt7'
_cell_volume   392.28622291
_cell_formula_units_Z   1
loop_
 _symmetry_equiv_pos_site_id
 _symmetry_equiv_pos_as_xyz
  1  'x, y, z'
loop_
 _atom_site_type_symbol
 _atom_site_label
 _atom_site_symmetry_multiplicity
 _atom_site_fract_x
 _atom_site_fract_y
 _atom_site_fract_z
 _atom_site_occupancy
  Eu  Eu0  1  0.759186  0.629508  0.755446  1
  Eu  Eu1  1  0.741469  0.130252  0.754551  1
  Eu  Eu2  1  0.259215  0.870589  0.245114  1
  Eu  Eu3  1  0.241452  0.369842  0.245131  1
  Cu  Cu4  1  0.177127  0.141293  0.499151  1
  Ge  Ge5  1  0.735538  0.374399  0.001533  1
  Ge  Ge6  1  0.688666  0.109807  0.381309  1
  Ge  Ge7  1  0.311804  0.892128  0.619205  1
  Ge  Ge8  1  0.264719  0.625806  0.998118  1
  Ge  Ge9  1  0.764796  0.873950  0.001530  1
  Ge  Ge10  1  0.188508  0.390094  0.619140  1
  Ge  Ge11  1  0.235935  0.125904  0.998728  1
  Ge  Ge12  1  0.811977  0.608396  0.380892  1
  Pt  Pt13  1  0.236035  0.378554  0.874415  1
  Pt  Pt14  1  0.763289  0.621554  0.125655  1
  Pt  Pt15  1  0.823289  0.861493  0.500248  1
  Pt  Pt16  1  0.676590  0.355923  0.499577  1
  Pt  Pt17  1  0.737575  0.121419  0.125575  1
  Pt  Pt18  1  0.319996  0.640640  0.500643  1
  Pt  Pt19  1  0.262834  0.878449  0.874040  1
