# generated using pymatgen
data_HoTh2(GeRh)3
_symmetry_space_group_name_H-M   'P 1'
_cell_length_a   7.26185177
_cell_length_b   7.26185007
_cell_length_c   3.93339600
_cell_angle_alpha   90.00000000
_cell_angle_beta   90.00000000
_cell_angle_gamma   119.61797450
_symmetry_Int_Tables_number   1
_chemical_formula_structural   HoTh2(GeRh)3
_chemical_formula_sum   'Ho1 Th2 Ge3 Rh3'
_cell_volume   180.32334601
_cell_formula_units_Z   1
loop_
 _symmetry_equiv_pos_site_id
 _symmetry_equiv_pos_as_xyz
  1  'x, y, z'
loop_
 _atom_site_type_symbol
 _atom_site_label
 _atom_site_symmetry_multiplicity
 _atom_site_fract_x
 _atom_site_fract_y
 _atom_site_fract_z
 _atom_site_occupancy
  Ho  Ho0  1  0.405919  0.405919  0.500000  1
  Th  Th1  1  0.587662  0.999796  0.500000  1
  Th  Th2  1  0.999796  0.587662  0.500000  1
  Ge  Ge3  1  0.740535  0.740535  0.000000  1
  Ge  Ge4  1  0.251275  0.010921  0.000000  1
  Ge  Ge5  1  0.010921  0.251275  0.000000  1
  Rh  Rh6  1  0.674141  0.333044  0.000000  1
  Rh  Rh7  1  0.333044  0.674141  0.000000  1
  Rh  Rh8  1  0.996708  0.996708  0.500000  1
