# generated using pymatgen
data_Rb2CoAs2O7
_symmetry_space_group_name_H-M   'P 1'
_cell_length_a   7.47894354
_cell_length_b   7.47898904
_cell_length_c   8.75392867
_cell_angle_alpha   101.13164009
_cell_angle_beta   101.13053995
_cell_angle_gamma   108.32811385
_symmetry_Int_Tables_number   1
_chemical_formula_structural   Rb2CoAs2O7
_chemical_formula_sum   'Rb4 Co2 As4 O14'
_cell_volume   438.81429860
_cell_formula_units_Z   2
loop_
 _symmetry_equiv_pos_site_id
 _symmetry_equiv_pos_as_xyz
  1  'x, y, z'
loop_
 _atom_site_type_symbol
 _atom_site_label
 _atom_site_symmetry_multiplicity
 _atom_site_fract_x
 _atom_site_fract_y
 _atom_site_fract_z
 _atom_site_occupancy
  Rb  Rb0  1  0.817269  0.737730  0.027901  1
  Rb  Rb1  1  0.262269  0.182728  0.472103  1
  Rb  Rb2  1  0.737731  0.817268  0.527894  1
  Rb  Rb3  1  0.182727  0.262268  0.972104  1
  Co  Co4  1  0.744011  0.255988  0.250001  1
  Co  Co5  1  0.255992  0.744014  0.749997  1
  As  As6  1  0.395359  0.837499  0.134555  1
  As  As7  1  0.162501  0.604636  0.365441  1
  As  As8  1  0.837504  0.395358  0.634561  1
  As  As9  1  0.604636  0.162509  0.865450  1
  O  O10  1  0.624469  0.312273  0.049207  1
  O  O11  1  0.247685  0.966343  0.134106  1
  O  O12  1  0.639870  0.969130  0.230869  1
  O  O13  1  0.341482  0.658530  0.250003  1
  O  O14  1  0.030867  0.360130  0.269110  1
  O  O15  1  0.033661  0.752312  0.365901  1
  O  O16  1  0.687746  0.375528  0.450804  1
  O  O17  1  0.312262  0.624466  0.549198  1
  O  O18  1  0.966344  0.247680  0.634102  1
  O  O19  1  0.969135  0.639867  0.730881  1
  O  O20  1  0.658519  0.341470  0.749997  1
  O  O21  1  0.360128  0.030871  0.769120  1
  O  O22  1  0.752305  0.033662  0.865900  1
  O  O23  1  0.375527  0.687738  0.950798  1
