# generated using pymatgen
data_SrCe(CuS)6
_symmetry_space_group_name_H-M   'P 1'
_cell_length_a   7.68271652
_cell_length_b   7.68271543
_cell_length_c   7.68271500
_cell_angle_alpha   52.28317557
_cell_angle_beta   52.28317240
_cell_angle_gamma   52.28317961
_symmetry_Int_Tables_number   1
_chemical_formula_structural   SrCe(CuS)6
_chemical_formula_sum   'Sr1 Ce1 Cu6 S6'
_cell_volume   262.52198586
_cell_formula_units_Z   1
loop_
 _symmetry_equiv_pos_site_id
 _symmetry_equiv_pos_as_xyz
  1  'x, y, z'
loop_
 _atom_site_type_symbol
 _atom_site_label
 _atom_site_symmetry_multiplicity
 _atom_site_fract_x
 _atom_site_fract_y
 _atom_site_fract_z
 _atom_site_occupancy
  Sr  Sr0  1  0.333610  0.333610  0.333610  1
  Ce  Ce1  1  0.666717  0.666717  0.666717  1
  Cu  Cu2  1  0.868067  0.533078  0.222767  1
  Cu  Cu3  1  0.533078  0.222767  0.868067  1
  Cu  Cu4  1  0.222767  0.868067  0.533078  1
  Cu  Cu5  1  0.784238  0.119662  0.471599  1
  Cu  Cu6  1  0.471599  0.784238  0.119662  1
  Cu  Cu7  1  0.119662  0.471599  0.784238  1
  S  S8  1  0.077197  0.763297  0.422413  1
  S  S9  1  0.422413  0.077197  0.763297  1
  S  S10  1  0.763297  0.422413  0.077197  1
  S  S11  1  0.248168  0.585745  0.903443  1
  S  S12  1  0.585745  0.903443  0.248168  1
  S  S13  1  0.903443  0.248168  0.585745  1
