# generated using pymatgen
data_LiHo16Cd2Co4Hg
_symmetry_space_group_name_H-M   'P 1'
_cell_length_a   9.40609482
_cell_length_b   9.42639310
_cell_length_c   9.45049564
_cell_angle_alpha   60.08432491
_cell_angle_beta   60.00283137
_cell_angle_gamma   59.92858844
_symmetry_Int_Tables_number   1
_chemical_formula_structural   LiHo16Cd2Co4Hg
_chemical_formula_sum   'Li1 Ho16 Cd2 Co4 Hg1'
_cell_volume   592.57667717
_cell_formula_units_Z   1
loop_
 _symmetry_equiv_pos_site_id
 _symmetry_equiv_pos_as_xyz
  1  'x, y, z'
loop_
 _atom_site_type_symbol
 _atom_site_label
 _atom_site_symmetry_multiplicity
 _atom_site_fract_x
 _atom_site_fract_y
 _atom_site_fract_z
 _atom_site_occupancy
  Li  Li0  1  0.568962  0.571403  0.288232  1
  Ho  Ho1  1  0.938465  0.935138  0.563007  1
  Ho  Ho2  1  0.813555  0.186720  0.185136  1
  Ho  Ho3  1  0.938465  0.563391  0.563007  1
  Ho  Ho4  1  0.940068  0.561071  0.937791  1
  Ho  Ho5  1  0.813555  0.814588  0.185136  1
  Ho  Ho6  1  0.344367  0.343447  0.347386  1
  Ho  Ho7  1  0.561476  0.938735  0.938551  1
  Ho  Ho8  1  0.564054  0.936456  0.563034  1
  Ho  Ho9  1  0.189034  0.812096  0.809349  1
  Ho  Ho10  1  0.189034  0.189522  0.809349  1
  Ho  Ho11  1  0.348274  0.347875  0.955978  1
  Ho  Ho12  1  0.344367  0.964801  0.347386  1
  Ho  Ho13  1  0.812039  0.188930  0.810102  1
  Ho  Ho14  1  0.561476  0.561238  0.938551  1
  Ho  Ho15  1  0.186290  0.813733  0.186243  1
  Ho  Ho16  1  0.965329  0.343532  0.347607  1
  Cd  Cd17  1  0.582280  0.582108  0.576842  1
  Cd  Cd18  1  0.582280  0.258771  0.576842  1
  Co  Co19  1  0.577541  0.141887  0.138686  1
  Co  Co20  1  0.142954  0.141815  0.138058  1
  Co  Co21  1  0.142954  0.577174  0.138058  1
  Co  Co22  1  0.141424  0.140370  0.577837  1
  Hg  Hg23  1  0.251763  0.585201  0.577836  1
