# generated using pymatgen
data_Nd2HoGa6Co4Ni5
_symmetry_space_group_name_H-M   'P 1'
_cell_length_a   4.11743200
_cell_length_b   8.78519500
_cell_length_c   8.80344924
_cell_angle_alpha   120.17456987
_cell_angle_beta   90.00000000
_cell_angle_gamma   90.00000000
_symmetry_Int_Tables_number   1
_chemical_formula_structural   Nd2HoGa6Co4Ni5
_chemical_formula_sum   'Nd2 Ho1 Ga6 Co4 Ni5'
_cell_volume   275.29269467
_cell_formula_units_Z   1
loop_
 _symmetry_equiv_pos_site_id
 _symmetry_equiv_pos_as_xyz
  1  'x, y, z'
loop_
 _atom_site_type_symbol
 _atom_site_label
 _atom_site_symmetry_multiplicity
 _atom_site_fract_x
 _atom_site_fract_y
 _atom_site_fract_z
 _atom_site_occupancy
  Nd  Nd0  1  0.500000  0.333818  0.666164  1
  Nd  Nd1  1  0.500000  0.667596  0.337176  1
  Ho  Ho2  1  0.000000  0.999333  0.998867  1
  Ga  Ga3  1  0.000000  0.509561  0.995641  1
  Ga  Ga4  1  0.000000  0.487967  0.489715  1
  Ga  Ga5  1  0.000000  0.001739  0.513586  1
  Ga  Ga6  1  0.500000  0.267814  0.999803  1
  Ga  Ga7  1  0.500000  0.731954  0.730778  1
  Ga  Ga8  1  0.500000  0.000020  0.266665  1
  Co  Co9  1  0.000000  0.172887  0.361706  1
  Co  Co10  1  0.000000  0.185946  0.827312  1
  Co  Co11  1  0.000000  0.641761  0.813909  1
  Co  Co12  1  0.000000  0.813411  0.638111  1
  Ni  Ni13  1  0.000000  0.364258  0.175603  1
  Ni  Ni14  1  0.000000  0.823294  0.188296  1
  Ni  Ni15  1  0.500000  0.706366  0.998172  1
  Ni  Ni16  1  0.500000  0.292640  0.293605  1
  Ni  Ni17  1  0.500000  0.999536  0.704890  1
