# generated using pymatgen
data_Tb6NbFe2(Co5P4)3
_symmetry_space_group_name_H-M   'P 1'
_cell_length_a   3.71195600
_cell_length_b   10.60012900
_cell_length_c   12.26046200
_cell_angle_alpha   90.00000000
_cell_angle_beta   90.00000000
_cell_angle_gamma   90.00000000
_symmetry_Int_Tables_number   1
_chemical_formula_structural   Tb6NbFe2(Co5P4)3
_chemical_formula_sum   'Tb6 Nb1 Fe2 Co15 P12'
_cell_volume   482.41500296
_cell_formula_units_Z   1
loop_
 _symmetry_equiv_pos_site_id
 _symmetry_equiv_pos_as_xyz
  1  'x, y, z'
loop_
 _atom_site_type_symbol
 _atom_site_label
 _atom_site_symmetry_multiplicity
 _atom_site_fract_x
 _atom_site_fract_y
 _atom_site_fract_z
 _atom_site_occupancy
  Tb  Tb0  1  0.000000  0.500000  0.527184  1
  Tb  Tb1  1  0.500000  0.000000  0.478334  1
  Tb  Tb2  1  0.500000  0.820816  0.205158  1
  Tb  Tb3  1  0.500000  0.179184  0.205158  1
  Tb  Tb4  1  0.000000  0.682649  0.796082  1
  Tb  Tb5  1  0.000000  0.317351  0.796082  1
  Nb  Nb6  1  0.500000  0.500000  0.154121  1
  Fe  Fe7  1  0.000000  0.000000  0.843169  1
  Fe  Fe8  1  0.500000  0.000000  0.011058  1
  Co  Co9  1  0.500000  0.500000  0.701090  1
  Co  Co10  1  0.000000  0.000000  0.298240  1
  Co  Co11  1  0.000000  0.500000  0.984094  1
  Co  Co12  1  0.500000  0.330584  0.989550  1
  Co  Co13  1  0.500000  0.669416  0.989550  1
  Co  Co14  1  0.000000  0.166208  0.003605  1
  Co  Co15  1  0.000000  0.833792  0.003605  1
  Co  Co16  1  0.500000  0.295102  0.432558  1
  Co  Co17  1  0.500000  0.704898  0.432558  1
  Co  Co18  1  0.000000  0.202966  0.569633  1
  Co  Co19  1  0.000000  0.797034  0.569633  1
  Co  Co20  1  0.500000  0.879736  0.708244  1
  Co  Co21  1  0.500000  0.120264  0.708244  1
  Co  Co22  1  0.000000  0.622331  0.294882  1
  Co  Co23  1  0.000000  0.377669  0.294882  1
  P  P24  1  0.500000  0.500000  0.881187  1
  P  P25  1  0.000000  0.000000  0.114620  1
  P  P26  1  0.500000  0.500000  0.355230  1
  P  P27  1  0.000000  0.000000  0.658795  1
  P  P28  1  0.500000  0.308366  0.617026  1
  P  P29  1  0.500000  0.691634  0.617026  1
  P  P30  1  0.000000  0.189284  0.385708  1
  P  P31  1  0.000000  0.810716  0.385708  1
  P  P32  1  0.500000  0.850678  0.890967  1
  P  P33  1  0.500000  0.149322  0.890967  1
  P  P34  1  0.000000  0.660384  0.103028  1
  P  P35  1  0.000000  0.339616  0.103028  1
