# generated using pymatgen
data_Dy5P12Ru18Pt
_symmetry_space_group_name_H-M   'P 1'
_cell_length_a   12.57871829
_cell_length_b   12.57871957
_cell_length_c   3.98914100
_cell_angle_alpha   90.00000000
_cell_angle_beta   90.00000000
_cell_angle_gamma   120.54184208
_symmetry_Int_Tables_number   1
_chemical_formula_structural   Dy5P12Ru18Pt
_chemical_formula_sum   'Dy5 P12 Ru18 Pt1'
_cell_volume   543.60773230
_cell_formula_units_Z   1
loop_
 _symmetry_equiv_pos_site_id
 _symmetry_equiv_pos_as_xyz
  1  'x, y, z'
loop_
 _atom_site_type_symbol
 _atom_site_label
 _atom_site_symmetry_multiplicity
 _atom_site_fract_x
 _atom_site_fract_y
 _atom_site_fract_z
 _atom_site_occupancy
  Dy  Dy0  1  0.182618  0.182618  0.500000  1
  Dy  Dy1  1  0.815650  0.998283  0.500000  1
  Dy  Dy2  1  0.998283  0.815650  0.500000  1
  Dy  Dy3  1  0.329711  0.668704  0.000000  1
  Dy  Dy4  1  0.668704  0.329711  0.000000  1
  P  P5  1  0.811634  0.811634  0.000000  1
  P  P6  1  0.184148  0.001949  0.000000  1
  P  P7  1  0.001949  0.184148  0.000000  1
  P  P8  1  0.172851  0.479813  0.500000  1
  P  P9  1  0.519079  0.701330  0.500000  1
  P  P10  1  0.305774  0.832346  0.500000  1
  P  P11  1  0.701330  0.519079  0.500000  1
  P  P12  1  0.832346  0.305774  0.500000  1
  P  P13  1  0.479813  0.172851  0.500000  1
  P  P14  1  0.364282  0.364282  0.000000  1
  P  P15  1  0.626716  0.000220  0.000000  1
  P  P16  1  0.000220  0.626716  0.000000  1
  Ru  Ru17  1  0.446249  0.002426  0.000000  1
  Ru  Ru18  1  0.002426  0.446249  0.000000  1
  Ru  Ru19  1  0.709661  0.709661  0.500000  1
  Ru  Ru20  1  0.283271  0.002690  0.500000  1
  Ru  Ru21  1  0.002690  0.283271  0.500000  1
  Ru  Ru22  1  0.186562  0.379104  0.000000  1
  Ru  Ru23  1  0.620451  0.806128  0.000000  1
  Ru  Ru24  1  0.189980  0.817076  0.000000  1
  Ru  Ru25  1  0.806128  0.620451  0.000000  1
  Ru  Ru26  1  0.817076  0.189980  0.000000  1
  Ru  Ru27  1  0.379104  0.186562  0.000000  1
  Ru  Ru28  1  0.367729  0.495126  0.500000  1
  Ru  Ru29  1  0.508056  0.878426  0.500000  1
  Ru  Ru30  1  0.128452  0.636396  0.500000  1
  Ru  Ru31  1  0.878426  0.508056  0.500000  1
  Ru  Ru32  1  0.636396  0.128452  0.500000  1
  Ru  Ru33  1  0.495126  0.367729  0.500000  1
  Ru  Ru34  1  0.997108  0.997108  0.000000  1
  Pt  Pt35  1  0.549999  0.549999  0.000000  1
