# generated using pymatgen
data_Tm2Fe2Co7NiP6
_symmetry_space_group_name_H-M   'P 1'
_cell_length_a   3.64903000
_cell_length_b   10.22043400
_cell_length_c   11.75034200
_cell_angle_alpha   90.00000000
_cell_angle_beta   90.00000000
_cell_angle_gamma   90.00000000
_symmetry_Int_Tables_number   1
_chemical_formula_structural   Tm2Fe2Co7NiP6
_chemical_formula_sum   'Tm4 Fe4 Co14 Ni2 P12'
_cell_volume   438.22513056
_cell_formula_units_Z   2
loop_
 _symmetry_equiv_pos_site_id
 _symmetry_equiv_pos_as_xyz
  1  'x, y, z'
loop_
 _atom_site_type_symbol
 _atom_site_label
 _atom_site_symmetry_multiplicity
 _atom_site_fract_x
 _atom_site_fract_y
 _atom_site_fract_z
 _atom_site_occupancy
  Tm  Tm0  1  0.250000  0.581619  0.703642  1
  Tm  Tm1  1  0.250000  0.918381  0.203642  1
  Tm  Tm2  1  0.750000  0.418825  0.296072  1
  Tm  Tm3  1  0.750000  0.081175  0.796072  1
  Fe  Fe4  1  0.250000  0.710173  0.987729  1
  Fe  Fe5  1  0.250000  0.789827  0.487729  1
  Fe  Fe6  1  0.750000  0.289277  0.012486  1
  Fe  Fe7  1  0.750000  0.210723  0.512486  1
  Co  Co8  1  0.750000  0.592615  0.513104  1
  Co  Co9  1  0.750000  0.907385  0.013104  1
  Co  Co10  1  0.250000  0.221802  0.176329  1
  Co  Co11  1  0.250000  0.278198  0.676329  1
  Co  Co12  1  0.750000  0.777838  0.823226  1
  Co  Co13  1  0.750000  0.722162  0.323226  1
  Co  Co14  1  0.250000  0.882969  0.698857  1
  Co  Co15  1  0.250000  0.617031  0.198857  1
  Co  Co16  1  0.750000  0.117753  0.301792  1
  Co  Co17  1  0.750000  0.382247  0.801792  1
  Co  Co18  1  0.250000  0.466385  0.933067  1
  Co  Co19  1  0.250000  0.033615  0.433067  1
  Co  Co20  1  0.750000  0.533625  0.067158  1
  Co  Co21  1  0.750000  0.966375  0.567158  1
  Ni  Ni22  1  0.250000  0.406791  0.486616  1
  Ni  Ni23  1  0.250000  0.093209  0.986616  1
  P  P24  1  0.250000  0.419673  0.114128  1
  P  P25  1  0.250000  0.080327  0.614128  1
  P  P26  1  0.750000  0.580814  0.886148  1
  P  P27  1  0.750000  0.919186  0.386148  1
  P  P28  1  0.250000  0.270318  0.865805  1
  P  P29  1  0.250000  0.229682  0.365805  1
  P  P30  1  0.750000  0.731687  0.132266  1
  P  P31  1  0.750000  0.768313  0.632266  1
  P  P32  1  0.250000  0.604096  0.390279  1
  P  P33  1  0.250000  0.895904  0.890279  1
  P  P34  1  0.750000  0.398603  0.611296  1
  P  P35  1  0.750000  0.101397  0.111296  1
