# generated using pymatgen
data_Pr8Y9Er3Si16
_symmetry_space_group_name_H-M   'P 1'
_cell_length_a   7.52173303
_cell_length_b   7.81254004
_cell_length_c   14.86976700
_cell_angle_alpha   90.00000000
_cell_angle_beta   90.00000000
_cell_angle_gamma   90.01102239
_symmetry_Int_Tables_number   1
_chemical_formula_structural   Pr8Y9Er3Si16
_chemical_formula_sum   'Pr8 Y9 Er3 Si16'
_cell_volume   873.80459973
_cell_formula_units_Z   1
loop_
 _symmetry_equiv_pos_site_id
 _symmetry_equiv_pos_as_xyz
  1  'x, y, z'
loop_
 _atom_site_type_symbol
 _atom_site_label
 _atom_site_symmetry_multiplicity
 _atom_site_fract_x
 _atom_site_fract_y
 _atom_site_fract_z
 _atom_site_occupancy
  Pr  Pr0  1  0.023212  0.179146  0.401936  1
  Pr  Pr1  1  0.523192  0.320855  0.401959  1
  Pr  Pr2  1  0.477054  0.679290  0.902177  1
  Pr  Pr3  1  0.477054  0.679290  0.597823  1
  Pr  Pr4  1  0.976669  0.821015  0.597853  1
  Pr  Pr5  1  0.976669  0.821015  0.902147  1
  Pr  Pr6  1  0.523192  0.320855  0.098041  1
  Pr  Pr7  1  0.023212  0.179146  0.098064  1
  Y  Y8  1  0.321697  0.179167  0.622933  1
  Y  Y9  1  0.678454  0.820588  0.376963  1
  Y  Y10  1  0.178523  0.679430  0.376948  1
  Y  Y11  1  0.821229  0.320482  0.877085  1
  Y  Y12  1  0.821229  0.320482  0.622915  1
  Y  Y13  1  0.321697  0.179167  0.877067  1
  Y  Y14  1  0.178523  0.679430  0.123052  1
  Y  Y15  1  0.678454  0.820588  0.123037  1
  Y  Y16  1  0.152272  0.511694  0.750000  1
  Er  Er17  1  0.652464  0.988178  0.750000  1
  Er  Er18  1  0.847608  0.488236  0.250000  1
  Er  Er19  1  0.347664  0.011653  0.250000  1
  Si  Si20  1  0.270713  0.880785  0.750000  1
  Si  Si21  1  0.473008  0.611015  0.250000  1
  Si  Si22  1  0.027133  0.110745  0.750000  1
  Si  Si23  1  0.527894  0.388851  0.750000  1
  Si  Si24  1  0.144833  0.469604  0.539496  1
  Si  Si25  1  0.973004  0.888927  0.250000  1
  Si  Si26  1  0.729248  0.120233  0.250000  1
  Si  Si27  1  0.855136  0.530278  0.039871  1
  Si  Si28  1  0.355111  0.969725  0.039850  1
  Si  Si29  1  0.144833  0.469604  0.960504  1
  Si  Si30  1  0.644859  0.030275  0.539753  1
  Si  Si31  1  0.355111  0.969725  0.460150  1
  Si  Si32  1  0.855136  0.530278  0.460129  1
  Si  Si33  1  0.769754  0.620216  0.750000  1
  Si  Si34  1  0.229302  0.379757  0.250000  1
  Si  Si35  1  0.644859  0.030275  0.960247  1
