# generated using pymatgen
data_Hf(NbCl3)6
_symmetry_space_group_name_H-M   'P 1'
_cell_length_a   10.09269102
_cell_length_b   10.09269183
_cell_length_c   10.09269089
_cell_angle_alpha   56.02938738
_cell_angle_beta   56.02938595
_cell_angle_gamma   56.02938982
_symmetry_Int_Tables_number   1
_chemical_formula_structural   Hf(NbCl3)6
_chemical_formula_sum   'Hf1 Nb6 Cl18'
_cell_volume   660.09078949
_cell_formula_units_Z   1
loop_
 _symmetry_equiv_pos_site_id
 _symmetry_equiv_pos_as_xyz
  1  'x, y, z'
loop_
 _atom_site_type_symbol
 _atom_site_label
 _atom_site_symmetry_multiplicity
 _atom_site_fract_x
 _atom_site_fract_y
 _atom_site_fract_z
 _atom_site_occupancy
  Hf  Hf0  1  0.000000  0.000000  0.000000  1
  Nb  Nb1  1  0.407694  0.302883  0.649064  1
  Nb  Nb2  1  0.350936  0.592306  0.697117  1
  Nb  Nb3  1  0.697117  0.350936  0.592306  1
  Nb  Nb4  1  0.302883  0.649064  0.407694  1
  Nb  Nb5  1  0.649064  0.407694  0.302883  1
  Nb  Nb6  1  0.592306  0.697117  0.350936  1
  Cl  Cl7  1  0.567943  0.157722  0.442888  1
  Cl  Cl8  1  0.220778  0.370632  0.912685  1
  Cl  Cl9  1  0.912685  0.220778  0.370632  1
  Cl  Cl10  1  0.370632  0.912685  0.220778  1
  Cl  Cl11  1  0.779222  0.629368  0.087315  1
  Cl  Cl12  1  0.087315  0.779222  0.629368  1
  Cl  Cl13  1  0.720720  0.963715  0.148519  1
  Cl  Cl14  1  0.963715  0.148519  0.720720  1
  Cl  Cl15  1  0.148519  0.720720  0.963715  1
  Cl  Cl16  1  0.279280  0.036285  0.851481  1
  Cl  Cl17  1  0.036285  0.851481  0.279280  1
  Cl  Cl18  1  0.851481  0.279280  0.036285  1
  Cl  Cl19  1  0.557112  0.432057  0.842278  1
  Cl  Cl20  1  0.157722  0.442888  0.567943  1
  Cl  Cl21  1  0.442888  0.567943  0.157722  1
  Cl  Cl22  1  0.432057  0.842278  0.557112  1
  Cl  Cl23  1  0.842278  0.557112  0.432057  1
  Cl  Cl24  1  0.629368  0.087315  0.779222  1
