# generated using pymatgen
data_NbTcMoSe6
_symmetry_space_group_name_H-M   'P 1'
_cell_length_a   5.80337331
_cell_length_b   5.80334571
_cell_length_c   7.50079040
_cell_angle_alpha   82.59370841
_cell_angle_beta   82.61010299
_cell_angle_gamma   119.99539670
_symmetry_Int_Tables_number   1
_chemical_formula_structural   NbTcMoSe6
_chemical_formula_sum   'Nb1 Tc1 Mo1 Se6'
_cell_volume   211.40638478
_cell_formula_units_Z   1
loop_
 _symmetry_equiv_pos_site_id
 _symmetry_equiv_pos_as_xyz
  1  'x, y, z'
loop_
 _atom_site_type_symbol
 _atom_site_label
 _atom_site_symmetry_multiplicity
 _atom_site_fract_x
 _atom_site_fract_y
 _atom_site_fract_z
 _atom_site_occupancy
  Nb  Nb0  1  0.499991  0.833374  0.500034  1
  Tc  Tc1  1  0.833291  0.499984  0.500057  1
  Mo  Mo2  1  0.166666  0.166645  0.500023  1
  Se  Se3  1  0.579570  0.252977  0.269279  1
  Se  Se4  1  0.233943  0.570109  0.269178  1
  Se  Se5  1  0.916817  0.907399  0.269224  1
  Se  Se6  1  0.763274  0.753746  0.730810  1
  Se  Se7  1  0.426056  0.099347  0.730875  1
  Se  Se8  1  0.080294  0.416324  0.730818  1
