# generated using pymatgen
data_Hf3ScTaRe24
_symmetry_space_group_name_H-M   'P 1'
_cell_length_a   8.45730121
_cell_length_b   8.45729989
_cell_length_c   8.45730036
_cell_angle_alpha   109.46299213
_cell_angle_beta   109.46298662
_cell_angle_gamma   109.46298037
_symmetry_Int_Tables_number   1
_chemical_formula_structural   Hf3ScTaRe24
_chemical_formula_sum   'Hf3 Sc1 Ta1 Re24'
_cell_volume   465.80669280
_cell_formula_units_Z   1
loop_
 _symmetry_equiv_pos_site_id
 _symmetry_equiv_pos_as_xyz
  1  'x, y, z'
loop_
 _atom_site_type_symbol
 _atom_site_label
 _atom_site_symmetry_multiplicity
 _atom_site_fract_x
 _atom_site_fract_y
 _atom_site_fract_z
 _atom_site_occupancy
  Hf  Hf0  1  0.000167  0.631654  0.000167  1
  Hf  Hf1  1  0.631654  0.000167  0.000167  1
  Hf  Hf2  1  0.000167  0.000167  0.631654  1
  Sc  Sc3  1  0.999750  0.999750  0.999750  1
  Ta  Ta4  1  0.368582  0.368582  0.368582  1
  Re  Re5  1  0.998120  0.394880  0.676104  1
  Re  Re6  1  0.282078  0.600224  0.600224  1
  Re  Re7  1  0.720936  0.323486  0.323486  1
  Re  Re8  1  0.323486  0.720936  0.323486  1
  Re  Re9  1  0.676104  0.998120  0.394880  1
  Re  Re10  1  0.998120  0.676104  0.394880  1
  Re  Re11  1  0.600224  0.600224  0.282078  1
  Re  Re12  1  0.807725  0.807725  0.184292  1
  Re  Re13  1  0.376554  0.195064  0.001341  1
  Re  Re14  1  0.195064  0.376554  0.001341  1
  Re  Re15  1  0.623782  0.817816  0.623782  1
  Re  Re16  1  0.376554  0.001341  0.195064  1
  Re  Re17  1  0.001341  0.376554  0.195064  1
  Re  Re18  1  0.817816  0.623782  0.623782  1
  Re  Re19  1  0.184292  0.807725  0.807725  1
  Re  Re20  1  0.807725  0.184292  0.807725  1
  Re  Re21  1  0.195064  0.001341  0.376554  1
  Re  Re22  1  0.001341  0.195064  0.376554  1
  Re  Re23  1  0.623782  0.623782  0.817816  1
  Re  Re24  1  0.394880  0.998120  0.676104  1
  Re  Re25  1  0.600224  0.282078  0.600224  1
  Re  Re26  1  0.676104  0.394880  0.998120  1
  Re  Re27  1  0.394880  0.676104  0.998120  1
  Re  Re28  1  0.323486  0.323486  0.720936  1
