# generated using pymatgen
data_Yb20(TlAg3)3
_symmetry_space_group_name_H-M   'P 1'
_cell_length_a   8.04582900
_cell_length_b   8.04582900
_cell_length_c   14.48508300
_cell_angle_alpha   90.00000000
_cell_angle_beta   90.00000000
_cell_angle_gamma   90.00000000
_symmetry_Int_Tables_number   1
_chemical_formula_structural   Yb20(TlAg3)3
_chemical_formula_sum   'Yb20 Tl3 Ag9'
_cell_volume   937.69712488
_cell_formula_units_Z   1
loop_
 _symmetry_equiv_pos_site_id
 _symmetry_equiv_pos_as_xyz
  1  'x, y, z'
loop_
 _atom_site_type_symbol
 _atom_site_label
 _atom_site_symmetry_multiplicity
 _atom_site_fract_x
 _atom_site_fract_y
 _atom_site_fract_z
 _atom_site_occupancy
  Yb  Yb0  1  0.000000  0.000000  0.754753  1
  Yb  Yb1  1  0.500000  0.500000  0.251189  1
  Yb  Yb2  1  0.000000  0.000000  0.245247  1
  Yb  Yb3  1  0.500000  0.500000  0.748811  1
  Yb  Yb4  1  0.170824  0.662235  0.105783  1
  Yb  Yb5  1  0.667884  0.166384  0.608555  1
  Yb  Yb6  1  0.829176  0.337765  0.105783  1
  Yb  Yb7  1  0.332116  0.833616  0.608555  1
  Yb  Yb8  1  0.337765  0.170824  0.105783  1
  Yb  Yb9  1  0.833616  0.667884  0.608555  1
  Yb  Yb10  1  0.662235  0.829176  0.105783  1
  Yb  Yb11  1  0.166384  0.332116  0.608555  1
  Yb  Yb12  1  0.337765  0.829176  0.894217  1
  Yb  Yb13  1  0.833616  0.332116  0.391445  1
  Yb  Yb14  1  0.662235  0.170824  0.894217  1
  Yb  Yb15  1  0.166384  0.667884  0.391445  1
  Yb  Yb16  1  0.170824  0.337765  0.894217  1
  Yb  Yb17  1  0.667884  0.833616  0.391445  1
  Yb  Yb18  1  0.829176  0.662235  0.894217  1
  Yb  Yb19  1  0.332116  0.166384  0.391445  1
  Tl  Tl20  1  0.000000  0.000000  0.500000  1
  Tl  Tl21  1  0.000000  0.000000  0.000000  1
  Tl  Tl22  1  0.500000  0.500000  0.500000  1
  Ag  Ag23  1  0.628032  0.128158  0.248462  1
  Ag  Ag24  1  0.128158  0.628032  0.751538  1
  Ag  Ag25  1  0.871842  0.371968  0.751538  1
  Ag  Ag26  1  0.371968  0.871842  0.248462  1
  Ag  Ag27  1  0.371968  0.128158  0.751538  1
  Ag  Ag28  1  0.871842  0.628032  0.248462  1
  Ag  Ag29  1  0.128158  0.371968  0.248462  1
  Ag  Ag30  1  0.628032  0.871842  0.751538  1
  Ag  Ag31  1  0.500000  0.500000  0.000000  1
