# generated using pymatgen
data_Ni2Mo3AsC
_symmetry_space_group_name_H-M   'P 1'
_cell_length_a   7.91820862
_cell_length_b   7.91820827
_cell_length_c   7.91820900
_cell_angle_alpha   60.00000111
_cell_angle_beta   60.00000260
_cell_angle_gamma   60.00000024
_symmetry_Int_Tables_number   1
_chemical_formula_structural   Ni2Mo3AsC
_chemical_formula_sum   'Ni8 Mo12 As4 C4'
_cell_volume   351.04746105
_cell_formula_units_Z   4
loop_
 _symmetry_equiv_pos_site_id
 _symmetry_equiv_pos_as_xyz
  1  'x, y, z'
loop_
 _atom_site_type_symbol
 _atom_site_label
 _atom_site_symmetry_multiplicity
 _atom_site_fract_x
 _atom_site_fract_y
 _atom_site_fract_z
 _atom_site_occupancy
  Ni  Ni0  1  0.917531  0.917531  0.247406  1
  Ni  Ni1  1  0.332469  0.332469  0.332469  1
  Ni  Ni2  1  0.247406  0.917531  0.917531  1
  Ni  Ni3  1  0.332469  0.002594  0.332469  1
  Ni  Ni4  1  0.002594  0.332469  0.332469  1
  Ni  Ni5  1  0.332469  0.332469  0.002594  1
  Ni  Ni6  1  0.917531  0.917531  0.917531  1
  Ni  Ni7  1  0.917531  0.247406  0.917531  1
  Mo  Mo8  1  0.687319  0.312681  0.312681  1
  Mo  Mo9  1  0.937319  0.937319  0.562681  1
  Mo  Mo10  1  0.687319  0.687319  0.312681  1
  Mo  Mo11  1  0.687319  0.312681  0.687319  1
  Mo  Mo12  1  0.312681  0.687319  0.312681  1
  Mo  Mo13  1  0.562681  0.937319  0.562681  1
  Mo  Mo14  1  0.562681  0.937319  0.937319  1
  Mo  Mo15  1  0.937319  0.562681  0.562681  1
  Mo  Mo16  1  0.937319  0.562681  0.937319  1
  Mo  Mo17  1  0.312681  0.312681  0.687319  1
  Mo  Mo18  1  0.562681  0.562681  0.937319  1
  Mo  Mo19  1  0.312681  0.687319  0.687319  1
  As  As20  1  0.125000  0.125000  0.125000  1
  As  As21  1  0.625000  0.125000  0.125000  1
  As  As22  1  0.125000  0.125000  0.625000  1
  As  As23  1  0.125000  0.625000  0.125000  1
  C  C24  1  0.625000  0.625000  0.625000  1
  C  C25  1  0.625000  0.625000  0.125000  1
  C  C26  1  0.125000  0.625000  0.625000  1
  C  C27  1  0.625000  0.125000  0.625000  1
