# generated using pymatgen
data_YHo4InSb2
_symmetry_space_group_name_H-M   'P 1'
_cell_length_a   8.95305466
_cell_length_b   8.94372399
_cell_length_c   6.45287600
_cell_angle_alpha   90.00000000
_cell_angle_beta   90.00000000
_cell_angle_gamma   119.87053267
_symmetry_Int_Tables_number   1
_chemical_formula_structural   YHo4InSb2
_chemical_formula_sum   'Y2 Ho8 In2 Sb4'
_cell_volume   448.06258310
_cell_formula_units_Z   2
loop_
 _symmetry_equiv_pos_site_id
 _symmetry_equiv_pos_as_xyz
  1  'x, y, z'
loop_
 _atom_site_type_symbol
 _atom_site_label
 _atom_site_symmetry_multiplicity
 _atom_site_fract_x
 _atom_site_fract_y
 _atom_site_fract_z
 _atom_site_occupancy
  Y  Y0  1  0.758594  0.997947  0.750000  1
  Y  Y1  1  0.002012  0.759581  0.750000  1
  Ho  Ho2  1  0.333129  0.667084  0.000763  1
  Ho  Ho3  1  0.662680  0.331089  0.499180  1
  Ho  Ho4  1  0.662680  0.331089  0.000820  1
  Ho  Ho5  1  0.333129  0.667084  0.499237  1
  Ho  Ho6  1  0.758391  0.759835  0.250000  1
  Ho  Ho7  1  0.003463  0.241751  0.250000  1
  Ho  Ho8  1  0.242675  0.238546  0.750000  1
  Ho  Ho9  1  0.240952  0.004484  0.250000  1
  In  In10  1  0.394545  0.997883  0.750000  1
  In  In11  1  0.394258  0.396133  0.250000  1
  Sb  Sb12  1  0.998937  0.608665  0.250000  1
  Sb  Sb13  1  0.998678  0.390372  0.750000  1
  Sb  Sb14  1  0.608107  0.607889  0.750000  1
  Sb  Sb15  1  0.607767  0.000566  0.250000  1
