# generated using pymatgen
data_HoTm2In3Ag2Rh
_symmetry_space_group_name_H-M   'P 1'
_cell_length_a   7.99966299
_cell_length_b   7.98172799
_cell_length_c   3.65626600
_cell_angle_alpha   90.00000000
_cell_angle_beta   90.00000000
_cell_angle_gamma   119.97516021
_symmetry_Int_Tables_number   1
_chemical_formula_structural   HoTm2In3Ag2Rh
_chemical_formula_sum   'Ho1 Tm2 In3 Ag2 Rh1'
_cell_volume   202.23004609
_cell_formula_units_Z   1
loop_
 _symmetry_equiv_pos_site_id
 _symmetry_equiv_pos_as_xyz
  1  'x, y, z'
loop_
 _atom_site_type_symbol
 _atom_site_label
 _atom_site_symmetry_multiplicity
 _atom_site_fract_x
 _atom_site_fract_y
 _atom_site_fract_z
 _atom_site_occupancy
  Ho  Ho0  1  0.967089  0.382841  0.500000  1
  Tm  Tm1  1  0.617690  0.583103  0.500000  1
  Tm  Tm2  1  0.416823  0.034563  0.500000  1
  In  In3  1  0.269211  0.281251  0.000000  1
  In  In4  1  0.012631  0.731719  0.000000  1
  In  In5  1  0.718171  0.986678  0.000000  1
  Ag  Ag6  1  0.333919  0.667225  0.000000  1
  Ag  Ag7  1  0.999947  0.999832  0.500000  1
  Rh  Rh8  1  0.664519  0.332787  0.000000  1
