# generated using pymatgen
data_Tb2Nb4FeB4Ru9
_symmetry_space_group_name_H-M   'P 1'
_cell_length_a   9.49922987
_cell_length_b   9.49922969
_cell_length_c   3.10060700
_cell_angle_alpha   90.00000000
_cell_angle_beta   90.00000000
_cell_angle_gamma   90.31438908
_symmetry_Int_Tables_number   1
_chemical_formula_structural   Tb2Nb4FeB4Ru9
_chemical_formula_sum   'Tb2 Nb4 Fe1 B4 Ru9'
_cell_volume   279.78019699
_cell_formula_units_Z   1
loop_
 _symmetry_equiv_pos_site_id
 _symmetry_equiv_pos_as_xyz
  1  'x, y, z'
loop_
 _atom_site_type_symbol
 _atom_site_label
 _atom_site_symmetry_multiplicity
 _atom_site_fract_x
 _atom_site_fract_y
 _atom_site_fract_z
 _atom_site_occupancy
  Tb  Tb0  1  0.821813  0.678187  0.000000  1
  Tb  Tb1  1  0.178187  0.321813  0.000000  1
  Nb  Nb2  1  0.330976  0.830976  0.000000  1
  Nb  Nb3  1  0.669024  0.169024  0.000000  1
  Nb  Nb4  1  0.500000  0.500000  0.000000  1
  Nb  Nb5  1  0.000000  0.000000  0.000000  1
  Fe  Fe6  1  0.500000  0.000000  0.500000  1
  B  B7  1  0.611166  0.888834  0.000000  1
  B  B8  1  0.388834  0.111166  0.000000  1
  B  B9  1  0.122583  0.622583  0.000000  1
  B  B10  1  0.877417  0.377417  0.000000  1
  Ru  Ru11  1  0.555990  0.729756  0.500000  1
  Ru  Ru12  1  0.444010  0.270244  0.500000  1
  Ru  Ru13  1  0.081639  0.786443  0.500000  1
  Ru  Ru14  1  0.918361  0.213557  0.500000  1
  Ru  Ru15  1  0.286443  0.581639  0.500000  1
  Ru  Ru16  1  0.713557  0.418361  0.500000  1
  Ru  Ru17  1  0.229756  0.055990  0.500000  1
  Ru  Ru18  1  0.770244  0.944010  0.500000  1
  Ru  Ru19  1  0.000000  0.500000  0.500000  1
