# generated using pymatgen
data_TbTmReC2
_symmetry_space_group_name_H-M   'P 1'
_cell_length_a   5.08860000
_cell_length_b   6.57711000
_cell_length_c   9.81465900
_cell_angle_alpha   90.00000000
_cell_angle_beta   90.00000000
_cell_angle_gamma   90.00000000
_symmetry_Int_Tables_number   1
_chemical_formula_structural   TbTmReC2
_chemical_formula_sum   'Tb4 Tm4 Re4 C8'
_cell_volume   328.47977462
_cell_formula_units_Z   4
loop_
 _symmetry_equiv_pos_site_id
 _symmetry_equiv_pos_as_xyz
  1  'x, y, z'
loop_
 _atom_site_type_symbol
 _atom_site_label
 _atom_site_symmetry_multiplicity
 _atom_site_fract_x
 _atom_site_fract_y
 _atom_site_fract_z
 _atom_site_occupancy
  Tb  Tb0  1  0.750000  0.467662  0.784736  1
  Tb  Tb1  1  0.250000  0.032338  0.284736  1
  Tb  Tb2  1  0.750000  0.967662  0.715264  1
  Tb  Tb3  1  0.250000  0.532338  0.215264  1
  Tm  Tm4  1  0.750000  0.823067  0.057522  1
  Tm  Tm5  1  0.250000  0.676933  0.557522  1
  Tm  Tm6  1  0.750000  0.323067  0.442478  1
  Tm  Tm7  1  0.250000  0.176933  0.942478  1
  Re  Re8  1  0.750000  0.277426  0.133584  1
  Re  Re9  1  0.250000  0.222574  0.633584  1
  Re  Re10  1  0.750000  0.777426  0.366416  1
  Re  Re11  1  0.250000  0.722574  0.866416  1
  C  C12  1  0.750000  0.173004  0.950222  1
  C  C13  1  0.250000  0.826996  0.049778  1
  C  C14  1  0.750000  0.673004  0.549778  1
  C  C15  1  0.250000  0.326996  0.450222  1
  C  C16  1  0.750000  0.045059  0.259803  1
  C  C17  1  0.250000  0.454941  0.759803  1
  C  C18  1  0.750000  0.545059  0.240197  1
  C  C19  1  0.250000  0.954941  0.740197  1
