# generated using pymatgen
data_Hf2(AlGa)3
_symmetry_space_group_name_H-M   'P 1'
_cell_length_a   9.15273058
_cell_length_b   9.15273006
_cell_length_c   9.15273101
_cell_angle_alpha   154.91131122
_cell_angle_beta   154.96956270
_cell_angle_gamma   35.73413983
_symmetry_Int_Tables_number   1
_chemical_formula_structural   Hf2(AlGa)3
_chemical_formula_sum   'Hf2 Al3 Ga3'
_cell_volume   137.38880400
_cell_formula_units_Z   1
loop_
 _symmetry_equiv_pos_site_id
 _symmetry_equiv_pos_as_xyz
  1  'x, y, z'
loop_
 _atom_site_type_symbol
 _atom_site_label
 _atom_site_symmetry_multiplicity
 _atom_site_fract_x
 _atom_site_fract_y
 _atom_site_fract_z
 _atom_site_occupancy
  Hf  Hf0  1  0.119380  0.119380  0.000000  1
  Hf  Hf1  1  0.880620  0.880620  0.000000  1
  Al  Al2  1  0.750080  0.250080  0.500000  1
  Al  Al3  1  0.249920  0.749920  0.500000  1
  Al  Al4  1  0.000000  0.500000  0.500000  1
  Ga  Ga5  1  0.374407  0.374407  0.000000  1
  Ga  Ga6  1  0.500000  0.000000  0.500000  1
  Ga  Ga7  1  0.625593  0.625593  0.000000  1
