# generated using pymatgen
data_TbAg6NO11
_symmetry_space_group_name_H-M   'P 1'
_cell_length_a   7.08870401
_cell_length_b   7.08870489
_cell_length_c   7.08870434
_cell_angle_alpha   61.80693620
_cell_angle_beta   61.80693033
_cell_angle_gamma   61.80692716
_symmetry_Int_Tables_number   1
_chemical_formula_structural   TbAg6NO11
_chemical_formula_sum   'Tb1 Ag6 N1 O11'
_cell_volume   262.06943879
_cell_formula_units_Z   1
loop_
 _symmetry_equiv_pos_site_id
 _symmetry_equiv_pos_as_xyz
  1  'x, y, z'
loop_
 _atom_site_type_symbol
 _atom_site_label
 _atom_site_symmetry_multiplicity
 _atom_site_fract_x
 _atom_site_fract_y
 _atom_site_fract_z
 _atom_site_occupancy
  Tb  Tb0  1  0.999001  0.999001  0.999001  1
  Ag  Ag1  1  0.498075  0.001078  0.001078  1
  Ag  Ag2  1  0.500259  0.500259  0.000313  1
  Ag  Ag3  1  0.500259  0.000313  0.500259  1
  Ag  Ag4  1  0.001078  0.001078  0.498075  1
  Ag  Ag5  1  0.000313  0.500259  0.500259  1
  Ag  Ag6  1  0.001078  0.498075  0.001078  1
  N  N7  1  0.500107  0.500107  0.500107  1
  O  O8  1  0.586989  0.142750  0.142750  1
  O  O9  1  0.142750  0.586989  0.142750  1
  O  O10  1  0.138532  0.138532  0.138532  1
  O  O11  1  0.142750  0.142750  0.586989  1
  O  O12  1  0.600433  0.600433  0.299375  1
  O  O13  1  0.600433  0.299375  0.600433  1
  O  O14  1  0.299375  0.600433  0.600433  1
  O  O15  1  0.858304  0.858304  0.411069  1
  O  O16  1  0.858304  0.411069  0.858304  1
  O  O17  1  0.860892  0.860892  0.860892  1
  O  O18  1  0.411069  0.858304  0.858304  1
