# generated using pymatgen
data_Yb2HoRu4PbO14
_symmetry_space_group_name_H-M   'P 1'
_cell_length_a   7.22646903
_cell_length_b   7.27166059
_cell_length_c   7.27166034
_cell_angle_alpha   60.03666330
_cell_angle_beta   59.72491095
_cell_angle_gamma   59.72491803
_symmetry_Int_Tables_number   1
_chemical_formula_structural   Yb2HoRu4PbO14
_chemical_formula_sum   'Yb2 Ho1 Ru4 Pb1 O14'
_cell_volume   269.14057834
_cell_formula_units_Z   1
loop_
 _symmetry_equiv_pos_site_id
 _symmetry_equiv_pos_as_xyz
  1  'x, y, z'
loop_
 _atom_site_type_symbol
 _atom_site_label
 _atom_site_symmetry_multiplicity
 _atom_site_fract_x
 _atom_site_fract_y
 _atom_site_fract_z
 _atom_site_occupancy
  Yb  Yb0  1  0.125000  0.125000  0.625000  1
  Yb  Yb1  1  0.125000  0.625000  0.125000  1
  Ho  Ho2  1  0.125000  0.125000  0.125000  1
  Ru  Ru3  1  0.625000  0.625000  0.625000  1
  Ru  Ru4  1  0.125000  0.625000  0.625000  1
  Ru  Ru5  1  0.625000  0.625000  0.125000  1
  Ru  Ru6  1  0.625000  0.125000  0.625000  1
  Pb  Pb7  1  0.625000  0.125000  0.125000  1
  O  O8  1  0.009658  0.000264  0.000264  1
  O  O9  1  0.240342  0.249736  0.249736  1
  O  O10  1  0.297183  0.295705  0.705987  1
  O  O11  1  0.555580  0.547013  0.949661  1
  O  O12  1  0.694420  0.300339  0.702987  1
  O  O13  1  0.699650  0.298967  0.298967  1
  O  O14  1  0.299690  0.698466  0.698466  1
  O  O15  1  0.297183  0.705987  0.295705  1
  O  O16  1  0.694420  0.702987  0.300339  1
  O  O17  1  0.950310  0.551534  0.551534  1
  O  O18  1  0.550350  0.951033  0.951033  1
  O  O19  1  0.952817  0.954295  0.544013  1
  O  O20  1  0.952817  0.544013  0.954295  1
  O  O21  1  0.555580  0.949661  0.547013  1
