# generated using pymatgen
data_ErScSi(PRu2)6
_symmetry_space_group_name_H-M   'P 1'
_cell_length_a   9.39884200
_cell_length_b   9.39884155
_cell_length_c   3.93788400
_cell_angle_alpha   90.00000000
_cell_angle_beta   90.00000000
_cell_angle_gamma   119.99999453
_symmetry_Int_Tables_number   1
_chemical_formula_structural   ErScSi(PRu2)6
_chemical_formula_sum   'Er1 Sc1 Si1 P6 Ru12'
_cell_volume   301.26054097
_cell_formula_units_Z   1
loop_
 _symmetry_equiv_pos_site_id
 _symmetry_equiv_pos_as_xyz
  1  'x, y, z'
loop_
 _atom_site_type_symbol
 _atom_site_label
 _atom_site_symmetry_multiplicity
 _atom_site_fract_x
 _atom_site_fract_y
 _atom_site_fract_z
 _atom_site_occupancy
  Er  Er0  1  0.333333  0.666667  0.000000  1
  Sc  Sc1  1  0.666667  0.333333  0.500000  1
  Si  Si2  1  0.000000  0.000000  0.000000  1
  P  P3  1  0.601717  0.719948  0.500000  1
  P  P4  1  0.280052  0.881768  0.500000  1
  P  P5  1  0.118232  0.398283  0.500000  1
  P  P6  1  0.884417  0.572899  0.000000  1
  P  P7  1  0.427101  0.311517  0.000000  1
  P  P8  1  0.688483  0.115583  0.000000  1
  Ru  Ru9  1  0.555014  0.952220  0.500000  1
  Ru  Ru10  1  0.397207  0.444986  0.500000  1
  Ru  Ru11  1  0.912305  0.120341  0.500000  1
  Ru  Ru12  1  0.208036  0.087695  0.500000  1
  Ru  Ru13  1  0.879659  0.791964  0.500000  1
  Ru  Ru14  1  0.719582  0.886638  0.000000  1
  Ru  Ru15  1  0.113362  0.832943  0.000000  1
  Ru  Ru16  1  0.167057  0.280418  0.000000  1
  Ru  Ru17  1  0.426674  0.071007  0.000000  1
  Ru  Ru18  1  0.928993  0.355668  0.000000  1
  Ru  Ru19  1  0.644332  0.573326  0.000000  1
  Ru  Ru20  1  0.047780  0.602793  0.500000  1
