# generated using pymatgen
data_CsSm6Ho4(C2I9)2
_symmetry_space_group_name_H-M   'P 1'
_cell_length_a   11.55231226
_cell_length_b   11.57995763
_cell_length_c   11.62219094
_cell_angle_alpha   113.22377326
_cell_angle_beta   86.91888647
_cell_angle_gamma   119.79350158
_symmetry_Int_Tables_number   1
_chemical_formula_structural   CsSm6Ho4(C2I9)2
_chemical_formula_sum   'Cs1 Sm6 Ho4 C4 I18'
_cell_volume   1220.06433852
_cell_formula_units_Z   1
loop_
 _symmetry_equiv_pos_site_id
 _symmetry_equiv_pos_as_xyz
  1  'x, y, z'
loop_
 _atom_site_type_symbol
 _atom_site_label
 _atom_site_symmetry_multiplicity
 _atom_site_fract_x
 _atom_site_fract_y
 _atom_site_fract_z
 _atom_site_occupancy
  Cs  Cs0  1  0.499150  0.998084  0.499166  1
  Sm  Sm1  1  0.907512  0.603778  0.704252  1
  Sm  Sm2  1  0.106706  0.944897  0.000953  1
  Sm  Sm3  1  0.034862  0.961480  0.673355  1
  Sm  Sm4  1  0.327038  0.277853  0.292303  1
  Sm  Sm5  1  0.720894  0.644402  0.983823  1
  Sm  Sm6  1  0.893721  0.056467  0.000008  1
  Ho  Ho7  1  0.678491  0.724677  0.711917  1
  Ho  Ho8  1  0.274193  0.350572  0.018093  1
  Ho  Ho9  1  0.094832  0.389787  0.291162  1
  Ho  Ho10  1  0.966489  0.040434  0.321806  1
  C  C11  1  0.152413  0.222756  0.123998  1
  C  C12  1  0.845830  0.777246  0.875137  1
  C  C13  1  0.920294  0.852297  0.800474  1
  C  C14  1  0.077334  0.147445  0.199089  1
  I  I15  1  0.448195  0.531186  0.829134  1
  I  I16  1  0.386963  0.038023  0.158842  1
  I  I17  1  0.773003  0.854509  0.501042  1
  I  I18  1  0.841449  0.315159  0.158091  1
  I  I19  1  0.547382  0.469876  0.166267  1
  I  I20  1  0.218327  0.144002  0.497982  1
  I  I21  1  0.318773  0.101528  0.833658  1
  I  I22  1  0.685907  0.907092  0.174056  1
  I  I23  1  0.976521  0.761599  0.173941  1
  I  I24  1  0.936092  0.297586  0.497841  1
  I  I25  1  0.028847  0.247834  0.833955  1
  I  I26  1  0.069532  0.700321  0.496075  1
  I  I27  1  0.259974  0.617028  0.182758  1
  I  I28  1  0.738034  0.372805  0.814940  1
  I  I29  1  0.637429  0.436864  0.500313  1
  I  I30  1  0.165552  0.688926  0.846968  1
  I  I31  1  0.614713  0.955808  0.838723  1
  I  I32  1  0.353546  0.567676  0.499879  1
