# generated using pymatgen
data_Pa2Be23Cu3
_symmetry_space_group_name_H-M   'P 1'
_cell_length_a   7.28221900
_cell_length_b   7.28221819
_cell_length_c   7.32262459
_cell_angle_alpha   119.81763383
_cell_angle_beta   90.00000000
_cell_angle_gamma   119.99999913
_symmetry_Int_Tables_number   1
_chemical_formula_structural   Pa2Be23Cu3
_chemical_formula_sum   'Pa2 Be23 Cu3'
_cell_volume   275.34096699
_cell_formula_units_Z   1
loop_
 _symmetry_equiv_pos_site_id
 _symmetry_equiv_pos_as_xyz
  1  'x, y, z'
loop_
 _atom_site_type_symbol
 _atom_site_label
 _atom_site_symmetry_multiplicity
 _atom_site_fract_x
 _atom_site_fract_y
 _atom_site_fract_z
 _atom_site_occupancy
  Pa  Pa0  1  0.750901  0.501801  0.252702  1
  Pa  Pa1  1  0.250380  0.500759  0.751139  1
  Be  Be2  1  0.998603  0.997206  0.995809  1
  Be  Be3  1  0.437242  0.005527  0.220523  1
  Be  Be4  1  0.214997  0.652240  0.220523  1
  Be  Be5  1  0.568283  0.783280  0.220523  1
  Be  Be6  1  0.292755  0.232354  0.298465  1
  Be  Be7  1  0.066111  0.358866  0.298465  1
  Be  Be8  1  0.939599  0.005711  0.298465  1
  Be  Be9  1  0.212997  0.004020  0.442316  1
  Be  Be10  1  0.791023  0.229319  0.442316  1
  Be  Be11  1  0.438296  0.651294  0.442316  1
  Be  Be12  1  0.500725  0.001451  0.502176  1
  Be  Be13  1  0.788810  0.000914  0.562053  1
  Be  Be14  1  0.561138  0.349948  0.562053  1
  Be  Be15  1  0.212104  0.773243  0.562053  1
  Be  Be16  1  0.054740  0.993806  0.699555  1
  Be  Be17  1  0.939065  0.644816  0.699555  1
  Be  Be18  1  0.705749  0.760489  0.699555  1
  Be  Be19  1  0.560410  0.999652  0.782736  1
  Be  Be20  1  0.439240  0.222325  0.782736  1
  Be  Be21  1  0.783085  0.343495  0.782736  1
  Be  Be22  1  0.298789  0.995732  0.937390  1
  Be  Be23  1  0.941657  0.240446  0.937390  1
  Be  Be24  1  0.696944  0.638602  0.937390  1
  Cu  Cu25  1  0.699943  0.002717  0.056350  1
  Cu  Cu26  1  0.302774  0.356407  0.056350  1
  Cu  Cu27  1  0.053633  0.753576  0.056350  1
