# generated using pymatgen
data_YTh3(Ga8Pd3)3
_symmetry_space_group_name_H-M   'P 1'
_cell_length_a   7.66264925
_cell_length_b   7.65825868
_cell_length_c   13.41356278
_cell_angle_alpha   84.70108141
_cell_angle_beta   79.17126846
_cell_angle_gamma   59.97706571
_symmetry_Int_Tables_number   1
_chemical_formula_structural   YTh3(Ga8Pd3)3
_chemical_formula_sum   'Y1 Th3 Ga24 Pd9'
_cell_volume   669.39032830
_cell_formula_units_Z   1
loop_
 _symmetry_equiv_pos_site_id
 _symmetry_equiv_pos_as_xyz
  1  'x, y, z'
loop_
 _atom_site_type_symbol
 _atom_site_label
 _atom_site_symmetry_multiplicity
 _atom_site_fract_x
 _atom_site_fract_y
 _atom_site_fract_z
 _atom_site_occupancy
  Y  Y0  1  0.266696  0.501558  0.192886  1
  Th  Th1  1  0.396099  0.167440  0.807783  1
  Th  Th2  1  0.603185  0.832679  0.192741  1
  Th  Th3  1  0.733250  0.498715  0.807622  1
  Ga  Ga4  1  0.689031  0.833955  0.942635  1
  Ga  Ga5  1  0.311076  0.170342  0.060164  1
  Ga  Ga6  1  0.144761  0.835458  0.558856  1
  Ga  Ga7  1  0.855324  0.163998  0.438736  1
  Ga  Ga8  1  0.480812  0.167670  0.556336  1
  Ga  Ga9  1  0.519235  0.833253  0.442996  1
  Ga  Ga10  1  0.215852  0.168764  0.329478  1
  Ga  Ga11  1  0.785607  0.833982  0.667628  1
  Ga  Ga12  1  0.436218  0.507438  0.668760  1
  Ga  Ga13  1  0.561723  0.492255  0.328883  1
  Ga  Ga14  1  0.110295  0.157954  0.666842  1
  Ga  Ga15  1  0.893267  0.838719  0.330456  1
  Ga  Ga16  1  0.350253  0.502363  0.944523  1
  Ga  Ga17  1  0.644330  0.497939  0.059905  1
  Ga  Ga18  1  0.017165  0.165459  0.950138  1
  Ga  Ga19  1  0.984001  0.831261  0.054652  1
  Ga  Ga20  1  0.186816  0.500879  0.441024  1
  Ga  Ga21  1  0.814439  0.498563  0.556562  1
  Ga  Ga22  1  0.734219  0.166015  0.183965  1
  Ga  Ga23  1  0.262556  0.836176  0.817018  1
  Ga  Ga24  1  0.062702  0.633510  0.815887  1
  Ga  Ga25  1  0.940497  0.366114  0.184587  1
  Ga  Ga26  1  0.861658  0.037182  0.816165  1
  Ga  Ga27  1  0.138729  0.959482  0.183966  1
  Pd  Pd28  1  0.121002  0.494828  0.637847  1
  Pd  Pd29  1  0.879142  0.505323  0.361389  1
  Pd  Pd30  1  0.659837  0.169811  0.999500  1
  Pd  Pd31  1  0.340976  0.830978  0.000784  1
  Pd  Pd32  1  0.539491  0.166930  0.361451  1
  Pd  Pd33  1  0.460389  0.832714  0.638371  1
  Pd  Pd34  1  0.780486  0.172948  0.637777  1
  Pd  Pd35  1  0.220171  0.826964  0.361292  1
  Pd  Pd36  1  0.998710  0.500379  0.000398  1
