# generated using pymatgen
data_Ti10Ga3Si2Sn
_symmetry_space_group_name_H-M   'P 1'
_cell_length_a   4.96942971
_cell_length_b   7.69132158
_cell_length_c   7.66642992
_cell_angle_alpha   83.98993933
_cell_angle_beta   71.08874578
_cell_angle_gamma   71.15225776
_symmetry_Int_Tables_number   1
_chemical_formula_structural   Ti10Ga3Si2Sn
_chemical_formula_sum   'Ti10 Ga3 Si2 Sn1'
_cell_volume   262.34182520
_cell_formula_units_Z   1
loop_
 _symmetry_equiv_pos_site_id
 _symmetry_equiv_pos_as_xyz
  1  'x, y, z'
loop_
 _atom_site_type_symbol
 _atom_site_label
 _atom_site_symmetry_multiplicity
 _atom_site_fract_x
 _atom_site_fract_y
 _atom_site_fract_z
 _atom_site_occupancy
  Ti  Ti0  1  0.237378  0.513746  0.500000  1
  Ti  Ti1  1  0.748874  0.513746  0.500000  1
  Ti  Ti2  1  0.073721  0.138154  0.714406  1
  Ti  Ti3  1  0.929574  0.852833  0.288018  1
  Ti  Ti4  1  0.791828  0.289273  0.127071  1
  Ti  Ti5  1  0.418898  0.289273  0.872929  1
  Ti  Ti6  1  0.215140  0.707179  0.862541  1
  Ti  Ti7  1  0.577681  0.707179  0.137459  1
  Ti  Ti8  1  0.717592  0.852833  0.711982  1
  Ti  Ti9  1  0.288126  0.138154  0.285594  1
  Ga  Ga10  1  0.164274  0.498441  0.173010  1
  Ga  Ga11  1  0.837285  0.498441  0.826990  1
  Ga  Ga12  1  0.333074  0.833852  0.500000  1
  Si  Si13  1  0.251565  0.996871  0.000000  1
  Si  Si14  1  0.751565  0.996871  0.000000  1
  Sn  Sn15  1  0.663424  0.173152  0.500000  1
