# generated using pymatgen
data_KS31
_symmetry_space_group_name_H-M   'P 1'
_cell_length_a   12.21604273
_cell_length_b   6.49867859
_cell_length_c   15.47480197
_cell_angle_alpha   74.57231275
_cell_angle_beta   93.05151456
_cell_angle_gamma   88.50047885
_symmetry_Int_Tables_number   1
_chemical_formula_structural   KS31
_chemical_formula_sum   'K1 S31'
_cell_volume   1181.53098579
_cell_formula_units_Z   1
loop_
 _symmetry_equiv_pos_site_id
 _symmetry_equiv_pos_as_xyz
  1  'x, y, z'
loop_
 _atom_site_type_symbol
 _atom_site_label
 _atom_site_symmetry_multiplicity
 _atom_site_fract_x
 _atom_site_fract_y
 _atom_site_fract_z
 _atom_site_occupancy
  K  K0  1  0.065846  0.203018  0.971233  1
  S  S1  1  0.677955  0.143544  0.042584  1
  S  S2  1  0.891912  0.105345  0.507541  1
  S  S3  1  0.321028  0.006758  0.995540  1
  S  S4  1  0.147705  0.949089  0.461924  1
  S  S5  1  0.584806  0.750915  0.510530  1
  S  S6  1  0.001339  0.690915  0.996031  1
  S  S7  1  0.420122  0.182205  0.504017  1
  S  S8  1  0.339172  0.318159  0.948381  1
  S  S9  1  0.070942  0.198797  0.472821  1
  S  S10  1  0.702164  0.815852  0.052481  1
  S  S11  1  0.897518  0.794650  0.522154  1
  S  S12  1  0.446989  0.392367  0.842889  1
  S  S13  1  0.041274  0.403724  0.310690  1
  S  S14  1  0.587752  0.676152  0.140194  1
  S  S15  1  0.973079  0.633756  0.652098  1
  S  S16  1  0.370883  0.345138  0.729614  1
  S  S17  1  0.127367  0.217253  0.260680  1
  S  S18  1  0.642142  0.653793  0.270215  1
  S  S19  1  0.870358  0.641708  0.747435  1
  S  S20  1  0.420286  0.032252  0.725210  1
  S  S21  1  0.012898  0.981158  0.221750  1
  S  S22  1  0.582568  0.944064  0.293362  1
  S  S23  1  0.908486  0.934687  0.789490  1
  S  S24  1  0.576434  0.031421  0.698750  1
  S  S25  1  0.864568  0.116651  0.212759  1
  S  S26  1  0.425963  0.924742  0.317193  1
  S  S27  1  0.067148  0.964358  0.788193  1
  S  S28  1  0.571126  0.154853  0.544165  1
  S  S29  1  0.824097  0.258295  0.071037  1
  S  S30  1  0.433468  0.789807  0.472948  1
  S  S31  1  0.132601  0.744578  0.926093  1
