# generated using pymatgen
data_NpMn8NbP4
_symmetry_space_group_name_H-M   'P 1'
_cell_length_a   3.68535400
_cell_length_b   6.88421085
_cell_length_c   6.88421100
_cell_angle_alpha   90.89870578
_cell_angle_beta   90.00000000
_cell_angle_gamma   90.00000000
_symmetry_Int_Tables_number   1
_chemical_formula_structural   NpMn8NbP4
_chemical_formula_sum   'Np1 Mn8 Nb1 P4'
_cell_volume   174.63613849
_cell_formula_units_Z   1
loop_
 _symmetry_equiv_pos_site_id
 _symmetry_equiv_pos_as_xyz
  1  'x, y, z'
loop_
 _atom_site_type_symbol
 _atom_site_label
 _atom_site_symmetry_multiplicity
 _atom_site_fract_x
 _atom_site_fract_y
 _atom_site_fract_z
 _atom_site_occupancy
  Np  Np0  1  0.500000  0.000000  0.000000  1
  Mn  Mn1  1  0.500000  0.157851  0.581193  1
  Mn  Mn2  1  0.500000  0.842149  0.418807  1
  Mn  Mn3  1  0.000000  0.346794  0.088394  1
  Mn  Mn4  1  0.000000  0.653206  0.911606  1
  Mn  Mn5  1  0.500000  0.581193  0.157851  1
  Mn  Mn6  1  0.500000  0.418807  0.842149  1
  Mn  Mn7  1  0.000000  0.088394  0.346794  1
  Mn  Mn8  1  0.000000  0.911606  0.653206  1
  Nb  Nb9  1  0.000000  0.500000  0.500000  1
  P  P10  1  0.500000  0.707365  0.707365  1
  P  P11  1  0.500000  0.292635  0.292635  1
  P  P12  1  0.000000  0.774652  0.225348  1
  P  P13  1  0.000000  0.225348  0.774652  1
