# generated using pymatgen
data_Ta12Al9Ru3C4
_symmetry_space_group_name_H-M   'P 1'
_cell_length_a   8.30706199
_cell_length_b   8.30706227
_cell_length_c   8.30706192
_cell_angle_alpha   60.26134193
_cell_angle_beta   60.26133965
_cell_angle_gamma   60.26134070
_symmetry_Int_Tables_number   1
_chemical_formula_structural   Ta12Al9Ru3C4
_chemical_formula_sum   'Ta12 Al9 Ru3 C4'
_cell_volume   407.74517227
_cell_formula_units_Z   1
loop_
 _symmetry_equiv_pos_site_id
 _symmetry_equiv_pos_as_xyz
  1  'x, y, z'
loop_
 _atom_site_type_symbol
 _atom_site_label
 _atom_site_symmetry_multiplicity
 _atom_site_fract_x
 _atom_site_fract_y
 _atom_site_fract_z
 _atom_site_occupancy
  Ta  Ta0  1  0.186159  0.813664  0.186159  1
  Ta  Ta1  1  0.810816  0.189303  0.810816  1
  Ta  Ta2  1  0.063841  0.436336  0.063841  1
  Ta  Ta3  1  0.060697  0.439184  0.439184  1
  Ta  Ta4  1  0.436336  0.063841  0.063841  1
  Ta  Ta5  1  0.439184  0.060697  0.439184  1
  Ta  Ta6  1  0.810816  0.810816  0.189303  1
  Ta  Ta7  1  0.063841  0.063841  0.436336  1
  Ta  Ta8  1  0.186159  0.186159  0.813664  1
  Ta  Ta9  1  0.189303  0.810816  0.810816  1
  Ta  Ta10  1  0.439184  0.439184  0.060697  1
  Ta  Ta11  1  0.813664  0.186159  0.186159  1
  Al  Al12  1  0.625000  0.625000  0.625000  1
  Al  Al13  1  0.838332  0.838332  0.497746  1
  Al  Al14  1  0.497746  0.838332  0.838332  1
  Al  Al15  1  0.411668  0.752254  0.411668  1
  Al  Al16  1  0.752254  0.411668  0.411668  1
  Al  Al17  1  0.415628  0.415628  0.415628  1
  Al  Al18  1  0.411668  0.411668  0.752254  1
  Al  Al19  1  0.838332  0.497746  0.838332  1
  Al  Al20  1  0.834372  0.834372  0.834372  1
  Ru  Ru21  1  0.125000  0.625000  0.625000  1
  Ru  Ru22  1  0.625000  0.625000  0.125000  1
  Ru  Ru23  1  0.625000  0.125000  0.625000  1
  C  C24  1  0.125000  0.125000  0.125000  1
  C  C25  1  0.125000  0.125000  0.625000  1
  C  C26  1  0.625000  0.125000  0.125000  1
  C  C27  1  0.125000  0.625000  0.125000  1
