# generated using pymatgen
data_Lu20Cd3Hg3Ir2
_symmetry_space_group_name_H-M   'P 1'
_cell_length_a   9.47452100
_cell_length_b   9.47451999
_cell_length_c   9.50196500
_cell_angle_alpha   90.00000000
_cell_angle_beta   90.00000000
_cell_angle_gamma   120.00000003
_symmetry_Int_Tables_number   1
_chemical_formula_structural   Lu20Cd3Hg3Ir2
_chemical_formula_sum   'Lu20 Cd3 Hg3 Ir2'
_cell_volume   738.68373634
_cell_formula_units_Z   1
loop_
 _symmetry_equiv_pos_site_id
 _symmetry_equiv_pos_as_xyz
  1  'x, y, z'
loop_
 _atom_site_type_symbol
 _atom_site_label
 _atom_site_symmetry_multiplicity
 _atom_site_fract_x
 _atom_site_fract_y
 _atom_site_fract_z
 _atom_site_occupancy
  Lu  Lu0  1  0.000000  0.000000  0.488267  1
  Lu  Lu1  1  0.000000  0.000000  0.011733  1
  Lu  Lu2  1  0.208858  0.791142  0.440185  1
  Lu  Lu3  1  0.208858  0.417717  0.440185  1
  Lu  Lu4  1  0.582283  0.791142  0.440185  1
  Lu  Lu5  1  0.791113  0.208887  0.558996  1
  Lu  Lu6  1  0.791113  0.582227  0.558996  1
  Lu  Lu7  1  0.417773  0.208887  0.558996  1
  Lu  Lu8  1  0.791113  0.208887  0.941004  1
  Lu  Lu9  1  0.791113  0.582227  0.941004  1
  Lu  Lu10  1  0.417773  0.208887  0.941004  1
  Lu  Lu11  1  0.208858  0.791142  0.059815  1
  Lu  Lu12  1  0.208858  0.417717  0.059815  1
  Lu  Lu13  1  0.582283  0.791142  0.059815  1
  Lu  Lu14  1  0.540822  0.459178  0.250000  1
  Lu  Lu15  1  0.540822  0.081646  0.250000  1
  Lu  Lu16  1  0.918354  0.459178  0.250000  1
  Lu  Lu17  1  0.458803  0.541197  0.750000  1
  Lu  Lu18  1  0.458803  0.917606  0.750000  1
  Lu  Lu19  1  0.082394  0.541197  0.750000  1
  Cd  Cd20  1  0.112839  0.887161  0.750000  1
  Cd  Cd21  1  0.112839  0.225678  0.750000  1
  Cd  Cd22  1  0.774322  0.887161  0.750000  1
  Hg  Hg23  1  0.878519  0.121481  0.250000  1
  Hg  Hg24  1  0.878519  0.757038  0.250000  1
  Hg  Hg25  1  0.242962  0.121481  0.250000  1
  Ir  Ir26  1  0.333333  0.666667  0.250000  1
  Ir  Ir27  1  0.666667  0.333333  0.750000  1
