# generated using pymatgen
data_Tb5Pr3Np4O24
_symmetry_space_group_name_H-M   'P 1'
_cell_length_a   5.66146700
_cell_length_b   7.97444257
_cell_length_c   11.96239895
_cell_angle_alpha   74.36785529
_cell_angle_beta   90.00000000
_cell_angle_gamma   90.00000000
_symmetry_Int_Tables_number   1
_chemical_formula_structural   Tb5Pr3Np4O24
_chemical_formula_sum   'Tb5 Pr3 Np4 O24'
_cell_volume   520.09070228
_cell_formula_units_Z   1
loop_
 _symmetry_equiv_pos_site_id
 _symmetry_equiv_pos_as_xyz
  1  'x, y, z'
loop_
 _atom_site_type_symbol
 _atom_site_label
 _atom_site_symmetry_multiplicity
 _atom_site_fract_x
 _atom_site_fract_y
 _atom_site_fract_z
 _atom_site_occupancy
  Tb  Tb0  1  0.254778  0.000000  0.250000  1
  Tb  Tb1  1  0.187249  0.794653  0.577288  1
  Tb  Tb2  1  0.815676  0.792711  0.080149  1
  Tb  Tb3  1  0.187249  0.205347  0.922712  1
  Tb  Tb4  1  0.815676  0.207289  0.419851  1
  Pr  Pr5  1  0.746387  0.000000  0.750000  1
  Pr  Pr6  1  0.690986  0.500000  0.750000  1
  Pr  Pr7  1  0.306868  0.500000  0.250000  1
  Np  Np8  1  0.254175  0.722253  0.887323  1
  Np  Np9  1  0.744865  0.729157  0.384336  1
  Np  Np10  1  0.254175  0.277747  0.612677  1
  Np  Np11  1  0.744865  0.270843  0.115664  1
  O  O12  1  0.052900  0.943161  0.900370  1
  O  O13  1  0.550735  0.838734  0.935924  1
  O  O14  1  0.954803  0.947789  0.394893  1
  O  O15  1  0.442070  0.795851  0.727555  1
  O  O16  1  0.446218  0.848366  0.430635  1
  O  O17  1  0.971867  0.714441  0.769698  1
  O  O18  1  0.551567  0.802556  0.225970  1
  O  O19  1  0.870506  0.639436  0.550343  1
  O  O20  1  0.373075  0.482803  0.887444  1
  O  O21  1  0.030081  0.719914  0.267603  1
  O  O22  1  0.373075  0.517197  0.612556  1
  O  O23  1  0.870506  0.360564  0.949657  1
  O  O24  1  0.125369  0.630839  0.052347  1
  O  O25  1  0.629336  0.489002  0.384091  1
  O  O26  1  0.971867  0.285559  0.730302  1
  O  O27  1  0.629336  0.510998  0.115909  1
  O  O28  1  0.125369  0.369161  0.447653  1
  O  O29  1  0.442070  0.204149  0.772445  1
  O  O30  1  0.030081  0.280086  0.232397  1
  O  O31  1  0.550735  0.161266  0.564076  1
  O  O32  1  0.551567  0.197444  0.274030  1
  O  O33  1  0.052900  0.056839  0.599630  1
  O  O34  1  0.446218  0.151634  0.069365  1
  O  O35  1  0.954803  0.052211  0.105107  1
