# generated using pymatgen
data_Ho5Fe8Co3(P3Ru2)4
_symmetry_space_group_name_H-M   'P 1'
_cell_length_a   12.17354694
_cell_length_b   12.22451774
_cell_length_c   3.78176500
_cell_angle_alpha   90.00000000
_cell_angle_beta   90.00000000
_cell_angle_gamma   119.88753207
_symmetry_Int_Tables_number   1
_chemical_formula_structural   Ho5Fe8Co3(P3Ru2)4
_chemical_formula_sum   'Ho5 Fe8 Co3 P12 Ru8'
_cell_volume   487.93852738
_cell_formula_units_Z   1
loop_
 _symmetry_equiv_pos_site_id
 _symmetry_equiv_pos_as_xyz
  1  'x, y, z'
loop_
 _atom_site_type_symbol
 _atom_site_label
 _atom_site_symmetry_multiplicity
 _atom_site_fract_x
 _atom_site_fract_y
 _atom_site_fract_z
 _atom_site_occupancy
  Ho  Ho0  1  0.667563  0.333695  0.000000  1
  Ho  Ho1  1  0.329262  0.662232  0.000000  1
  Ho  Ho2  1  0.819800  0.819022  0.500000  1
  Ho  Ho3  1  0.179685  0.001584  0.500000  1
  Ho  Ho4  1  0.999884  0.181338  0.500000  1
  Fe  Fe5  1  0.127070  0.480521  0.500000  1
  Fe  Fe6  1  0.804078  0.175874  0.000000  1
  Fe  Fe7  1  0.826037  0.627071  0.000000  1
  Fe  Fe8  1  0.371892  0.198640  0.000000  1
  Fe  Fe9  1  0.178579  0.802864  0.000000  1
  Fe  Fe10  1  0.277816  0.282935  0.500000  1
  Fe  Fe11  1  0.719071  0.998145  0.500000  1
  Fe  Fe12  1  0.003072  0.719734  0.500000  1
  Co  Co13  1  0.629031  0.823555  0.000000  1
  Co  Co14  1  0.193058  0.373413  0.000000  1
  Co  Co15  1  0.000176  0.000082  0.000000  1
  P  P16  1  0.690910  0.161391  0.500000  1
  P  P17  1  0.840443  0.527681  0.500000  1
  P  P18  1  0.470521  0.312077  0.500000  1
  P  P19  1  0.157737  0.676999  0.500000  1
  P  P20  1  0.525197  0.840547  0.500000  1
  P  P21  1  0.307362  0.474330  0.500000  1
  P  P22  1  0.181363  0.182180  0.000000  1
  P  P23  1  0.819176  0.001255  0.000000  1
  P  P24  1  0.999927  0.818166  0.000000  1
  P  P25  1  0.636392  0.634949  0.000000  1
  P  P26  1  0.365648  0.004263  0.000000  1
  P  P27  1  0.003798  0.365580  0.000000  1
  Ru  Ru28  1  0.877761  0.357510  0.500000  1
  Ru  Ru29  1  0.643827  0.516851  0.500000  1
  Ru  Ru30  1  0.483721  0.127947  0.500000  1
  Ru  Ru31  1  0.350900  0.870899  0.500000  1
  Ru  Ru32  1  0.515029  0.645768  0.500000  1
  Ru  Ru33  1  0.440193  0.444342  0.000000  1
  Ru  Ru34  1  0.556980  0.998002  0.000000  1
  Ru  Ru35  1  0.007043  0.558560  0.000000  1
