# generated using pymatgen
data_Ni6PtIO12
_symmetry_space_group_name_H-M   'P 1'
_cell_length_a   5.13186195
_cell_length_b   5.48427515
_cell_length_c   8.94909800
_cell_angle_alpha   104.82801231
_cell_angle_beta   90.57336238
_cell_angle_gamma   118.01589350
_symmetry_Int_Tables_number   1
_chemical_formula_structural   Ni6PtIO12
_chemical_formula_sum   'Ni6 Pt1 I1 O12'
_cell_volume   212.43207267
_cell_formula_units_Z   1
loop_
 _symmetry_equiv_pos_site_id
 _symmetry_equiv_pos_as_xyz
  1  'x, y, z'
loop_
 _atom_site_type_symbol
 _atom_site_label
 _atom_site_symmetry_multiplicity
 _atom_site_fract_x
 _atom_site_fract_y
 _atom_site_fract_z
 _atom_site_occupancy
  Ni  Ni0  1  0.261281  0.538076  0.759644  1
  Ni  Ni1  1  0.760946  0.506379  0.247715  1
  Ni  Ni2  1  0.833531  0.662472  0.620674  1
  Ni  Ni3  1  0.314880  0.647176  0.099562  1
  Ni  Ni4  1  0.017237  0.044695  0.001933  1
  Ni  Ni5  1  0.529443  0.044600  0.514489  1
  Pt  Pt6  1  0.560560  0.129557  0.853750  1
  I  I7  1  0.062071  0.114558  0.352503  1
  O  O8  1  0.714170  0.843708  0.807971  1
  O  O9  1  0.224996  0.852534  0.309228  1
  O  O10  1  0.270914  0.845260  0.657033  1
  O  O11  1  0.778438  0.848596  0.164544  1
  O  O12  1  0.268338  0.851603  0.958238  1
  O  O13  1  0.783640  0.845291  0.454407  1
  O  O14  1  0.331194  0.345204  0.905641  1
  O  O15  1  0.848762  0.323224  0.399486  1
  O  O16  1  0.347063  0.328760  0.538097  1
  O  O17  1  0.864849  0.342753  0.051172  1
  O  O18  1  0.816487  0.345347  0.712160  1
  O  O19  1  0.305881  0.329566  0.223314  1
