# generated using pymatgen
data_Ho10IrRh5
_symmetry_space_group_name_H-M   'P 1'
_cell_length_a   10.85414201
_cell_length_b   10.85503800
_cell_length_c   6.33591801
_cell_angle_alpha   90.00000000
_cell_angle_beta   90.00561537
_cell_angle_gamma   90.00000000
_symmetry_Int_Tables_number   1
_chemical_formula_structural   Ho10IrRh5
_chemical_formula_sum   'Ho20 Ir2 Rh10'
_cell_volume   746.51131362
_cell_formula_units_Z   2
loop_
 _symmetry_equiv_pos_site_id
 _symmetry_equiv_pos_as_xyz
  1  'x, y, z'
loop_
 _atom_site_type_symbol
 _atom_site_label
 _atom_site_symmetry_multiplicity
 _atom_site_fract_x
 _atom_site_fract_y
 _atom_site_fract_z
 _atom_site_occupancy
  Ho  Ho0  1  0.291048  0.089969  0.378131  1
  Ho  Ho1  1  0.291048  0.910031  0.878131  1
  Ho  Ho2  1  0.709018  0.088453  0.878084  1
  Ho  Ho3  1  0.709018  0.911547  0.378084  1
  Ho  Ho4  1  0.587052  0.790266  0.878187  1
  Ho  Ho5  1  0.587052  0.209734  0.378187  1
  Ho  Ho6  1  0.410978  0.790350  0.379096  1
  Ho  Ho7  1  0.410978  0.209650  0.879096  1
  Ho  Ho8  1  0.210407  0.412540  0.621108  1
  Ho  Ho9  1  0.210407  0.587460  0.121108  1
  Ho  Ho10  1  0.791049  0.411368  0.121562  1
  Ho  Ho11  1  0.791049  0.588632  0.621562  1
  Ho  Ho12  1  0.911607  0.709172  0.121774  1
  Ho  Ho13  1  0.911607  0.290828  0.621774  1
  Ho  Ho14  1  0.090116  0.708774  0.622069  1
  Ho  Ho15  1  0.090116  0.291226  0.122069  1
  Ho  Ho16  1  0.999951  0.999801  0.500041  1
  Ho  Ho17  1  0.999951  0.000199  0.000041  1
  Ho  Ho18  1  0.499549  0.499817  0.999956  1
  Ho  Ho19  1  0.499549  0.500183  0.499956  1
  Ir  Ir20  1  0.345906  0.345281  0.249899  1
  Ir  Ir21  1  0.345906  0.654719  0.749899  1
  Rh  Rh22  1  0.845858  0.153911  0.250117  1
  Rh  Rh23  1  0.845858  0.846089  0.750117  1
  Rh  Rh24  1  0.153298  0.153521  0.749844  1
  Rh  Rh25  1  0.153298  0.846479  0.249844  1
  Rh  Rh26  1  0.654727  0.345815  0.750117  1
  Rh  Rh27  1  0.654727  0.654185  0.250117  1
  Rh  Rh28  1  0.500547  0.999785  0.122242  1
  Rh  Rh29  1  0.500547  0.000215  0.622242  1
  Rh  Rh30  1  0.998889  0.499925  0.877774  1
  Rh  Rh31  1  0.998889  0.500075  0.377774  1
