# generated using pymatgen
data_La10Pr6Cd4TcPd3
_symmetry_space_group_name_H-M   'P 1'
_cell_length_a   10.17805019
_cell_length_b   10.09198009
_cell_length_c   10.09219395
_cell_angle_alpha   59.83020198
_cell_angle_beta   60.26640093
_cell_angle_gamma   60.26942221
_symmetry_Int_Tables_number   1
_chemical_formula_structural   La10Pr6Cd4TcPd3
_chemical_formula_sum   'La10 Pr6 Cd4 Tc1 Pd3'
_cell_volume   735.01051738
_cell_formula_units_Z   1
loop_
 _symmetry_equiv_pos_site_id
 _symmetry_equiv_pos_as_xyz
  1  'x, y, z'
loop_
 _atom_site_type_symbol
 _atom_site_label
 _atom_site_symmetry_multiplicity
 _atom_site_fract_x
 _atom_site_fract_y
 _atom_site_fract_z
 _atom_site_occupancy
  La  La0  1  0.353489  0.344790  0.344746  1
  La  La1  1  0.353728  0.344993  0.955872  1
  La  La2  1  0.353575  0.955659  0.345204  1
  La  La3  1  0.940037  0.353789  0.353535  1
  La  La4  1  0.802310  0.190651  0.190613  1
  La  La5  1  0.197973  0.804278  0.804045  1
  La  La6  1  0.197175  0.805089  0.193486  1
  La  La7  1  0.802461  0.189874  0.816814  1
  La  La8  1  0.197139  0.193367  0.805079  1
  La  La9  1  0.802532  0.816726  0.189987  1
  Pr  Pr10  1  0.938811  0.564560  0.564634  1
  Pr  Pr11  1  0.568825  0.936037  0.935863  1
  Pr  Pr12  1  0.568843  0.936288  0.559826  1
  Pr  Pr13  1  0.938061  0.563990  0.932616  1
  Pr  Pr14  1  0.568958  0.559821  0.936085  1
  Pr  Pr15  1  0.937884  0.932672  0.564180  1
  Cd  Cd16  1  0.578382  0.580900  0.580918  1
  Cd  Cd17  1  0.578303  0.581300  0.259481  1
  Cd  Cd18  1  0.578278  0.259538  0.581297  1
  Cd  Cd19  1  0.261374  0.579491  0.579557  1
  Tc  Tc20  1  0.575486  0.141453  0.141550  1
  Pd  Pd21  1  0.135614  0.145023  0.145069  1
  Pd  Pd22  1  0.135377  0.145320  0.574255  1
  Pd  Pd23  1  0.135379  0.574392  0.145289  1
