# generated using pymatgen
data_Pa3Fe7C2
_symmetry_space_group_name_H-M   'P 1'
_cell_length_a   5.08356300
_cell_length_b   5.08356351
_cell_length_c   13.82557800
_cell_angle_alpha   90.00000000
_cell_angle_beta   90.00000000
_cell_angle_gamma   120.00000319
_symmetry_Int_Tables_number   1
_chemical_formula_structural   Pa3Fe7C2
_chemical_formula_sum   'Pa6 Fe14 C4'
_cell_volume   309.42142238
_cell_formula_units_Z   2
loop_
 _symmetry_equiv_pos_site_id
 _symmetry_equiv_pos_as_xyz
  1  'x, y, z'
loop_
 _atom_site_type_symbol
 _atom_site_label
 _atom_site_symmetry_multiplicity
 _atom_site_fract_x
 _atom_site_fract_y
 _atom_site_fract_z
 _atom_site_occupancy
  Pa  Pa0  1  0.333333  0.666667  0.250000  1
  Pa  Pa1  1  0.666667  0.333333  0.750000  1
  Pa  Pa2  1  0.333333  0.666667  0.031826  1
  Pa  Pa3  1  0.666667  0.333333  0.531826  1
  Pa  Pa4  1  0.666667  0.333333  0.968174  1
  Pa  Pa5  1  0.333333  0.666667  0.468174  1
  Fe  Fe6  1  0.000000  0.000000  0.000000  1
  Fe  Fe7  1  0.000000  0.000000  0.500000  1
  Fe  Fe8  1  0.834302  0.668602  0.151318  1
  Fe  Fe9  1  0.165698  0.834302  0.651318  1
  Fe  Fe10  1  0.668602  0.834302  0.651318  1
  Fe  Fe11  1  0.331398  0.165698  0.151318  1
  Fe  Fe12  1  0.834302  0.165698  0.151318  1
  Fe  Fe13  1  0.165698  0.331398  0.848682  1
  Fe  Fe14  1  0.165698  0.834302  0.848682  1
  Fe  Fe15  1  0.165698  0.331398  0.651318  1
  Fe  Fe16  1  0.668602  0.834302  0.848682  1
  Fe  Fe17  1  0.331398  0.165698  0.348682  1
  Fe  Fe18  1  0.834302  0.668602  0.348682  1
  Fe  Fe19  1  0.834302  0.165698  0.348682  1
  C  C20  1  0.000000  0.000000  0.250000  1
  C  C21  1  0.000000  0.000000  0.750000  1
  C  C22  1  0.333333  0.666667  0.750000  1
  C  C23  1  0.666667  0.333333  0.250000  1
