# generated using pymatgen
data_Dy3Ho3ErCoI12
_symmetry_space_group_name_H-M   'P 1'
_cell_length_a   9.72139519
_cell_length_b   9.72114199
_cell_length_c   9.71994803
_cell_angle_alpha   106.82221803
_cell_angle_beta   106.79420424
_cell_angle_gamma   106.85188805
_symmetry_Int_Tables_number   1
_chemical_formula_structural   Dy3Ho3ErCoI12
_chemical_formula_sum   'Dy3 Ho3 Er1 Co1 I12'
_cell_volume   768.65791105
_cell_formula_units_Z   1
loop_
 _symmetry_equiv_pos_site_id
 _symmetry_equiv_pos_as_xyz
  1  'x, y, z'
loop_
 _atom_site_type_symbol
 _atom_site_label
 _atom_site_symmetry_multiplicity
 _atom_site_fract_x
 _atom_site_fract_y
 _atom_site_fract_z
 _atom_site_occupancy
  Dy  Dy0  1  0.091898  0.021523  0.287503  1
  Dy  Dy1  1  0.712501  0.908344  0.978418  1
  Dy  Dy2  1  0.978695  0.712621  0.907622  1
  Ho  Ho3  1  0.499946  0.500017  0.499804  1
  Ho  Ho4  1  0.286300  0.091591  0.020736  1
  Ho  Ho5  1  0.021190  0.286341  0.090754  1
  Er  Er6  1  0.909651  0.979195  0.715890  1
  Co  Co7  1  0.000341  0.000304  0.000259  1
  I  I8  1  0.462789  0.160843  0.385807  1
  I  I9  1  0.385854  0.462694  0.160693  1
  I  I10  1  0.160698  0.385972  0.462569  1
  I  I11  1  0.538390  0.839561  0.613802  1
  I  I12  1  0.613935  0.537030  0.839090  1
  I  I13  1  0.839094  0.614944  0.537066  1
  I  I14  1  0.323379  0.776135  0.929595  1
  I  I15  1  0.929383  0.322138  0.775278  1
  I  I16  1  0.776131  0.929775  0.324094  1
  I  I17  1  0.676659  0.224308  0.070419  1
  I  I18  1  0.070419  0.676641  0.224053  1
  I  I19  1  0.222747  0.070023  0.676548  1
