# generated using pymatgen
data_Y4Al18Ir2Rh3Au
_symmetry_space_group_name_H-M   'P 1'
_cell_length_a   7.59814642
_cell_length_b   7.59814579
_cell_length_c   9.49204618
_cell_angle_alpha   89.88499597
_cell_angle_beta   89.88499838
_cell_angle_gamma   119.50783454
_symmetry_Int_Tables_number   1
_chemical_formula_structural   Y4Al18Ir2Rh3Au
_chemical_formula_sum   'Y4 Al18 Ir2 Rh3 Au1'
_cell_volume   476.90826316
_cell_formula_units_Z   1
loop_
 _symmetry_equiv_pos_site_id
 _symmetry_equiv_pos_as_xyz
  1  'x, y, z'
loop_
 _atom_site_type_symbol
 _atom_site_label
 _atom_site_symmetry_multiplicity
 _atom_site_fract_x
 _atom_site_fract_y
 _atom_site_fract_z
 _atom_site_occupancy
  Y  Y0  1  0.995894  0.673391  0.251199  1
  Y  Y1  1  0.004106  0.326609  0.748801  1
  Y  Y2  1  0.673391  0.995894  0.251199  1
  Y  Y3  1  0.326609  0.004106  0.748801  1
  Al  Al4  1  0.134654  0.134654  0.257255  1
  Al  Al5  1  0.865346  0.865346  0.742745  1
  Al  Al6  1  0.001492  0.344359  0.078622  1
  Al  Al7  1  0.998508  0.655641  0.921378  1
  Al  Al8  1  0.999975  0.664416  0.573571  1
  Al  Al9  1  0.335584  0.000025  0.426429  1
  Al  Al10  1  0.000025  0.335584  0.426429  1
  Al  Al11  1  0.664416  0.999975  0.573571  1
  Al  Al12  1  0.655641  0.998508  0.921378  1
  Al  Al13  1  0.344359  0.001492  0.078622  1
  Al  Al14  1  0.332993  0.332993  0.551399  1
  Al  Al15  1  0.667007  0.667007  0.448601  1
  Al  Al16  1  0.657811  0.657811  0.058087  1
  Al  Al17  1  0.342189  0.342189  0.941913  1
  Al  Al18  1  0.339084  0.550347  0.250590  1
  Al  Al19  1  0.660916  0.449653  0.749410  1
  Al  Al20  1  0.550347  0.339084  0.250590  1
  Al  Al21  1  0.449653  0.660916  0.749410  1
  Ir  Ir22  1  0.327943  0.672057  0.500000  1
  Ir  Ir23  1  0.672057  0.327943  0.500000  1
  Rh  Rh24  1  0.671700  0.328300  0.000000  1
  Rh  Rh25  1  0.328300  0.671700  0.000000  1
  Rh  Rh26  1  0.000000  0.000000  0.500000  1
  Au  Au27  1  0.000000  0.000000  0.000000  1
