# generated using pymatgen
data_Er6Zn21Ag2As
_symmetry_space_group_name_H-M   'P 1'
_cell_length_a   9.06393300
_cell_length_b   9.06067037
_cell_length_c   9.06067000
_cell_angle_alpha   60.00079101
_cell_angle_beta   60.01231459
_cell_angle_gamma   60.01231877
_symmetry_Int_Tables_number   1
_chemical_formula_structural   Er6Zn21Ag2As
_chemical_formula_sum   'Er6 Zn21 Ag2 As1'
_cell_volume   526.26653730
_cell_formula_units_Z   1
loop_
 _symmetry_equiv_pos_site_id
 _symmetry_equiv_pos_as_xyz
  1  'x, y, z'
loop_
 _atom_site_type_symbol
 _atom_site_label
 _atom_site_symmetry_multiplicity
 _atom_site_fract_x
 _atom_site_fract_y
 _atom_site_fract_z
 _atom_site_occupancy
  Er  Er0  1  0.715761  0.284543  0.284543  1
  Er  Er1  1  0.715764  0.284555  0.715137  1
  Er  Er2  1  0.715764  0.715137  0.284555  1
  Er  Er3  1  0.284277  0.715924  0.715924  1
  Er  Er4  1  0.284270  0.715924  0.283874  1
  Er  Er5  1  0.284270  0.283874  0.715924  1
  Zn  Zn6  1  0.125565  0.623238  0.125602  1
  Zn  Zn7  1  0.125565  0.125602  0.623238  1
  Zn  Zn8  1  0.125561  0.125599  0.125599  1
  Zn  Zn9  1  0.376833  0.874389  0.874389  1
  Zn  Zn10  1  0.873856  0.376423  0.874860  1
  Zn  Zn11  1  0.873856  0.874860  0.376423  1
  Zn  Zn12  1  0.873859  0.874858  0.874858  1
  Zn  Zn13  1  0.499298  0.999270  0.999270  1
  Zn  Zn14  1  0.499299  0.999269  0.502165  1
  Zn  Zn15  1  0.499299  0.502165  0.999269  1
  Zn  Zn16  1  0.999912  0.500046  0.500046  1
  Zn  Zn17  1  0.999908  0.500047  0.999998  1
  Zn  Zn18  1  0.999908  0.999998  0.500047  1
  Zn  Zn19  1  0.006191  0.331269  0.331269  1
  Zn  Zn20  1  0.330395  0.005868  0.331867  1
  Zn  Zn21  1  0.330395  0.331867  0.005868  1
  Zn  Zn22  1  0.330393  0.331869  0.331869  1
  Zn  Zn23  1  0.993753  0.668750  0.668750  1
  Zn  Zn24  1  0.668567  0.993658  0.668890  1
  Zn  Zn25  1  0.668567  0.668890  0.993658  1
  Zn  Zn26  1  0.668567  0.668889  0.668889  1
  Ag  Ag27  1  0.625740  0.124755  0.124755  1
  Ag  Ag28  1  0.004765  0.998413  0.998413  1
  As  As29  1  0.499843  0.500053  0.500053  1
