# generated using pymatgen
data_Tb20Ir10RuRh
_symmetry_space_group_name_H-M   'P 1'
_cell_length_a   10.91759900
_cell_length_b   10.91759900
_cell_length_c   6.43246700
_cell_angle_alpha   90.00000000
_cell_angle_beta   90.00000000
_cell_angle_gamma   90.00000000
_symmetry_Int_Tables_number   1
_chemical_formula_structural   Tb20Ir10RuRh
_chemical_formula_sum   'Tb20 Ir10 Ru1 Rh1'
_cell_volume   766.71126528
_cell_formula_units_Z   1
loop_
 _symmetry_equiv_pos_site_id
 _symmetry_equiv_pos_as_xyz
  1  'x, y, z'
loop_
 _atom_site_type_symbol
 _atom_site_label
 _atom_site_symmetry_multiplicity
 _atom_site_fract_x
 _atom_site_fract_y
 _atom_site_fract_z
 _atom_site_occupancy
  Tb  Tb0  1  0.292340  0.087400  0.377576  1
  Tb  Tb1  1  0.292589  0.912464  0.880470  1
  Tb  Tb2  1  0.707411  0.087536  0.880470  1
  Tb  Tb3  1  0.707660  0.912600  0.377576  1
  Tb  Tb4  1  0.587536  0.792589  0.880470  1
  Tb  Tb5  1  0.587400  0.207660  0.377576  1
  Tb  Tb6  1  0.412600  0.792340  0.377576  1
  Tb  Tb7  1  0.412464  0.207411  0.880470  1
  Tb  Tb8  1  0.209261  0.411432  0.620217  1
  Tb  Tb9  1  0.209391  0.588486  0.121475  1
  Tb  Tb10  1  0.790609  0.411514  0.121475  1
  Tb  Tb11  1  0.790739  0.588568  0.620217  1
  Tb  Tb12  1  0.911514  0.709391  0.121475  1
  Tb  Tb13  1  0.911432  0.290739  0.620217  1
  Tb  Tb14  1  0.088568  0.709261  0.620217  1
  Tb  Tb15  1  0.088486  0.290609  0.121475  1
  Tb  Tb16  1  0.000000  0.000000  0.499237  1
  Tb  Tb17  1  0.000000  0.000000  0.999171  1
  Tb  Tb18  1  0.500000  0.500000  0.999171  1
  Tb  Tb19  1  0.500000  0.500000  0.499237  1
  Ir  Ir20  1  0.847061  0.154068  0.250165  1
  Ir  Ir21  1  0.847251  0.846177  0.749976  1
  Ir  Ir22  1  0.152749  0.153823  0.749976  1
  Ir  Ir23  1  0.152939  0.845932  0.250165  1
  Ir  Ir24  1  0.653823  0.347251  0.749976  1
  Ir  Ir25  1  0.654068  0.652939  0.250165  1
  Ir  Ir26  1  0.345932  0.347061  0.250165  1
  Ir  Ir27  1  0.346177  0.652749  0.749976  1
  Ir  Ir28  1  0.500000  0.000000  0.622976  1
  Ir  Ir29  1  0.000000  0.500000  0.378660  1
  Ru  Ru30  1  0.500000  0.000000  0.123191  1
  Rh  Rh31  1  0.000000  0.500000  0.878839  1
