# generated using pymatgen
data_Ba5Ce4EuO14
_symmetry_space_group_name_H-M   'P 1'
_cell_length_a   11.57718500
_cell_length_b   11.57718411
_cell_length_c   6.28237400
_cell_angle_alpha   90.00000000
_cell_angle_beta   90.00000000
_cell_angle_gamma   147.85431564
_symmetry_Int_Tables_number   1
_chemical_formula_structural   Ba5Ce4EuO14
_chemical_formula_sum   'Ba5 Ce4 Eu1 O14'
_cell_volume   448.02435242
_cell_formula_units_Z   1
loop_
 _symmetry_equiv_pos_site_id
 _symmetry_equiv_pos_as_xyz
  1  'x, y, z'
loop_
 _atom_site_type_symbol
 _atom_site_label
 _atom_site_symmetry_multiplicity
 _atom_site_fract_x
 _atom_site_fract_y
 _atom_site_fract_z
 _atom_site_occupancy
  Ba  Ba0  1  0.573678  0.951453  0.250000  1
  Ba  Ba1  1  0.956207  0.575386  0.250000  1
  Ba  Ba2  1  0.431805  0.049295  0.750000  1
  Ba  Ba3  1  0.767565  0.763485  0.250000  1
  Ba  Ba4  1  0.236253  0.237730  0.750000  1
  Ce  Ce5  1  0.147995  0.350961  0.250000  1
  Ce  Ce6  1  0.643205  0.844939  0.750000  1
  Ce  Ce7  1  0.849144  0.646681  0.750000  1
  Ce  Ce8  1  0.356085  0.157259  0.250000  1
  Eu  Eu9  1  0.048107  0.425878  0.750000  1
  O  O10  1  0.909156  0.073427  0.004322  1
  O  O11  1  0.909156  0.073427  0.495678  1
  O  O12  1  0.358111  0.607558  0.513291  1
  O  O13  1  0.358111  0.607558  0.986709  1
  O  O14  1  0.970195  0.365116  0.250000  1
  O  O15  1  0.667994  0.061066  0.750000  1
  O  O16  1  0.378032  0.984754  0.250000  1
  O  O17  1  0.026745  0.614466  0.750000  1
  O  O18  1  0.620149  0.386631  0.999449  1
  O  O19  1  0.620149  0.386631  0.500551  1
  O  O20  1  0.085595  0.916796  0.501424  1
  O  O21  1  0.085595  0.916796  0.998576  1
  O  O22  1  0.666517  0.666204  0.750000  1
  O  O23  1  0.334452  0.336503  0.250000  1
