# generated using pymatgen
data_LiY9Al3Ru
_symmetry_space_group_name_H-M   'P 1'
_cell_length_a   9.40024400
_cell_length_b   9.40024527
_cell_length_c   9.55921700
_cell_angle_alpha   90.00000000
_cell_angle_beta   90.00000000
_cell_angle_gamma   120.00000255
_symmetry_Int_Tables_number   1
_chemical_formula_structural   LiY9Al3Ru
_chemical_formula_sum   'Li2 Y18 Al6 Ru2'
_cell_volume   731.52850409
_cell_formula_units_Z   2
loop_
 _symmetry_equiv_pos_site_id
 _symmetry_equiv_pos_as_xyz
  1  'x, y, z'
loop_
 _atom_site_type_symbol
 _atom_site_label
 _atom_site_symmetry_multiplicity
 _atom_site_fract_x
 _atom_site_fract_y
 _atom_site_fract_z
 _atom_site_occupancy
  Li  Li0  1  0.000000  0.000000  0.500000  1
  Li  Li1  1  0.000000  0.000000  0.000000  1
  Y  Y2  1  0.204099  0.795901  0.439741  1
  Y  Y3  1  0.204099  0.408199  0.439741  1
  Y  Y4  1  0.591801  0.795901  0.439741  1
  Y  Y5  1  0.795901  0.204099  0.560259  1
  Y  Y6  1  0.795901  0.591801  0.560259  1
  Y  Y7  1  0.408199  0.204099  0.560259  1
  Y  Y8  1  0.795901  0.204099  0.939741  1
  Y  Y9  1  0.795901  0.591801  0.939741  1
  Y  Y10  1  0.408199  0.204099  0.939741  1
  Y  Y11  1  0.204099  0.795901  0.060259  1
  Y  Y12  1  0.204099  0.408199  0.060259  1
  Y  Y13  1  0.591801  0.795901  0.060259  1
  Y  Y14  1  0.540465  0.459535  0.250000  1
  Y  Y15  1  0.540465  0.080931  0.250000  1
  Y  Y16  1  0.919069  0.459535  0.250000  1
  Y  Y17  1  0.459535  0.540465  0.750000  1
  Y  Y18  1  0.459535  0.919069  0.750000  1
  Y  Y19  1  0.080931  0.540465  0.750000  1
  Al  Al20  1  0.897018  0.102982  0.250000  1
  Al  Al21  1  0.897018  0.794037  0.250000  1
  Al  Al22  1  0.205963  0.102982  0.250000  1
  Al  Al23  1  0.102982  0.897018  0.750000  1
  Al  Al24  1  0.102982  0.205963  0.750000  1
  Al  Al25  1  0.794037  0.897018  0.750000  1
  Ru  Ru26  1  0.333333  0.666667  0.250000  1
  Ru  Ru27  1  0.666667  0.333333  0.750000  1
