# generated using pymatgen
data_SrSc(GaAu)2
_symmetry_space_group_name_H-M   'P 1'
_cell_length_a   4.53668200
_cell_length_b   4.53668349
_cell_length_c   7.46494300
_cell_angle_alpha   90.00000000
_cell_angle_beta   90.00000000
_cell_angle_gamma   120.00000374
_symmetry_Int_Tables_number   1
_chemical_formula_structural   SrSc(GaAu)2
_chemical_formula_sum   'Sr1 Sc1 Ga2 Au2'
_cell_volume   133.05583668
_cell_formula_units_Z   1
loop_
 _symmetry_equiv_pos_site_id
 _symmetry_equiv_pos_as_xyz
  1  'x, y, z'
loop_
 _atom_site_type_symbol
 _atom_site_label
 _atom_site_symmetry_multiplicity
 _atom_site_fract_x
 _atom_site_fract_y
 _atom_site_fract_z
 _atom_site_occupancy
  Sr  Sr0  1  0.000000  0.000000  0.500000  1
  Sc  Sc1  1  0.000000  0.000000  0.000000  1
  Ga  Ga2  1  0.666667  0.333333  0.186607  1
  Ga  Ga3  1  0.666667  0.333333  0.813393  1
  Au  Au4  1  0.333333  0.666667  0.793034  1
  Au  Au5  1  0.333333  0.666667  0.206966  1
