# generated using pymatgen
data_Sc(SiTc2)2
_symmetry_space_group_name_H-M   'P 1'
_cell_length_a   7.23389900
_cell_length_b   7.23389900
_cell_length_c   4.14729300
_cell_angle_alpha   90.00000000
_cell_angle_beta   90.00000000
_cell_angle_gamma   90.00000000
_symmetry_Int_Tables_number   1
_chemical_formula_structural   Sc(SiTc2)2
_chemical_formula_sum   'Sc2 Si4 Tc8'
_cell_volume   217.02491778
_cell_formula_units_Z   2
loop_
 _symmetry_equiv_pos_site_id
 _symmetry_equiv_pos_as_xyz
  1  'x, y, z'
loop_
 _atom_site_type_symbol
 _atom_site_label
 _atom_site_symmetry_multiplicity
 _atom_site_fract_x
 _atom_site_fract_y
 _atom_site_fract_z
 _atom_site_occupancy
  Sc  Sc0  1  0.500000  0.500000  0.000000  1
  Sc  Sc1  1  0.000000  0.000000  0.500000  1
  Si  Si2  1  0.705497  0.705497  0.500000  1
  Si  Si3  1  0.294503  0.294503  0.500000  1
  Si  Si4  1  0.205497  0.794503  0.000000  1
  Si  Si5  1  0.794503  0.205497  0.000000  1
  Tc  Tc6  1  0.598088  0.154147  0.500000  1
  Tc  Tc7  1  0.401912  0.845853  0.500000  1
  Tc  Tc8  1  0.098088  0.345853  0.000000  1
  Tc  Tc9  1  0.901912  0.654147  0.000000  1
  Tc  Tc10  1  0.154147  0.598088  0.500000  1
  Tc  Tc11  1  0.845853  0.401912  0.500000  1
  Tc  Tc12  1  0.345853  0.098088  0.000000  1
  Tc  Tc13  1  0.654147  0.901912  0.000000  1
