# generated using pymatgen
data_Nd2Se4O11
_symmetry_space_group_name_H-M   'P 1'
_cell_length_a   6.86446022
_cell_length_b   6.86446017
_cell_length_c   16.20021200
_cell_angle_alpha   77.22956830
_cell_angle_beta   77.22956698
_cell_angle_gamma   43.94845602
_symmetry_Int_Tables_number   1
_chemical_formula_structural   Nd2Se4O11
_chemical_formula_sum   'Nd4 Se8 O22'
_cell_volume   514.51490053
_cell_formula_units_Z   2
loop_
 _symmetry_equiv_pos_site_id
 _symmetry_equiv_pos_as_xyz
  1  'x, y, z'
loop_
 _atom_site_type_symbol
 _atom_site_label
 _atom_site_symmetry_multiplicity
 _atom_site_fract_x
 _atom_site_fract_y
 _atom_site_fract_z
 _atom_site_occupancy
  Nd  Nd0  1  0.137527  0.624276  0.539225  1
  Nd  Nd1  1  0.375724  0.862473  0.960775  1
  Nd  Nd2  1  0.862473  0.375724  0.460775  1
  Nd  Nd3  1  0.624276  0.137527  0.039225  1
  Se  Se4  1  0.634673  0.154034  0.698823  1
  Se  Se5  1  0.845966  0.365327  0.801177  1
  Se  Se6  1  0.365327  0.845966  0.301177  1
  Se  Se7  1  0.154034  0.634673  0.198823  1
  Se  Se8  1  0.126057  0.591458  0.880502  1
  Se  Se9  1  0.408542  0.873943  0.619498  1
  Se  Se10  1  0.873943  0.408542  0.119498  1
  Se  Se11  1  0.591458  0.126057  0.380502  1
  O  O12  1  0.875195  0.124805  0.750000  1
  O  O13  1  0.124805  0.875195  0.250000  1
  O  O14  1  0.179893  0.105528  0.827306  1
  O  O15  1  0.894472  0.820107  0.672694  1
  O  O16  1  0.820107  0.894472  0.172694  1
  O  O17  1  0.105528  0.179893  0.327306  1
  O  O18  1  0.634666  0.423087  0.894000  1
  O  O19  1  0.576913  0.365334  0.606000  1
  O  O20  1  0.365334  0.576913  0.106000  1
  O  O21  1  0.423087  0.634666  0.394000  1
  O  O22  1  0.060742  0.790019  0.954844  1
  O  O23  1  0.209981  0.939258  0.545156  1
  O  O24  1  0.706320  0.809473  0.377930  1
  O  O25  1  0.190527  0.293680  0.122070  1
  O  O26  1  0.293680  0.190527  0.622070  1
  O  O27  1  0.809473  0.706320  0.877930  1
  O  O28  1  0.264874  0.319776  0.441324  1
  O  O29  1  0.680224  0.735126  0.058676  1
  O  O30  1  0.735126  0.680224  0.558676  1
  O  O31  1  0.319776  0.264874  0.941324  1
  O  O32  1  0.790019  0.060742  0.454844  1
  O  O33  1  0.939258  0.209981  0.045156  1
