# generated using pymatgen
data_Yb2Cu2SiSn
_symmetry_space_group_name_H-M   'P 1'
_cell_length_a   4.38782500
_cell_length_b   7.06798701
_cell_length_c   7.63341695
_cell_angle_alpha   89.11328670
_cell_angle_beta   90.00000000
_cell_angle_gamma   90.00000000
_symmetry_Int_Tables_number   1
_chemical_formula_structural   Yb2Cu2SiSn
_chemical_formula_sum   'Yb4 Cu4 Si2 Sn2'
_cell_volume   236.70749806
_cell_formula_units_Z   2
loop_
 _symmetry_equiv_pos_site_id
 _symmetry_equiv_pos_as_xyz
  1  'x, y, z'
loop_
 _atom_site_type_symbol
 _atom_site_label
 _atom_site_symmetry_multiplicity
 _atom_site_fract_x
 _atom_site_fract_y
 _atom_site_fract_z
 _atom_site_occupancy
  Yb  Yb0  1  0.250000  0.506404  0.219891  1
  Yb  Yb1  1  0.750000  0.493596  0.780109  1
  Yb  Yb2  1  0.750000  0.988965  0.686296  1
  Yb  Yb3  1  0.250000  0.011035  0.313704  1
  Cu  Cu4  1  0.250000  0.786378  0.885162  1
  Cu  Cu5  1  0.750000  0.213622  0.114838  1
  Cu  Cu6  1  0.750000  0.681095  0.428969  1
  Cu  Cu7  1  0.250000  0.318905  0.571031  1
  Si  Si8  1  0.250000  0.689208  0.582717  1
  Si  Si9  1  0.750000  0.310792  0.417283  1
  Sn  Sn10  1  0.750000  0.813261  0.080358  1
  Sn  Sn11  1  0.250000  0.186739  0.919642  1
