# generated using pymatgen
data_K2MnFeP6(HO10)2
_symmetry_space_group_name_H-M   'P 1'
_cell_length_a   8.37599400
_cell_length_b   9.42596209
_cell_length_c   12.38854300
_cell_angle_alpha   69.70130462
_cell_angle_beta   89.99997264
_cell_angle_gamma   89.99994796
_symmetry_Int_Tables_number   1
_chemical_formula_structural   K2MnFeP6(HO10)2
_chemical_formula_sum   'K4 Mn2 Fe2 P12 H4 O40'
_cell_volume   917.35482313
_cell_formula_units_Z   2
loop_
 _symmetry_equiv_pos_site_id
 _symmetry_equiv_pos_as_xyz
  1  'x, y, z'
loop_
 _atom_site_type_symbol
 _atom_site_label
 _atom_site_symmetry_multiplicity
 _atom_site_fract_x
 _atom_site_fract_y
 _atom_site_fract_z
 _atom_site_occupancy
  K  K0  1  0.942861  0.249167  0.502895  1
  K  K1  1  0.442864  0.250824  0.997104  1
  K  K2  1  0.057141  0.749167  0.502898  1
  K  K3  1  0.557133  0.750825  0.997103  1
  Mn  Mn4  1  0.250015  0.500022  0.249993  1
  Mn  Mn5  1  0.749989  0.000019  0.249989  1
  Fe  Fe6  1  0.749997  0.500005  0.749991  1
  Fe  Fe7  1  0.250002  0.000005  0.749990  1
  P  P8  1  0.372378  0.248296  0.503283  1
  P  P9  1  0.872375  0.251700  0.996717  1
  P  P10  1  0.627622  0.748295  0.503283  1
  P  P11  1  0.127626  0.751701  0.996716  1
  P  P12  1  0.069826  0.295811  0.791026  1
  P  P13  1  0.565151  0.293871  0.294349  1
  P  P14  1  0.065154  0.206136  0.205651  1
  P  P15  1  0.569840  0.204187  0.708979  1
  P  P16  1  0.934846  0.706136  0.205651  1
  P  P17  1  0.430159  0.704186  0.708978  1
  P  P18  1  0.930174  0.795811  0.791026  1
  P  P19  1  0.434848  0.793869  0.294349  1
  H  H20  1  0.750016  0.500015  0.249995  1
  H  H21  1  0.249998  0.499985  0.750006  1
  H  H22  1  0.249984  0.000015  0.249995  1
  H  H23  1  0.750002  0.999986  0.750006  1
  O  O24  1  0.884696  0.675836  0.741041  1
  O  O25  1  0.390831  0.676749  0.240464  1
  O  O26  1  0.890811  0.823250  0.259527  1
  O  O27  1  0.384680  0.824176  0.758950  1
  O  O28  1  0.109188  0.323248  0.259526  1
  O  O29  1  0.615319  0.324177  0.758950  1
  O  O30  1  0.115304  0.175837  0.741041  1
  O  O31  1  0.609170  0.176748  0.240466  1
  O  O32  1  0.944631  0.401131  0.714089  1
  O  O33  1  0.436572  0.398858  0.217893  1
  O  O34  1  0.936560  0.101157  0.282114  1
  O  O35  1  0.444642  0.098874  0.785915  1
  O  O36  1  0.063439  0.601157  0.282115  1
  O  O37  1  0.555359  0.598874  0.785915  1
  O  O38  1  0.055369  0.901132  0.714088  1
  O  O39  1  0.563430  0.898858  0.217894  1
  O  O40  1  0.275273  0.384330  0.435394  1
  O  O41  1  0.782541  0.392868  0.926100  1
  O  O42  1  0.282539  0.107130  0.573893  1
  O  O43  1  0.775271  0.115665  0.064610  1
  O  O44  1  0.717462  0.607130  0.573893  1
  O  O45  1  0.224729  0.615665  0.064609  1
  O  O46  1  0.724727  0.884331  0.435394  1
  O  O47  1  0.217460  0.892869  0.926101  1
  O  O48  1  0.987799  0.301521  0.081347  1
  O  O49  1  0.491023  0.299566  0.584126  1
  O  O50  1  0.991023  0.200427  0.915874  1
  O  O51  1  0.487786  0.198470  0.418656  1
  O  O52  1  0.008977  0.700428  0.915874  1
  O  O53  1  0.512214  0.698469  0.418655  1
  O  O54  1  0.012201  0.801520  0.081348  1
  O  O55  1  0.508976  0.799565  0.584127  1
  O  O56  1  0.706349  0.381096  0.320406  1
  O  O57  1  0.211526  0.379816  0.820284  1
  O  O58  1  0.711531  0.120177  0.679720  1
  O  O59  1  0.206347  0.118887  0.179611  1
  O  O60  1  0.288468  0.620176  0.679719  1
  O  O61  1  0.793653  0.618886  0.179610  1
  O  O62  1  0.293650  0.881096  0.320405  1
  O  O63  1  0.788475  0.879816  0.820283  1
