# generated using pymatgen
data_Tb3(Ho3Ru2)7
_symmetry_space_group_name_H-M   'P 1'
_cell_length_a   11.29718040
_cell_length_b   8.33854848
_cell_length_c   11.21325493
_cell_angle_alpha   56.49695137
_cell_angle_beta   89.99762681
_cell_angle_gamma   89.97098410
_symmetry_Int_Tables_number   1
_chemical_formula_structural   Tb3(Ho3Ru2)7
_chemical_formula_sum   'Tb3 Ho21 Ru14'
_cell_volume   880.81243740
_cell_formula_units_Z   1
loop_
 _symmetry_equiv_pos_site_id
 _symmetry_equiv_pos_as_xyz
  1  'x, y, z'
loop_
 _atom_site_type_symbol
 _atom_site_label
 _atom_site_symmetry_multiplicity
 _atom_site_fract_x
 _atom_site_fract_y
 _atom_site_fract_z
 _atom_site_occupancy
  Tb  Tb0  1  0.704849  0.243013  0.530831  1
  Tb  Tb1  1  0.204824  0.756815  0.968827  1
  Tb  Tb2  1  0.844614  0.508653  0.655385  1
  Ho  Ho3  1  0.345322  0.491632  0.844953  1
  Ho  Ho4  1  0.154930  0.491626  0.345363  1
  Ho  Ho5  1  0.654505  0.508238  0.154348  1
  Ho  Ho6  1  0.007212  0.852981  0.361045  1
  Ho  Ho7  1  0.506731  0.147538  0.138521  1
  Ho  Ho8  1  0.993594  0.147826  0.637999  1
  Ho  Ho9  1  0.493097  0.852229  0.861691  1
  Ho  Ho10  1  0.794110  0.243132  0.031456  1
  Ho  Ho11  1  0.294263  0.756419  0.469124  1
  Ho  Ho12  1  0.930549  0.777652  0.090611  1
  Ho  Ho13  1  0.430341  0.222122  0.409593  1
  Ho  Ho14  1  0.068804  0.221736  0.910476  1
  Ho  Ho15  1  0.568115  0.777984  0.589844  1
  Ho  Ho16  1  0.302003  0.241095  0.675389  1
  Ho  Ho17  1  0.801913  0.759354  0.824756  1
  Ho  Ho18  1  0.698146  0.760001  0.324053  1
  Ho  Ho19  1  0.198430  0.240105  0.175599  1
  Ho  Ho20  1  0.925538  0.281183  0.292909  1
  Ho  Ho21  1  0.425327  0.719183  0.206922  1
  Ho  Ho22  1  0.075154  0.719254  0.706297  1
  Ho  Ho23  1  0.574364  0.280477  0.794041  1
  Ru  Ru24  1  0.499504  0.501087  0.500289  1
  Ru  Ru25  1  0.999150  0.498561  0.999802  1
  Ru  Ru26  1  0.646485  0.925095  0.034066  1
  Ru  Ru27  1  0.147061  0.074810  0.466082  1
  Ru  Ru28  1  0.353686  0.075490  0.966074  1
  Ru  Ru29  1  0.853995  0.925469  0.533557  1
  Ru  Ru30  1  0.397993  0.483442  0.103381  1
  Ru  Ru31  1  0.898435  0.516953  0.395844  1
  Ru  Ru32  1  0.601808  0.516562  0.896966  1
  Ru  Ru33  1  0.102581  0.483650  0.602833  1
  Ru  Ru34  1  0.820404  0.097443  0.851693  1
  Ru  Ru35  1  0.320525  0.901209  0.649253  1
  Ru  Ru36  1  0.180970  0.901558  0.150342  1
  Ru  Ru37  1  0.680671  0.098421  0.349783  1
