# generated using pymatgen
data_Nd5HoAl24(Os3Rh)2
_symmetry_space_group_name_H-M   'P 1'
_cell_length_a   8.85884328
_cell_length_b   8.86898331
_cell_length_c   9.68087300
_cell_angle_alpha   90.00000000
_cell_angle_beta   90.00000000
_cell_angle_gamma   119.31926740
_symmetry_Int_Tables_number   1
_chemical_formula_structural   Nd5HoAl24(Os3Rh)2
_chemical_formula_sum   'Nd5 Ho1 Al24 Os6 Rh2'
_cell_volume   663.18451168
_cell_formula_units_Z   1
loop_
 _symmetry_equiv_pos_site_id
 _symmetry_equiv_pos_as_xyz
  1  'x, y, z'
loop_
 _atom_site_type_symbol
 _atom_site_label
 _atom_site_symmetry_multiplicity
 _atom_site_fract_x
 _atom_site_fract_y
 _atom_site_fract_z
 _atom_site_occupancy
  Nd  Nd0  1  0.814858  0.616669  0.750000  1
  Nd  Nd1  1  0.617745  0.815416  0.250000  1
  Nd  Nd2  1  0.382648  0.184015  0.750000  1
  Nd  Nd3  1  0.191695  0.807069  0.250000  1
  Nd  Nd4  1  0.807417  0.192414  0.750000  1
  Ho  Ho5  1  0.185282  0.388126  0.250000  1
  Al  Al6  1  0.332569  0.666295  0.018705  1
  Al  Al7  1  0.667267  0.332488  0.983713  1
  Al  Al8  1  0.667267  0.332488  0.516287  1
  Al  Al9  1  0.332569  0.666295  0.481295  1
  Al  Al10  1  0.162230  0.325974  0.572793  1
  Al  Al11  1  0.837604  0.673463  0.424282  1
  Al  Al12  1  0.673783  0.837931  0.574859  1
  Al  Al13  1  0.837604  0.673463  0.075718  1
  Al  Al14  1  0.325379  0.163172  0.423595  1
  Al  Al15  1  0.162230  0.325974  0.927207  1
  Al  Al16  1  0.165058  0.834892  0.573670  1
  Al  Al17  1  0.325379  0.163172  0.076405  1
  Al  Al18  1  0.836850  0.165536  0.425068  1
  Al  Al19  1  0.673783  0.837931  0.925141  1
  Al  Al20  1  0.836850  0.165536  0.074932  1
  Al  Al21  1  0.165058  0.834892  0.926330  1
  Al  Al22  1  0.561604  0.127912  0.250000  1
  Al  Al23  1  0.437876  0.871686  0.750000  1
  Al  Al24  1  0.873734  0.437727  0.250000  1
  Al  Al25  1  0.127660  0.561349  0.750000  1
  Al  Al26  1  0.557785  0.438964  0.250000  1
  Al  Al27  1  0.438816  0.560076  0.750000  1
  Al  Al28  1  0.001285  0.006692  0.250000  1
  Al  Al29  1  0.001325  0.997984  0.750000  1
  Os  Os30  1  0.499775  0.999448  0.000393  1
  Os  Os31  1  0.001105  0.499011  0.001543  1
  Os  Os32  1  0.499775  0.999448  0.499607  1
  Os  Os33  1  0.001105  0.499011  0.498457  1
  Os  Os34  1  0.000053  0.999723  0.000431  1
  Os  Os35  1  0.000053  0.999723  0.499569  1
  Rh  Rh36  1  0.498463  0.499017  0.000835  1
  Rh  Rh37  1  0.498463  0.499017  0.499165  1
