# generated using pymatgen
data_Fe4Co8Si9(Mo4P)3
_symmetry_space_group_name_H-M   'P 1'
_cell_length_a   3.63731600
_cell_length_b   6.02765884
_cell_length_c   20.66253532
_cell_angle_alpha   89.79207974
_cell_angle_beta   90.00000000
_cell_angle_gamma   90.00000000
_symmetry_Int_Tables_number   1
_chemical_formula_structural   Fe4Co8Si9(Mo4P)3
_chemical_formula_sum   'Fe4 Co8 Si9 Mo12 P3'
_cell_volume   453.01277145
_cell_formula_units_Z   1
loop_
 _symmetry_equiv_pos_site_id
 _symmetry_equiv_pos_as_xyz
  1  'x, y, z'
loop_
 _atom_site_type_symbol
 _atom_site_label
 _atom_site_symmetry_multiplicity
 _atom_site_fract_x
 _atom_site_fract_y
 _atom_site_fract_z
 _atom_site_occupancy
  Fe  Fe0  1  0.500000  0.353129  0.811574  1
  Fe  Fe1  1  0.500000  0.355075  0.478205  1
  Fe  Fe2  1  0.500000  0.353750  0.144888  1
  Fe  Fe3  1  0.500000  0.865529  0.686598  1
  Co  Co4  1  0.500000  0.862764  0.353359  1
  Co  Co5  1  0.500000  0.862635  0.020134  1
  Co  Co6  1  0.000000  0.642530  0.853449  1
  Co  Co7  1  0.000000  0.645056  0.519945  1
  Co  Co8  1  0.000000  0.644420  0.186626  1
  Co  Co9  1  0.000000  0.144615  0.981977  1
  Co  Co10  1  0.000000  0.146360  0.647986  1
  Co  Co11  1  0.000000  0.144872  0.315113  1
  Si  Si12  1  0.500000  0.726801  0.792401  1
  Si  Si13  1  0.500000  0.728775  0.459078  1
  Si  Si14  1  0.500000  0.727362  0.125480  1
  Si  Si15  1  0.000000  0.270875  0.874135  1
  Si  Si16  1  0.000000  0.273037  0.541130  1
  Si  Si17  1  0.000000  0.273011  0.207948  1
  Si  Si18  1  0.000000  0.768652  0.959505  1
  Si  Si19  1  0.000000  0.771044  0.626266  1
  Si  Si20  1  0.000000  0.769106  0.292937  1
  Mo  Mo21  1  0.500000  0.470463  0.941734  1
  Mo  Mo22  1  0.500000  0.472157  0.609020  1
  Mo  Mo23  1  0.500000  0.471234  0.275299  1
  Mo  Mo24  1  0.500000  0.972787  0.890894  1
  Mo  Mo25  1  0.500000  0.973694  0.557858  1
  Mo  Mo26  1  0.500000  0.972978  0.223627  1
  Mo  Mo27  1  0.000000  0.522813  0.725278  1
  Mo  Mo28  1  0.000000  0.521204  0.392614  1
  Mo  Mo29  1  0.000000  0.520247  0.059084  1
  Mo  Mo30  1  0.000000  0.025052  0.774788  1
  Mo  Mo31  1  0.000000  0.029120  0.442196  1
  Mo  Mo32  1  0.000000  0.028675  0.109197  1
  P  P33  1  0.500000  0.229105  0.706562  1
  P  P34  1  0.500000  0.230680  0.373280  1
  P  P35  1  0.500000  0.230391  0.039835  1
