# generated using pymatgen
data_VTc5Te8
_symmetry_space_group_name_H-M   'P 1'
_cell_length_a   7.09070911
_cell_length_b   7.06674323
_cell_length_c   7.08980315
_cell_angle_alpha   94.21791731
_cell_angle_beta   93.61287609
_cell_angle_gamma   93.43617410
_symmetry_Int_Tables_number   1
_chemical_formula_structural   VTc5Te8
_chemical_formula_sum   'V1 Tc5 Te8'
_cell_volume   352.84619504
_cell_formula_units_Z   1
loop_
 _symmetry_equiv_pos_site_id
 _symmetry_equiv_pos_as_xyz
  1  'x, y, z'
loop_
 _atom_site_type_symbol
 _atom_site_label
 _atom_site_symmetry_multiplicity
 _atom_site_fract_x
 _atom_site_fract_y
 _atom_site_fract_z
 _atom_site_occupancy
  V  V0  1  0.956425  0.243586  0.085753  1
  Tc  Tc1  1  0.910463  0.046058  0.747092  1
  Tc  Tc2  1  0.745501  0.913207  0.048678  1
  Tc  Tc3  1  0.045777  0.746085  0.912991  1
  Tc  Tc4  1  0.087031  0.956920  0.253547  1
  Tc  Tc5  1  0.250284  0.087387  0.952401  1
  Te  Te6  1  0.710379  0.709932  0.710835  1
  Te  Te7  1  0.288452  0.291961  0.289567  1
  Te  Te8  1  0.774183  0.126016  0.382820  1
  Te  Te9  1  0.381136  0.772341  0.121594  1
  Te  Te10  1  0.122485  0.380078  0.765587  1
  Te  Te11  1  0.227256  0.876729  0.618076  1
  Te  Te12  1  0.618968  0.229301  0.886330  1
  Te  Te13  1  0.881661  0.620398  0.224728  1
