# generated using pymatgen
data_V10Si6N
_symmetry_space_group_name_H-M   'P 1'
_cell_length_a   7.14505900
_cell_length_b   7.14505923
_cell_length_c   4.81091700
_cell_angle_alpha   90.00000000
_cell_angle_beta   90.00000000
_cell_angle_gamma   120.00001284
_symmetry_Int_Tables_number   1
_chemical_formula_structural   V10Si6N
_chemical_formula_sum   'V10 Si6 N1'
_cell_volume   212.70127448
_cell_formula_units_Z   1
loop_
 _symmetry_equiv_pos_site_id
 _symmetry_equiv_pos_as_xyz
  1  'x, y, z'
loop_
 _atom_site_type_symbol
 _atom_site_label
 _atom_site_symmetry_multiplicity
 _atom_site_fract_x
 _atom_site_fract_y
 _atom_site_fract_z
 _atom_site_occupancy
  V  V0  1  0.000000  0.763443  0.258463  1
  V  V1  1  0.236557  0.236557  0.258463  1
  V  V2  1  0.763443  0.000000  0.258463  1
  V  V3  1  0.000000  0.236557  0.741537  1
  V  V4  1  0.763443  0.763443  0.741537  1
  V  V5  1  0.236557  0.000000  0.741537  1
  V  V6  1  0.333333  0.666667  0.500000  1
  V  V7  1  0.666667  0.333333  0.500000  1
  V  V8  1  0.666667  0.333333  0.000000  1
  V  V9  1  0.333333  0.666667  0.000000  1
  Si  Si10  1  0.000000  0.402228  0.241978  1
  Si  Si11  1  0.597772  0.597772  0.241978  1
  Si  Si12  1  0.402228  0.000000  0.241978  1
  Si  Si13  1  0.000000  0.597772  0.758022  1
  Si  Si14  1  0.402228  0.402228  0.758022  1
  Si  Si15  1  0.597772  0.000000  0.758022  1
  N  N16  1  0.000000  0.000000  0.500000  1
