# generated using pymatgen
data_EuSiCl6
_symmetry_space_group_name_H-M   'P 1'
_cell_length_a   20.13103172
_cell_length_b   9.99505064
_cell_length_c   6.19731365
_cell_angle_alpha   105.61033557
_cell_angle_beta   67.12844149
_cell_angle_gamma   143.93933574
_symmetry_Int_Tables_number   1
_chemical_formula_structural   EuSiCl6
_chemical_formula_sum   'Eu1 Si1 Cl6'
_cell_volume   673.96377817
_cell_formula_units_Z   1
loop_
 _symmetry_equiv_pos_site_id
 _symmetry_equiv_pos_as_xyz
  1  'x, y, z'
loop_
 _atom_site_type_symbol
 _atom_site_label
 _atom_site_symmetry_multiplicity
 _atom_site_fract_x
 _atom_site_fract_y
 _atom_site_fract_z
 _atom_site_occupancy
  Eu  Eu0  1  0.008990  0.097143  0.631039  1
  Si  Si1  1  0.955546  0.687455  0.213393  1
  Cl  Cl2  1  0.989817  0.689405  0.520549  1
  Cl  Cl3  1  0.979219  0.961992  0.170108  1
  Cl  Cl4  1  0.564553  0.883511  0.648092  1
  Cl  Cl5  1  0.699626  0.364507  0.222216  1
  Cl  Cl6  1  0.808426  0.656627  0.706237  1
  Cl  Cl7  1  0.308820  0.600631  0.793670  1
