# generated using pymatgen
data_Tb2Ga3SiAu4
_symmetry_space_group_name_H-M   'P 1'
_cell_length_a   4.29326800
_cell_length_b   4.29326800
_cell_length_c   10.76739500
_cell_angle_alpha   90.00000000
_cell_angle_beta   90.00000000
_cell_angle_gamma   90.00000000
_symmetry_Int_Tables_number   1
_chemical_formula_structural   Tb2Ga3SiAu4
_chemical_formula_sum   'Tb2 Ga3 Si1 Au4'
_cell_volume   198.46624104
_cell_formula_units_Z   1
loop_
 _symmetry_equiv_pos_site_id
 _symmetry_equiv_pos_as_xyz
  1  'x, y, z'
loop_
 _atom_site_type_symbol
 _atom_site_label
 _atom_site_symmetry_multiplicity
 _atom_site_fract_x
 _atom_site_fract_y
 _atom_site_fract_z
 _atom_site_occupancy
  Tb  Tb0  1  0.000000  0.500000  0.241836  1
  Tb  Tb1  1  0.500000  0.000000  0.760276  1
  Ga  Ga2  1  0.000000  0.000000  0.501860  1
  Ga  Ga3  1  0.500000  0.500000  0.501860  1
  Ga  Ga4  1  0.500000  0.000000  0.134816  1
  Si  Si5  1  0.000000  0.500000  0.866038  1
  Au  Au6  1  0.000000  0.000000  0.992851  1
  Au  Au7  1  0.500000  0.500000  0.992851  1
  Au  Au8  1  0.000000  0.500000  0.642631  1
  Au  Au9  1  0.500000  0.000000  0.364980  1
