# generated using pymatgen
data_U6Co2S15
_symmetry_space_group_name_H-M   'P 1'
_cell_length_a   11.00116294
_cell_length_b   11.00116292
_cell_length_c   11.00116300
_cell_angle_alpha   109.47121894
_cell_angle_beta   109.47121890
_cell_angle_gamma   109.47122240
_symmetry_Int_Tables_number   1
_chemical_formula_structural   U6Co2S15
_chemical_formula_sum   'U12 Co4 S30'
_cell_volume   1024.92930620
_cell_formula_units_Z   2
loop_
 _symmetry_equiv_pos_site_id
 _symmetry_equiv_pos_as_xyz
  1  'x, y, z'
loop_
 _atom_site_type_symbol
 _atom_site_label
 _atom_site_symmetry_multiplicity
 _atom_site_fract_x
 _atom_site_fract_y
 _atom_site_fract_z
 _atom_site_occupancy
  U  U0  1  0.294314  0.294314  0.588628  1
  U  U1  1  0.705686  0.000000  0.294314  1
  U  U2  1  0.000000  0.705686  0.294314  1
  U  U3  1  0.705686  0.294314  0.000000  1
  U  U4  1  0.294314  0.588628  0.294314  1
  U  U5  1  0.000000  0.294314  0.705686  1
  U  U6  1  0.294314  0.705686  0.000000  1
  U  U7  1  0.294314  0.000000  0.705686  1
  U  U8  1  0.588628  0.294314  0.294314  1
  U  U9  1  0.705686  0.705686  0.411372  1
  U  U10  1  0.705686  0.411372  0.705686  1
  U  U11  1  0.411372  0.705686  0.705686  1
  Co  Co12  1  0.000000  0.000000  0.500000  1
  Co  Co13  1  0.000000  0.500000  0.000000  1
  Co  Co14  1  0.500000  0.000000  0.000000  1
  Co  Co15  1  0.500000  0.500000  0.500000  1
  S  S16  1  0.000000  0.178444  0.435281  1
  S  S17  1  0.821556  0.821556  0.256837  1
  S  S18  1  0.178444  0.000000  0.435281  1
  S  S19  1  0.000000  0.435281  0.178444  1
  S  S20  1  0.178444  0.435281  0.000000  1
  S  S21  1  0.821556  0.256837  0.821556  1
  S  S22  1  0.256837  0.821556  0.821556  1
  S  S23  1  0.435281  0.178444  0.000000  1
  S  S24  1  0.435281  0.000000  0.178444  1
  S  S25  1  0.743163  0.564719  0.564719  1
  S  S26  1  0.564719  0.564719  0.743163  1
  S  S27  1  0.564719  0.743163  0.564719  1
  S  S28  1  0.000000  0.821556  0.564719  1
  S  S29  1  0.178444  0.178444  0.743163  1
  S  S30  1  0.821556  0.000000  0.564719  1
  S  S31  1  0.000000  0.564719  0.821556  1
  S  S32  1  0.821556  0.564719  0.000000  1
  S  S33  1  0.178444  0.743163  0.178444  1
  S  S34  1  0.743163  0.178444  0.178444  1
  S  S35  1  0.564719  0.821556  0.000000  1
  S  S36  1  0.564719  0.000000  0.821556  1
  S  S37  1  0.256837  0.435281  0.435281  1
  S  S38  1  0.435281  0.435281  0.256837  1
  S  S39  1  0.435281  0.256837  0.435281  1
  S  S40  1  0.750000  0.250000  0.500000  1
  S  S41  1  0.750000  0.500000  0.250000  1
  S  S42  1  0.500000  0.250000  0.750000  1
  S  S43  1  0.250000  0.500000  0.750000  1
  S  S44  1  0.250000  0.750000  0.500000  1
  S  S45  1  0.500000  0.750000  0.250000  1
