# generated using pymatgen
data_Er16Sc4Ir5Pt7
_symmetry_space_group_name_H-M   'P 1'
_cell_length_a   10.85233255
_cell_length_b   10.85233255
_cell_length_c   6.22335258
_cell_angle_alpha   90.03496804
_cell_angle_beta   90.03496804
_cell_angle_gamma   90.07031865
_symmetry_Int_Tables_number   1
_chemical_formula_structural   Er16Sc4Ir5Pt7
_chemical_formula_sum   'Er16 Sc4 Ir5 Pt7'
_cell_volume   732.94283580
_cell_formula_units_Z   1
loop_
 _symmetry_equiv_pos_site_id
 _symmetry_equiv_pos_as_xyz
  1  'x, y, z'
loop_
 _atom_site_type_symbol
 _atom_site_label
 _atom_site_symmetry_multiplicity
 _atom_site_fract_x
 _atom_site_fract_y
 _atom_site_fract_z
 _atom_site_occupancy
  Er  Er0  1  0.291853  0.085433  0.375145  1
  Er  Er1  1  0.292079  0.911400  0.875338  1
  Er  Er2  1  0.708258  0.085604  0.875310  1
  Er  Er3  1  0.708108  0.913985  0.375098  1
  Er  Er4  1  0.583173  0.790166  0.874375  1
  Er  Er5  1  0.585852  0.208732  0.376318  1
  Er  Er6  1  0.412950  0.789657  0.378692  1
  Er  Er7  1  0.414160  0.207790  0.875984  1
  Er  Er8  1  0.209834  0.416827  0.625625  1
  Er  Er9  1  0.210343  0.587050  0.121308  1
  Er  Er10  1  0.791268  0.414148  0.123682  1
  Er  Er11  1  0.792210  0.585840  0.624016  1
  Er  Er12  1  0.914567  0.708147  0.124855  1
  Er  Er13  1  0.914396  0.291742  0.624690  1
  Er  Er14  1  0.088600  0.707921  0.624662  1
  Er  Er15  1  0.086015  0.291892  0.124902  1
  Sc  Sc16  1  0.999929  0.999910  0.500293  1
  Sc  Sc17  1  0.000090  0.000071  0.999707  1
  Sc  Sc18  1  0.497672  0.501679  0.998512  1
  Sc  Sc19  1  0.498321  0.502328  0.501488  1
  Ir  Ir20  1  0.352489  0.647511  0.750000  1
  Ir  Ir21  1  0.500232  0.000307  0.121954  1
  Ir  Ir22  1  0.500115  0.000546  0.620774  1
  Ir  Ir23  1  0.999454  0.499885  0.879226  1
  Ir  Ir24  1  0.999693  0.499768  0.378046  1
  Pt  Pt25  1  0.851699  0.148301  0.250000  1
  Pt  Pt26  1  0.851506  0.851600  0.750087  1
  Pt  Pt27  1  0.148400  0.148494  0.749913  1
  Pt  Pt28  1  0.147964  0.852036  0.250000  1
  Pt  Pt29  1  0.648235  0.351765  0.750000  1
  Pt  Pt30  1  0.649257  0.648721  0.249905  1
  Pt  Pt31  1  0.351279  0.350743  0.250095  1
