# generated using pymatgen
data_Tb8Er2Si5Pb
_symmetry_space_group_name_H-M   'P 1'
_cell_length_a   8.58352329
_cell_length_b   8.55284846
_cell_length_c   6.42525111
_cell_angle_alpha   89.97854730
_cell_angle_beta   90.01068919
_cell_angle_gamma   119.88185677
_symmetry_Int_Tables_number   1
_chemical_formula_structural   Tb8Er2Si5Pb
_chemical_formula_sum   'Tb8 Er2 Si5 Pb1'
_cell_volume   408.99016684
_cell_formula_units_Z   1
loop_
 _symmetry_equiv_pos_site_id
 _symmetry_equiv_pos_as_xyz
  1  'x, y, z'
loop_
 _atom_site_type_symbol
 _atom_site_label
 _atom_site_symmetry_multiplicity
 _atom_site_fract_x
 _atom_site_fract_y
 _atom_site_fract_z
 _atom_site_occupancy
  Tb  Tb0  1  0.343664  0.674856  0.503918  1
  Tb  Tb1  1  0.656336  0.331191  0.503918  1
  Tb  Tb2  1  0.756790  0.755395  0.751272  1
  Tb  Tb3  1  0.243210  0.998604  0.751272  1
  Tb  Tb4  1  0.000000  0.240881  0.750557  1
  Tb  Tb5  1  0.253018  0.240686  0.248785  1
  Tb  Tb6  1  0.746982  0.987668  0.248785  1
  Tb  Tb7  1  0.000000  0.766194  0.248888  1
  Er  Er8  1  0.656600  0.331310  0.996067  1
  Er  Er9  1  0.343400  0.674711  0.996067  1
  Si  Si10  1  0.392680  0.394249  0.753755  1
  Si  Si11  1  0.607320  0.001570  0.753755  1
  Si  Si12  1  0.000000  0.605351  0.753234  1
  Si  Si13  1  0.604934  0.603421  0.246158  1
  Si  Si14  1  0.395066  0.998487  0.246158  1
  Pb  Pb15  1  0.000000  0.395426  0.247409  1
