# generated using pymatgen
data_Tm3Lu(Ga3Rh)6
_symmetry_space_group_name_H-M   'P 1'
_cell_length_a   7.54587200
_cell_length_b   7.54698375
_cell_length_c   9.48671400
_cell_angle_alpha   90.00000000
_cell_angle_beta   90.00000000
_cell_angle_gamma   119.81287242
_symmetry_Int_Tables_number   1
_chemical_formula_structural   Tm3Lu(Ga3Rh)6
_chemical_formula_sum   'Tm3 Lu1 Ga18 Rh6'
_cell_volume   468.75414322
_cell_formula_units_Z   1
loop_
 _symmetry_equiv_pos_site_id
 _symmetry_equiv_pos_as_xyz
  1  'x, y, z'
loop_
 _atom_site_type_symbol
 _atom_site_label
 _atom_site_symmetry_multiplicity
 _atom_site_fract_x
 _atom_site_fract_y
 _atom_site_fract_z
 _atom_site_occupancy
  Tm  Tm0  1  0.997860  0.669533  0.250000  1
  Tm  Tm1  1  0.002206  0.330505  0.750000  1
  Tm  Tm2  1  0.669508  0.997873  0.250000  1
  Lu  Lu3  1  0.330483  0.002174  0.750000  1
  Ga  Ga4  1  0.339038  0.549551  0.250000  1
  Ga  Ga5  1  0.660886  0.450413  0.750000  1
  Ga  Ga6  1  0.549518  0.339016  0.250000  1
  Ga  Ga7  1  0.450521  0.661084  0.750000  1
  Ga  Ga8  1  0.000095  0.335023  0.080953  1
  Ga  Ga9  1  0.000088  0.665140  0.918958  1
  Ga  Ga10  1  0.000088  0.665140  0.581042  1
  Ga  Ga11  1  0.335037  0.000085  0.419158  1
  Ga  Ga12  1  0.000095  0.335023  0.419047  1
  Ga  Ga13  1  0.664688  0.999890  0.581048  1
  Ga  Ga14  1  0.664688  0.999890  0.918952  1
  Ga  Ga15  1  0.335037  0.000085  0.080842  1
  Ga  Ga16  1  0.332212  0.332017  0.566594  1
  Ga  Ga17  1  0.667814  0.667804  0.433597  1
  Ga  Ga18  1  0.667814  0.667804  0.066403  1
  Ga  Ga19  1  0.332212  0.332017  0.933406  1
  Ga  Ga20  1  0.125834  0.125837  0.250000  1
  Ga  Ga21  1  0.874279  0.874170  0.750000  1
  Rh  Rh22  1  0.671748  0.328112  0.999979  1
  Rh  Rh23  1  0.328134  0.671807  0.999978  1
  Rh  Rh24  1  0.328134  0.671807  0.500022  1
  Rh  Rh25  1  0.671748  0.328112  0.500021  1
  Rh  Rh26  1  0.000118  0.000044  0.999935  1
  Rh  Rh27  1  0.000118  0.000044  0.500065  1
