# generated using pymatgen
data_YbSm13(Pa3Rh8)2
_symmetry_space_group_name_H-M   'P 1'
_cell_length_a   7.53748248
_cell_length_b   7.59606934
_cell_length_c   14.46761200
_cell_angle_alpha   90.00580043
_cell_angle_beta   89.51192034
_cell_angle_gamma   90.07947999
_symmetry_Int_Tables_number   1
_chemical_formula_structural   YbSm13(Pa3Rh8)2
_chemical_formula_sum   'Yb1 Sm13 Pa6 Rh16'
_cell_volume   828.31573600
_cell_formula_units_Z   1
loop_
 _symmetry_equiv_pos_site_id
 _symmetry_equiv_pos_as_xyz
  1  'x, y, z'
loop_
 _atom_site_type_symbol
 _atom_site_label
 _atom_site_symmetry_multiplicity
 _atom_site_fract_x
 _atom_site_fract_y
 _atom_site_fract_z
 _atom_site_occupancy
  Yb  Yb0  1  0.664359  0.158258  0.621329  1
  Sm  Sm1  1  0.166165  0.340897  0.621086  1
  Sm  Sm2  1  0.510347  0.682438  0.591452  1
  Sm  Sm3  1  0.007211  0.822451  0.905253  1
  Sm  Sm4  1  0.494533  0.322431  0.092143  1
  Sm  Sm5  1  0.989966  0.181147  0.408817  1
  Sm  Sm6  1  0.490499  0.318393  0.411325  1
  Sm  Sm7  1  0.993999  0.179640  0.092492  1
  Sm  Sm8  1  0.509486  0.678391  0.905171  1
  Sm  Sm9  1  0.007264  0.821160  0.591925  1
  Sm  Sm10  1  0.816986  0.513853  0.747443  1
  Sm  Sm11  1  0.318201  0.983831  0.747787  1
  Sm  Sm12  1  0.187813  0.477718  0.249098  1
  Sm  Sm13  1  0.687669  0.023322  0.249654  1
  Pa  Pa14  1  0.159554  0.344757  0.880159  1
  Pa  Pa15  1  0.341828  0.845864  0.119778  1
  Pa  Pa16  1  0.835842  0.657074  0.376469  1
  Pa  Pa17  1  0.337556  0.842998  0.376226  1
  Pa  Pa18  1  0.841348  0.655917  0.119750  1
  Pa  Pa19  1  0.658772  0.153226  0.880548  1
  Rh  Rh20  1  0.682080  0.937768  0.453915  1
  Rh  Rh21  1  0.182046  0.550952  0.038162  1
  Rh  Rh22  1  0.320656  0.048529  0.965136  1
  Rh  Rh23  1  0.812960  0.473983  0.527254  1
  Rh  Rh24  1  0.313129  0.024267  0.527515  1
  Rh  Rh25  1  0.821051  0.453646  0.965930  1
  Rh  Rh26  1  0.681916  0.952827  0.038139  1
  Rh  Rh27  1  0.180534  0.561244  0.452734  1
  Rh  Rh28  1  0.458897  0.356174  0.769564  1
  Rh  Rh29  1  0.956743  0.139510  0.766977  1
  Rh  Rh30  1  0.537099  0.650072  0.245509  1
  Rh  Rh31  1  0.038085  0.849998  0.244362  1
  Rh  Rh32  1  0.692846  0.877660  0.758249  1
  Rh  Rh33  1  0.194441  0.618790  0.758414  1
  Rh  Rh34  1  0.304953  0.107411  0.249941  1
  Rh  Rh35  1  0.803169  0.393406  0.250298  1
