# generated using pymatgen
data_Ca3YbZn5Ni9
_symmetry_space_group_name_H-M   'P 1'
_cell_length_a   5.19804655
_cell_length_b   5.19804695
_cell_length_c   12.32118200
_cell_angle_alpha   77.82258977
_cell_angle_beta   77.82258883
_cell_angle_gamma   60.00000626
_symmetry_Int_Tables_number   1
_chemical_formula_structural   Ca3YbZn5Ni9
_chemical_formula_sum   'Ca3 Yb1 Zn5 Ni9'
_cell_volume   279.62929906
_cell_formula_units_Z   1
loop_
 _symmetry_equiv_pos_site_id
 _symmetry_equiv_pos_as_xyz
  1  'x, y, z'
loop_
 _atom_site_type_symbol
 _atom_site_label
 _atom_site_symmetry_multiplicity
 _atom_site_fract_x
 _atom_site_fract_y
 _atom_site_fract_z
 _atom_site_occupancy
  Ca  Ca0  1  0.950508  0.950508  0.148477  1
  Ca  Ca1  1  0.048914  0.048914  0.853254  1
  Ca  Ca2  1  0.853393  0.853393  0.439819  1
  Yb  Yb3  1  0.144800  0.144800  0.565598  1
  Zn  Zn4  1  0.500083  0.500083  0.499752  1
  Zn  Zn5  1  0.722612  0.722612  0.832167  1
  Zn  Zn6  1  0.277991  0.277991  0.166025  1
  Zn  Zn7  1  0.611010  0.611010  0.166967  1
  Zn  Zn8  1  0.389235  0.389235  0.832296  1
  Ni  Ni9  1  0.999882  0.500150  0.999817  1
  Ni  Ni10  1  0.500150  0.999882  0.999817  1
  Ni  Ni11  1  0.500150  0.500150  0.999817  1
  Ni  Ni12  1  0.387148  0.387148  0.331481  1
  Ni  Ni13  1  0.894225  0.387148  0.331481  1
  Ni  Ni14  1  0.387148  0.894225  0.331481  1
  Ni  Ni15  1  0.612541  0.612541  0.667250  1
  Ni  Ni16  1  0.107667  0.612541  0.667250  1
  Ni  Ni17  1  0.612541  0.107667  0.667250  1
