# generated using pymatgen
data_CeEu3Cr2(SbO7)2
_symmetry_space_group_name_H-M   'P 1'
_cell_length_a   7.36508520
_cell_length_b   7.35932823
_cell_length_c   7.45008092
_cell_angle_alpha   89.95777270
_cell_angle_beta   59.94625058
_cell_angle_gamma   119.85274625
_symmetry_Int_Tables_number   1
_chemical_formula_structural   CeEu3Cr2(SbO7)2
_chemical_formula_sum   'Ce1 Eu3 Cr2 Sb2 O14'
_cell_volume   285.83395327
_cell_formula_units_Z   1
loop_
 _symmetry_equiv_pos_site_id
 _symmetry_equiv_pos_as_xyz
  1  'x, y, z'
loop_
 _atom_site_type_symbol
 _atom_site_label
 _atom_site_symmetry_multiplicity
 _atom_site_fract_x
 _atom_site_fract_y
 _atom_site_fract_z
 _atom_site_occupancy
  Ce  Ce0  1  0.999973  0.999685  0.499820  1
  Eu  Eu1  1  0.499897  0.499783  0.000438  1
  Eu  Eu2  1  0.499781  0.999704  0.999717  1
  Eu  Eu3  1  0.000028  0.000246  0.999911  1
  Cr  Cr4  1  0.499951  0.000081  0.500016  1
  Cr  Cr5  1  0.499922  0.500023  0.500099  1
  Sb  Sb6  1  0.999940  0.500023  0.000050  1
  Sb  Sb7  1  0.000000  0.499879  0.500109  1
  O  O8  1  0.240473  0.120242  0.141897  1
  O  O9  1  0.759421  0.879355  0.857990  1
  O  O10  1  0.676107  0.838052  0.422261  1
  O  O11  1  0.843964  0.421922  0.826994  1
  O  O12  1  0.250602  0.827139  0.831346  1
  O  O13  1  0.249289  0.422495  0.418348  1
  O  O14  1  0.250560  0.422889  0.831801  1
  O  O15  1  0.248603  0.826586  0.418785  1
  O  O16  1  0.323615  0.161906  0.577939  1
  O  O17  1  0.156256  0.578270  0.172921  1
  O  O18  1  0.749412  0.172944  0.168803  1
  O  O19  1  0.750915  0.577757  0.581442  1
  O  O20  1  0.749633  0.577358  0.168500  1
  O  O21  1  0.751660  0.173660  0.580814  1
