# generated using pymatgen
data_Hf6Al16Cu4Os2Rh
_symmetry_space_group_name_H-M   'P 1'
_cell_length_a   8.65870610
_cell_length_b   8.65870626
_cell_length_c   8.57083700
_cell_angle_alpha   60.33512808
_cell_angle_beta   60.33512746
_cell_angle_gamma   59.32973951
_symmetry_Int_Tables_number   1
_chemical_formula_structural   Hf6Al16Cu4Os2Rh
_chemical_formula_sum   'Hf6 Al16 Cu4 Os2 Rh1'
_cell_volume   454.28214250
_cell_formula_units_Z   1
loop_
 _symmetry_equiv_pos_site_id
 _symmetry_equiv_pos_as_xyz
  1  'x, y, z'
loop_
 _atom_site_type_symbol
 _atom_site_label
 _atom_site_symmetry_multiplicity
 _atom_site_fract_x
 _atom_site_fract_y
 _atom_site_fract_z
 _atom_site_occupancy
  Hf  Hf0  1  0.684927  0.315073  0.315073  1
  Hf  Hf1  1  0.315073  0.684927  0.684927  1
  Hf  Hf2  1  0.315073  0.684927  0.315073  1
  Hf  Hf3  1  0.684927  0.315073  0.684927  1
  Hf  Hf4  1  0.304511  0.304511  0.695489  1
  Hf  Hf5  1  0.695489  0.695489  0.304511  1
  Al  Al6  1  0.333417  0.333417  0.337405  1
  Al  Al7  1  0.666583  0.666583  0.662595  1
  Al  Al8  1  0.333417  0.333417  0.995761  1
  Al  Al9  1  0.337405  0.995761  0.333417  1
  Al  Al10  1  0.666583  0.666583  0.004239  1
  Al  Al11  1  0.662595  0.004239  0.666583  1
  Al  Al12  1  0.995761  0.337405  0.333417  1
  Al  Al13  1  0.004239  0.662595  0.666583  1
  Al  Al14  1  0.115826  0.115826  0.126193  1
  Al  Al15  1  0.884174  0.884174  0.873807  1
  Al  Al16  1  0.115826  0.115826  0.642153  1
  Al  Al17  1  0.126193  0.642153  0.115826  1
  Al  Al18  1  0.884174  0.884174  0.357847  1
  Al  Al19  1  0.873807  0.357847  0.884174  1
  Al  Al20  1  0.642153  0.126193  0.115826  1
  Al  Al21  1  0.357847  0.873807  0.884174  1
  Cu  Cu22  1  0.500000  0.000000  0.000000  1
  Cu  Cu23  1  0.000000  0.500000  0.500000  1
  Cu  Cu24  1  0.000000  0.500000  0.000000  1
  Cu  Cu25  1  0.500000  0.000000  0.500000  1
  Os  Os26  1  0.000000  0.000000  0.500000  1
  Os  Os27  1  0.500000  0.500000  0.000000  1
  Rh  Rh28  1  0.000000  0.000000  0.000000  1
