# generated using pymatgen
data_Er9Sc(Zn2Sb)2
_symmetry_space_group_name_H-M   'P 1'
_cell_length_a   8.45123077
_cell_length_b   8.45123060
_cell_length_c   8.45123087
_cell_angle_alpha   123.69501512
_cell_angle_beta   123.69501387
_cell_angle_gamma   83.71097207
_symmetry_Int_Tables_number   1
_chemical_formula_structural   Er9Sc(Zn2Sb)2
_chemical_formula_sum   'Er9 Sc1 Zn4 Sb2'
_cell_volume   400.34053963
_cell_formula_units_Z   1
loop_
 _symmetry_equiv_pos_site_id
 _symmetry_equiv_pos_as_xyz
  1  'x, y, z'
loop_
 _atom_site_type_symbol
 _atom_site_label
 _atom_site_symmetry_multiplicity
 _atom_site_fract_x
 _atom_site_fract_y
 _atom_site_fract_z
 _atom_site_occupancy
  Er  Er0  1  0.000000  0.000000  0.000000  1
  Er  Er1  1  0.012169  0.509508  0.809895  1
  Er  Er2  1  0.699614  0.202275  0.190105  1
  Er  Er3  1  0.509508  0.699614  0.497339  1
  Er  Er4  1  0.202275  0.012169  0.502661  1
  Er  Er5  1  0.987831  0.490492  0.190105  1
  Er  Er6  1  0.300386  0.797725  0.809895  1
  Er  Er7  1  0.490492  0.300386  0.502661  1
  Er  Er8  1  0.797725  0.987831  0.497339  1
  Sc  Sc9  1  0.500000  0.500000  0.000000  1
  Zn  Zn10  1  0.635429  0.139618  0.775046  1
  Zn  Zn11  1  0.364571  0.860382  0.224954  1
  Zn  Zn12  1  0.139618  0.364571  0.504189  1
  Zn  Zn13  1  0.860382  0.635429  0.495811  1
  Sb  Sb14  1  0.747199  0.747199  0.000000  1
  Sb  Sb15  1  0.252801  0.252801  0.000000  1
