# generated using pymatgen
data_Hf9TaReTc2Ni
_symmetry_space_group_name_H-M   'P 1'
_cell_length_a   8.69928249
_cell_length_b   8.70468180
_cell_length_c   8.41735800
_cell_angle_alpha   90.00000000
_cell_angle_beta   90.00000000
_cell_angle_gamma   120.02054167
_symmetry_Int_Tables_number   1
_chemical_formula_structural   Hf9TaReTc2Ni
_chemical_formula_sum   'Hf18 Ta2 Re2 Tc4 Ni2'
_cell_volume   551.89038970
_cell_formula_units_Z   2
loop_
 _symmetry_equiv_pos_site_id
 _symmetry_equiv_pos_as_xyz
  1  'x, y, z'
loop_
 _atom_site_type_symbol
 _atom_site_label
 _atom_site_symmetry_multiplicity
 _atom_site_fract_x
 _atom_site_fract_y
 _atom_site_fract_z
 _atom_site_occupancy
  Hf  Hf0  1  0.199172  0.800002  0.443063  1
  Hf  Hf1  1  0.199172  0.399172  0.443063  1
  Hf  Hf2  1  0.601898  0.800949  0.442467  1
  Hf  Hf3  1  0.799679  0.200025  0.555351  1
  Hf  Hf4  1  0.799679  0.599652  0.555351  1
  Hf  Hf5  1  0.400670  0.200333  0.555396  1
  Hf  Hf6  1  0.799679  0.200025  0.944649  1
  Hf  Hf7  1  0.799679  0.599652  0.944649  1
  Hf  Hf8  1  0.400670  0.200333  0.944604  1
  Hf  Hf9  1  0.199172  0.800002  0.056937  1
  Hf  Hf10  1  0.199172  0.399172  0.056937  1
  Hf  Hf11  1  0.601898  0.800949  0.057533  1
  Hf  Hf12  1  0.542239  0.458891  0.250000  1
  Hf  Hf13  1  0.542239  0.083347  0.250000  1
  Hf  Hf14  1  0.917156  0.458578  0.250000  1
  Hf  Hf15  1  0.458395  0.542058  0.750000  1
  Hf  Hf16  1  0.458395  0.916338  0.750000  1
  Hf  Hf17  1  0.083623  0.541812  0.750000  1
  Ta  Ta18  1  0.000459  0.000230  0.503785  1
  Ta  Ta19  1  0.000459  0.000230  0.996215  1
  Re  Re20  1  0.884834  0.113501  0.250000  1
  Re  Re21  1  0.884834  0.771332  0.250000  1
  Tc  Tc22  1  0.227409  0.113705  0.250000  1
  Tc  Tc23  1  0.115567  0.884338  0.750000  1
  Tc  Tc24  1  0.115567  0.231228  0.750000  1
  Tc  Tc25  1  0.769049  0.884524  0.750000  1
  Ni  Ni26  1  0.333112  0.666556  0.250000  1
  Ni  Ni27  1  0.666127  0.333063  0.750000  1
