# generated using pymatgen
data_LaPr3Y4(CdPt)2
_symmetry_space_group_name_H-M   'P 1'
_cell_length_a   9.93338623
_cell_length_b   9.93338624
_cell_length_c   9.90047600
_cell_angle_alpha   60.10952921
_cell_angle_beta   60.10952918
_cell_angle_gamma   60.28262795
_symmetry_Int_Tables_number   1
_chemical_formula_structural   LaPr3Y4(CdPt)2
_chemical_formula_sum   'La2 Pr6 Y8 Cd4 Pt4'
_cell_volume   693.38567136
_cell_formula_units_Z   2
loop_
 _symmetry_equiv_pos_site_id
 _symmetry_equiv_pos_as_xyz
  1  'x, y, z'
loop_
 _atom_site_type_symbol
 _atom_site_label
 _atom_site_symmetry_multiplicity
 _atom_site_fract_x
 _atom_site_fract_y
 _atom_site_fract_z
 _atom_site_occupancy
  La  La0  1  0.349862  0.349862  0.352603  1
  La  La1  1  0.349862  0.349862  0.947672  1
  Pr  Pr2  1  0.938642  0.562210  0.563440  1
  Pr  Pr3  1  0.562210  0.938642  0.935709  1
  Pr  Pr4  1  0.562210  0.938642  0.563440  1
  Pr  Pr5  1  0.938642  0.562210  0.935709  1
  Pr  Pr6  1  0.561898  0.561898  0.938102  1
  Pr  Pr7  1  0.938331  0.938331  0.561669  1
  Y  Y8  1  0.351313  0.944601  0.352042  1
  Y  Y9  1  0.944601  0.351313  0.352042  1
  Y  Y10  1  0.814265  0.186795  0.186879  1
  Y  Y11  1  0.186795  0.814265  0.812061  1
  Y  Y12  1  0.186795  0.814265  0.186879  1
  Y  Y13  1  0.814265  0.186795  0.812061  1
  Y  Y14  1  0.185666  0.185666  0.814334  1
  Y  Y15  1  0.811781  0.811781  0.188219  1
  Cd  Cd16  1  0.582307  0.582307  0.575568  1
  Cd  Cd17  1  0.582307  0.582307  0.259817  1
  Cd  Cd18  1  0.584407  0.260264  0.577664  1
  Cd  Cd19  1  0.260264  0.584407  0.577664  1
  Pt  Pt20  1  0.139874  0.139874  0.147134  1
  Pt  Pt21  1  0.139874  0.139874  0.573117  1
  Pt  Pt22  1  0.137507  0.576319  0.143088  1
  Pt  Pt23  1  0.576319  0.137507  0.143088  1
