# generated using pymatgen
data_Fe3Co3SiGe
_symmetry_space_group_name_H-M   'P 1'
_cell_length_a   6.97019967
_cell_length_b   6.97019990
_cell_length_c   6.97019936
_cell_angle_alpha   33.40841186
_cell_angle_beta   33.40841090
_cell_angle_gamma   33.40840089
_symmetry_Int_Tables_number   1
_chemical_formula_structural   Fe3Co3SiGe
_chemical_formula_sum   'Fe3 Co3 Si1 Ge1'
_cell_volume   91.42184612
_cell_formula_units_Z   1
loop_
 _symmetry_equiv_pos_site_id
 _symmetry_equiv_pos_as_xyz
  1  'x, y, z'
loop_
 _atom_site_type_symbol
 _atom_site_label
 _atom_site_symmetry_multiplicity
 _atom_site_fract_x
 _atom_site_fract_y
 _atom_site_fract_z
 _atom_site_occupancy
  Fe  Fe0  1  0.623353  0.623353  0.623353  1
  Fe  Fe1  1  0.749794  0.749794  0.749794  1
  Fe  Fe2  1  0.249725  0.249725  0.249725  1
  Co  Co3  1  0.378471  0.378471  0.378471  1
  Co  Co4  1  0.872104  0.872104  0.872104  1
  Co  Co5  1  0.126458  0.126458  0.126458  1
  Si  Si6  1  0.500866  0.500866  0.500866  1
  Ge  Ge7  1  0.999230  0.999230  0.999230  1
