# generated using pymatgen
data_Tb15Dy4MgIr12
_symmetry_space_group_name_H-M   'P 1'
_cell_length_a   10.90807101
_cell_length_b   10.90772501
_cell_length_c   6.33480001
_cell_angle_alpha   90.00450026
_cell_angle_beta   89.99664217
_cell_angle_gamma   89.99779394
_symmetry_Int_Tables_number   1
_chemical_formula_structural   Tb15Dy4MgIr12
_chemical_formula_sum   'Tb15 Dy4 Mg1 Ir12'
_cell_volume   753.72868393
_cell_formula_units_Z   1
loop_
 _symmetry_equiv_pos_site_id
 _symmetry_equiv_pos_as_xyz
  1  'x, y, z'
loop_
 _atom_site_type_symbol
 _atom_site_label
 _atom_site_symmetry_multiplicity
 _atom_site_fract_x
 _atom_site_fract_y
 _atom_site_fract_z
 _atom_site_occupancy
  Tb  Tb0  1  0.283907  0.084854  0.379934  1
  Tb  Tb1  1  0.290376  0.911810  0.880055  1
  Tb  Tb2  1  0.709632  0.088201  0.880072  1
  Tb  Tb3  1  0.716063  0.915194  0.379983  1
  Tb  Tb4  1  0.589077  0.791956  0.880802  1
  Tb  Tb5  1  0.587837  0.207944  0.378779  1
  Tb  Tb6  1  0.412156  0.792056  0.378776  1
  Tb  Tb7  1  0.410896  0.208046  0.880817  1
  Tb  Tb8  1  0.207910  0.412106  0.621221  1
  Tb  Tb9  1  0.208014  0.589002  0.119203  1
  Tb  Tb10  1  0.792023  0.410905  0.119207  1
  Tb  Tb11  1  0.792057  0.587836  0.621232  1
  Tb  Tb12  1  0.911806  0.709617  0.119942  1
  Tb  Tb13  1  0.915248  0.283933  0.619992  1
  Tb  Tb14  1  0.084804  0.716063  0.620016  1
  Dy  Dy15  1  0.088170  0.290543  0.119775  1
  Dy  Dy16  1  0.000033  0.000069  0.000062  1
  Dy  Dy17  1  0.499993  0.499990  0.000019  1
  Dy  Dy18  1  0.499997  0.500003  0.500001  1
  Mg  Mg19  1  0.000005  0.000004  0.499995  1
  Ir  Ir20  1  0.846939  0.153861  0.247789  1
  Ir  Ir21  1  0.846186  0.846824  0.752139  1
  Ir  Ir22  1  0.153755  0.153252  0.752402  1
  Ir  Ir23  1  0.153161  0.846188  0.247846  1
  Ir  Ir24  1  0.654426  0.346115  0.748107  1
  Ir  Ir25  1  0.653883  0.654430  0.251881  1
  Ir  Ir26  1  0.345987  0.345534  0.251832  1
  Ir  Ir27  1  0.345569  0.653884  0.748111  1
  Ir  Ir28  1  0.499994  0.000006  0.125073  1
  Ir  Ir29  1  0.500001  0.000008  0.621163  1
  Ir  Ir30  1  0.000050  0.499872  0.875047  1
  Ir  Ir31  1  0.000048  0.499896  0.378725  1
