# generated using pymatgen
data_Dy6Si12Pt7Rh
_symmetry_space_group_name_H-M   'P 1'
_cell_length_a   4.24309800
_cell_length_b   8.54979162
_cell_length_c   12.86668600
_cell_angle_alpha   80.05595609
_cell_angle_beta   90.00000000
_cell_angle_gamma   90.00000000
_symmetry_Int_Tables_number   1
_chemical_formula_structural   Dy6Si12Pt7Rh
_chemical_formula_sum   'Dy6 Si12 Pt7 Rh1'
_cell_volume   459.76015205
_cell_formula_units_Z   1
loop_
 _symmetry_equiv_pos_site_id
 _symmetry_equiv_pos_as_xyz
  1  'x, y, z'
loop_
 _atom_site_type_symbol
 _atom_site_label
 _atom_site_symmetry_multiplicity
 _atom_site_fract_x
 _atom_site_fract_y
 _atom_site_fract_z
 _atom_site_occupancy
  Dy  Dy0  1  0.250000  0.765815  0.439499  1
  Dy  Dy1  1  0.250000  0.585007  0.185129  1
  Dy  Dy2  1  0.750000  0.234173  0.560802  1
  Dy  Dy3  1  0.750000  0.416030  0.814776  1
  Dy  Dy4  1  0.750000  0.926340  0.815964  1
  Dy  Dy5  1  0.250000  0.072078  0.183452  1
  Si  Si6  1  0.750000  0.588150  0.571035  1
  Si  Si7  1  0.750000  0.132793  0.007535  1
  Si  Si8  1  0.750000  0.872177  0.574202  1
  Si  Si9  1  0.250000  0.696091  0.713306  1
  Si  Si10  1  0.750000  0.304227  0.282406  1
  Si  Si11  1  0.750000  0.806920  0.276322  1
  Si  Si12  1  0.250000  0.871125  0.995030  1
  Si  Si13  1  0.250000  0.193663  0.724377  1
  Si  Si14  1  0.250000  0.377992  0.003395  1
  Si  Si15  1  0.250000  0.127186  0.426855  1
  Si  Si16  1  0.750000  0.616557  0.000256  1
  Si  Si17  1  0.250000  0.412034  0.429562  1
  Pt  Pt18  1  0.250000  0.971294  0.623249  1
  Pt  Pt19  1  0.750000  0.850360  0.087380  1
  Pt  Pt20  1  0.750000  0.030295  0.375660  1
  Pt  Pt21  1  0.250000  0.648260  0.899911  1
  Pt  Pt22  1  0.250000  0.149193  0.912254  1
  Pt  Pt23  1  0.750000  0.532366  0.374920  1
  Pt  Pt24  1  0.250000  0.467049  0.623105  1
  Rh  Rh25  1  0.750000  0.352826  0.099618  1
