# generated using pymatgen
data_Ho2Sc3Pt4
_symmetry_space_group_name_H-M   'P 1'
_cell_length_a   7.24032900
_cell_length_b   7.29953200
_cell_length_c   14.19492300
_cell_angle_alpha   90.00000000
_cell_angle_beta   90.00000000
_cell_angle_gamma   90.00000000
_symmetry_Int_Tables_number   1
_chemical_formula_structural   Ho2Sc3Pt4
_chemical_formula_sum   'Ho8 Sc12 Pt16'
_cell_volume   750.21606322
_cell_formula_units_Z   4
loop_
 _symmetry_equiv_pos_site_id
 _symmetry_equiv_pos_as_xyz
  1  'x, y, z'
loop_
 _atom_site_type_symbol
 _atom_site_label
 _atom_site_symmetry_multiplicity
 _atom_site_fract_x
 _atom_site_fract_y
 _atom_site_fract_z
 _atom_site_occupancy
  Ho  Ho0  1  0.497517  0.677707  0.592442  1
  Ho  Ho1  1  0.997517  0.822293  0.907558  1
  Ho  Ho2  1  0.502483  0.322293  0.092442  1
  Ho  Ho3  1  0.002483  0.177707  0.407558  1
  Ho  Ho4  1  0.502483  0.322293  0.407558  1
  Ho  Ho5  1  0.002483  0.177707  0.092442  1
  Ho  Ho6  1  0.497517  0.677707  0.907558  1
  Ho  Ho7  1  0.997517  0.822293  0.592442  1
  Sc  Sc8  1  0.655805  0.168514  0.624384  1
  Sc  Sc9  1  0.155805  0.331486  0.875616  1
  Sc  Sc10  1  0.344195  0.831486  0.124384  1
  Sc  Sc11  1  0.844195  0.668514  0.375616  1
  Sc  Sc12  1  0.344195  0.831486  0.375616  1
  Sc  Sc13  1  0.844195  0.668514  0.124384  1
  Sc  Sc14  1  0.655805  0.168514  0.875616  1
  Sc  Sc15  1  0.155805  0.331486  0.624384  1
  Sc  Sc16  1  0.821002  0.504844  0.750000  1
  Sc  Sc17  1  0.321002  0.995156  0.750000  1
  Sc  Sc18  1  0.178998  0.495156  0.250000  1
  Sc  Sc19  1  0.678998  0.004844  0.250000  1
  Pt  Pt20  1  0.680966  0.960360  0.458673  1
  Pt  Pt21  1  0.180966  0.539640  0.041327  1
  Pt  Pt22  1  0.319034  0.039640  0.958673  1
  Pt  Pt23  1  0.819034  0.460360  0.541327  1
  Pt  Pt24  1  0.319034  0.039640  0.541327  1
  Pt  Pt25  1  0.819034  0.460360  0.958673  1
  Pt  Pt26  1  0.680966  0.960360  0.041327  1
  Pt  Pt27  1  0.180966  0.539640  0.458673  1
  Pt  Pt28  1  0.458069  0.380539  0.750000  1
  Pt  Pt29  1  0.958069  0.119461  0.750000  1
  Pt  Pt30  1  0.541931  0.619461  0.250000  1
  Pt  Pt31  1  0.041931  0.880539  0.250000  1
  Pt  Pt32  1  0.682969  0.856072  0.750000  1
  Pt  Pt33  1  0.182969  0.643928  0.750000  1
  Pt  Pt34  1  0.317031  0.143928  0.250000  1
  Pt  Pt35  1  0.817031  0.356072  0.250000  1
