# generated using pymatgen
data_Tb8Ce3ErFe4
_symmetry_space_group_name_H-M   'P 1'
_cell_length_a   6.28635605
_cell_length_b   6.80665572
_cell_length_c   9.52390000
_cell_angle_alpha   89.99072379
_cell_angle_beta   90.03314874
_cell_angle_gamma   91.97944644
_symmetry_Int_Tables_number   1
_chemical_formula_structural   Tb8Ce3ErFe4
_chemical_formula_sum   'Tb8 Ce3 Er1 Fe4'
_cell_volume   407.27549579
_cell_formula_units_Z   1
loop_
 _symmetry_equiv_pos_site_id
 _symmetry_equiv_pos_as_xyz
  1  'x, y, z'
loop_
 _atom_site_type_symbol
 _atom_site_label
 _atom_site_symmetry_multiplicity
 _atom_site_fract_x
 _atom_site_fract_y
 _atom_site_fract_z
 _atom_site_occupancy
  Tb  Tb0  1  0.669528  0.328324  0.937057  1
  Tb  Tb1  1  0.630645  0.044275  0.249810  1
  Tb  Tb2  1  0.172744  0.170621  0.431480  1
  Tb  Tb3  1  0.832619  0.828153  0.565040  1
  Tb  Tb4  1  0.171430  0.169250  0.068708  1
  Tb  Tb5  1  0.832287  0.828016  0.933196  1
  Tb  Tb6  1  0.669181  0.327889  0.562586  1
  Tb  Tb7  1  0.321140  0.669651  0.066476  1
  Ce  Ce8  1  0.136037  0.426564  0.749415  1
  Ce  Ce9  1  0.369631  0.924923  0.749437  1
  Ce  Ce10  1  0.846502  0.567824  0.251189  1
  Er  Er11  1  0.322787  0.670592  0.433655  1
  Fe  Fe12  1  0.501218  0.641121  0.747837  1
  Fe  Fe13  1  0.992083  0.139655  0.750387  1
  Fe  Fe14  1  0.017707  0.854076  0.252397  1
  Fe  Fe15  1  0.514463  0.409069  0.251330  1
