# generated using pymatgen
data_Ca2Al20Fe3Rh
_symmetry_space_group_name_H-M   'P 1'
_cell_length_a   6.81732863
_cell_length_b   6.80407706
_cell_length_c   9.03273147
_cell_angle_alpha   90.02984880
_cell_angle_beta   89.92542739
_cell_angle_gamma   97.09266782
_symmetry_Int_Tables_number   1
_chemical_formula_structural   Ca2Al20Fe3Rh
_chemical_formula_sum   'Ca2 Al20 Fe3 Rh1'
_cell_volume   415.78234565
_cell_formula_units_Z   1
loop_
 _symmetry_equiv_pos_site_id
 _symmetry_equiv_pos_as_xyz
  1  'x, y, z'
loop_
 _atom_site_type_symbol
 _atom_site_label
 _atom_site_symmetry_multiplicity
 _atom_site_fract_x
 _atom_site_fract_y
 _atom_site_fract_z
 _atom_site_occupancy
  Ca  Ca0  1  0.876606  0.124755  0.749133  1
  Ca  Ca1  1  0.123394  0.875245  0.250867  1
  Al  Al2  1  0.414008  0.138220  0.744799  1
  Al  Al3  1  0.135116  0.416650  0.250737  1
  Al  Al4  1  0.585992  0.861780  0.255201  1
  Al  Al5  1  0.864884  0.583350  0.749263  1
  Al  Al6  1  0.521747  0.777729  0.744280  1
  Al  Al7  1  0.781440  0.521563  0.250644  1
  Al  Al8  1  0.478253  0.222271  0.255720  1
  Al  Al9  1  0.218560  0.478437  0.749356  1
  Al  Al10  1  0.841287  0.157554  0.403934  1
  Al  Al11  1  0.158713  0.842446  0.596066  1
  Al  Al12  1  0.847191  0.162257  0.099106  1
  Al  Al13  1  0.152809  0.837743  0.900894  1
  Al  Al14  1  0.628751  0.380138  0.952209  1
  Al  Al15  1  0.371249  0.619862  0.047791  1
  Al  Al16  1  0.627307  0.375045  0.546174  1
  Al  Al17  1  0.372693  0.624955  0.453826  1
  Al  Al18  1  0.777321  0.768273  0.003435  1
  Al  Al19  1  0.773782  0.771399  0.500658  1
  Al  Al20  1  0.222679  0.231726  0.996565  1
  Al  Al21  1  0.226218  0.228600  0.499342  1
  Fe  Fe22  1  0.000000  0.500000  0.000000  1
  Fe  Fe23  1  0.500000  0.000000  0.500000  1
  Fe  Fe24  1  0.000000  0.500000  0.500000  1
  Rh  Rh25  1  0.500000  0.000000  0.000000  1
