# generated using pymatgen
data_Cu2PdRh3Se8
_symmetry_space_group_name_H-M   'P 1'
_cell_length_a   7.38592979
_cell_length_b   7.38746013
_cell_length_c   7.38745900
_cell_angle_alpha   60.00000060
_cell_angle_beta   59.99314632
_cell_angle_gamma   59.99314509
_symmetry_Int_Tables_number   1
_chemical_formula_structural   Cu2PdRh3Se8
_chemical_formula_sum   'Cu2 Pd1 Rh3 Se8'
_cell_volume   284.99379928
_cell_formula_units_Z   1
loop_
 _symmetry_equiv_pos_site_id
 _symmetry_equiv_pos_as_xyz
  1  'x, y, z'
loop_
 _atom_site_type_symbol
 _atom_site_label
 _atom_site_symmetry_multiplicity
 _atom_site_fract_x
 _atom_site_fract_y
 _atom_site_fract_z
 _atom_site_occupancy
  Cu  Cu0  1  0.501232  0.499589  0.499589  1
  Cu  Cu1  1  0.748768  0.750411  0.750411  1
  Pd  Pd2  1  0.625000  0.125000  0.125000  1
  Rh  Rh3  1  0.125000  0.125000  0.125000  1
  Rh  Rh4  1  0.125000  0.125000  0.625000  1
  Rh  Rh5  1  0.125000  0.625000  0.125000  1
  Se  Se6  1  0.344708  0.885098  0.885098  1
  Se  Se7  1  0.360826  0.368003  0.368003  1
  Se  Se8  1  0.905292  0.364902  0.364902  1
  Se  Se9  1  0.889174  0.881997  0.346833  1
  Se  Se10  1  0.889174  0.881997  0.881997  1
  Se  Se11  1  0.360826  0.903167  0.368003  1
  Se  Se12  1  0.360826  0.368003  0.903167  1
  Se  Se13  1  0.889174  0.346833  0.881997  1
