# generated using pymatgen
data_Tb2MoRuC3
_symmetry_space_group_name_H-M   'P 1'
_cell_length_a   6.08269612
_cell_length_b   6.08269569
_cell_length_c   5.72530429
_cell_angle_alpha   67.17352037
_cell_angle_beta   67.17352235
_cell_angle_gamma   32.24647317
_symmetry_Int_Tables_number   1
_chemical_formula_structural   Tb2MoRuC3
_chemical_formula_sum   'Tb2 Mo1 Ru1 C3'
_cell_volume   103.39971213
_cell_formula_units_Z   1
loop_
 _symmetry_equiv_pos_site_id
 _symmetry_equiv_pos_as_xyz
  1  'x, y, z'
loop_
 _atom_site_type_symbol
 _atom_site_label
 _atom_site_symmetry_multiplicity
 _atom_site_fract_x
 _atom_site_fract_y
 _atom_site_fract_z
 _atom_site_occupancy
  Tb  Tb0  1  0.608791  0.608791  0.181096  1
  Tb  Tb1  1  0.392074  0.392074  0.828409  1
  Mo  Mo2  1  0.158952  0.158952  0.676974  1
  Ru  Ru3  1  0.840565  0.840565  0.318238  1
  C  C4  1  0.753369  0.753369  0.727224  1
  C  C5  1  0.247521  0.247521  0.271051  1
  C  C6  1  0.998729  0.998729  0.997008  1
