# generated using pymatgen
data_La5(TcO6)2
_symmetry_space_group_name_H-M   'P 1'
_cell_length_a   7.17826748
_cell_length_b   7.17826840
_cell_length_c   7.99535940
_cell_angle_alpha   73.65221013
_cell_angle_beta   73.65220592
_cell_angle_gamma   47.95158746
_symmetry_Int_Tables_number   1
_chemical_formula_structural   La5(TcO6)2
_chemical_formula_sum   'La5 Tc2 O12'
_cell_volume   291.05171336
_cell_formula_units_Z   1
loop_
 _symmetry_equiv_pos_site_id
 _symmetry_equiv_pos_as_xyz
  1  'x, y, z'
loop_
 _atom_site_type_symbol
 _atom_site_label
 _atom_site_symmetry_multiplicity
 _atom_site_fract_x
 _atom_site_fract_y
 _atom_site_fract_z
 _atom_site_occupancy
  La  La0  1  0.309612  0.309612  0.353702  1
  La  La1  1  0.690388  0.690388  0.646298  1
  La  La2  1  0.683997  0.683997  0.170251  1
  La  La3  1  0.316003  0.316003  0.829749  1
  La  La4  1  0.000000  0.000000  0.500000  1
  Tc  Tc5  1  0.787428  0.212572  0.000000  1
  Tc  Tc6  1  0.212572  0.787428  0.000000  1
  O  O7  1  0.095074  0.593379  0.577764  1
  O  O8  1  0.999144  0.999144  0.194702  1
  O  O9  1  0.406621  0.904926  0.422236  1
  O  O10  1  0.498853  0.498853  0.164112  1
  O  O11  1  0.087510  0.598391  0.076953  1
  O  O12  1  0.904926  0.406621  0.422236  1
  O  O13  1  0.000856  0.000856  0.805298  1
  O  O14  1  0.593379  0.095073  0.577764  1
  O  O15  1  0.501147  0.501147  0.835888  1
  O  O16  1  0.598391  0.087510  0.076953  1
  O  O17  1  0.401609  0.912490  0.923047  1
  O  O18  1  0.912490  0.401609  0.923047  1
