# generated using pymatgen
data_ThSiPdRh
_symmetry_space_group_name_H-M   'P 1'
_cell_length_a   9.62992796
_cell_length_b   9.62992702
_cell_length_c   4.09362900
_cell_angle_alpha   90.00000000
_cell_angle_beta   90.00000000
_cell_angle_gamma   155.95817377
_symmetry_Int_Tables_number   1
_chemical_formula_structural   ThSiPdRh
_chemical_formula_sum   'Th2 Si2 Pd2 Rh2'
_cell_volume   154.66042291
_cell_formula_units_Z   2
loop_
 _symmetry_equiv_pos_site_id
 _symmetry_equiv_pos_as_xyz
  1  'x, y, z'
loop_
 _atom_site_type_symbol
 _atom_site_label
 _atom_site_symmetry_multiplicity
 _atom_site_fract_x
 _atom_site_fract_y
 _atom_site_fract_z
 _atom_site_occupancy
  Th  Th0  1  0.110674  0.889326  0.750000  1
  Th  Th1  1  0.889326  0.110674  0.250000  1
  Si  Si2  1  0.319100  0.680900  0.750000  1
  Si  Si3  1  0.680900  0.319100  0.250000  1
  Pd  Pd4  1  0.549526  0.450474  0.250000  1
  Pd  Pd5  1  0.450474  0.549526  0.750000  1
  Rh  Rh6  1  0.250562  0.749438  0.250000  1
  Rh  Rh7  1  0.749438  0.250562  0.750000  1
