# generated using pymatgen
data_LaPr3(CdSn)4
_symmetry_space_group_name_H-M   'P 1'
_cell_length_a   4.84360600
_cell_length_b   4.84360627
_cell_length_c   16.70564300
_cell_angle_alpha   90.00000000
_cell_angle_beta   90.00000000
_cell_angle_gamma   120.00002547
_symmetry_Int_Tables_number   1
_chemical_formula_structural   LaPr3(CdSn)4
_chemical_formula_sum   'La1 Pr3 Cd4 Sn4'
_cell_volume   339.41525505
_cell_formula_units_Z   1
loop_
 _symmetry_equiv_pos_site_id
 _symmetry_equiv_pos_as_xyz
  1  'x, y, z'
loop_
 _atom_site_type_symbol
 _atom_site_label
 _atom_site_symmetry_multiplicity
 _atom_site_fract_x
 _atom_site_fract_y
 _atom_site_fract_z
 _atom_site_occupancy
  La  La0  1  0.000000  0.000000  0.500000  1
  Pr  Pr1  1  0.000000  0.000000  0.000000  1
  Pr  Pr2  1  0.000000  0.000000  0.248554  1
  Pr  Pr3  1  0.000000  0.000000  0.751446  1
  Cd  Cd4  1  0.333333  0.666667  0.344956  1
  Cd  Cd5  1  0.666667  0.333333  0.655044  1
  Cd  Cd6  1  0.666667  0.333333  0.846872  1
  Cd  Cd7  1  0.333333  0.666667  0.153128  1
  Sn  Sn8  1  0.333333  0.666667  0.891658  1
  Sn  Sn9  1  0.666667  0.333333  0.108342  1
  Sn  Sn10  1  0.666667  0.333333  0.389410  1
  Sn  Sn11  1  0.333333  0.666667  0.610590  1
