# generated using pymatgen
data_Ca3Gd5(Si3Pt)4
_symmetry_space_group_name_H-M   'P 1'
_cell_length_a   8.08191000
_cell_length_b   8.08191004
_cell_length_c   8.52655700
_cell_angle_alpha   90.00000000
_cell_angle_beta   90.00000000
_cell_angle_gamma   119.99999163
_symmetry_Int_Tables_number   1
_chemical_formula_structural   Ca3Gd5(Si3Pt)4
_chemical_formula_sum   'Ca3 Gd5 Si12 Pt4'
_cell_volume   482.31680064
_cell_formula_units_Z   1
loop_
 _symmetry_equiv_pos_site_id
 _symmetry_equiv_pos_as_xyz
  1  'x, y, z'
loop_
 _atom_site_type_symbol
 _atom_site_label
 _atom_site_symmetry_multiplicity
 _atom_site_fract_x
 _atom_site_fract_y
 _atom_site_fract_z
 _atom_site_occupancy
  Ca  Ca0  1  0.499918  0.500076  0.750000  1
  Ca  Ca1  1  0.000157  0.500080  0.750000  1
  Ca  Ca2  1  0.499920  0.999840  0.750000  1
  Gd  Gd3  1  0.500049  0.499958  0.250000  1
  Gd  Gd4  1  0.999926  0.499924  0.250000  1
  Gd  Gd5  1  0.500039  0.000073  0.250000  1
  Gd  Gd6  1  0.000000  0.000000  0.750000  1
  Gd  Gd7  1  0.999997  0.999997  0.250000  1
  Si  Si8  1  0.834662  0.165296  0.003163  1
  Si  Si9  1  0.165341  0.834722  0.003549  1
  Si  Si10  1  0.330812  0.165424  0.002841  1
  Si  Si11  1  0.165341  0.834722  0.496451  1
  Si  Si12  1  0.669194  0.834591  0.003209  1
  Si  Si13  1  0.834662  0.165296  0.496837  1
  Si  Si14  1  0.834608  0.669331  0.003127  1
  Si  Si15  1  0.669194  0.834591  0.496791  1
  Si  Si16  1  0.165388  0.330668  0.003535  1
  Si  Si17  1  0.330812  0.165424  0.497159  1
  Si  Si18  1  0.165388  0.330668  0.496465  1
  Si  Si19  1  0.834608  0.669331  0.496873  1
  Pt  Pt20  1  0.666600  0.333294  0.007055  1
  Pt  Pt21  1  0.333394  0.666698  0.007025  1
  Pt  Pt22  1  0.333394  0.666698  0.492975  1
  Pt  Pt23  1  0.666600  0.333294  0.492945  1
