# generated using pymatgen
data_YEr5Al18(Si3Ru4)2
_symmetry_space_group_name_H-M   'P 1'
_cell_length_a   8.66768300
_cell_length_b   8.64912086
_cell_length_c   9.51937000
_cell_angle_alpha   90.00000000
_cell_angle_beta   90.00000000
_cell_angle_gamma   120.07102266
_symmetry_Int_Tables_number   1
_chemical_formula_structural   YEr5Al18(Si3Ru4)2
_chemical_formula_sum   'Y1 Er5 Al18 Si6 Ru8'
_cell_volume   617.59328809
_cell_formula_units_Z   1
loop_
 _symmetry_equiv_pos_site_id
 _symmetry_equiv_pos_as_xyz
  1  'x, y, z'
loop_
 _atom_site_type_symbol
 _atom_site_label
 _atom_site_symmetry_multiplicity
 _atom_site_fract_x
 _atom_site_fract_y
 _atom_site_fract_z
 _atom_site_occupancy
  Y  Y0  1  0.193079  0.386157  0.250000  1
  Er  Er1  1  0.806390  0.612782  0.750000  1
  Er  Er2  1  0.609968  0.808260  0.250000  1
  Er  Er3  1  0.390313  0.192098  0.750000  1
  Er  Er4  1  0.198291  0.808260  0.250000  1
  Er  Er5  1  0.801786  0.192098  0.750000  1
  Al  Al6  1  0.164684  0.329367  0.580977  1
  Al  Al7  1  0.835341  0.670682  0.419306  1
  Al  Al8  1  0.670420  0.834690  0.578960  1
  Al  Al9  1  0.835341  0.670682  0.080694  1
  Al  Al10  1  0.329732  0.165098  0.421205  1
  Al  Al11  1  0.164684  0.329367  0.919023  1
  Al  Al12  1  0.164270  0.834690  0.578960  1
  Al  Al13  1  0.329732  0.165098  0.078795  1
  Al  Al14  1  0.835366  0.165098  0.421205  1
  Al  Al15  1  0.670420  0.834690  0.921040  1
  Al  Al16  1  0.835366  0.165098  0.078795  1
  Al  Al17  1  0.164270  0.834690  0.921040  1
  Al  Al18  1  0.873599  0.434104  0.250000  1
  Al  Al19  1  0.126017  0.566011  0.750000  1
  Al  Al20  1  0.560505  0.434104  0.250000  1
  Al  Al21  1  0.439995  0.566011  0.750000  1
  Al  Al22  1  0.998969  0.997939  0.250000  1
  Al  Al23  1  0.000537  0.001075  0.750000  1
  Si  Si24  1  0.332223  0.664448  0.039624  1
  Si  Si25  1  0.668104  0.336208  0.959820  1
  Si  Si26  1  0.668104  0.336208  0.540180  1
  Si  Si27  1  0.332223  0.664448  0.460376  1
  Si  Si28  1  0.562693  0.125386  0.250000  1
  Si  Si29  1  0.437236  0.874473  0.750000  1
  Ru  Ru30  1  0.500077  0.000153  0.999858  1
  Ru  Ru31  1  0.999814  0.500071  0.999684  1
  Ru  Ru32  1  0.500077  0.000153  0.500142  1
  Ru  Ru33  1  0.500256  0.500071  0.999684  1
  Ru  Ru34  1  0.999814  0.500071  0.500316  1
  Ru  Ru35  1  0.500256  0.500071  0.500316  1
  Ru  Ru36  1  0.000023  0.000046  0.999963  1
  Ru  Ru37  1  0.000023  0.000046  0.500037  1
