# generated using pymatgen
data_Y2Hf4Sn5
_symmetry_space_group_name_H-M   'P 1'
_cell_length_a   11.11762371
_cell_length_b   11.11762368
_cell_length_c   11.11762361
_cell_angle_alpha   148.93328716
_cell_angle_beta   131.89353437
_cell_angle_gamma   58.37782093
_symmetry_Int_Tables_number   1
_chemical_formula_structural   Y2Hf4Sn5
_chemical_formula_sum   'Y4 Hf8 Sn10'
_cell_volume   523.77682539
_cell_formula_units_Z   2
loop_
 _symmetry_equiv_pos_site_id
 _symmetry_equiv_pos_as_xyz
  1  'x, y, z'
loop_
 _atom_site_type_symbol
 _atom_site_label
 _atom_site_symmetry_multiplicity
 _atom_site_fract_x
 _atom_site_fract_y
 _atom_site_fract_z
 _atom_site_occupancy
  Y  Y0  1  0.256668  0.143419  0.113248  1
  Y  Y1  1  0.743332  0.856581  0.886752  1
  Y  Y2  1  0.030171  0.643419  0.386752  1
  Y  Y3  1  0.969829  0.356581  0.613248  1
  Hf  Hf4  1  0.311417  0.561417  0.250000  1
  Hf  Hf5  1  0.688583  0.438583  0.750000  1
  Hf  Hf6  1  0.688583  0.938583  0.250000  1
  Hf  Hf7  1  0.311417  0.061417  0.750000  1
  Hf  Hf8  1  0.673830  0.435681  0.238150  1
  Hf  Hf9  1  0.326170  0.564319  0.761850  1
  Hf  Hf10  1  0.197531  0.935681  0.261850  1
  Hf  Hf11  1  0.802469  0.064319  0.738150  1
  Sn  Sn12  1  0.587891  0.288921  0.298970  1
  Sn  Sn13  1  0.412109  0.711079  0.701030  1
  Sn  Sn14  1  0.989953  0.788921  0.201030  1
  Sn  Sn15  1  0.010047  0.211079  0.798970  1
  Sn  Sn16  1  0.000000  0.250000  0.250000  1
  Sn  Sn17  1  0.000000  0.750000  0.750000  1
  Sn  Sn18  1  0.467771  0.066710  0.401059  1
  Sn  Sn19  1  0.532229  0.933290  0.598941  1
  Sn  Sn20  1  0.665652  0.566710  0.098941  1
  Sn  Sn21  1  0.334348  0.433290  0.901059  1
