# generated using pymatgen
data_YSc(SnPt)2
_symmetry_space_group_name_H-M   'P 1'
_cell_length_a   7.56438400
_cell_length_b   7.56438475
_cell_length_c   7.60188400
_cell_angle_alpha   90.00000000
_cell_angle_beta   90.00000000
_cell_angle_gamma   120.00000545
_symmetry_Int_Tables_number   1
_chemical_formula_structural   YSc(SnPt)2
_chemical_formula_sum   'Y3 Sc3 Sn6 Pt6'
_cell_volume   376.70295242
_cell_formula_units_Z   3
loop_
 _symmetry_equiv_pos_site_id
 _symmetry_equiv_pos_as_xyz
  1  'x, y, z'
loop_
 _atom_site_type_symbol
 _atom_site_label
 _atom_site_symmetry_multiplicity
 _atom_site_fract_x
 _atom_site_fract_y
 _atom_site_fract_z
 _atom_site_occupancy
  Y  Y0  1  0.404294  0.006617  0.250000  1
  Y  Y1  1  0.602323  0.595706  0.250000  1
  Y  Y2  1  0.993383  0.397677  0.250000  1
  Sc  Sc3  1  0.388016  0.993776  0.750000  1
  Sc  Sc4  1  0.605761  0.611984  0.750000  1
  Sc  Sc5  1  0.006224  0.394239  0.750000  1
  Sn  Sn6  1  0.271027  0.268181  0.991353  1
  Sn  Sn7  1  0.997154  0.728973  0.991353  1
  Sn  Sn8  1  0.997154  0.728973  0.508647  1
  Sn  Sn9  1  0.731819  0.002846  0.508647  1
  Sn  Sn10  1  0.271027  0.268181  0.508647  1
  Sn  Sn11  1  0.731819  0.002846  0.991353  1
  Pt  Pt12  1  0.000000  0.000000  0.750000  1
  Pt  Pt13  1  0.000000  0.000000  0.250000  1
  Pt  Pt14  1  0.666667  0.333333  0.953948  1
  Pt  Pt15  1  0.333333  0.666667  0.519323  1
  Pt  Pt16  1  0.333333  0.666667  0.980677  1
  Pt  Pt17  1  0.666667  0.333333  0.546052  1
