# generated using pymatgen
data_Cs3K9(NbTe4)4
_symmetry_space_group_name_H-M   'P 1'
_cell_length_a   10.63316900
_cell_length_b   10.59407554
_cell_length_c   11.62057900
_cell_angle_alpha   90.00000000
_cell_angle_beta   90.00000000
_cell_angle_gamma   90.68338005
_symmetry_Int_Tables_number   1
_chemical_formula_structural   Cs3K9(NbTe4)4
_chemical_formula_sum   'Cs3 K9 Nb4 Te16'
_cell_volume   1308.94879449
_cell_formula_units_Z   1
loop_
 _symmetry_equiv_pos_site_id
 _symmetry_equiv_pos_as_xyz
  1  'x, y, z'
loop_
 _atom_site_type_symbol
 _atom_site_label
 _atom_site_symmetry_multiplicity
 _atom_site_fract_x
 _atom_site_fract_y
 _atom_site_fract_z
 _atom_site_occupancy
  Cs  Cs0  1  0.138183  0.398424  0.750000  1
  Cs  Cs1  1  0.355950  0.897984  0.250000  1
  Cs  Cs2  1  0.639078  0.103997  0.750000  1
  K  K3  1  0.047773  0.199548  0.047651  1
  K  K4  1  0.874972  0.582916  0.250000  1
  K  K5  1  0.948237  0.795884  0.547717  1
  K  K6  1  0.551196  0.298318  0.447680  1
  K  K7  1  0.452603  0.702086  0.950735  1
  K  K8  1  0.551196  0.298318  0.052320  1
  K  K9  1  0.047773  0.199548  0.452349  1
  K  K10  1  0.452603  0.702086  0.549265  1
  K  K11  1  0.948237  0.795884  0.952283  1
  Nb  Nb12  1  0.780929  0.015194  0.250000  1
  Nb  Nb13  1  0.717392  0.516671  0.750000  1
  Nb  Nb14  1  0.286684  0.487929  0.250000  1
  Nb  Nb15  1  0.216360  0.985881  0.750000  1
  Te  Te16  1  0.332897  0.060887  0.936572  1
  Te  Te17  1  0.201649  0.739499  0.750000  1
  Te  Te18  1  0.295753  0.241157  0.250000  1
  Te  Te19  1  0.702070  0.762653  0.750000  1
  Te  Te20  1  0.806191  0.262010  0.250000  1
  Te  Te21  1  0.984840  0.071576  0.750000  1
  Te  Te22  1  0.520787  0.575723  0.250000  1
  Te  Te23  1  0.486098  0.425881  0.750000  1
  Te  Te24  1  0.005131  0.911393  0.250000  1
  Te  Te25  1  0.661551  0.947055  0.436918  1
  Te  Te26  1  0.833715  0.445292  0.562219  1
  Te  Te27  1  0.165992  0.561487  0.065785  1
  Te  Te28  1  0.661551  0.947055  0.063082  1
  Te  Te29  1  0.332897  0.060887  0.563428  1
  Te  Te30  1  0.165992  0.561487  0.434215  1
  Te  Te31  1  0.833715  0.445292  0.937781  1
