# generated using pymatgen
data_Sm2TcB8Mo
_symmetry_space_group_name_H-M   'P 1'
_cell_length_a   3.66037500
_cell_length_b   6.05575418
_cell_length_c   11.72249017
_cell_angle_alpha   90.07217738
_cell_angle_beta   90.00000000
_cell_angle_gamma   90.00000000
_symmetry_Int_Tables_number   1
_chemical_formula_structural   Sm2TcB8Mo
_chemical_formula_sum   'Sm4 Tc2 B16 Mo2'
_cell_volume   259.84439347
_cell_formula_units_Z   2
loop_
 _symmetry_equiv_pos_site_id
 _symmetry_equiv_pos_as_xyz
  1  'x, y, z'
loop_
 _atom_site_type_symbol
 _atom_site_label
 _atom_site_symmetry_multiplicity
 _atom_site_fract_x
 _atom_site_fract_y
 _atom_site_fract_z
 _atom_site_occupancy
  Sm  Sm0  1  0.000000  0.126279  0.151674  1
  Sm  Sm1  1  0.000000  0.873721  0.848326  1
  Sm  Sm2  1  0.000000  0.627180  0.350800  1
  Sm  Sm3  1  0.000000  0.372820  0.649200  1
  Tc  Tc4  1  0.000000  0.132728  0.414158  1
  Tc  Tc5  1  0.000000  0.867272  0.585842  1
  B  B6  1  0.500000  0.476138  0.192947  1
  B  B7  1  0.500000  0.523862  0.807053  1
  B  B8  1  0.500000  0.977141  0.310097  1
  B  B9  1  0.500000  0.022859  0.689903  1
  B  B10  1  0.500000  0.283080  0.316752  1
  B  B11  1  0.500000  0.716920  0.683248  1
  B  B12  1  0.500000  0.786552  0.185928  1
  B  B13  1  0.500000  0.213448  0.814072  1
  B  B14  1  0.500000  0.361375  0.468671  1
  B  B15  1  0.500000  0.638625  0.531329  1
  B  B16  1  0.500000  0.865314  0.032453  1
  B  B17  1  0.500000  0.134686  0.967547  1
  B  B18  1  0.500000  0.386531  0.046755  1
  B  B19  1  0.500000  0.613469  0.953245  1
  B  B20  1  0.500000  0.888426  0.453721  1
  B  B21  1  0.500000  0.111574  0.546279  1
  Mo  Mo22  1  0.000000  0.627933  0.084100  1
  Mo  Mo23  1  0.000000  0.372067  0.915900  1
