# generated using pymatgen
data_Pr3Al12Os2RuPt
_symmetry_space_group_name_H-M   'P 1'
_cell_length_a   8.95054210
_cell_length_b   8.96532009
_cell_length_c   9.69558100
_cell_angle_alpha   90.00000000
_cell_angle_beta   90.00000000
_cell_angle_gamma   120.05463631
_symmetry_Int_Tables_number   1
_chemical_formula_structural   Pr3Al12Os2RuPt
_chemical_formula_sum   'Pr6 Al24 Os4 Ru2 Pt2'
_cell_volume   673.41106053
_cell_formula_units_Z   2
loop_
 _symmetry_equiv_pos_site_id
 _symmetry_equiv_pos_as_xyz
  1  'x, y, z'
loop_
 _atom_site_type_symbol
 _atom_site_label
 _atom_site_symmetry_multiplicity
 _atom_site_fract_x
 _atom_site_fract_y
 _atom_site_fract_z
 _atom_site_occupancy
  Pr  Pr0  1  0.192402  0.380711  0.250000  1
  Pr  Pr1  1  0.807598  0.619289  0.750000  1
  Pr  Pr2  1  0.615327  0.807664  0.250000  1
  Pr  Pr3  1  0.384673  0.192336  0.750000  1
  Pr  Pr4  1  0.192402  0.811690  0.250000  1
  Pr  Pr5  1  0.807598  0.188310  0.750000  1
  Al  Al6  1  0.338012  0.669007  0.017134  1
  Al  Al7  1  0.661988  0.330993  0.982866  1
  Al  Al8  1  0.661988  0.330993  0.517134  1
  Al  Al9  1  0.338012  0.669007  0.482866  1
  Al  Al10  1  0.167345  0.325068  0.575146  1
  Al  Al11  1  0.832655  0.674932  0.424854  1
  Al  Al12  1  0.672132  0.836066  0.575811  1
  Al  Al13  1  0.832655  0.674932  0.075146  1
  Al  Al14  1  0.327868  0.163934  0.424189  1
  Al  Al15  1  0.167345  0.325068  0.924854  1
  Al  Al16  1  0.167345  0.842275  0.575146  1
  Al  Al17  1  0.327868  0.163934  0.075811  1
  Al  Al18  1  0.832655  0.157725  0.424854  1
  Al  Al19  1  0.672132  0.836066  0.924189  1
  Al  Al20  1  0.832655  0.157725  0.075146  1
  Al  Al21  1  0.167345  0.842275  0.924854  1
  Al  Al22  1  0.561947  0.125112  0.250000  1
  Al  Al23  1  0.438053  0.874888  0.750000  1
  Al  Al24  1  0.872200  0.436100  0.250000  1
  Al  Al25  1  0.127800  0.563900  0.750000  1
  Al  Al26  1  0.561947  0.436835  0.250000  1
  Al  Al27  1  0.438053  0.563165  0.750000  1
  Al  Al28  1  0.001679  0.000840  0.250000  1
  Al  Al29  1  0.998321  0.999160  0.750000  1
  Os  Os30  1  0.500000  0.000000  0.000000  1
  Os  Os31  1  0.500000  0.000000  0.500000  1
  Os  Os32  1  0.500000  0.500000  0.000000  1
  Os  Os33  1  0.500000  0.500000  0.500000  1
  Ru  Ru34  1  0.000000  0.000000  0.000000  1
  Ru  Ru35  1  0.000000  0.000000  0.500000  1
  Pt  Pt36  1  0.000000  0.500000  0.000000  1
  Pt  Pt37  1  0.000000  0.500000  0.500000  1
