# generated using pymatgen
data_Cr3In2O12
_symmetry_space_group_name_H-M   'P 1'
_cell_length_a   9.06636756
_cell_length_b   9.06636696
_cell_length_c   9.80962649
_cell_angle_alpha   117.52372087
_cell_angle_beta   62.47627300
_cell_angle_gamma   120.00000266
_symmetry_Int_Tables_number   1
_chemical_formula_structural   Cr3In2O12
_chemical_formula_sum   'Cr6 In4 O24'
_cell_volume   590.58617109
_cell_formula_units_Z   2
loop_
 _symmetry_equiv_pos_site_id
 _symmetry_equiv_pos_as_xyz
  1  'x, y, z'
loop_
 _atom_site_type_symbol
 _atom_site_label
 _atom_site_symmetry_multiplicity
 _atom_site_fract_x
 _atom_site_fract_y
 _atom_site_fract_z
 _atom_site_occupancy
  Cr  Cr0  1  0.250497  0.036113  0.248348  1
  Cr  Cr1  1  0.963886  0.462732  0.248348  1
  Cr  Cr2  1  0.537268  0.749502  0.248348  1
  Cr  Cr3  1  0.462732  0.250498  0.751652  1
  Cr  Cr4  1  0.036113  0.537268  0.751652  1
  Cr  Cr5  1  0.749502  0.963887  0.751652  1
  In  In6  1  0.649422  0.350579  0.051737  1
  In  In7  1  0.857422  0.142579  0.427737  1
  In  In8  1  0.142579  0.857422  0.572263  1
  In  In9  1  0.350579  0.649422  0.948263  1
  O  O10  1  0.160193  0.481473  0.105277  1
  O  O11  1  0.518526  0.783997  0.105277  1
  O  O12  1  0.216003  0.839806  0.105277  1
  O  O13  1  0.462888  0.171262  0.195696  1
  O  O14  1  0.828738  0.487322  0.195696  1
  O  O15  1  0.512678  0.537112  0.195696  1
  O  O16  1  0.115339  0.126092  0.273196  1
  O  O17  1  0.873907  0.262443  0.273196  1
  O  O18  1  0.737557  0.884661  0.273196  1
  O  O19  1  0.202985  0.005092  0.420256  1
  O  O20  1  0.994909  0.618149  0.420256  1
  O  O21  1  0.381851  0.797015  0.420256  1
  O  O22  1  0.618149  0.202984  0.579744  1
  O  O23  1  0.005091  0.381851  0.579744  1
  O  O24  1  0.797015  0.994908  0.579744  1
  O  O25  1  0.262443  0.115340  0.726804  1
  O  O26  1  0.126092  0.737557  0.726804  1
  O  O27  1  0.884662  0.873908  0.726804  1
  O  O28  1  0.487323  0.462888  0.804304  1
  O  O29  1  0.171261  0.512677  0.804304  1
  O  O30  1  0.537111  0.828737  0.804304  1
  O  O31  1  0.783996  0.160194  0.894723  1
  O  O32  1  0.481475  0.216004  0.894723  1
  O  O33  1  0.839806  0.518526  0.894723  1
