# generated using pymatgen
data_Pr4TmSn4
_symmetry_space_group_name_H-M   'P 1'
_cell_length_a   8.26000700
_cell_length_b   8.42191600
_cell_length_c   16.01342800
_cell_angle_alpha   90.00000000
_cell_angle_beta   90.00000000
_cell_angle_gamma   90.00000000
_symmetry_Int_Tables_number   1
_chemical_formula_structural   Pr4TmSn4
_chemical_formula_sum   'Pr16 Tm4 Sn16'
_cell_volume   1113.97548178
_cell_formula_units_Z   4
loop_
 _symmetry_equiv_pos_site_id
 _symmetry_equiv_pos_as_xyz
  1  'x, y, z'
loop_
 _atom_site_type_symbol
 _atom_site_label
 _atom_site_symmetry_multiplicity
 _atom_site_fract_x
 _atom_site_fract_y
 _atom_site_fract_z
 _atom_site_occupancy
  Pr  Pr0  1  0.367479  0.837765  0.879296  1
  Pr  Pr1  1  0.867479  0.662235  0.620704  1
  Pr  Pr2  1  0.632521  0.162235  0.379296  1
  Pr  Pr3  1  0.132521  0.337765  0.120704  1
  Pr  Pr4  1  0.632521  0.162235  0.120704  1
  Pr  Pr5  1  0.132521  0.337765  0.379296  1
  Pr  Pr6  1  0.367479  0.837765  0.620704  1
  Pr  Pr7  1  0.867479  0.662235  0.879296  1
  Pr  Pr8  1  0.518673  0.318543  0.901308  1
  Pr  Pr9  1  0.018673  0.181457  0.598692  1
  Pr  Pr10  1  0.481327  0.681457  0.401308  1
  Pr  Pr11  1  0.981327  0.818543  0.098692  1
  Pr  Pr12  1  0.481327  0.681457  0.098692  1
  Pr  Pr13  1  0.981327  0.818543  0.401308  1
  Pr  Pr14  1  0.518673  0.318543  0.598692  1
  Pr  Pr15  1  0.018673  0.181457  0.901308  1
  Tm  Tm16  1  0.198951  0.501690  0.750000  1
  Tm  Tm17  1  0.698951  0.998310  0.750000  1
  Tm  Tm18  1  0.801049  0.498310  0.250000  1
  Tm  Tm19  1  0.301049  0.001690  0.250000  1
  Sn  Sn20  1  0.291663  0.033468  0.044837  1
  Sn  Sn21  1  0.791663  0.466532  0.455163  1
  Sn  Sn22  1  0.708337  0.966532  0.544837  1
  Sn  Sn23  1  0.208337  0.533468  0.955163  1
  Sn  Sn24  1  0.708337  0.966532  0.955163  1
  Sn  Sn25  1  0.208337  0.533468  0.544837  1
  Sn  Sn26  1  0.291663  0.033468  0.455163  1
  Sn  Sn27  1  0.791663  0.466532  0.044837  1
  Sn  Sn28  1  0.563111  0.616356  0.750000  1
  Sn  Sn29  1  0.063111  0.883644  0.750000  1
  Sn  Sn30  1  0.436889  0.383644  0.250000  1
  Sn  Sn31  1  0.936889  0.116356  0.250000  1
  Sn  Sn32  1  0.323551  0.147189  0.750000  1
  Sn  Sn33  1  0.823551  0.352811  0.750000  1
  Sn  Sn34  1  0.676449  0.852811  0.250000  1
  Sn  Sn35  1  0.176449  0.647189  0.250000  1
