# generated using pymatgen
data_Sm7Lu3(Pb3Cl)2
_symmetry_space_group_name_H-M   'P 1'
_cell_length_a   9.32135600
_cell_length_b   9.32135455
_cell_length_c   6.65951200
_cell_angle_alpha   90.00000000
_cell_angle_beta   90.00000000
_cell_angle_gamma   119.99999804
_symmetry_Int_Tables_number   1
_chemical_formula_structural   Sm7Lu3(Pb3Cl)2
_chemical_formula_sum   'Sm7 Lu3 Pb6 Cl2'
_cell_volume   501.10780633
_cell_formula_units_Z   1
loop_
 _symmetry_equiv_pos_site_id
 _symmetry_equiv_pos_as_xyz
  1  'x, y, z'
loop_
 _atom_site_type_symbol
 _atom_site_label
 _atom_site_symmetry_multiplicity
 _atom_site_fract_x
 _atom_site_fract_y
 _atom_site_fract_z
 _atom_site_occupancy
  Sm  Sm0  1  0.333333  0.666667  0.500000  1
  Sm  Sm1  1  0.260070  0.000090  0.249496  1
  Sm  Sm2  1  0.740020  0.000090  0.750504  1
  Sm  Sm3  1  0.999910  0.259980  0.249496  1
  Sm  Sm4  1  0.999910  0.739930  0.750504  1
  Sm  Sm5  1  0.740020  0.739930  0.249496  1
  Sm  Sm6  1  0.260070  0.259980  0.750504  1
  Lu  Lu7  1  0.333333  0.666667  0.000000  1
  Lu  Lu8  1  0.666667  0.333333  0.000000  1
  Lu  Lu9  1  0.666667  0.333333  0.500000  1
  Pb  Pb10  1  0.609416  0.002449  0.248336  1
  Pb  Pb11  1  0.393033  0.002449  0.751664  1
  Pb  Pb12  1  0.997551  0.606967  0.248336  1
  Pb  Pb13  1  0.997551  0.390584  0.751664  1
  Pb  Pb14  1  0.393033  0.390584  0.248336  1
  Pb  Pb15  1  0.609416  0.606967  0.751664  1
  Cl  Cl16  1  0.000000  0.000000  0.000000  1
  Cl  Cl17  1  0.000000  0.000000  0.500000  1
