# generated using pymatgen
data_Li4Co3Ni6P7Ru
_symmetry_space_group_name_H-M   'P 1'
_cell_length_a   9.04317566
_cell_length_b   9.04199310
_cell_length_c   3.58218100
_cell_angle_alpha   90.00000000
_cell_angle_beta   90.00000000
_cell_angle_gamma   120.25248709
_symmetry_Int_Tables_number   1
_chemical_formula_structural   Li4Co3Ni6P7Ru
_chemical_formula_sum   'Li4 Co3 Ni6 P7 Ru1'
_cell_volume   253.01875829
_cell_formula_units_Z   1
loop_
 _symmetry_equiv_pos_site_id
 _symmetry_equiv_pos_as_xyz
  1  'x, y, z'
loop_
 _atom_site_type_symbol
 _atom_site_label
 _atom_site_symmetry_multiplicity
 _atom_site_fract_x
 _atom_site_fract_y
 _atom_site_fract_z
 _atom_site_occupancy
  Li  Li0  1  0.898843  0.123503  0.500000  1
  Li  Li1  1  0.223893  0.098484  0.500000  1
  Li  Li2  1  0.332701  0.663370  0.000000  1
  Li  Li3  1  0.663080  0.331663  0.500000  1
  Co  Co4  1  0.565323  0.951583  0.500000  1
  Co  Co5  1  0.389573  0.436207  0.500000  1
  Co  Co6  1  0.050138  0.611176  0.500000  1
  Ni  Ni7  1  0.712907  0.881300  0.000000  1
  Ni  Ni8  1  0.159866  0.278180  0.000000  1
  Ni  Ni9  1  0.123844  0.835554  0.000000  1
  Ni  Ni10  1  0.632281  0.570040  0.000000  1
  Ni  Ni11  1  0.940866  0.371553  0.000000  1
  Ni  Ni12  1  0.429073  0.060419  0.000000  1
  P  P13  1  0.581456  0.709853  0.500000  1
  P  P14  1  0.130862  0.419342  0.500000  1
  P  P15  1  0.293123  0.869418  0.500000  1
  P  P16  1  0.997418  0.990974  0.000000  1
  P  P17  1  0.882060  0.579597  0.000000  1
  P  P18  1  0.694137  0.120896  0.000000  1
  P  P19  1  0.420739  0.303068  0.000000  1
  Ru  Ru20  1  0.877819  0.793820  0.500000  1
