# generated using pymatgen
data_LiNd2Si3As3Pd20
_symmetry_space_group_name_H-M   'P 1'
_cell_length_a   8.77424245
_cell_length_b   8.80557633
_cell_length_c   8.83961991
_cell_angle_alpha   59.63735030
_cell_angle_beta   59.98845156
_cell_angle_gamma   60.37420750
_symmetry_Int_Tables_number   1
_chemical_formula_structural   LiNd2Si3As3Pd20
_chemical_formula_sum   'Li1 Nd2 Si3 As3 Pd20'
_cell_volume   482.89208186
_cell_formula_units_Z   1
loop_
 _symmetry_equiv_pos_site_id
 _symmetry_equiv_pos_as_xyz
  1  'x, y, z'
loop_
 _atom_site_type_symbol
 _atom_site_label
 _atom_site_symmetry_multiplicity
 _atom_site_fract_x
 _atom_site_fract_y
 _atom_site_fract_z
 _atom_site_occupancy
  Li  Li0  1  0.999274  0.000726  0.999274  1
  Nd  Nd1  1  0.249843  0.250157  0.249843  1
  Nd  Nd2  1  0.749843  0.750157  0.749843  1
  Si  Si3  1  0.736314  0.263686  0.736314  1
  Si  Si4  1  0.262985  0.262998  0.737002  1
  Si  Si5  1  0.737002  0.737015  0.262985  1
  As  As6  1  0.738018  0.261982  0.261311  1
  As  As7  1  0.261311  0.738689  0.738018  1
  As  As8  1  0.261915  0.738085  0.261915  1
  Pd  Pd9  1  0.348242  0.006151  0.993849  1
  Pd  Pd10  1  0.655360  0.999650  0.000350  1
  Pd  Pd11  1  0.000350  0.344640  0.655360  1
  Pd  Pd12  1  0.993849  0.651758  0.348242  1
  Pd  Pd13  1  0.005660  0.347917  0.991895  1
  Pd  Pd14  1  0.652083  0.994340  0.345472  1
  Pd  Pd15  1  0.991895  0.654528  0.005660  1
  Pd  Pd16  1  0.345472  0.008105  0.652083  1
  Pd  Pd17  1  0.000571  0.999429  0.349105  1
  Pd  Pd18  1  0.993117  0.006883  0.654939  1
  Pd  Pd19  1  0.654939  0.345061  0.993117  1
  Pd  Pd20  1  0.349105  0.650895  0.000571  1
  Pd  Pd21  1  0.382846  0.381581  0.390717  1
  Pd  Pd22  1  0.619532  0.611606  0.613330  1
  Pd  Pd23  1  0.388394  0.380468  0.844467  1
  Pd  Pd24  1  0.390717  0.844854  0.382846  1
  Pd  Pd25  1  0.618419  0.617154  0.155146  1
  Pd  Pd26  1  0.613330  0.155533  0.619532  1
  Pd  Pd27  1  0.844467  0.386670  0.388394  1
  Pd  Pd28  1  0.155146  0.609283  0.618419  1
