# generated using pymatgen
data_TbY11B3CCl12
_symmetry_space_group_name_H-M   'P 1'
_cell_length_a   9.41772124
_cell_length_b   9.41579508
_cell_length_c   9.41676125
_cell_angle_alpha   109.38984553
_cell_angle_beta   109.33703294
_cell_angle_gamma   109.35906377
_symmetry_Int_Tables_number   1
_chemical_formula_structural   TbY11B3CCl12
_chemical_formula_sum   'Tb1 Y11 B3 C1 Cl12'
_cell_volume   645.39646207
_cell_formula_units_Z   1
loop_
 _symmetry_equiv_pos_site_id
 _symmetry_equiv_pos_as_xyz
  1  'x, y, z'
loop_
 _atom_site_type_symbol
 _atom_site_label
 _atom_site_symmetry_multiplicity
 _atom_site_fract_x
 _atom_site_fract_y
 _atom_site_fract_z
 _atom_site_occupancy
  Tb  Tb0  1  0.465641  0.479838  0.234812  1
  Y  Y1  1  0.749979  0.235365  0.264797  1
  Y  Y2  1  0.750035  0.015246  0.484727  1
  Y  Y3  1  0.234457  0.465026  0.479654  1
  Y  Y4  1  0.264634  0.749968  0.235187  1
  Y  Y5  1  0.034840  0.265436  0.020256  1
  Y  Y6  1  0.020297  0.034865  0.265521  1
  Y  Y7  1  0.484697  0.749964  0.015222  1
  Y  Y8  1  0.479665  0.234538  0.465048  1
  Y  Y9  1  0.015114  0.484759  0.749849  1
  Y  Y10  1  0.265425  0.020309  0.034923  1
  Y  Y11  1  0.235245  0.264709  0.750001  1
  B  B12  1  0.498872  0.001094  0.249983  1
  B  B13  1  0.001081  0.249978  0.498869  1
  B  B14  1  0.249824  0.498896  0.000973  1
  C  C15  1  0.249895  0.249943  0.249948  1
  Cl  Cl16  1  0.250003  0.756016  0.744000  1
  Cl  Cl17  1  0.511368  0.505251  0.753385  1
  Cl  Cl18  1  0.988604  0.746588  0.994722  1
  Cl  Cl19  1  0.743966  0.249977  0.755995  1
  Cl  Cl20  1  0.994696  0.988585  0.746571  1
  Cl  Cl21  1  0.249995  0.994758  0.505256  1
  Cl  Cl22  1  0.753795  0.511349  0.505675  1
  Cl  Cl23  1  0.505165  0.249808  0.994536  1
  Cl  Cl24  1  0.756209  0.744270  0.249968  1
  Cl  Cl25  1  0.746562  0.994714  0.988589  1
  Cl  Cl26  1  0.994729  0.505223  0.249993  1
  Cl  Cl27  1  0.505206  0.753529  0.511539  1
