# generated using pymatgen
data_Ti12CdSn7Sb2
_symmetry_space_group_name_H-M   'P 1'
_cell_length_a   9.26846163
_cell_length_b   9.34714163
_cell_length_c   5.69865927
_cell_angle_alpha   90.00000556
_cell_angle_beta   90.16832480
_cell_angle_gamma   120.28120776
_symmetry_Int_Tables_number   1
_chemical_formula_structural   Ti12CdSn7Sb2
_chemical_formula_sum   'Ti12 Cd1 Sn7 Sb2'
_cell_volume   426.33370545
_cell_formula_units_Z   1
loop_
 _symmetry_equiv_pos_site_id
 _symmetry_equiv_pos_as_xyz
  1  'x, y, z'
loop_
 _atom_site_type_symbol
 _atom_site_label
 _atom_site_symmetry_multiplicity
 _atom_site_fract_x
 _atom_site_fract_y
 _atom_site_fract_z
 _atom_site_occupancy
  Ti  Ti0  1  0.841754  0.681747  0.759274  1
  Ti  Ti1  1  0.158246  0.839993  0.240726  1
  Ti  Ti2  1  0.688814  0.849615  0.240204  1
  Ti  Ti3  1  0.311186  0.160802  0.759796  1
  Ti  Ti4  1  0.850277  0.159663  0.761412  1
  Ti  Ti5  1  0.149723  0.309386  0.238588  1
  Ti  Ti6  1  0.501041  0.001481  0.498573  1
  Ti  Ti7  1  0.498208  0.499828  0.998660  1
  Ti  Ti8  1  0.000000  0.498620  0.000000  1
  Ti  Ti9  1  0.000000  0.499882  0.500000  1
  Ti  Ti10  1  0.501792  0.001620  0.001340  1
  Ti  Ti11  1  0.498959  0.500440  0.501427  1
  Cd  Cd12  1  0.000000  0.992286  0.500000  1
  Sn  Sn13  1  0.398477  0.201261  0.255227  1
  Sn  Sn14  1  0.601523  0.802784  0.744773  1
  Sn  Sn15  1  0.202269  0.801478  0.745846  1
  Sn  Sn16  1  0.797731  0.599208  0.254154  1
  Sn  Sn17  1  0.664467  0.332954  0.753923  1
  Sn  Sn18  1  0.335533  0.668488  0.246077  1
  Sn  Sn19  1  0.000000  0.993859  0.000000  1
  Sb  Sb20  1  0.200938  0.402772  0.743553  1
  Sb  Sb21  1  0.799062  0.201833  0.256447  1
