# generated using pymatgen
data_Fe6Mo4W2N
_symmetry_space_group_name_H-M   'P 1'
_cell_length_a   7.70141527
_cell_length_b   7.71152678
_cell_length_c   7.71681300
_cell_angle_alpha   59.90075784
_cell_angle_beta   59.87631209
_cell_angle_gamma   59.92846149
_symmetry_Int_Tables_number   1
_chemical_formula_structural   Fe6Mo4W2N
_chemical_formula_sum   'Fe12 Mo8 W4 N2'
_cell_volume   323.34454492
_cell_formula_units_Z   2
loop_
 _symmetry_equiv_pos_site_id
 _symmetry_equiv_pos_as_xyz
  1  'x, y, z'
loop_
 _atom_site_type_symbol
 _atom_site_label
 _atom_site_symmetry_multiplicity
 _atom_site_fract_x
 _atom_site_fract_y
 _atom_site_fract_z
 _atom_site_occupancy
  Fe  Fe0  1  0.920818  0.236276  0.921258  1
  Fe  Fe1  1  0.328078  0.014007  0.328613  1
  Fe  Fe2  1  0.328633  0.329304  0.328563  1
  Fe  Fe3  1  0.014054  0.328294  0.328724  1
  Fe  Fe4  1  0.921297  0.921264  0.236055  1
  Fe  Fe5  1  0.235820  0.921133  0.921559  1
  Fe  Fe6  1  0.328719  0.328780  0.013754  1
  Fe  Fe7  1  0.125528  0.125024  0.624984  1
  Fe  Fe8  1  0.920912  0.921371  0.921084  1
  Fe  Fe9  1  0.125145  0.624866  0.124995  1
  Fe  Fe10  1  0.125093  0.125132  0.124706  1
  Fe  Fe11  1  0.624800  0.124947  0.125368  1
  Mo  Mo12  1  0.301564  0.698101  0.698175  1
  Mo  Mo13  1  0.302182  0.302486  0.697874  1
  Mo  Mo14  1  0.550975  0.948164  0.551884  1
  Mo  Mo15  1  0.947301  0.551929  0.551801  1
  Mo  Mo16  1  0.550985  0.948061  0.948120  1
  Mo  Mo17  1  0.698253  0.301921  0.301904  1
  Mo  Mo18  1  0.948046  0.551054  0.948914  1
  Mo  Mo19  1  0.303028  0.696922  0.303309  1
  W  W20  1  0.552168  0.553237  0.947007  1
  W  W21  1  0.698032  0.301893  0.697822  1
  W  W22  1  0.699031  0.698593  0.301032  1
  W  W23  1  0.946679  0.947279  0.552510  1
  N  N24  1  0.750025  0.749997  0.749963  1
  N  N25  1  0.502835  0.499966  0.500023  1
