# generated using pymatgen
data_Er4TlPbAu4
_symmetry_space_group_name_H-M   'P 1'
_cell_length_a   8.03860500
_cell_length_b   8.03860500
_cell_length_c   7.27456200
_cell_angle_alpha   90.00000000
_cell_angle_beta   90.00000000
_cell_angle_gamma   90.00000000
_symmetry_Int_Tables_number   1
_chemical_formula_structural   Er4TlPbAu4
_chemical_formula_sum   'Er8 Tl2 Pb2 Au8'
_cell_volume   470.07616107
_cell_formula_units_Z   2
loop_
 _symmetry_equiv_pos_site_id
 _symmetry_equiv_pos_as_xyz
  1  'x, y, z'
loop_
 _atom_site_type_symbol
 _atom_site_label
 _atom_site_symmetry_multiplicity
 _atom_site_fract_x
 _atom_site_fract_y
 _atom_site_fract_z
 _atom_site_occupancy
  Er  Er0  1  0.181762  0.181762  0.000000  1
  Er  Er1  1  0.318238  0.681762  0.500000  1
  Er  Er2  1  0.681762  0.318238  0.500000  1
  Er  Er3  1  0.818238  0.818238  0.000000  1
  Er  Er4  1  0.343271  0.656729  0.000000  1
  Er  Er5  1  0.656729  0.343271  0.000000  1
  Er  Er6  1  0.843271  0.843271  0.500000  1
  Er  Er7  1  0.156729  0.156729  0.500000  1
  Tl  Tl8  1  0.000000  0.500000  0.750000  1
  Tl  Tl9  1  0.500000  0.000000  0.250000  1
  Pb  Pb10  1  0.000000  0.500000  0.250000  1
  Pb  Pb11  1  0.500000  0.000000  0.750000  1
  Au  Au12  1  0.123946  0.869987  0.775349  1
  Au  Au13  1  0.869987  0.123946  0.224651  1
  Au  Au14  1  0.376054  0.369987  0.275349  1
  Au  Au15  1  0.630013  0.623946  0.724651  1
  Au  Au16  1  0.623946  0.630013  0.275349  1
  Au  Au17  1  0.876054  0.130013  0.775349  1
  Au  Au18  1  0.369987  0.376054  0.724651  1
  Au  Au19  1  0.130013  0.876054  0.224651  1
