# generated using pymatgen
data_Eu3HgRh2Pb3
_symmetry_space_group_name_H-M   'P 1'
_cell_length_a   8.11739500
_cell_length_b   8.11739464
_cell_length_c   4.05092600
_cell_angle_alpha   90.00000000
_cell_angle_beta   90.00000000
_cell_angle_gamma   120.00001370
_symmetry_Int_Tables_number   1
_chemical_formula_structural   Eu3HgRh2Pb3
_chemical_formula_sum   'Eu3 Hg1 Rh2 Pb3'
_cell_volume   231.16294653
_cell_formula_units_Z   1
loop_
 _symmetry_equiv_pos_site_id
 _symmetry_equiv_pos_as_xyz
  1  'x, y, z'
loop_
 _atom_site_type_symbol
 _atom_site_label
 _atom_site_symmetry_multiplicity
 _atom_site_fract_x
 _atom_site_fract_y
 _atom_site_fract_z
 _atom_site_occupancy
  Eu  Eu0  1  0.972954  0.579391  0.500000  1
  Eu  Eu1  1  0.420609  0.393562  0.500000  1
  Eu  Eu2  1  0.606438  0.027046  0.500000  1
  Hg  Hg3  1  0.333333  0.666667  0.000000  1
  Rh  Rh4  1  0.000000  0.000000  0.500000  1
  Rh  Rh5  1  0.666667  0.333333  0.000000  1
  Pb  Pb6  1  0.751782  0.744335  0.000000  1
  Pb  Pb7  1  0.992554  0.248218  0.000000  1
  Pb  Pb8  1  0.255665  0.007446  0.000000  1
