# generated using pymatgen
data_Sm3Pd2Pt7
_symmetry_space_group_name_H-M   'P 1'
_cell_length_a   9.47621412
_cell_length_b   9.47621377
_cell_length_c   9.47621383
_cell_angle_alpha   33.31196234
_cell_angle_beta   33.31196345
_cell_angle_gamma   33.31196971
_symmetry_Int_Tables_number   1
_chemical_formula_structural   Sm3Pd2Pt7
_chemical_formula_sum   'Sm3 Pd2 Pt7'
_cell_volume   228.52289901
_cell_formula_units_Z   1
loop_
 _symmetry_equiv_pos_site_id
 _symmetry_equiv_pos_as_xyz
  1  'x, y, z'
loop_
 _atom_site_type_symbol
 _atom_site_label
 _atom_site_symmetry_multiplicity
 _atom_site_fract_x
 _atom_site_fract_y
 _atom_site_fract_z
 _atom_site_occupancy
  Sm  Sm0  1  0.361023  0.361023  0.361023  1
  Sm  Sm1  1  0.500000  0.500000  0.500000  1
  Sm  Sm2  1  0.638977  0.638977  0.638977  1
  Pd  Pd3  1  0.167094  0.167094  0.167094  1
  Pd  Pd4  1  0.832906  0.832906  0.832906  1
  Pt  Pt5  1  0.000000  0.000000  0.000000  1
  Pt  Pt6  1  0.581566  0.086787  0.086789  1
  Pt  Pt7  1  0.086787  0.581566  0.086789  1
  Pt  Pt8  1  0.913212  0.913212  0.418434  1
  Pt  Pt9  1  0.086788  0.086788  0.581566  1
  Pt  Pt10  1  0.913213  0.418434  0.913211  1
  Pt  Pt11  1  0.418434  0.913213  0.913211  1
