# generated using pymatgen
data_La3Dy2P12Ru10Rh9
_symmetry_space_group_name_H-M   'P 1'
_cell_length_a   12.70832736
_cell_length_b   12.71222406
_cell_length_c   3.96730000
_cell_angle_alpha   90.00000000
_cell_angle_beta   90.00000000
_cell_angle_gamma   119.94813325
_symmetry_Int_Tables_number   1
_chemical_formula_structural   La3Dy2P12Ru10Rh9
_chemical_formula_sum   'La3 Dy2 P12 Ru10 Rh9'
_cell_volume   555.34434074
_cell_formula_units_Z   1
loop_
 _symmetry_equiv_pos_site_id
 _symmetry_equiv_pos_as_xyz
  1  'x, y, z'
loop_
 _atom_site_type_symbol
 _atom_site_label
 _atom_site_symmetry_multiplicity
 _atom_site_fract_x
 _atom_site_fract_y
 _atom_site_fract_z
 _atom_site_occupancy
  La  La0  1  0.665986  0.333030  0.000000  1
  La  La1  1  0.813665  0.000238  0.500000  1
  La  La2  1  0.185057  0.185791  0.500000  1
  Dy  Dy3  1  0.333744  0.667656  0.000000  1
  Dy  Dy4  1  0.999807  0.811412  0.500000  1
  P  P5  1  0.626682  0.997214  0.000000  1
  P  P6  1  0.370126  0.376417  0.000000  1
  P  P7  1  0.005938  0.632746  0.000000  1
  P  P8  1  0.686668  0.522254  0.500000  1
  P  P9  1  0.833225  0.308867  0.500000  1
  P  P10  1  0.313842  0.830039  0.500000  1
  P  P11  1  0.518264  0.687908  0.500000  1
  P  P12  1  0.179975  0.995743  0.000000  1
  P  P13  1  0.818074  0.815677  0.000000  1
  P  P14  1  0.998206  0.186178  0.000000  1
  P  P15  1  0.474624  0.161506  0.500000  1
  P  P16  1  0.170827  0.485360  0.500000  1
  Ru  Ru17  1  0.128281  0.641219  0.500000  1
  Ru  Ru18  1  0.362611  0.490678  0.500000  1
  Ru  Ru19  1  0.511092  0.871155  0.500000  1
  Ru  Ru20  1  0.715635  0.714088  0.500000  1
  Ru  Ru21  1  0.003045  0.290315  0.500000  1
  Ru  Ru22  1  0.448235  0.000222  0.000000  1
  Ru  Ru23  1  0.554910  0.548306  0.000000  1
  Ru  Ru24  1  0.000731  0.451036  0.000000  1
  Ru  Ru25  1  0.818279  0.198012  0.000000  1
  Ru  Ru26  1  0.282947  0.996289  0.500000  1
  Rh  Rh27  1  0.620168  0.799555  0.000000  1
  Rh  Rh28  1  0.182838  0.381604  0.000000  1
  Rh  Rh29  1  0.375940  0.180597  0.000000  1
  Rh  Rh30  1  0.195170  0.818702  0.000000  1
  Rh  Rh31  1  0.809969  0.625704  0.000000  1
  Rh  Rh32  1  0.873651  0.511708  0.500000  1
  Rh  Rh33  1  0.486629  0.359975  0.500000  1
  Rh  Rh34  1  0.635644  0.124753  0.500000  1
  Rh  Rh35  1  0.999516  0.998045  0.000000  1
