# generated using pymatgen
data_LiTm3Th3Co17P12
_symmetry_space_group_name_H-M   'P 1'
_cell_length_a   3.74795700
_cell_length_b   10.57412775
_cell_length_c   12.26662762
_cell_angle_alpha   90.19057316
_cell_angle_beta   90.00000000
_cell_angle_gamma   90.00000000
_symmetry_Int_Tables_number   1
_chemical_formula_structural   LiTm3Th3Co17P12
_chemical_formula_sum   'Li1 Tm3 Th3 Co17 P12'
_cell_volume   486.14064384
_cell_formula_units_Z   1
loop_
 _symmetry_equiv_pos_site_id
 _symmetry_equiv_pos_as_xyz
  1  'x, y, z'
loop_
 _atom_site_type_symbol
 _atom_site_label
 _atom_site_symmetry_multiplicity
 _atom_site_fract_x
 _atom_site_fract_y
 _atom_site_fract_z
 _atom_site_occupancy
  Li  Li0  1  0.000000  0.999973  0.852430  1
  Tm  Tm1  1  0.500000  0.187414  0.202409  1
  Tm  Tm2  1  0.000000  0.682418  0.797027  1
  Tm  Tm3  1  0.000000  0.316494  0.794314  1
  Th  Th4  1  0.000000  0.499382  0.525570  1
  Th  Th5  1  0.500000  0.002515  0.477043  1
  Th  Th6  1  0.500000  0.818980  0.205185  1
  Co  Co7  1  0.500000  0.498745  0.158462  1
  Co  Co8  1  0.500000  0.499076  0.702927  1
  Co  Co9  1  0.000000  0.999574  0.294681  1
  Co  Co10  1  0.000000  0.497852  0.981888  1
  Co  Co11  1  0.500000  0.002941  0.012250  1
  Co  Co12  1  0.500000  0.335891  0.995097  1
  Co  Co13  1  0.500000  0.662475  0.994766  1
  Co  Co14  1  0.000000  0.171879  0.003173  1
  Co  Co15  1  0.000000  0.830910  0.004031  1
  Co  Co16  1  0.500000  0.298630  0.428045  1
  Co  Co17  1  0.500000  0.699833  0.432612  1
  Co  Co18  1  0.000000  0.202865  0.568389  1
  Co  Co19  1  0.000000  0.797095  0.572679  1
  Co  Co20  1  0.500000  0.877335  0.712535  1
  Co  Co21  1  0.500000  0.122315  0.710126  1
  Co  Co22  1  0.000000  0.618711  0.288809  1
  Co  Co23  1  0.000000  0.379245  0.286466  1
  P  P24  1  0.500000  0.498609  0.879975  1
  P  P25  1  0.000000  0.006216  0.112331  1
  P  P26  1  0.500000  0.498857  0.339654  1
  P  P27  1  0.000000  0.999610  0.661878  1
  P  P28  1  0.500000  0.305482  0.617670  1
  P  P29  1  0.500000  0.693136  0.621250  1
  P  P30  1  0.000000  0.194063  0.379726  1
  P  P31  1  0.000000  0.804171  0.389174  1
  P  P32  1  0.500000  0.841980  0.895953  1
  P  P33  1  0.500000  0.159453  0.893650  1
  P  P34  1  0.000000  0.647318  0.102659  1
  P  P35  1  0.000000  0.348556  0.105165  1
