# generated using pymatgen
data_Pr2Nd2Zn10SiPb
_symmetry_space_group_name_H-M   'P 1'
_cell_length_a   8.52826560
_cell_length_b   8.52826602
_cell_length_c   9.00696500
_cell_angle_alpha   90.00000000
_cell_angle_beta   90.00000000
_cell_angle_gamma   149.54075520
_symmetry_Int_Tables_number   1
_chemical_formula_structural   Pr2Nd2Zn10SiPb
_chemical_formula_sum   'Pr2 Nd2 Zn10 Si1 Pb1'
_cell_volume   332.08093143
_cell_formula_units_Z   1
loop_
 _symmetry_equiv_pos_site_id
 _symmetry_equiv_pos_as_xyz
  1  'x, y, z'
loop_
 _atom_site_type_symbol
 _atom_site_label
 _atom_site_symmetry_multiplicity
 _atom_site_fract_x
 _atom_site_fract_y
 _atom_site_fract_z
 _atom_site_occupancy
  Pr  Pr0  1  0.000777  0.999223  0.482563  1
  Pr  Pr1  1  0.000777  0.999223  0.017437  1
  Nd  Nd2  1  0.202403  0.797597  0.250000  1
  Nd  Nd3  1  0.794083  0.205917  0.750000  1
  Zn  Zn4  1  0.813678  0.186322  0.390408  1
  Zn  Zn5  1  0.185387  0.814613  0.606668  1
  Zn  Zn6  1  0.813678  0.186322  0.109592  1
  Zn  Zn7  1  0.185387  0.814613  0.893332  1
  Zn  Zn8  1  0.650284  0.349716  0.474152  1
  Zn  Zn9  1  0.342335  0.657665  0.511195  1
  Zn  Zn10  1  0.650284  0.349716  0.025848  1
  Zn  Zn11  1  0.342335  0.657665  0.988805  1
  Zn  Zn12  1  0.405838  0.594162  0.250000  1
  Zn  Zn13  1  0.608331  0.391669  0.750000  1
  Si  Si14  1  0.558190  0.441810  0.250000  1
  Pb  Pb15  1  0.446233  0.553767  0.750000  1
