# generated using pymatgen
data_Tb4Sm2Cd23Sn
_symmetry_space_group_name_H-M   'P 1'
_cell_length_a   10.04849052
_cell_length_b   10.04849069
_cell_length_c   9.95328900
_cell_angle_alpha   60.31290987
_cell_angle_beta   60.31290933
_cell_angle_gamma   60.19780210
_symmetry_Int_Tables_number   1
_chemical_formula_structural   Tb4Sm2Cd23Sn
_chemical_formula_sum   'Tb4 Sm2 Cd23 Sn1'
_cell_volume   715.05973887
_cell_formula_units_Z   1
loop_
 _symmetry_equiv_pos_site_id
 _symmetry_equiv_pos_as_xyz
  1  'x, y, z'
loop_
 _atom_site_type_symbol
 _atom_site_label
 _atom_site_symmetry_multiplicity
 _atom_site_fract_x
 _atom_site_fract_y
 _atom_site_fract_z
 _atom_site_occupancy
  Tb  Tb0  1  0.780994  0.780994  0.218607  1
  Tb  Tb1  1  0.223129  0.776871  0.220354  1
  Tb  Tb2  1  0.776871  0.223129  0.220354  1
  Tb  Tb3  1  0.219006  0.219006  0.780595  1
  Sm  Sm4  1  0.778175  0.221825  0.780244  1
  Sm  Sm5  1  0.221825  0.778175  0.780244  1
  Cd  Cd6  1  0.843335  0.843335  0.468675  1
  Cd  Cd7  1  0.839599  0.473484  0.844571  1
  Cd  Cd8  1  0.473484  0.839599  0.844571  1
  Cd  Cd9  1  0.840448  0.840448  0.843685  1
  Cd  Cd10  1  0.159552  0.159552  0.524581  1
  Cd  Cd11  1  0.160401  0.526516  0.157654  1
  Cd  Cd12  1  0.526516  0.160401  0.157654  1
  Cd  Cd13  1  0.156665  0.156665  0.155346  1
  Cd  Cd14  1  0.625454  0.625454  0.127813  1
  Cd  Cd15  1  0.624075  0.127896  0.622206  1
  Cd  Cd16  1  0.127896  0.624075  0.622206  1
  Cd  Cd17  1  0.627861  0.627861  0.620270  1
  Cd  Cd18  1  0.372139  0.372139  0.875991  1
  Cd  Cd19  1  0.375925  0.872104  0.374177  1
  Cd  Cd20  1  0.872104  0.375925  0.374177  1
  Cd  Cd21  1  0.374546  0.374546  0.378722  1
  Cd  Cd22  1  0.000000  0.000000  0.500229  1
  Cd  Cd23  1  0.500128  0.999490  0.500560  1
  Cd  Cd24  1  0.999490  0.500128  0.500560  1
  Cd  Cd25  1  0.500000  0.500000  0.999965  1
  Cd  Cd26  1  0.000510  0.499872  0.000178  1
  Cd  Cd27  1  0.499872  0.000510  0.000178  1
  Cd  Cd28  1  0.500000  0.500000  0.501984  1
  Sn  Sn29  1  0.000000  0.000000  0.003648  1
