# generated using pymatgen
data_Sr2Pr(CdPt)3
_symmetry_space_group_name_H-M   'P 1'
_cell_length_a   7.80216000
_cell_length_b   7.74942428
_cell_length_c   4.23980100
_cell_angle_alpha   90.00000000
_cell_angle_beta   90.00000000
_cell_angle_gamma   120.22537640
_symmetry_Int_Tables_number   1
_chemical_formula_structural   Sr2Pr(CdPt)3
_chemical_formula_sum   'Sr2 Pr1 Cd3 Pt3'
_cell_volume   221.49789767
_cell_formula_units_Z   1
loop_
 _symmetry_equiv_pos_site_id
 _symmetry_equiv_pos_as_xyz
  1  'x, y, z'
loop_
 _atom_site_type_symbol
 _atom_site_label
 _atom_site_symmetry_multiplicity
 _atom_site_fract_x
 _atom_site_fract_y
 _atom_site_fract_z
 _atom_site_occupancy
  Sr  Sr0  1  0.406864  0.407487  0.500000  1
  Sr  Sr1  1  0.999377  0.592513  0.500000  1
  Pr  Pr2  1  0.592635  0.000000  0.500000  1
  Cd  Cd3  1  0.749774  0.749289  0.000000  1
  Cd  Cd4  1  0.245137  0.000000  0.000000  1
  Cd  Cd5  1  0.000484  0.250711  0.000000  1
  Pt  Pt6  1  0.663459  0.313020  0.000000  1
  Pt  Pt7  1  0.991832  0.000000  0.500000  1
  Pt  Pt8  1  0.350439  0.686980  0.000000  1
