# generated using pymatgen
data_AcYbZr(Si3Pd10)2
_symmetry_space_group_name_H-M   'P 1'
_cell_length_a   8.73566005
_cell_length_b   8.73566313
_cell_length_c   8.73566000
_cell_angle_alpha   60.00000860
_cell_angle_beta   60.00009154
_cell_angle_gamma   60.00002667
_symmetry_Int_Tables_number   1
_chemical_formula_structural   AcYbZr(Si3Pd10)2
_chemical_formula_sum   'Ac1 Yb1 Zr1 Si6 Pd20'
_cell_volume   471.38172791
_cell_formula_units_Z   1
loop_
 _symmetry_equiv_pos_site_id
 _symmetry_equiv_pos_as_xyz
  1  'x, y, z'
loop_
 _atom_site_type_symbol
 _atom_site_label
 _atom_site_symmetry_multiplicity
 _atom_site_fract_x
 _atom_site_fract_y
 _atom_site_fract_z
 _atom_site_occupancy
  Ac  Ac0  1  0.250000  0.250000  0.250000  1
  Yb  Yb1  1  0.750000  0.750000  0.750000  1
  Zr  Zr2  1  0.000000  0.000001  0.999998  1
  Si  Si3  1  0.732547  0.267453  0.267453  1
  Si  Si4  1  0.267452  0.732547  0.732547  1
  Si  Si5  1  0.267453  0.732548  0.267453  1
  Si  Si6  1  0.732547  0.267453  0.732547  1
  Si  Si7  1  0.267453  0.267454  0.732547  1
  Si  Si8  1  0.732547  0.732547  0.267453  1
  Pd  Pd9  1  0.388033  0.388034  0.388033  1
  Pd  Pd10  1  0.617611  0.617610  0.617610  1
  Pd  Pd11  1  0.388034  0.388034  0.835901  1
  Pd  Pd12  1  0.388033  0.835901  0.388034  1
  Pd  Pd13  1  0.617611  0.617610  0.147169  1
  Pd  Pd14  1  0.617610  0.147169  0.617611  1
  Pd  Pd15  1  0.835902  0.388031  0.388034  1
  Pd  Pd16  1  0.147169  0.617610  0.617611  1
  Pd  Pd17  1  0.343756  0.998480  0.998480  1
  Pd  Pd18  1  0.659286  0.998479  0.998479  1
  Pd  Pd19  1  0.998479  0.343756  0.659286  1
  Pd  Pd20  1  0.998479  0.659287  0.343756  1
  Pd  Pd21  1  0.998479  0.343756  0.998480  1
  Pd  Pd22  1  0.659286  0.998479  0.343756  1
  Pd  Pd23  1  0.998479  0.659286  0.998480  1
  Pd  Pd24  1  0.343756  0.998479  0.659286  1
  Pd  Pd25  1  0.998479  0.998479  0.343757  1
  Pd  Pd26  1  0.998479  0.998479  0.659285  1
  Pd  Pd27  1  0.659286  0.343757  0.998479  1
  Pd  Pd28  1  0.343758  0.659286  0.998478  1
