# generated using pymatgen
data_YMn4Tl3F28
_symmetry_space_group_name_H-M   'P 1'
_cell_length_a   5.44259402
_cell_length_b   8.71375265
_cell_length_c   11.71447800
_cell_angle_alpha   62.51230624
_cell_angle_beta   90.00469517
_cell_angle_gamma   89.99859669
_symmetry_Int_Tables_number   1
_chemical_formula_structural   YMn4Tl3F28
_chemical_formula_sum   'Y1 Mn4 Tl3 F28'
_cell_volume   492.84638569
_cell_formula_units_Z   1
loop_
 _symmetry_equiv_pos_site_id
 _symmetry_equiv_pos_as_xyz
  1  'x, y, z'
loop_
 _atom_site_type_symbol
 _atom_site_label
 _atom_site_symmetry_multiplicity
 _atom_site_fract_x
 _atom_site_fract_y
 _atom_site_fract_z
 _atom_site_occupancy
  Y  Y0  1  0.760686  0.810257  0.764591  1
  Mn  Mn1  1  0.761802  0.274366  0.955370  1
  Mn  Mn2  1  0.259723  0.723724  0.544231  1
  Mn  Mn3  1  0.239968  0.724047  0.046027  1
  Mn  Mn4  1  0.738467  0.276183  0.454625  1
  Tl  Tl5  1  0.264986  0.190822  0.736110  1
  Tl  Tl6  1  0.237118  0.188991  0.236291  1
  Tl  Tl7  1  0.737086  0.810960  0.263634  1
  F  F8  1  0.429575  0.705945  0.923217  1
  F  F9  1  0.922240  0.300961  0.574927  1
  F  F10  1  0.577442  0.296673  0.077041  1
  F  F11  1  0.073467  0.700643  0.423610  1
  F  F12  1  0.448615  0.284423  0.534085  1
  F  F13  1  0.955238  0.720346  0.960710  1
  F  F14  1  0.548633  0.716397  0.462743  1
  F  F15  1  0.051755  0.280685  0.036647  1
  F  F16  1  0.776413  0.513443  0.861484  1
  F  F17  1  0.275459  0.483494  0.641098  1
  F  F18  1  0.223484  0.483278  0.140116  1
  F  F19  1  0.723045  0.516086  0.357405  1
  F  F20  1  0.759359  0.038419  0.042671  1
  F  F21  1  0.257828  0.959270  0.456687  1
  F  F22  1  0.241821  0.958771  0.960947  1
  F  F23  1  0.740339  0.039918  0.546051  1
  F  F24  1  0.981191  0.726346  0.633592  1
  F  F25  1  0.476389  0.276866  0.868244  1
  F  F26  1  0.023695  0.275158  0.367855  1
  F  F27  1  0.524113  0.721668  0.133872  1
  F  F28  1  0.055947  0.735466  0.176791  1
  F  F29  1  0.556964  0.259831  0.324092  1
  F  F30  1  0.944034  0.260568  0.824227  1
  F  F31  1  0.447369  0.740564  0.671275  1
  F  F32  1  0.394730  0.966964  0.224694  1
  F  F33  1  0.895101  0.032275  0.275317  1
  F  F34  1  0.597154  0.034531  0.773040  1
  F  F35  1  0.098760  0.971661  0.726681  1
