# generated using pymatgen
data_TmTh2(SnRu)3
_symmetry_space_group_name_H-M   'P 1'
_cell_length_a   7.53539275
_cell_length_b   7.31094483
_cell_length_c   4.10597400
_cell_angle_alpha   90.00000000
_cell_angle_beta   90.00000000
_cell_angle_gamma   119.01949236
_symmetry_Int_Tables_number   1
_chemical_formula_structural   TmTh2(SnRu)3
_chemical_formula_sum   'Tm1 Th2 Sn3 Ru3'
_cell_volume   197.80302148
_cell_formula_units_Z   1
loop_
 _symmetry_equiv_pos_site_id
 _symmetry_equiv_pos_as_xyz
  1  'x, y, z'
loop_
 _atom_site_type_symbol
 _atom_site_label
 _atom_site_symmetry_multiplicity
 _atom_site_fract_x
 _atom_site_fract_y
 _atom_site_fract_z
 _atom_site_occupancy
  Tm  Tm0  1  0.000000  0.591206  0.500000  1
  Th  Th1  1  0.413442  0.415252  0.500000  1
  Th  Th2  1  0.586558  0.001810  0.500000  1
  Sn  Sn3  1  0.764508  0.747419  0.000000  1
  Sn  Sn4  1  0.000000  0.266702  0.000000  1
  Sn  Sn5  1  0.235492  0.982912  0.000000  1
  Ru  Ru6  1  0.356594  0.670651  0.000000  1
  Ru  Ru7  1  0.000000  0.009992  0.500000  1
  Ru  Ru8  1  0.643406  0.314056  0.000000  1
