# generated using pymatgen
data_Ho5Th3Pt8
_symmetry_space_group_name_H-M   'P 1'
_cell_length_a   4.48858500
_cell_length_b   5.72022100
_cell_length_c   14.36349289
_cell_angle_alpha   89.56775788
_cell_angle_beta   90.00000000
_cell_angle_gamma   90.00000000
_symmetry_Int_Tables_number   1
_chemical_formula_structural   Ho5Th3Pt8
_chemical_formula_sum   'Ho5 Th3 Pt8'
_cell_volume   368.78221352
_cell_formula_units_Z   1
loop_
 _symmetry_equiv_pos_site_id
 _symmetry_equiv_pos_as_xyz
  1  'x, y, z'
loop_
 _atom_site_type_symbol
 _atom_site_label
 _atom_site_symmetry_multiplicity
 _atom_site_fract_x
 _atom_site_fract_y
 _atom_site_fract_z
 _atom_site_occupancy
  Ho  Ho0  1  0.250000  0.534362  0.284811  1
  Ho  Ho1  1  0.750000  0.471760  0.715770  1
  Ho  Ho2  1  0.250000  0.967186  0.781578  1
  Ho  Ho3  1  0.250000  0.751538  0.538124  1
  Ho  Ho4  1  0.250000  0.745769  0.032453  1
  Th  Th5  1  0.750000  0.257553  0.963010  1
  Th  Th6  1  0.750000  0.029283  0.215778  1
  Th  Th7  1  0.750000  0.245552  0.469626  1
  Pt  Pt8  1  0.250000  0.052939  0.351956  1
  Pt  Pt9  1  0.750000  0.550390  0.148400  1
  Pt  Pt10  1  0.750000  0.727660  0.399081  1
  Pt  Pt11  1  0.250000  0.447543  0.847975  1
  Pt  Pt12  1  0.750000  0.947593  0.648632  1
  Pt  Pt13  1  0.750000  0.774016  0.895672  1
  Pt  Pt14  1  0.250000  0.223502  0.101329  1
  Pt  Pt15  1  0.250000  0.273356  0.605804  1
