# generated using pymatgen
data_Al3GaTe4(O3F)4
_symmetry_space_group_name_H-M   'P 1'
_cell_length_a   4.99504866
_cell_length_b   5.10208351
_cell_length_c   12.51835102
_cell_angle_alpha   73.80295881
_cell_angle_beta   90.01163992
_cell_angle_gamma   89.71934969
_symmetry_Int_Tables_number   1
_chemical_formula_structural   Al3GaTe4(O3F)4
_chemical_formula_sum   'Al3 Ga1 Te4 O12 F4'
_cell_volume   306.36504310
_cell_formula_units_Z   1
loop_
 _symmetry_equiv_pos_site_id
 _symmetry_equiv_pos_as_xyz
  1  'x, y, z'
loop_
 _atom_site_type_symbol
 _atom_site_label
 _atom_site_symmetry_multiplicity
 _atom_site_fract_x
 _atom_site_fract_y
 _atom_site_fract_z
 _atom_site_occupancy
  Al  Al0  1  0.253294  0.105980  0.430829  1
  Al  Al1  1  0.756699  0.898484  0.067259  1
  Al  Al2  1  0.244085  0.099720  0.934092  1
  Ga  Ga3  1  0.738432  0.892759  0.569270  1
  Te  Te4  1  0.194166  0.323635  0.169328  1
  Te  Te5  1  0.693800  0.676082  0.328241  1
  Te  Te6  1  0.298700  0.321582  0.672290  1
  Te  Te7  1  0.806732  0.674441  0.832813  1
  O  O8  1  0.058610  0.118820  0.067593  1
  O  O9  1  0.118845  0.442323  0.845153  1
  O  O10  1  0.927640  0.930509  0.699757  1
  O  O11  1  0.382316  0.445450  0.340607  1
  O  O12  1  0.880605  0.556009  0.156232  1
  O  O13  1  0.619818  0.539837  0.663452  1
  O  O14  1  0.415629  0.064029  0.805181  1
  O  O15  1  0.941527  0.880024  0.933577  1
  O  O16  1  0.431166  0.127668  0.566566  1
  O  O17  1  0.078720  0.070321  0.302579  1
  O  O18  1  0.579004  0.932458  0.194509  1
  O  O19  1  0.556315  0.884528  0.428375  1
  F  F20  1  0.555757  0.228108  0.986651  1
  F  F21  1  0.072305  0.773139  0.509745  1
  F  F22  1  0.950647  0.241962  0.482991  1
  F  F23  1  0.445188  0.772133  0.012910  1
