# generated using pymatgen
data_CeTe28
_symmetry_space_group_name_H-M   'P 1'
_cell_length_a   11.93491943
_cell_length_b   10.68667793
_cell_length_c   12.44500700
_cell_angle_alpha   115.56274690
_cell_angle_beta   121.20208998
_cell_angle_gamma   89.00410682
_symmetry_Int_Tables_number   1
_chemical_formula_structural   CeTe28
_chemical_formula_sum   'Ce1 Te28'
_cell_volume   1180.26015739
_cell_formula_units_Z   1
loop_
 _symmetry_equiv_pos_site_id
 _symmetry_equiv_pos_as_xyz
  1  'x, y, z'
loop_
 _atom_site_type_symbol
 _atom_site_label
 _atom_site_symmetry_multiplicity
 _atom_site_fract_x
 _atom_site_fract_y
 _atom_site_fract_z
 _atom_site_occupancy
  Ce  Ce0  1  0.500000  0.000000  0.000000  1
  Te  Te1  1  0.212966  0.092258  0.408840  1
  Te  Te2  1  0.582265  0.155230  0.428128  1
  Te  Te3  1  0.278732  0.269385  0.882123  1
  Te  Te4  1  0.927283  0.312767  0.902315  1
  Te  Te5  1  0.203295  0.540541  0.710343  1
  Te  Te6  1  0.808267  0.528132  0.639285  1
  Te  Te7  1  0.417735  0.844770  0.571872  1
  Te  Te8  1  0.787034  0.907742  0.591160  1
  Te  Te9  1  0.072717  0.687233  0.097685  1
  Te  Te10  1  0.721268  0.730615  0.117877  1
  Te  Te11  1  0.191733  0.471868  0.360715  1
  Te  Te12  1  0.796705  0.459459  0.289657  1
  Te  Te13  1  0.760177  0.079460  0.841243  1
  Te  Te14  1  0.236463  0.974296  0.720342  1
  Te  Te15  1  0.806190  0.676569  0.895318  1
  Te  Te16  1  0.370779  0.750174  0.014331  1
  Te  Te17  1  0.514764  0.274433  0.246098  1
  Te  Te18  1  0.029935  0.277227  0.353521  1
  Te  Te19  1  0.763537  0.025704  0.279658  1
  Te  Te20  1  0.239823  0.920540  0.158757  1
  Te  Te21  1  0.629221  0.249826  0.985669  1
  Te  Te22  1  0.193810  0.323431  0.104682  1
  Te  Te23  1  0.970065  0.722773  0.646479  1
  Te  Te24  1  0.485236  0.725567  0.753902  1
  Te  Te25  1  0.047433  0.369938  0.735703  1
  Te  Te26  1  0.470111  0.286650  0.582595  1
  Te  Te27  1  0.529889  0.713350  0.417405  1
  Te  Te28  1  0.952567  0.630062  0.264297  1
