# generated using pymatgen
data_Ba4Pr7NpSe16
_symmetry_space_group_name_H-M   'P 1'
_cell_length_a   4.36716300
_cell_length_b   13.10118766
_cell_length_c   15.67990920
_cell_angle_alpha   90.11981594
_cell_angle_beta   90.00000000
_cell_angle_gamma   90.00000000
_symmetry_Int_Tables_number   1
_chemical_formula_structural   Ba4Pr7NpSe16
_chemical_formula_sum   'Ba4 Pr7 Np1 Se16'
_cell_volume   897.12438795
_cell_formula_units_Z   1
loop_
 _symmetry_equiv_pos_site_id
 _symmetry_equiv_pos_as_xyz
  1  'x, y, z'
loop_
 _atom_site_type_symbol
 _atom_site_label
 _atom_site_symmetry_multiplicity
 _atom_site_fract_x
 _atom_site_fract_y
 _atom_site_fract_z
 _atom_site_occupancy
  Ba  Ba0  1  0.250000  0.242361  0.336600  1
  Ba  Ba1  1  0.250000  0.742661  0.161948  1
  Ba  Ba2  1  0.750000  0.758249  0.663921  1
  Ba  Ba3  1  0.750000  0.258781  0.837576  1
  Pr  Pr4  1  0.250000  0.080011  0.601078  1
  Pr  Pr5  1  0.250000  0.581907  0.899519  1
  Pr  Pr6  1  0.750000  0.919303  0.399037  1
  Pr  Pr7  1  0.750000  0.419258  0.100826  1
  Pr  Pr8  1  0.250000  0.569945  0.391487  1
  Pr  Pr9  1  0.250000  0.068259  0.107784  1
  Pr  Pr10  1  0.750000  0.430296  0.608405  1
  Np  Np11  1  0.750000  0.933303  0.889650  1
  Se  Se12  1  0.250000  0.079941  0.919085  1
  Se  Se13  1  0.250000  0.584811  0.579718  1
  Se  Se14  1  0.750000  0.914633  0.075396  1
  Se  Se15  1  0.750000  0.415118  0.420541  1
  Se  Se16  1  0.250000  0.292725  0.675890  1
  Se  Se17  1  0.250000  0.797950  0.829736  1
  Se  Se18  1  0.750000  0.706884  0.324694  1
  Se  Se19  1  0.750000  0.206292  0.174933  1
  Se  Se20  1  0.250000  0.368852  0.973036  1
  Se  Se21  1  0.250000  0.868640  0.526352  1
  Se  Se22  1  0.750000  0.630273  0.026665  1
  Se  Se23  1  0.750000  0.130523  0.475306  1
  Se  Se24  1  0.250000  0.476153  0.217071  1
  Se  Se25  1  0.250000  0.976121  0.282447  1
  Se  Se26  1  0.750000  0.525266  0.782777  1
  Se  Se27  1  0.750000  0.021484  0.718522  1
