# generated using pymatgen
data_U2Hg(OF5)2
_symmetry_space_group_name_H-M   'P 1'
_cell_length_a   11.18136863
_cell_length_b   11.18136889
_cell_length_c   6.00785234
_cell_angle_alpha   86.54260327
_cell_angle_beta   86.54260032
_cell_angle_gamma   49.80180569
_symmetry_Int_Tables_number   1
_chemical_formula_structural   U2Hg(OF5)2
_chemical_formula_sum   'U4 Hg2 O4 F20'
_cell_volume   572.44809701
_cell_formula_units_Z   2
loop_
 _symmetry_equiv_pos_site_id
 _symmetry_equiv_pos_as_xyz
  1  'x, y, z'
loop_
 _atom_site_type_symbol
 _atom_site_label
 _atom_site_symmetry_multiplicity
 _atom_site_fract_x
 _atom_site_fract_y
 _atom_site_fract_z
 _atom_site_occupancy
  U  U0  1  0.375197  0.883315  0.830387  1
  U  U1  1  0.116685  0.624803  0.669613  1
  U  U2  1  0.624803  0.116685  0.169613  1
  U  U3  1  0.883315  0.375197  0.330387  1
  Hg  Hg4  1  0.381874  0.618126  0.250000  1
  Hg  Hg5  1  0.618126  0.381874  0.750000  1
  O  O6  1  0.448615  0.678341  0.969384  1
  O  O7  1  0.321659  0.551385  0.530616  1
  O  O8  1  0.551385  0.321659  0.030616  1
  O  O9  1  0.678341  0.448615  0.469384  1
  F  F10  1  0.330313  0.823880  0.542267  1
  F  F11  1  0.176120  0.669687  0.957733  1
  F  F12  1  0.669687  0.176120  0.457733  1
  F  F13  1  0.823880  0.330313  0.042267  1
  F  F14  1  0.296987  0.088202  0.682949  1
  F  F15  1  0.911798  0.703013  0.817051  1
  F  F16  1  0.703013  0.911798  0.317051  1
  F  F17  1  0.088202  0.296987  0.182949  1
  F  F18  1  0.594849  0.774810  0.703991  1
  F  F19  1  0.225190  0.405151  0.796009  1
  F  F20  1  0.405151  0.225190  0.296009  1
  F  F21  1  0.774810  0.594849  0.203991  1
  F  F22  1  0.421160  0.935720  0.115911  1
  F  F23  1  0.064280  0.578840  0.384089  1
  F  F24  1  0.578840  0.064280  0.884089  1
  F  F25  1  0.935720  0.421160  0.615911  1
  F  F26  1  0.155126  0.987600  0.955885  1
  F  F27  1  0.012400  0.844874  0.544115  1
  F  F28  1  0.844874  0.012400  0.044115  1
  F  F29  1  0.987600  0.155126  0.455885  1
