# generated using pymatgen
data_PrNd3(Nb3Si4)2
_symmetry_space_group_name_H-M   'P 1'
_cell_length_a   7.00752927
_cell_length_b   7.23927700
_cell_length_c   13.63014032
_cell_angle_alpha   90.00000000
_cell_angle_beta   90.00342007
_cell_angle_gamma   90.00000000
_symmetry_Int_Tables_number   1
_chemical_formula_structural   PrNd3(Nb3Si4)2
_chemical_formula_sum   'Pr2 Nd6 Nb12 Si16'
_cell_volume   691.44945867
_cell_formula_units_Z   2
loop_
 _symmetry_equiv_pos_site_id
 _symmetry_equiv_pos_as_xyz
  1  'x, y, z'
loop_
 _atom_site_type_symbol
 _atom_site_label
 _atom_site_symmetry_multiplicity
 _atom_site_fract_x
 _atom_site_fract_y
 _atom_site_fract_z
 _atom_site_occupancy
  Pr  Pr0  1  0.508283  0.330893  0.095823  1
  Pr  Pr1  1  0.008283  0.169107  0.095823  1
  Nd  Nd2  1  0.008184  0.169476  0.404160  1
  Nd  Nd3  1  0.508184  0.330524  0.404160  1
  Nd  Nd4  1  0.491933  0.669382  0.903530  1
  Nd  Nd5  1  0.491696  0.669576  0.596084  1
  Nd  Nd6  1  0.991696  0.830424  0.596084  1
  Nd  Nd7  1  0.991933  0.830618  0.903530  1
  Nb  Nb8  1  0.334129  0.175910  0.626074  1
  Nb  Nb9  1  0.665803  0.823930  0.374278  1
  Nb  Nb10  1  0.658253  0.012811  0.749773  1
  Nb  Nb11  1  0.165803  0.676070  0.374278  1
  Nb  Nb12  1  0.834185  0.324408  0.873547  1
  Nb  Nb13  1  0.834129  0.324090  0.626074  1
  Nb  Nb14  1  0.841643  0.513219  0.250300  1
  Nb  Nb15  1  0.341643  0.986781  0.250300  1
  Nb  Nb16  1  0.334185  0.175592  0.873547  1
  Nb  Nb17  1  0.165752  0.675894  0.126415  1
  Nb  Nb18  1  0.665752  0.824106  0.126415  1
  Nb  Nb19  1  0.158253  0.487189  0.749773  1
  Si  Si20  1  0.292350  0.885534  0.749791  1
  Si  Si21  1  0.462209  0.630353  0.250481  1
  Si  Si22  1  0.037673  0.129954  0.749870  1
  Si  Si23  1  0.537673  0.370046  0.749870  1
  Si  Si24  1  0.156025  0.460465  0.542786  1
  Si  Si25  1  0.962209  0.869647  0.250481  1
  Si  Si26  1  0.707402  0.113662  0.250730  1
  Si  Si27  1  0.844646  0.541201  0.042372  1
  Si  Si28  1  0.344646  0.958799  0.042372  1
  Si  Si29  1  0.155845  0.461031  0.956566  1
  Si  Si30  1  0.656025  0.039535  0.542786  1
  Si  Si31  1  0.343988  0.960637  0.457419  1
  Si  Si32  1  0.843988  0.539363  0.457419  1
  Si  Si33  1  0.792350  0.614466  0.749791  1
  Si  Si34  1  0.207402  0.386338  0.250730  1
  Si  Si35  1  0.655845  0.038969  0.956566  1
