# generated using pymatgen
data_K2Sc(TeO4)3
_symmetry_space_group_name_H-M   'P 1'
_cell_length_a   7.36040147
_cell_length_b   7.36040184
_cell_length_c   7.35523157
_cell_angle_alpha   59.93117106
_cell_angle_beta   59.93117300
_cell_angle_gamma   59.91863648
_symmetry_Int_Tables_number   1
_chemical_formula_structural   K2Sc(TeO4)3
_chemical_formula_sum   'K2 Sc1 Te3 O12'
_cell_volume   281.29666284
_cell_formula_units_Z   1
loop_
 _symmetry_equiv_pos_site_id
 _symmetry_equiv_pos_as_xyz
  1  'x, y, z'
loop_
 _atom_site_type_symbol
 _atom_site_label
 _atom_site_symmetry_multiplicity
 _atom_site_fract_x
 _atom_site_fract_y
 _atom_site_fract_z
 _atom_site_occupancy
  K  K0  1  0.116626  0.151727  0.623368  1
  K  K1  1  0.848273  0.883374  0.376632  1
  Sc  Sc2  1  0.497777  0.502223  0.000000  1
  Te  Te3  1  0.498997  0.001181  0.000290  1
  Te  Te4  1  0.998819  0.501003  0.999710  1
  Te  Te5  1  0.498668  0.501332  0.500000  1
  O  O6  1  0.820630  0.822424  0.922748  1
  O  O7  1  0.427286  0.426924  0.338321  1
  O  O8  1  0.427443  0.839718  0.925892  1
  O  O9  1  0.820224  0.423395  0.321273  1
  O  O10  1  0.837236  0.427971  0.926850  1
  O  O11  1  0.422886  0.822432  0.321640  1
  O  O12  1  0.177576  0.179370  0.077252  1
  O  O13  1  0.573076  0.572714  0.661679  1
  O  O14  1  0.572029  0.162764  0.073150  1
  O  O15  1  0.177568  0.577114  0.678360  1
  O  O16  1  0.160282  0.572557  0.074108  1
  O  O17  1  0.576605  0.179776  0.678727  1
