# generated using pymatgen
data_Ce4B6Os2Pb
_symmetry_space_group_name_H-M   'P 1'
_cell_length_a   5.43131162
_cell_length_b   5.43131236
_cell_length_c   8.63167354
_cell_angle_alpha   71.66241356
_cell_angle_beta   71.66242623
_cell_angle_gamma   59.99999218
_symmetry_Int_Tables_number   1
_chemical_formula_structural   Ce4B6Os2Pb
_chemical_formula_sum   'Ce4 B6 Os2 Pb1'
_cell_volume   205.44744808
_cell_formula_units_Z   1
loop_
 _symmetry_equiv_pos_site_id
 _symmetry_equiv_pos_as_xyz
  1  'x, y, z'
loop_
 _atom_site_type_symbol
 _atom_site_label
 _atom_site_symmetry_multiplicity
 _atom_site_fract_x
 _atom_site_fract_y
 _atom_site_fract_z
 _atom_site_occupancy
  Ce  Ce0  1  0.747657  0.747657  0.757029  1
  Ce  Ce1  1  0.252343  0.252343  0.242971  1
  Ce  Ce2  1  0.585904  0.585904  0.242286  1
  Ce  Ce3  1  0.414096  0.414096  0.757714  1
  B  B4  1  0.500000  0.173676  0.500000  1
  B  B5  1  0.826324  0.500000  0.500000  1
  B  B6  1  0.173676  0.826324  0.500000  1
  B  B7  1  0.173676  0.500000  0.500000  1
  B  B8  1  0.826324  0.173676  0.500000  1
  B  B9  1  0.500000  0.826324  0.500000  1
  Os  Os10  1  0.885088  0.885088  0.344738  1
  Os  Os11  1  0.114912  0.114912  0.655263  1
  Pb  Pb12  1  0.000000  0.000000  0.000000  1
