# generated using pymatgen
data_La2Tb3DyOsI10
_symmetry_space_group_name_H-M   'P 1'
_cell_length_a   7.90720575
_cell_length_b   9.96912305
_cell_length_c   9.88062986
_cell_angle_alpha   107.01027120
_cell_angle_beta   95.98515375
_cell_angle_gamma   105.89307541
_symmetry_Int_Tables_number   1
_chemical_formula_structural   La2Tb3DyOsI10
_chemical_formula_sum   'La2 Tb3 Dy1 Os1 I10'
_cell_volume   701.78235256
_cell_formula_units_Z   1
loop_
 _symmetry_equiv_pos_site_id
 _symmetry_equiv_pos_as_xyz
  1  'x, y, z'
loop_
 _atom_site_type_symbol
 _atom_site_label
 _atom_site_symmetry_multiplicity
 _atom_site_fract_x
 _atom_site_fract_y
 _atom_site_fract_z
 _atom_site_occupancy
  La  La0  1  0.385128  0.957160  0.730088  1
  La  La1  1  0.614328  0.042642  0.269697  1
  Tb  Tb2  1  0.472285  0.290395  0.588674  1
  Tb  Tb3  1  0.527381  0.709540  0.411149  1
  Tb  Tb4  1  0.854512  0.130876  0.669854  1
  Dy  Dy5  1  0.146757  0.869323  0.330633  1
  Os  Os6  1  0.499677  0.999895  0.499899  1
  I  I7  1  0.417509  0.622481  0.674478  1
  I  I8  1  0.582420  0.377505  0.325474  1
  I  I9  1  0.283889  0.266332  0.845764  1
  I  I10  1  0.716964  0.733926  0.154552  1
  I  I11  1  0.853110  0.451547  0.769614  1
  I  I12  1  0.146492  0.549098  0.230408  1
  I  I13  1  0.052994  0.179848  0.414116  1
  I  I14  1  0.227788  0.909673  0.043758  1
  I  I15  1  0.771756  0.090116  0.956699  1
  I  I16  1  0.947008  0.819642  0.585143  1
