# generated using pymatgen
data_PrPa3(HgPt2)2
_symmetry_space_group_name_H-M   'P 1'
_cell_length_a   7.93217514
_cell_length_b   7.93217514
_cell_length_c   3.66193500
_cell_angle_alpha   90.00000000
_cell_angle_beta   90.00000000
_cell_angle_gamma   91.90853297
_symmetry_Int_Tables_number   1
_chemical_formula_structural   PrPa3(HgPt2)2
_chemical_formula_sum   'Pr1 Pa3 Hg2 Pt4'
_cell_volume   230.27894757
_cell_formula_units_Z   1
loop_
 _symmetry_equiv_pos_site_id
 _symmetry_equiv_pos_as_xyz
  1  'x, y, z'
loop_
 _atom_site_type_symbol
 _atom_site_label
 _atom_site_symmetry_multiplicity
 _atom_site_fract_x
 _atom_site_fract_y
 _atom_site_fract_z
 _atom_site_occupancy
  Pr  Pr0  1  0.325484  0.174516  0.500000  1
  Pa  Pa1  1  0.826883  0.328802  0.500000  1
  Pa  Pa2  1  0.171198  0.673117  0.500000  1
  Pa  Pa3  1  0.671778  0.828222  0.500000  1
  Hg  Hg4  1  0.004588  0.000104  0.000000  1
  Hg  Hg5  1  0.499896  0.495412  0.000000  1
  Pt  Pt6  1  0.645977  0.120352  0.000000  1
  Pt  Pt7  1  0.111827  0.388173  0.000000  1
  Pt  Pt8  1  0.862722  0.637278  0.000000  1
  Pt  Pt9  1  0.379648  0.854023  0.000000  1
