# generated using pymatgen
data_Yb2Si2TcOs
_symmetry_space_group_name_H-M   'P 1'
_cell_length_a   4.33303400
_cell_length_b   4.33303400
_cell_length_c   6.46887300
_cell_angle_alpha   90.00000000
_cell_angle_beta   90.00000000
_cell_angle_gamma   90.00000000
_symmetry_Int_Tables_number   1
_chemical_formula_structural   Yb2Si2TcOs
_chemical_formula_sum   'Yb2 Si2 Tc1 Os1'
_cell_volume   121.45427855
_cell_formula_units_Z   1
loop_
 _symmetry_equiv_pos_site_id
 _symmetry_equiv_pos_as_xyz
  1  'x, y, z'
loop_
 _atom_site_type_symbol
 _atom_site_label
 _atom_site_symmetry_multiplicity
 _atom_site_fract_x
 _atom_site_fract_y
 _atom_site_fract_z
 _atom_site_occupancy
  Yb  Yb0  1  0.000000  0.500000  0.318038  1
  Yb  Yb1  1  0.500000  0.000000  0.681961  1
  Si  Si2  1  0.500000  0.000000  0.171572  1
  Si  Si3  1  0.000000  0.500000  0.828428  1
  Tc  Tc4  1  0.000000  0.000000  0.000000  1
  Os  Os5  1  0.500000  0.500000  0.000000  1
