# generated using pymatgen
data_Ba4U3BiSe12
_symmetry_space_group_name_H-M   'P 1'
_cell_length_a   4.34418400
_cell_length_b   9.22551987
_cell_length_c   15.42979748
_cell_angle_alpha   90.44402158
_cell_angle_beta   90.00000000
_cell_angle_gamma   90.00000000
_symmetry_Int_Tables_number   1
_chemical_formula_structural   Ba4U3BiSe12
_chemical_formula_sum   'Ba4 U3 Bi1 Se12'
_cell_volume   618.36691471
_cell_formula_units_Z   1
loop_
 _symmetry_equiv_pos_site_id
 _symmetry_equiv_pos_as_xyz
  1  'x, y, z'
loop_
 _atom_site_type_symbol
 _atom_site_label
 _atom_site_symmetry_multiplicity
 _atom_site_fract_x
 _atom_site_fract_y
 _atom_site_fract_z
 _atom_site_occupancy
  Ba  Ba0  1  0.750000  0.569143  0.182181  1
  Ba  Ba1  1  0.250000  0.431256  0.822232  1
  Ba  Ba2  1  0.750000  0.064111  0.324567  1
  Ba  Ba3  1  0.250000  0.928092  0.672516  1
  U  U4  1  0.750000  0.334297  0.557176  1
  U  U5  1  0.250000  0.167345  0.056764  1
  U  U6  1  0.750000  0.833997  0.943053  1
  Bi  Bi7  1  0.250000  0.675328  0.440469  1
  Se  Se8  1  0.750000  0.857008  0.507001  1
  Se  Se9  1  0.250000  0.169154  0.495307  1
  Se  Se10  1  0.750000  0.333684  0.992536  1
  Se  Se11  1  0.250000  0.668462  0.006785  1
  Se  Se12  1  0.250000  0.507809  0.612696  1
  Se  Se13  1  0.750000  0.457620  0.395057  1
  Se  Se14  1  0.250000  0.019894  0.893135  1
  Se  Se15  1  0.750000  0.980258  0.105489  1
  Se  Se16  1  0.250000  0.798736  0.275910  1
  Se  Se17  1  0.750000  0.205547  0.716422  1
  Se  Se18  1  0.250000  0.291965  0.217101  1
  Se  Se19  1  0.750000  0.706293  0.783603  1
