# generated using pymatgen
data_Yb11Dy(SiAg)12
_symmetry_space_group_name_H-M   'P 1'
_cell_length_a   4.50174200
_cell_length_b   7.70879101
_cell_length_c   21.32548698
_cell_angle_alpha   89.97948966
_cell_angle_beta   90.00000000
_cell_angle_gamma   90.00000000
_symmetry_Int_Tables_number   1
_chemical_formula_structural   Yb11Dy(SiAg)12
_chemical_formula_sum   'Yb11 Dy1 Si12 Ag12'
_cell_volume   740.05807698
_cell_formula_units_Z   1
loop_
 _symmetry_equiv_pos_site_id
 _symmetry_equiv_pos_as_xyz
  1  'x, y, z'
loop_
 _atom_site_type_symbol
 _atom_site_label
 _atom_site_symmetry_multiplicity
 _atom_site_fract_x
 _atom_site_fract_y
 _atom_site_fract_z
 _atom_site_occupancy
  Yb  Yb0  1  0.250000  0.219835  0.000497  1
  Yb  Yb1  1  0.250000  0.281780  0.499678  1
  Yb  Yb2  1  0.750000  0.777428  0.001450  1
  Yb  Yb3  1  0.750000  0.717522  0.500611  1
  Yb  Yb4  1  0.250000  0.202771  0.333538  1
  Yb  Yb5  1  0.250000  0.291360  0.832386  1
  Yb  Yb6  1  0.750000  0.795127  0.666086  1
  Yb  Yb7  1  0.750000  0.703432  0.166628  1
  Yb  Yb8  1  0.250000  0.209898  0.666182  1
  Yb  Yb9  1  0.250000  0.292493  0.167116  1
  Yb  Yb10  1  0.750000  0.793301  0.332995  1
  Dy  Dy11  1  0.750000  0.710352  0.833721  1
  Si  Si12  1  0.250000  0.582281  0.727351  1
  Si  Si13  1  0.250000  0.917768  0.223711  1
  Si  Si14  1  0.750000  0.418136  0.276129  1
  Si  Si15  1  0.750000  0.078018  0.775923  1
  Si  Si16  1  0.250000  0.913090  0.106338  1
  Si  Si17  1  0.250000  0.587277  0.607986  1
  Si  Si18  1  0.750000  0.085531  0.893185  1
  Si  Si19  1  0.750000  0.413182  0.393169  1
  Si  Si20  1  0.250000  0.594381  0.917596  1
  Si  Si21  1  0.250000  0.908887  0.428326  1
  Si  Si22  1  0.750000  0.410032  0.070537  1
  Si  Si23  1  0.750000  0.091566  0.572054  1
  Ag  Ag24  1  0.250000  0.913362  0.761617  1
  Ag  Ag25  1  0.250000  0.587450  0.262355  1
  Ag  Ag26  1  0.750000  0.088009  0.237954  1
  Ag  Ag27  1  0.750000  0.410998  0.738154  1
  Ag  Ag28  1  0.250000  0.923264  0.906542  1
  Ag  Ag29  1  0.250000  0.581536  0.405563  1
  Ag  Ag30  1  0.750000  0.081730  0.094401  1
  Ag  Ag31  1  0.750000  0.418774  0.594660  1
  Ag  Ag32  1  0.250000  0.916249  0.565572  1
  Ag  Ag33  1  0.250000  0.583058  0.067966  1
  Ag  Ag34  1  0.750000  0.083593  0.434662  1
  Ag  Ag35  1  0.750000  0.416530  0.937365  1
