# generated using pymatgen
data_LiEr2AsP
_symmetry_space_group_name_H-M   'P 1'
_cell_length_a   4.09252700
_cell_length_b   4.09252508
_cell_length_c   13.78351500
_cell_angle_alpha   90.00000000
_cell_angle_beta   90.00000000
_cell_angle_gamma   119.99999125
_symmetry_Int_Tables_number   1
_chemical_formula_structural   LiEr2AsP
_chemical_formula_sum   'Li2 Er4 As2 P2'
_cell_volume   199.92797002
_cell_formula_units_Z   2
loop_
 _symmetry_equiv_pos_site_id
 _symmetry_equiv_pos_as_xyz
  1  'x, y, z'
loop_
 _atom_site_type_symbol
 _atom_site_label
 _atom_site_symmetry_multiplicity
 _atom_site_fract_x
 _atom_site_fract_y
 _atom_site_fract_z
 _atom_site_occupancy
  Li  Li0  1  0.000000  0.000000  0.250000  1
  Li  Li1  1  0.000000  0.000000  0.750000  1
  Er  Er2  1  0.333333  0.666667  0.393311  1
  Er  Er3  1  0.666667  0.333333  0.606689  1
  Er  Er4  1  0.666667  0.333333  0.893311  1
  Er  Er5  1  0.333333  0.666667  0.106689  1
  As  As6  1  0.333333  0.666667  0.750000  1
  As  As7  1  0.666667  0.333333  0.250000  1
  P  P8  1  0.000000  0.000000  0.500000  1
  P  P9  1  0.000000  0.000000  0.000000  1
