# generated using pymatgen
data_V6GaTc3Ge2
_symmetry_space_group_name_H-M   'P 1'
_cell_length_a   4.81394327
_cell_length_b   4.77861691
_cell_length_c   14.26947113
_cell_angle_alpha   90.00596672
_cell_angle_beta   89.95463150
_cell_angle_gamma   90.07008927
_symmetry_Int_Tables_number   1
_chemical_formula_structural   V6GaTc3Ge2
_chemical_formula_sum   'V12 Ga2 Tc6 Ge4'
_cell_volume   328.25443114
_cell_formula_units_Z   2
loop_
 _symmetry_equiv_pos_site_id
 _symmetry_equiv_pos_as_xyz
  1  'x, y, z'
loop_
 _atom_site_type_symbol
 _atom_site_label
 _atom_site_symmetry_multiplicity
 _atom_site_fract_x
 _atom_site_fract_y
 _atom_site_fract_z
 _atom_site_occupancy
  V  V0  1  0.998252  0.497944  0.584051  1
  V  V1  1  0.500924  0.246607  0.999918  1
  V  V2  1  0.501477  0.246871  0.333521  1
  V  V3  1  0.000123  0.498046  0.746389  1
  V  V4  1  0.998261  0.500009  0.083015  1
  V  V5  1  0.999054  0.501277  0.420210  1
  V  V6  1  0.498759  0.749758  0.665680  1
  V  V7  1  0.501010  0.754417  0.000097  1
  V  V8  1  0.501243  0.754303  0.333356  1
  V  V9  1  0.251648  0.000072  0.832968  1
  V  V10  1  0.250906  0.999550  0.167169  1
  V  V11  1  0.250762  0.999964  0.500532  1
  Ga  Ga12  1  0.496729  0.502068  0.833104  1
  Ga  Ga13  1  0.495686  0.499713  0.165142  1
  Tc  Tc14  1  0.999644  0.501090  0.916634  1
  Tc  Tc15  1  0.000142  0.499915  0.251837  1
  Tc  Tc16  1  0.499254  0.250678  0.665745  1
  Tc  Tc17  1  0.747260  0.000034  0.833461  1
  Tc  Tc18  1  0.747141  0.000123  0.166845  1
  Tc  Tc19  1  0.751898  0.000190  0.499735  1
  Ge  Ge20  1  0.492394  0.502592  0.497480  1
  Ge  Ge21  1  0.003494  0.993677  0.666831  1
  Ge  Ge22  1  0.006649  0.000447  0.001287  1
  Ge  Ge23  1  0.007290  0.000657  0.334995  1
