# generated using pymatgen
data_MnTe2Br3
_symmetry_space_group_name_H-M   'P 1'
_cell_length_a   3.92718949
_cell_length_b   7.65942520
_cell_length_c   8.11444700
_cell_angle_alpha   114.29315957
_cell_angle_beta   82.75990166
_cell_angle_gamma   99.01401699
_symmetry_Int_Tables_number   1
_chemical_formula_structural   MnTe2Br3
_chemical_formula_sum   'Mn1 Te2 Br3'
_cell_volume   219.20771309
_cell_formula_units_Z   1
loop_
 _symmetry_equiv_pos_site_id
 _symmetry_equiv_pos_as_xyz
  1  'x, y, z'
loop_
 _atom_site_type_symbol
 _atom_site_label
 _atom_site_symmetry_multiplicity
 _atom_site_fract_x
 _atom_site_fract_y
 _atom_site_fract_z
 _atom_site_occupancy
  Mn  Mn0  1  0.972643  0.087873  0.824091  1
  Te  Te1  1  0.872124  0.234709  0.208630  1
  Te  Te2  1  0.427946  0.526866  0.338150  1
  Br  Br3  1  0.590985  0.308142  0.807525  1
  Br  Br4  1  0.298755  0.881653  0.903809  1
  Br  Br5  1  0.991276  0.885924  0.490607  1
