# generated using pymatgen
data_Dy3Cd(Rh2O7)2
_symmetry_space_group_name_H-M   'P 1'
_cell_length_a   7.17785641
_cell_length_b   7.17785725
_cell_length_c   7.17785622
_cell_angle_alpha   61.05293204
_cell_angle_beta   61.05293002
_cell_angle_gamma   61.05292218
_symmetry_Int_Tables_number   1
_chemical_formula_structural   Dy3Cd(Rh2O7)2
_chemical_formula_sum   'Dy3 Cd1 Rh4 O14'
_cell_volume   267.69833835
_cell_formula_units_Z   1
loop_
 _symmetry_equiv_pos_site_id
 _symmetry_equiv_pos_as_xyz
  1  'x, y, z'
loop_
 _atom_site_type_symbol
 _atom_site_label
 _atom_site_symmetry_multiplicity
 _atom_site_fract_x
 _atom_site_fract_y
 _atom_site_fract_z
 _atom_site_occupancy
  Dy  Dy0  1  0.125000  0.625000  0.125000  1
  Dy  Dy1  1  0.625000  0.125000  0.125000  1
  Dy  Dy2  1  0.125000  0.125000  0.625000  1
  Cd  Cd3  1  0.125000  0.125000  0.125000  1
  Rh  Rh4  1  0.625000  0.625000  0.625000  1
  Rh  Rh5  1  0.625000  0.625000  0.125000  1
  Rh  Rh6  1  0.125000  0.625000  0.625000  1
  Rh  Rh7  1  0.625000  0.125000  0.625000  1
  O  O8  1  0.250179  0.250179  0.250179  1
  O  O9  1  0.295627  0.697598  0.295627  1
  O  O10  1  0.954373  0.954373  0.552402  1
  O  O11  1  0.537987  0.960142  0.537987  1
  O  O12  1  0.712013  0.712013  0.289858  1
  O  O13  1  0.960142  0.537987  0.537987  1
  O  O14  1  0.712013  0.289858  0.712013  1
  O  O15  1  0.295627  0.295627  0.697598  1
  O  O16  1  0.697598  0.295627  0.295627  1
  O  O17  1  0.289858  0.712013  0.712013  1
  O  O18  1  0.954373  0.552402  0.954373  1
  O  O19  1  0.537987  0.537987  0.960142  1
  O  O20  1  0.999821  0.999821  0.999821  1
  O  O21  1  0.552402  0.954373  0.954373  1
