# generated using pymatgen
data_YbY4(OsO6)2
_symmetry_space_group_name_H-M   'P 1'
_cell_length_a   6.87740113
_cell_length_b   6.87740101
_cell_length_c   7.55394701
_cell_angle_alpha   73.94224521
_cell_angle_beta   73.94224547
_cell_angle_gamma   48.49258181
_symmetry_Int_Tables_number   1
_chemical_formula_structural   YbY4(OsO6)2
_chemical_formula_sum   'Yb1 Y4 Os2 O12'
_cell_volume   254.95555184
_cell_formula_units_Z   1
loop_
 _symmetry_equiv_pos_site_id
 _symmetry_equiv_pos_as_xyz
  1  'x, y, z'
loop_
 _atom_site_type_symbol
 _atom_site_label
 _atom_site_symmetry_multiplicity
 _atom_site_fract_x
 _atom_site_fract_y
 _atom_site_fract_z
 _atom_site_occupancy
  Yb  Yb0  1  0.184608  0.184608  0.174395  1
  Y  Y1  1  0.503812  0.503812  0.499205  1
  Y  Y2  1  0.812831  0.812831  0.824696  1
  Y  Y3  1  0.799977  0.799977  0.360033  1
  Y  Y4  1  0.198798  0.198798  0.636716  1
  Os  Os5  1  0.718026  0.281234  0.001074  1
  Os  Os6  1  0.281234  0.718026  0.001074  1
  O  O7  1  0.998695  0.998695  0.170597  1
  O  O8  1  0.001061  0.001061  0.827118  1
  O  O9  1  0.497097  0.497097  0.800332  1
  O  O10  1  0.501373  0.501373  0.202448  1
  O  O11  1  0.600542  0.096095  0.573693  1
  O  O12  1  0.901291  0.404412  0.433580  1
  O  O13  1  0.404412  0.901291  0.433580  1
  O  O14  1  0.414450  0.910512  0.912170  1
  O  O15  1  0.084848  0.590338  0.081712  1
  O  O16  1  0.590338  0.084848  0.081712  1
  O  O17  1  0.910512  0.414450  0.912170  1
  O  O18  1  0.096095  0.600542  0.573693  1
