# generated using pymatgen
data_Hf4Zr6Sn6S
_symmetry_space_group_name_H-M   'P 1'
_cell_length_a   5.82566700
_cell_length_b   8.56465274
_cell_length_c   8.56468500
_cell_angle_alpha   119.99957650
_cell_angle_beta   89.99958448
_cell_angle_gamma   90.00009565
_symmetry_Int_Tables_number   1
_chemical_formula_structural   Hf4Zr6Sn6S
_chemical_formula_sum   'Hf4 Zr6 Sn6 S1'
_cell_volume   370.08313551
_cell_formula_units_Z   1
loop_
 _symmetry_equiv_pos_site_id
 _symmetry_equiv_pos_as_xyz
  1  'x, y, z'
loop_
 _atom_site_type_symbol
 _atom_site_label
 _atom_site_symmetry_multiplicity
 _atom_site_fract_x
 _atom_site_fract_y
 _atom_site_fract_z
 _atom_site_occupancy
  Hf  Hf0  1  0.500000  0.333334  0.666666  1
  Hf  Hf1  1  0.500000  0.666662  0.333330  1
  Hf  Hf2  1  0.999999  0.666662  0.333329  1
  Hf  Hf3  1  0.000000  0.333337  0.666671  1
  Zr  Zr4  1  0.756556  0.250284  0.999977  1
  Zr  Zr5  1  0.756545  0.749684  0.749712  1
  Zr  Zr6  1  0.756545  0.000023  0.250311  1
  Zr  Zr7  1  0.243447  0.749688  0.999975  1
  Zr  Zr8  1  0.243454  0.250293  0.250314  1
  Zr  Zr9  1  0.243454  0.000031  0.749713  1
  Sn  Sn10  1  0.750726  0.605387  0.999949  1
  Sn  Sn11  1  0.750730  0.394553  0.394604  1
  Sn  Sn12  1  0.750729  0.000054  0.605447  1
  Sn  Sn13  1  0.249277  0.394555  0.999949  1
  Sn  Sn14  1  0.249270  0.605391  0.605440  1
  Sn  Sn15  1  0.249270  0.000054  0.394607  1
  S  S16  1  0.500000  0.000012  0.000005  1
