# generated using pymatgen
data_LaPr4Dy(CI5)2
_symmetry_space_group_name_H-M   'P 1'
_cell_length_a   7.96376220
_cell_length_b   9.75215460
_cell_length_c   9.85624326
_cell_angle_alpha   107.23475107
_cell_angle_beta   96.87048674
_cell_angle_gamma   104.65047762
_symmetry_Int_Tables_number   1
_chemical_formula_structural   LaPr4Dy(CI5)2
_chemical_formula_sum   'La1 Pr4 Dy1 C2 I10'
_cell_volume   691.47541171
_cell_formula_units_Z   1
loop_
 _symmetry_equiv_pos_site_id
 _symmetry_equiv_pos_as_xyz
  1  'x, y, z'
loop_
 _atom_site_type_symbol
 _atom_site_label
 _atom_site_symmetry_multiplicity
 _atom_site_fract_x
 _atom_site_fract_y
 _atom_site_fract_z
 _atom_site_occupancy
  La  La0  1  0.377241  0.137185  0.183859  1
  Pr  Pr1  1  0.029116  0.733128  0.922043  1
  Pr  Pr2  1  0.104983  0.038649  0.775195  1
  Pr  Pr3  1  0.967442  0.265855  0.075640  1
  Pr  Pr4  1  0.890713  0.958671  0.222493  1
  Dy  Dy5  1  0.633453  0.867810  0.822763  1
  C  C6  1  0.085376  0.029594  0.040606  1
  C  C7  1  0.910061  0.969049  0.958043  1
  I  I8  1  0.201536  0.735146  0.647941  1
  I  I9  1  0.910866  0.628876  0.179937  1
  I  I10  1  0.087835  0.370288  0.818650  1
  I  I11  1  0.735329  0.911181  0.545035  1
  I  I12  1  0.252025  0.084140  0.465035  1
  I  I13  1  0.646728  0.550143  0.725840  1
  I  I14  1  0.460120  0.806470  0.081541  1
  I  I15  1  0.816023  0.269644  0.359914  1
  I  I16  1  0.345391  0.463388  0.274482  1
  I  I17  1  0.545763  0.180784  0.900987  1
