# generated using pymatgen
data_Tb2Sc2CrFeB12
_symmetry_space_group_name_H-M   'P 1'
_cell_length_a   3.45512100
_cell_length_b   8.96716097
_cell_length_c   11.35617726
_cell_angle_alpha   89.87950452
_cell_angle_beta   90.00000000
_cell_angle_gamma   90.00000000
_symmetry_Int_Tables_number   1
_chemical_formula_structural   Tb2Sc2CrFeB12
_chemical_formula_sum   'Tb4 Sc4 Cr2 Fe2 B24'
_cell_volume   351.84341686
_cell_formula_units_Z   2
loop_
 _symmetry_equiv_pos_site_id
 _symmetry_equiv_pos_as_xyz
  1  'x, y, z'
loop_
 _atom_site_type_symbol
 _atom_site_label
 _atom_site_symmetry_multiplicity
 _atom_site_fract_x
 _atom_site_fract_y
 _atom_site_fract_z
 _atom_site_occupancy
  Tb  Tb0  1  0.000000  0.822554  0.084923  1
  Tb  Tb1  1  0.000000  0.177446  0.915077  1
  Tb  Tb2  1  0.000000  0.321974  0.414371  1
  Tb  Tb3  1  0.000000  0.678026  0.585629  1
  Sc  Sc4  1  0.000000  0.443541  0.129666  1
  Sc  Sc5  1  0.000000  0.556459  0.870334  1
  Sc  Sc6  1  0.000000  0.944107  0.370167  1
  Sc  Sc7  1  0.000000  0.055893  0.629833  1
  Cr  Cr8  1  0.000000  0.641842  0.316672  1
  Cr  Cr9  1  0.000000  0.358158  0.683328  1
  Fe  Fe10  1  0.000000  0.141371  0.182047  1
  Fe  Fe11  1  0.000000  0.858629  0.817953  1
  B  B12  1  0.500000  0.056432  0.069542  1
  B  B13  1  0.500000  0.943568  0.930458  1
  B  B14  1  0.500000  0.554781  0.431448  1
  B  B15  1  0.500000  0.445219  0.568552  1
  B  B16  1  0.500000  0.251573  0.083959  1
  B  B17  1  0.500000  0.748427  0.916041  1
  B  B18  1  0.500000  0.752918  0.417055  1
  B  B19  1  0.500000  0.247082  0.582945  1
  B  B20  1  0.500000  0.292165  0.234327  1
  B  B21  1  0.500000  0.707835  0.765673  1
  B  B22  1  0.500000  0.795217  0.264544  1
  B  B23  1  0.500000  0.204783  0.735456  1
  B  B24  1  0.500000  0.129317  0.315089  1
  B  B25  1  0.500000  0.870683  0.684911  1
  B  B26  1  0.500000  0.629787  0.183093  1
  B  B27  1  0.500000  0.370213  0.816907  1
  B  B28  1  0.500000  0.482136  0.285521  1
  B  B29  1  0.500000  0.517864  0.714479  1
  B  B30  1  0.500000  0.985052  0.213359  1
  B  B31  1  0.500000  0.014948  0.786641  1
  B  B32  1  0.500000  0.097047  0.473430  1
  B  B33  1  0.500000  0.902953  0.526570  1
  B  B34  1  0.500000  0.597567  0.025746  1
  B  B35  1  0.500000  0.402433  0.974254  1
