# generated using pymatgen
data_Cd2In9Ir4Au
_symmetry_space_group_name_H-M   'P 1'
_cell_length_a   7.16316253
_cell_length_b   7.16556410
_cell_length_c   7.15825100
_cell_angle_alpha   90.00000000
_cell_angle_beta   90.00000000
_cell_angle_gamma   90.12000041
_symmetry_Int_Tables_number   1
_chemical_formula_structural   Cd2In9Ir4Au
_chemical_formula_sum   'Cd2 In9 Ir4 Au1'
_cell_volume   367.41861900
_cell_formula_units_Z   1
loop_
 _symmetry_equiv_pos_site_id
 _symmetry_equiv_pos_as_xyz
  1  'x, y, z'
loop_
 _atom_site_type_symbol
 _atom_site_label
 _atom_site_symmetry_multiplicity
 _atom_site_fract_x
 _atom_site_fract_y
 _atom_site_fract_z
 _atom_site_occupancy
  Cd  Cd0  1  0.000000  0.500000  0.000000  1
  Cd  Cd1  1  0.500000  0.000000  0.000000  1
  In  In2  1  0.324606  0.350159  0.267009  1
  In  In3  1  0.154402  0.832599  0.764176  1
  In  In4  1  0.154402  0.832599  0.235824  1
  In  In5  1  0.845598  0.167401  0.235824  1
  In  In6  1  0.845598  0.167401  0.764176  1
  In  In7  1  0.675394  0.649841  0.267009  1
  In  In8  1  0.675394  0.649841  0.732991  1
  In  In9  1  0.324606  0.350159  0.732991  1
  In  In10  1  0.500000  0.000000  0.500000  1
  Ir  Ir11  1  0.151425  0.150028  0.000000  1
  Ir  Ir12  1  0.641129  0.338618  0.500000  1
  Ir  Ir13  1  0.358871  0.661382  0.500000  1
  Ir  Ir14  1  0.848575  0.849972  0.000000  1
  Au  Au15  1  0.000000  0.500000  0.500000  1
