# generated using pymatgen
data_NdDy3CdPt
_symmetry_space_group_name_H-M   'P 1'
_cell_length_a   9.78720684
_cell_length_b   9.74789609
_cell_length_c   9.74789559
_cell_angle_alpha   60.26698409
_cell_angle_beta   59.86651103
_cell_angle_gamma   59.86651091
_symmetry_Int_Tables_number   1
_chemical_formula_structural   NdDy3CdPt
_chemical_formula_sum   'Nd4 Dy12 Cd4 Pt4'
_cell_volume   657.58419348
_cell_formula_units_Z   4
loop_
 _symmetry_equiv_pos_site_id
 _symmetry_equiv_pos_as_xyz
  1  'x, y, z'
loop_
 _atom_site_type_symbol
 _atom_site_label
 _atom_site_symmetry_multiplicity
 _atom_site_fract_x
 _atom_site_fract_y
 _atom_site_fract_z
 _atom_site_occupancy
  Nd  Nd0  1  0.564633  0.935367  0.564633  1
  Nd  Nd1  1  0.935367  0.564633  0.935367  1
  Nd  Nd2  1  0.564633  0.564633  0.935367  1
  Nd  Nd3  1  0.935367  0.935367  0.564633  1
  Dy  Dy4  1  0.351043  0.350738  0.350738  1
  Dy  Dy5  1  0.350738  0.351043  0.947481  1
  Dy  Dy6  1  0.350738  0.947481  0.351043  1
  Dy  Dy7  1  0.947481  0.350738  0.350738  1
  Dy  Dy8  1  0.810654  0.189346  0.189346  1
  Dy  Dy9  1  0.189346  0.810654  0.810654  1
  Dy  Dy10  1  0.189765  0.810235  0.189765  1
  Dy  Dy11  1  0.810235  0.189765  0.810235  1
  Dy  Dy12  1  0.189765  0.189765  0.810235  1
  Dy  Dy13  1  0.810235  0.810235  0.189765  1
  Dy  Dy14  1  0.940622  0.559378  0.559378  1
  Dy  Dy15  1  0.559378  0.940622  0.940622  1
  Cd  Cd16  1  0.582755  0.579207  0.579207  1
  Cd  Cd17  1  0.579207  0.582755  0.258832  1
  Cd  Cd18  1  0.579207  0.258832  0.582755  1
  Cd  Cd19  1  0.258832  0.579207  0.579207  1
  Pt  Pt20  1  0.144670  0.141920  0.141920  1
  Pt  Pt21  1  0.141920  0.144670  0.571489  1
  Pt  Pt22  1  0.141920  0.571489  0.144670  1
  Pt  Pt23  1  0.571489  0.141920  0.141920  1
