# generated using pymatgen
data_La3(GaSi2)2
_symmetry_space_group_name_H-M   'P 1'
_cell_length_a   4.38863172
_cell_length_b   4.24137100
_cell_length_c   21.70204849
_cell_angle_alpha   84.39220720
_cell_angle_beta   95.80313860
_cell_angle_gamma   90.00000572
_symmetry_Int_Tables_number   1
_chemical_formula_structural   La3(GaSi2)2
_chemical_formula_sum   'La6 Ga4 Si8'
_cell_volume   399.94440608
_cell_formula_units_Z   2
loop_
 _symmetry_equiv_pos_site_id
 _symmetry_equiv_pos_as_xyz
  1  'x, y, z'
loop_
 _atom_site_type_symbol
 _atom_site_label
 _atom_site_symmetry_multiplicity
 _atom_site_fract_x
 _atom_site_fract_y
 _atom_site_fract_z
 _atom_site_occupancy
  La  La0  1  0.374723  0.875277  0.249444  1
  La  La1  1  0.040088  0.209912  0.580176  1
  La  La2  1  0.705177  0.544823  0.910356  1
  La  La3  1  0.294186  0.455814  0.088371  1
  La  La4  1  0.960334  0.789666  0.420667  1
  La  La5  1  0.625795  0.124205  0.751587  1
  Ga  Ga6  1  0.904052  0.345948  0.308105  1
  Ga  Ga7  1  0.569778  0.680222  0.639554  1
  Ga  Ga8  1  0.235899  0.014101  0.971798  1
  Ga  Ga9  1  0.763683  0.986317  0.027365  1
  Si  Si10  1  0.431449  0.318551  0.362897  1
  Si  Si11  1  0.096622  0.653378  0.693243  1
  Si  Si12  1  0.847497  0.402503  0.194996  1
  Si  Si13  1  0.512986  0.737014  0.525972  1
  Si  Si14  1  0.179296  0.070704  0.858589  1
  Si  Si15  1  0.820352  0.929648  0.140704  1
  Si  Si16  1  0.486413  0.263587  0.472828  1
  Si  Si17  1  0.151674  0.598326  0.803347  1
