# generated using pymatgen
data_SmCuAuO4
_symmetry_space_group_name_H-M   'P 1'
_cell_length_a   6.56324439
_cell_length_b   6.56324470
_cell_length_c   6.51740787
_cell_angle_alpha   125.82404464
_cell_angle_beta   125.93156449
_cell_angle_gamma   80.56487480
_symmetry_Int_Tables_number   1
_chemical_formula_structural   SmCuAuO4
_chemical_formula_sum   'Sm2 Cu2 Au2 O8'
_cell_volume   177.29343346
_cell_formula_units_Z   2
loop_
 _symmetry_equiv_pos_site_id
 _symmetry_equiv_pos_as_xyz
  1  'x, y, z'
loop_
 _atom_site_type_symbol
 _atom_site_label
 _atom_site_symmetry_multiplicity
 _atom_site_fract_x
 _atom_site_fract_y
 _atom_site_fract_z
 _atom_site_occupancy
  Sm  Sm0  1  0.000051  0.000051  0.000000  1
  Sm  Sm1  1  0.749949  0.249949  0.500000  1
  Cu  Cu2  1  0.375000  0.125000  0.750000  1
  Cu  Cu3  1  0.375000  0.625000  0.250000  1
  Au  Au4  1  0.875000  0.625000  0.250000  1
  Au  Au5  1  0.375000  0.625000  0.750000  1
  O  O6  1  0.401931  0.856040  0.156699  1
  O  O7  1  0.699340  0.245231  0.843301  1
  O  O8  1  0.348069  0.393960  0.343301  1
  O  O9  1  0.050660  0.004769  0.656699  1
  O  O10  1  0.015189  0.652635  0.055037  1
  O  O11  1  0.597599  0.960154  0.944963  1
  O  O12  1  0.152401  0.289846  0.555037  1
  O  O13  1  0.734811  0.597365  0.444963  1
