# generated using pymatgen
data_Nd5Ga3P9Ir19
_symmetry_space_group_name_H-M   'P 1'
_cell_length_a   12.93597600
_cell_length_b   12.93597514
_cell_length_c   4.01506000
_cell_angle_alpha   90.00000000
_cell_angle_beta   90.00000000
_cell_angle_gamma   119.99999197
_symmetry_Int_Tables_number   1
_chemical_formula_structural   Nd5Ga3P9Ir19
_chemical_formula_sum   'Nd5 Ga3 P9 Ir19'
_cell_volume   581.86345301
_cell_formula_units_Z   1
loop_
 _symmetry_equiv_pos_site_id
 _symmetry_equiv_pos_as_xyz
  1  'x, y, z'
loop_
 _atom_site_type_symbol
 _atom_site_label
 _atom_site_symmetry_multiplicity
 _atom_site_fract_x
 _atom_site_fract_y
 _atom_site_fract_z
 _atom_site_occupancy
  Nd  Nd0  1  0.333333  0.666667  0.500000  1
  Nd  Nd1  1  0.666667  0.333333  0.500000  1
  Nd  Nd2  1  0.183455  0.183455  0.000000  1
  Nd  Nd3  1  0.816545  0.000000  0.000000  1
  Nd  Nd4  1  0.000000  0.816545  0.000000  1
  Ga  Ga5  1  0.360216  0.360216  0.500000  1
  Ga  Ga6  1  0.639784  0.000000  0.500000  1
  Ga  Ga7  1  0.000000  0.639784  0.500000  1
  P  P8  1  0.307443  0.825300  0.000000  1
  P  P9  1  0.174700  0.482142  0.000000  1
  P  P10  1  0.517858  0.692557  0.000000  1
  P  P11  1  0.825300  0.307443  0.000000  1
  P  P12  1  0.482142  0.174700  0.000000  1
  P  P13  1  0.692557  0.517858  0.000000  1
  P  P14  1  0.818773  0.818773  0.500000  1
  P  P15  1  0.181227  0.000000  0.500000  1
  P  P16  1  0.000000  0.181227  0.500000  1
  Ir  Ir17  1  0.206700  0.826617  0.500000  1
  Ir  Ir18  1  0.173383  0.380083  0.500000  1
  Ir  Ir19  1  0.619917  0.793300  0.500000  1
  Ir  Ir20  1  0.826617  0.206700  0.500000  1
  Ir  Ir21  1  0.380083  0.173383  0.500000  1
  Ir  Ir22  1  0.793300  0.619917  0.500000  1
  Ir  Ir23  1  0.130956  0.635363  0.000000  1
  Ir  Ir24  1  0.364637  0.495593  0.000000  1
  Ir  Ir25  1  0.504407  0.869044  0.000000  1
  Ir  Ir26  1  0.635363  0.130956  0.000000  1
  Ir  Ir27  1  0.495593  0.364637  0.000000  1
  Ir  Ir28  1  0.869044  0.504407  0.000000  1
  Ir  Ir29  1  0.551087  0.551087  0.500000  1
  Ir  Ir30  1  0.448913  0.000000  0.500000  1
  Ir  Ir31  1  0.000000  0.448913  0.500000  1
  Ir  Ir32  1  0.711992  0.711992  0.000000  1
  Ir  Ir33  1  0.288008  0.000000  0.000000  1
  Ir  Ir34  1  0.000000  0.288008  0.000000  1
  Ir  Ir35  1  0.000000  0.000000  0.500000  1
