# generated using pymatgen
data_ErScReB6
_symmetry_space_group_name_H-M   'P 1'
_cell_length_a   3.57400900
_cell_length_b   8.99471000
_cell_length_c   11.35585400
_cell_angle_alpha   90.00000000
_cell_angle_beta   90.00000000
_cell_angle_gamma   90.00000000
_symmetry_Int_Tables_number   1
_chemical_formula_structural   ErScReB6
_chemical_formula_sum   'Er4 Sc4 Re4 B24'
_cell_volume   365.05862005
_cell_formula_units_Z   4
loop_
 _symmetry_equiv_pos_site_id
 _symmetry_equiv_pos_as_xyz
  1  'x, y, z'
loop_
 _atom_site_type_symbol
 _atom_site_label
 _atom_site_symmetry_multiplicity
 _atom_site_fract_x
 _atom_site_fract_y
 _atom_site_fract_z
 _atom_site_occupancy
  Er  Er0  1  0.000000  0.321792  0.413809  1
  Er  Er1  1  0.000000  0.678208  0.586191  1
  Er  Er2  1  0.000000  0.821792  0.086191  1
  Er  Er3  1  0.000000  0.178208  0.913809  1
  Sc  Sc4  1  0.000000  0.944328  0.370726  1
  Sc  Sc5  1  0.000000  0.055672  0.629274  1
  Sc  Sc6  1  0.000000  0.444328  0.129274  1
  Sc  Sc7  1  0.000000  0.555672  0.870726  1
  Re  Re8  1  0.000000  0.640692  0.318780  1
  Re  Re9  1  0.000000  0.359308  0.681220  1
  Re  Re10  1  0.000000  0.140692  0.181220  1
  Re  Re11  1  0.000000  0.859308  0.818780  1
  B  B12  1  0.500000  0.553987  0.433073  1
  B  B13  1  0.500000  0.446013  0.566927  1
  B  B14  1  0.500000  0.053987  0.066927  1
  B  B15  1  0.500000  0.946013  0.933073  1
  B  B16  1  0.500000  0.754491  0.419108  1
  B  B17  1  0.500000  0.245509  0.580892  1
  B  B18  1  0.500000  0.254491  0.080892  1
  B  B19  1  0.500000  0.745509  0.919108  1
  B  B20  1  0.500000  0.795492  0.264854  1
  B  B21  1  0.500000  0.204508  0.735146  1
  B  B22  1  0.500000  0.295492  0.235146  1
  B  B23  1  0.500000  0.704508  0.764854  1
  B  B24  1  0.500000  0.629476  0.183038  1
  B  B25  1  0.500000  0.370524  0.816962  1
  B  B26  1  0.500000  0.129476  0.316962  1
  B  B27  1  0.500000  0.870524  0.683038  1
  B  B28  1  0.500000  0.981077  0.213416  1
  B  B29  1  0.500000  0.018923  0.786584  1
  B  B30  1  0.500000  0.481077  0.286584  1
  B  B31  1  0.500000  0.518923  0.713416  1
  B  B32  1  0.500000  0.596008  0.026291  1
  B  B33  1  0.500000  0.403992  0.973709  1
  B  B34  1  0.500000  0.096008  0.473709  1
  B  B35  1  0.500000  0.903992  0.526291  1
