# generated using pymatgen
data_Ti13Al9Rh7W
_symmetry_space_group_name_H-M   'P 1'
_cell_length_a   8.75689224
_cell_length_b   8.75689195
_cell_length_c   8.75689254
_cell_angle_alpha   59.60715162
_cell_angle_beta   59.60715324
_cell_angle_gamma   59.60716119
_symmetry_Int_Tables_number   1
_chemical_formula_structural   Ti13Al9Rh7W
_chemical_formula_sum   'Ti13 Al9 Rh7 W1'
_cell_volume   470.58708200
_cell_formula_units_Z   1
loop_
 _symmetry_equiv_pos_site_id
 _symmetry_equiv_pos_as_xyz
  1  'x, y, z'
loop_
 _atom_site_type_symbol
 _atom_site_label
 _atom_site_symmetry_multiplicity
 _atom_site_fract_x
 _atom_site_fract_y
 _atom_site_fract_z
 _atom_site_occupancy
  Ti  Ti0  1  0.215755  0.215755  0.785352  1
  Ti  Ti1  1  0.785352  0.215755  0.215755  1
  Ti  Ti2  1  0.215755  0.785352  0.215755  1
  Ti  Ti3  1  0.793949  0.793949  0.191678  1
  Ti  Ti4  1  0.191678  0.793949  0.793949  1
  Ti  Ti5  1  0.793949  0.191678  0.793949  1
  Ti  Ti6  1  0.378033  0.378033  0.378033  1
  Ti  Ti7  1  0.378903  0.867628  0.378903  1
  Ti  Ti8  1  0.867628  0.378903  0.378903  1
  Ti  Ti9  1  0.378903  0.378903  0.867628  1
  Ti  Ti10  1  0.847114  0.460073  0.847114  1
  Ti  Ti11  1  0.460073  0.847114  0.847114  1
  Ti  Ti12  1  0.847114  0.847114  0.460073  1
  Al  Al13  1  0.150300  0.150300  0.150300  1
  Al  Al14  1  0.153932  0.543692  0.153932  1
  Al  Al15  1  0.543692  0.153932  0.153932  1
  Al  Al16  1  0.153932  0.153932  0.543692  1
  Al  Al17  1  0.619114  0.619114  0.619114  1
  Al  Al18  1  0.620377  0.141791  0.620377  1
  Al  Al19  1  0.141791  0.620377  0.620377  1
  Al  Al20  1  0.620377  0.620377  0.141791  1
  Al  Al21  1  0.831928  0.831928  0.831928  1
  Rh  Rh22  1  0.003447  0.003447  0.498213  1
  Rh  Rh23  1  0.498213  0.003447  0.003447  1
  Rh  Rh24  1  0.003447  0.498213  0.003447  1
  Rh  Rh25  1  0.500543  0.500543  0.000645  1
  Rh  Rh26  1  0.000645  0.500543  0.500543  1
  Rh  Rh27  1  0.500543  0.000645  0.500543  1
  Rh  Rh28  1  0.500141  0.500141  0.500141  1
  W  W29  1  0.003376  0.003376  0.003376  1
