# generated using pymatgen
data_Yb4Ni2(OsRu)3
_symmetry_space_group_name_H-M   'P 1'
_cell_length_a   5.06185633
_cell_length_b   5.28485504
_cell_length_c   8.57347200
_cell_angle_alpha   90.00000000
_cell_angle_beta   90.00000000
_cell_angle_gamma   118.16642261
_symmetry_Int_Tables_number   1
_chemical_formula_structural   Yb4Ni2(OsRu)3
_chemical_formula_sum   'Yb4 Ni2 Os3 Ru3'
_cell_volume   202.19083761
_cell_formula_units_Z   1
loop_
 _symmetry_equiv_pos_site_id
 _symmetry_equiv_pos_as_xyz
  1  'x, y, z'
loop_
 _atom_site_type_symbol
 _atom_site_label
 _atom_site_symmetry_multiplicity
 _atom_site_fract_x
 _atom_site_fract_y
 _atom_site_fract_z
 _atom_site_occupancy
  Yb  Yb0  1  0.665393  0.336701  0.564159  1
  Yb  Yb1  1  0.329546  0.663070  0.434470  1
  Yb  Yb2  1  0.329546  0.663070  0.065530  1
  Yb  Yb3  1  0.665393  0.336701  0.935841  1
  Ni  Ni4  1  0.173982  0.351268  0.750000  1
  Ni  Ni5  1  0.832825  0.653212  0.250000  1
  Os  Os6  1  0.181115  0.842347  0.750000  1
  Os  Os7  1  0.664597  0.844328  0.750000  1
  Os  Os8  1  0.827369  0.155473  0.250000  1
  Ru  Ru9  1  0.992001  0.997764  0.500474  1
  Ru  Ru10  1  0.992001  0.997764  0.999526  1
  Ru  Ru11  1  0.346229  0.158304  0.250000  1
