# generated using pymatgen
data_Tm7LuTc2(B12Rh)2
_symmetry_space_group_name_H-M   'P 1'
_cell_length_a   3.63343500
_cell_length_b   9.06500283
_cell_length_c   11.44721907
_cell_angle_alpha   90.34675886
_cell_angle_beta   90.00000000
_cell_angle_gamma   90.00000000
_symmetry_Int_Tables_number   1
_chemical_formula_structural   Tm7LuTc2(B12Rh)2
_chemical_formula_sum   'Tm7 Lu1 Tc2 B24 Rh2'
_cell_volume   377.03127780
_cell_formula_units_Z   1
loop_
 _symmetry_equiv_pos_site_id
 _symmetry_equiv_pos_as_xyz
  1  'x, y, z'
loop_
 _atom_site_type_symbol
 _atom_site_label
 _atom_site_symmetry_multiplicity
 _atom_site_fract_x
 _atom_site_fract_y
 _atom_site_fract_z
 _atom_site_occupancy
  Tm  Tm0  1  0.500000  0.317655  0.410951  1
  Tm  Tm1  1  0.500000  0.682251  0.588946  1
  Tm  Tm2  1  0.500000  0.173795  0.917319  1
  Tm  Tm3  1  0.500000  0.826221  0.082810  1
  Tm  Tm4  1  0.500000  0.442069  0.126781  1
  Tm  Tm5  1  0.500000  0.557906  0.873262  1
  Tm  Tm6  1  0.500000  0.053640  0.628169  1
  Lu  Lu7  1  0.500000  0.946454  0.371577  1
  Tc  Tc8  1  0.500000  0.139093  0.180244  1
  Tc  Tc9  1  0.500000  0.860593  0.819947  1
  B  B10  1  0.000000  0.106107  0.471200  1
  B  B11  1  0.000000  0.893635  0.528136  1
  B  B12  1  0.000000  0.394395  0.970670  1
  B  B13  1  0.000000  0.605610  0.029353  1
  B  B14  1  0.000000  0.131994  0.315582  1
  B  B15  1  0.000000  0.867670  0.684545  1
  B  B16  1  0.000000  0.367334  0.816934  1
  B  B17  1  0.000000  0.632725  0.183101  1
  B  B18  1  0.000000  0.053246  0.067072  1
  B  B19  1  0.000000  0.946733  0.933001  1
  B  B20  1  0.000000  0.445512  0.565448  1
  B  B21  1  0.000000  0.554567  0.434522  1
  B  B22  1  0.000000  0.483241  0.287801  1
  B  B23  1  0.000000  0.516790  0.712210  1
  B  B24  1  0.000000  0.017147  0.787016  1
  B  B25  1  0.000000  0.982653  0.213299  1
  B  B26  1  0.000000  0.248962  0.080637  1
  B  B27  1  0.000000  0.751005  0.919380  1
  B  B28  1  0.000000  0.250048  0.578468  1
  B  B29  1  0.000000  0.750314  0.421431  1
  B  B30  1  0.000000  0.293618  0.235196  1
  B  B31  1  0.000000  0.706272  0.764838  1
  B  B32  1  0.000000  0.207659  0.735341  1
  B  B33  1  0.000000  0.792686  0.264790  1
  Rh  Rh34  1  0.500000  0.361471  0.678700  1
  Rh  Rh35  1  0.500000  0.638932  0.321323  1
