# generated using pymatgen
data_Y5HoAl24Os7Au
_symmetry_space_group_name_H-M   'P 1'
_cell_length_a   8.86312176
_cell_length_b   8.86312122
_cell_length_c   9.56262804
_cell_angle_alpha   89.81122932
_cell_angle_beta   90.18877320
_cell_angle_gamma   119.95184166
_symmetry_Int_Tables_number   1
_chemical_formula_structural   Y5HoAl24Os7Au
_chemical_formula_sum   'Y5 Ho1 Al24 Os7 Au1'
_cell_volume   650.86168081
_cell_formula_units_Z   1
loop_
 _symmetry_equiv_pos_site_id
 _symmetry_equiv_pos_as_xyz
  1  'x, y, z'
loop_
 _atom_site_type_symbol
 _atom_site_label
 _atom_site_symmetry_multiplicity
 _atom_site_fract_x
 _atom_site_fract_y
 _atom_site_fract_z
 _atom_site_occupancy
  Y  Y0  1  0.190347  0.385944  0.251006  1
  Y  Y1  1  0.809713  0.613851  0.748988  1
  Y  Y2  1  0.614056  0.809653  0.251006  1
  Y  Y3  1  0.386149  0.190287  0.748988  1
  Y  Y4  1  0.194402  0.805598  0.253701  1
  Ho  Ho5  1  0.805231  0.194769  0.746244  1
  Al  Al6  1  0.328411  0.671589  0.021271  1
  Al  Al7  1  0.671724  0.328276  0.978308  1
  Al  Al8  1  0.666304  0.333696  0.517959  1
  Al  Al9  1  0.333825  0.666175  0.482409  1
  Al  Al10  1  0.162646  0.325901  0.575344  1
  Al  Al11  1  0.837038  0.673908  0.424948  1
  Al  Al12  1  0.674099  0.837354  0.575344  1
  Al  Al13  1  0.848469  0.677427  0.079116  1
  Al  Al14  1  0.326092  0.162962  0.424948  1
  Al  Al15  1  0.151121  0.322352  0.920546  1
  Al  Al16  1  0.163305  0.836695  0.575148  1
  Al  Al17  1  0.322573  0.151531  0.079116  1
  Al  Al18  1  0.836685  0.163315  0.425328  1
  Al  Al19  1  0.677648  0.848879  0.920546  1
  Al  Al20  1  0.836584  0.163416  0.075021  1
  Al  Al21  1  0.163408  0.836592  0.924516  1
  Al  Al22  1  0.561063  0.121648  0.249275  1
  Al  Al23  1  0.439434  0.878647  0.750736  1
  Al  Al24  1  0.878352  0.438937  0.249275  1
  Al  Al25  1  0.121353  0.560566  0.750736  1
  Al  Al26  1  0.563789  0.436211  0.256014  1
  Al  Al27  1  0.436191  0.563809  0.743963  1
  Al  Al28  1  0.999513  0.000487  0.250383  1
  Al  Al29  1  0.000018  0.999982  0.749594  1
  Os  Os30  1  0.500336  0.000210  0.999724  1
  Os  Os31  1  0.999790  0.499664  0.999724  1
  Os  Os32  1  0.500478  0.000270  0.500395  1
  Os  Os33  1  0.999730  0.499522  0.500395  1
  Os  Os34  1  0.500049  0.499951  0.499990  1
  Os  Os35  1  0.000020  0.999980  0.000012  1
  Os  Os36  1  0.000025  0.999975  0.499974  1
  Au  Au37  1  0.500031  0.499969  0.000009  1
