# generated using pymatgen
data_Ca2BPt6
_symmetry_space_group_name_H-M   'P 1'
_cell_length_a   5.92736107
_cell_length_b   5.92736133
_cell_length_c   5.92736100
_cell_angle_alpha   59.99999629
_cell_angle_beta   59.99999483
_cell_angle_gamma   59.99999479
_symmetry_Int_Tables_number   1
_chemical_formula_structural   Ca2BPt6
_chemical_formula_sum   'Ca2 B1 Pt6'
_cell_volume   147.25468491
_cell_formula_units_Z   1
loop_
 _symmetry_equiv_pos_site_id
 _symmetry_equiv_pos_as_xyz
  1  'x, y, z'
loop_
 _atom_site_type_symbol
 _atom_site_label
 _atom_site_symmetry_multiplicity
 _atom_site_fract_x
 _atom_site_fract_y
 _atom_site_fract_z
 _atom_site_occupancy
  Ca  Ca0  1  0.250001  0.250001  0.250001  1
  Ca  Ca1  1  0.750000  0.750000  0.750000  1
  B  B2  1  0.500000  0.500000  0.500000  1
  Pt  Pt3  1  0.757149  0.757149  0.242851  1
  Pt  Pt4  1  0.242851  0.757149  0.242851  1
  Pt  Pt5  1  0.757149  0.242851  0.242851  1
  Pt  Pt6  1  0.242851  0.242851  0.757149  1
  Pt  Pt7  1  0.757149  0.242851  0.757149  1
  Pt  Pt8  1  0.242851  0.757149  0.757149  1
