# generated using pymatgen
data_La2Hg(SeO3)4
_symmetry_space_group_name_H-M   'P 1'
_cell_length_a   7.19682000
_cell_length_b   8.58164990
_cell_length_c   11.60527718
_cell_angle_alpha   74.54538458
_cell_angle_beta   90.00000000
_cell_angle_gamma   90.00000000
_symmetry_Int_Tables_number   1
_chemical_formula_structural   La2Hg(SeO3)4
_chemical_formula_sum   'La4 Hg2 Se8 O24'
_cell_volume   690.83243995
_cell_formula_units_Z   2
loop_
 _symmetry_equiv_pos_site_id
 _symmetry_equiv_pos_as_xyz
  1  'x, y, z'
loop_
 _atom_site_type_symbol
 _atom_site_label
 _atom_site_symmetry_multiplicity
 _atom_site_fract_x
 _atom_site_fract_y
 _atom_site_fract_z
 _atom_site_occupancy
  La  La0  1  0.660431  0.769419  0.080355  1
  La  La1  1  0.160431  0.730581  0.919645  1
  La  La2  1  0.339569  0.230581  0.919645  1
  La  La3  1  0.839569  0.269419  0.080355  1
  Hg  Hg4  1  0.500000  0.500000  0.500000  1
  Hg  Hg5  1  0.000000  0.000000  0.500000  1
  Se  Se6  1  0.677867  0.614038  0.834053  1
  Se  Se7  1  0.177867  0.885962  0.165947  1
  Se  Se8  1  0.322133  0.385962  0.165947  1
  Se  Se9  1  0.822133  0.114038  0.834053  1
  Se  Se10  1  0.334534  0.091910  0.663617  1
  Se  Se11  1  0.834534  0.408090  0.336383  1
  Se  Se12  1  0.665466  0.908090  0.336383  1
  Se  Se13  1  0.165466  0.591910  0.663617  1
  O  O14  1  0.400739  0.272907  0.686079  1
  O  O15  1  0.900739  0.227093  0.313921  1
  O  O16  1  0.599261  0.727093  0.313921  1
  O  O17  1  0.099261  0.772907  0.686079  1
  O  O18  1  0.620184  0.415223  0.859334  1
  O  O19  1  0.120184  0.084777  0.140666  1
  O  O20  1  0.379816  0.584777  0.140666  1
  O  O21  1  0.879816  0.915223  0.859334  1
  O  O22  1  0.843289  0.589388  0.949407  1
  O  O23  1  0.343289  0.910612  0.050593  1
  O  O24  1  0.156711  0.410612  0.050593  1
  O  O25  1  0.656711  0.089388  0.949407  1
  O  O26  1  0.124086  0.159102  0.584751  1
  O  O27  1  0.624086  0.340898  0.415249  1
  O  O28  1  0.875914  0.840898  0.415249  1
  O  O29  1  0.375914  0.659102  0.584751  1
  O  O30  1  0.506910  0.704526  0.900487  1
  O  O31  1  0.006910  0.795474  0.099513  1
  O  O32  1  0.493090  0.295474  0.099513  1
  O  O33  1  0.993090  0.204526  0.900487  1
  O  O34  1  0.269022  0.005147  0.808447  1
  O  O35  1  0.769022  0.494853  0.191553  1
  O  O36  1  0.730978  0.994853  0.191553  1
  O  O37  1  0.230978  0.505147  0.808447  1
