# generated using pymatgen
data_Hf5ReSn2
_symmetry_space_group_name_H-M   'P 1'
_cell_length_a   5.59613184
_cell_length_b   8.34981397
_cell_length_c   8.34981399
_cell_angle_alpha   83.55234681
_cell_angle_beta   70.42106722
_cell_angle_gamma   70.42107060
_symmetry_Int_Tables_number   1
_chemical_formula_structural   Hf5ReSn2
_chemical_formula_sum   'Hf10 Re2 Sn4'
_cell_volume   346.34584649
_cell_formula_units_Z   2
loop_
 _symmetry_equiv_pos_site_id
 _symmetry_equiv_pos_as_xyz
  1  'x, y, z'
loop_
 _atom_site_type_symbol
 _atom_site_label
 _atom_site_symmetry_multiplicity
 _atom_site_fract_x
 _atom_site_fract_y
 _atom_site_fract_z
 _atom_site_occupancy
  Hf  Hf0  1  0.073515  0.133636  0.719332  1
  Hf  Hf1  1  0.926485  0.866364  0.280668  1
  Hf  Hf2  1  0.792848  0.280668  0.133636  1
  Hf  Hf3  1  0.426485  0.280668  0.866364  1
  Hf  Hf4  1  0.207152  0.719332  0.866364  1
  Hf  Hf5  1  0.573515  0.719332  0.133636  1
  Hf  Hf6  1  0.707152  0.866364  0.719332  1
  Hf  Hf7  1  0.292848  0.133636  0.280668  1
  Hf  Hf8  1  0.250000  0.500000  0.500000  1
  Hf  Hf9  1  0.750000  0.500000  0.500000  1
  Re  Re10  1  0.250000  0.000000  0.000000  1
  Re  Re11  1  0.750000  0.000000  0.000000  1
  Sn  Sn12  1  0.163258  0.500000  0.173484  1
  Sn  Sn13  1  0.836742  0.500000  0.826516  1
  Sn  Sn14  1  0.336742  0.826516  0.500000  1
  Sn  Sn15  1  0.663258  0.173484  0.500000  1
