# generated using pymatgen
data_Y3(TlCd2)2
_symmetry_space_group_name_H-M   'P 1'
_cell_length_a   7.56690000
_cell_length_b   7.56690032
_cell_length_c   4.62470400
_cell_angle_alpha   90.00000000
_cell_angle_beta   90.00000000
_cell_angle_gamma   119.99999859
_symmetry_Int_Tables_number   1
_chemical_formula_structural   Y3(TlCd2)2
_chemical_formula_sum   'Y3 Tl2 Cd4'
_cell_volume   229.32456951
_cell_formula_units_Z   1
loop_
 _symmetry_equiv_pos_site_id
 _symmetry_equiv_pos_as_xyz
  1  'x, y, z'
loop_
 _atom_site_type_symbol
 _atom_site_label
 _atom_site_symmetry_multiplicity
 _atom_site_fract_x
 _atom_site_fract_y
 _atom_site_fract_z
 _atom_site_occupancy
  Y  Y0  1  0.000000  0.570771  0.000000  1
  Y  Y1  1  0.570771  0.000000  0.000000  1
  Y  Y2  1  0.429229  0.429229  0.000000  1
  Tl  Tl3  1  0.333333  0.666667  0.500000  1
  Tl  Tl4  1  0.666667  0.333333  0.500000  1
  Cd  Cd5  1  0.000000  0.238587  0.500000  1
  Cd  Cd6  1  0.761413  0.761413  0.500000  1
  Cd  Cd7  1  0.238587  0.000000  0.500000  1
  Cd  Cd8  1  0.000000  0.000000  0.000000  1
