# generated using pymatgen
data_Ti8Mn4FeIr3
_symmetry_space_group_name_H-M   'P 1'
_cell_length_a   6.04949100
_cell_length_b   4.27678900
_cell_length_c   8.55226000
_cell_angle_alpha   90.00000000
_cell_angle_beta   90.00025042
_cell_angle_gamma   90.00000000
_symmetry_Int_Tables_number   1
_chemical_formula_structural   Ti8Mn4FeIr3
_chemical_formula_sum   'Ti8 Mn4 Fe1 Ir3'
_cell_volume   221.26746224
_cell_formula_units_Z   1
loop_
 _symmetry_equiv_pos_site_id
 _symmetry_equiv_pos_as_xyz
  1  'x, y, z'
loop_
 _atom_site_type_symbol
 _atom_site_label
 _atom_site_symmetry_multiplicity
 _atom_site_fract_x
 _atom_site_fract_y
 _atom_site_fract_z
 _atom_site_occupancy
  Ti  Ti0  1  0.503595  0.749999  0.118892  1
  Ti  Ti1  1  0.996544  0.749999  0.118895  1
  Ti  Ti2  1  0.499013  0.249999  0.375090  1
  Ti  Ti3  1  0.001102  0.249999  0.375082  1
  Ti  Ti4  1  0.996241  0.749999  0.631137  1
  Ti  Ti5  1  0.503627  0.749999  0.631111  1
  Ti  Ti6  1  0.991661  0.249999  0.874915  1
  Ti  Ti7  1  0.508207  0.249999  0.874896  1
  Mn  Mn8  1  0.750043  0.249999  0.124075  1
  Mn  Mn9  1  0.250041  0.749999  0.375030  1
  Mn  Mn10  1  0.749981  0.249999  0.625876  1
  Mn  Mn11  1  0.249949  0.749999  0.875003  1
  Fe  Fe12  1  0.749954  0.749999  0.874966  1
  Ir  Ir13  1  0.250051  0.249999  0.123691  1
  Ir  Ir14  1  0.750037  0.749999  0.375024  1
  Ir  Ir15  1  0.249957  0.249999  0.626319  1
