# generated using pymatgen
data_YTm3Si4OsRh3
_symmetry_space_group_name_H-M   'P 1'
_cell_length_a   4.25977600
_cell_length_b   6.85744087
_cell_length_c   7.30330283
_cell_angle_alpha   89.94142160
_cell_angle_beta   90.00000000
_cell_angle_gamma   90.00000000
_symmetry_Int_Tables_number   1
_chemical_formula_structural   YTm3Si4OsRh3
_chemical_formula_sum   'Y1 Tm3 Si4 Os1 Rh3'
_cell_volume   213.33785085
_cell_formula_units_Z   1
loop_
 _symmetry_equiv_pos_site_id
 _symmetry_equiv_pos_as_xyz
  1  'x, y, z'
loop_
 _atom_site_type_symbol
 _atom_site_label
 _atom_site_symmetry_multiplicity
 _atom_site_fract_x
 _atom_site_fract_y
 _atom_site_fract_z
 _atom_site_occupancy
  Y  Y0  1  0.250000  0.499644  0.684741  1
  Tm  Tm1  1  0.750000  0.502966  0.311534  1
  Tm  Tm2  1  0.250000  0.993541  0.811201  1
  Tm  Tm3  1  0.750000  0.004013  0.190132  1
  Si  Si4  1  0.250000  0.299345  0.107461  1
  Si  Si5  1  0.250000  0.796492  0.383068  1
  Si  Si6  1  0.750000  0.703683  0.901726  1
  Si  Si7  1  0.750000  0.202079  0.608211  1
  Os  Os8  1  0.250000  0.656445  0.067971  1
  Rh  Rh9  1  0.250000  0.154623  0.432157  1
  Rh  Rh10  1  0.750000  0.844866  0.566337  1
  Rh  Rh11  1  0.750000  0.342303  0.935461  1
