# generated using pymatgen
data_TaTcBC
_symmetry_space_group_name_H-M   'P 1'
_cell_length_a   8.86838662
_cell_length_b   8.86838689
_cell_length_c   3.12267100
_cell_angle_alpha   90.00000000
_cell_angle_beta   90.00000000
_cell_angle_gamma   159.69264843
_symmetry_Int_Tables_number   1
_chemical_formula_structural   TaTcBC
_chemical_formula_sum   'Ta2 Tc2 B2 C2'
_cell_volume   85.23442230
_cell_formula_units_Z   2
loop_
 _symmetry_equiv_pos_site_id
 _symmetry_equiv_pos_as_xyz
  1  'x, y, z'
loop_
 _atom_site_type_symbol
 _atom_site_label
 _atom_site_symmetry_multiplicity
 _atom_site_fract_x
 _atom_site_fract_y
 _atom_site_fract_z
 _atom_site_occupancy
  Ta  Ta0  1  0.684549  0.315451  0.750000  1
  Ta  Ta1  1  0.315451  0.684549  0.250000  1
  Tc  Tc2  1  0.931656  0.068344  0.750000  1
  Tc  Tc3  1  0.068344  0.931656  0.250000  1
  B  B4  1  0.529336  0.470664  0.750000  1
  B  B5  1  0.470664  0.529336  0.250000  1
  C  C6  1  0.810406  0.189594  0.750000  1
  C  C7  1  0.189594  0.810406  0.250000  1
