# generated using pymatgen
data_Nd2Tm18Si15Pd
_symmetry_space_group_name_H-M   'P 1'
_cell_length_a   7.35251942
_cell_length_b   7.70614761
_cell_length_c   14.51895500
_cell_angle_alpha   89.69246898
_cell_angle_beta   89.98059624
_cell_angle_gamma   89.97712222
_symmetry_Int_Tables_number   1
_chemical_formula_structural   Nd2Tm18Si15Pd
_chemical_formula_sum   'Nd2 Tm18 Si15 Pd1'
_cell_volume   822.62622062
_cell_formula_units_Z   1
loop_
 _symmetry_equiv_pos_site_id
 _symmetry_equiv_pos_as_xyz
  1  'x, y, z'
loop_
 _atom_site_type_symbol
 _atom_site_label
 _atom_site_symmetry_multiplicity
 _atom_site_fract_x
 _atom_site_fract_y
 _atom_site_fract_z
 _atom_site_occupancy
  Nd  Nd0  1  0.520500  0.570139  0.342029  1
  Nd  Nd1  1  0.021564  0.428555  0.657024  1
  Tm  Tm2  1  0.811421  0.576861  0.875772  1
  Tm  Tm3  1  0.319001  0.425314  0.124837  1
  Tm  Tm4  1  0.180803  0.927070  0.373968  1
  Tm  Tm5  1  0.680495  0.069643  0.626518  1
  Tm  Tm6  1  0.181075  0.926198  0.627249  1
  Tm  Tm7  1  0.680456  0.071279  0.372250  1
  Tm  Tm8  1  0.815501  0.573060  0.125659  1
  Tm  Tm9  1  0.321752  0.429198  0.874051  1
  Tm  Tm10  1  0.647487  0.230751  0.999193  1
  Tm  Tm11  1  0.157358  0.761686  0.001011  1
  Tm  Tm12  1  0.349233  0.262220  0.499810  1
  Tm  Tm13  1  0.848020  0.736250  0.499680  1
  Tm  Tm14  1  0.477990  0.931245  0.844445  1
  Tm  Tm15  1  0.977263  0.068497  0.154220  1
  Tm  Tm16  1  0.476556  0.933360  0.155131  1
  Tm  Tm17  1  0.975308  0.067722  0.846509  1
  Tm  Tm18  1  0.525872  0.565668  0.652385  1
  Tm  Tm19  1  0.025743  0.433423  0.347305  1
  Si  Si20  1  0.019397  0.353139  0.000066  1
  Si  Si21  1  0.476946  0.858527  0.500851  1
  Si  Si22  1  0.977524  0.140113  0.499464  1
  Si  Si23  1  0.652787  0.277984  0.790210  1
  Si  Si24  1  0.153375  0.720563  0.209555  1
  Si  Si25  1  0.347138  0.216103  0.287717  1
  Si  Si26  1  0.848125  0.782642  0.712302  1
  Si  Si27  1  0.356299  0.217799  0.710861  1
  Si  Si28  1  0.856853  0.781487  0.288962  1
  Si  Si29  1  0.649092  0.271881  0.207023  1
  Si  Si30  1  0.148156  0.726035  0.793069  1
  Si  Si31  1  0.778754  0.883028  0.000996  1
  Si  Si32  1  0.263548  0.124156  0.999355  1
  Si  Si33  1  0.229303  0.623523  0.501144  1
  Si  Si34  1  0.729707  0.375419  0.499044  1
  Pd  Pd35  1  0.519591  0.659459  0.000336  1
