# generated using pymatgen
data_La10Al2CdGeRu6
_symmetry_space_group_name_H-M   'P 1'
_cell_length_a   8.70393619
_cell_length_b   8.70138805
_cell_length_c   8.59190693
_cell_angle_alpha   109.37386739
_cell_angle_beta   109.31552369
_cell_angle_gamma   109.86576811
_symmetry_Int_Tables_number   1
_chemical_formula_structural   La10Al2CdGeRu6
_chemical_formula_sum   'La10 Al2 Cd1 Ge1 Ru6'
_cell_volume   500.03697474
_cell_formula_units_Z   1
loop_
 _symmetry_equiv_pos_site_id
 _symmetry_equiv_pos_as_xyz
  1  'x, y, z'
loop_
 _atom_site_type_symbol
 _atom_site_label
 _atom_site_symmetry_multiplicity
 _atom_site_fract_x
 _atom_site_fract_y
 _atom_site_fract_z
 _atom_site_occupancy
  La  La0  1  0.249643  0.685999  0.438341  1
  La  La1  1  0.749644  0.803717  0.054671  1
  La  La2  1  0.437311  0.253868  0.689773  1
  La  La3  1  0.693624  0.443456  0.256171  1
  La  La4  1  0.050482  0.750240  0.808083  1
  La  La5  1  0.813136  0.057629  0.752418  1
  La  La6  1  0.217020  0.218222  0.215751  1
  La  La7  1  0.501317  0.999419  0.291060  1
  La  La8  1  0.285804  0.500523  0.997883  1
  La  La9  1  0.000831  0.287922  0.501502  1
  Al  Al10  1  0.914137  0.500101  0.000948  1
  Al  Al11  1  0.998203  0.912501  0.497109  1
  Cd  Cd12  1  0.498515  0.999878  0.913283  1
  Ge  Ge13  1  0.593456  0.591692  0.592320  1
  Ru  Ru14  1  0.234120  0.126466  0.864151  1
  Ru  Ru15  1  0.744315  0.380793  0.631614  1
  Ru  Ru16  1  0.894125  0.267250  0.130219  1
  Ru  Ru17  1  0.119027  0.867296  0.250379  1
  Ru  Ru18  1  0.633623  0.747667  0.382418  1
  Ru  Ru19  1  0.371666  0.605361  0.731908  1
