# generated using pymatgen
data_LaAl3AgPd
_symmetry_space_group_name_H-M   'P 1'
_cell_length_a   5.57261800
_cell_length_b   5.57261771
_cell_length_c   4.34840700
_cell_angle_alpha   90.00000000
_cell_angle_beta   90.00000000
_cell_angle_gamma   119.99998983
_symmetry_Int_Tables_number   1
_chemical_formula_structural   LaAl3AgPd
_chemical_formula_sum   'La1 Al3 Ag1 Pd1'
_cell_volume   116.94438839
_cell_formula_units_Z   1
loop_
 _symmetry_equiv_pos_site_id
 _symmetry_equiv_pos_as_xyz
  1  'x, y, z'
loop_
 _atom_site_type_symbol
 _atom_site_label
 _atom_site_symmetry_multiplicity
 _atom_site_fract_x
 _atom_site_fract_y
 _atom_site_fract_z
 _atom_site_occupancy
  La  La0  1  0.000000  0.000000  0.000000  1
  Al  Al1  1  0.496898  0.993796  0.500000  1
  Al  Al2  1  0.496898  0.503102  0.500000  1
  Al  Al3  1  0.006204  0.503102  0.500000  1
  Ag  Ag4  1  0.666667  0.333333  0.000000  1
  Pd  Pd5  1  0.333333  0.666667  0.000000  1
