# generated using pymatgen
data_Rb6GeAs3
_symmetry_space_group_name_H-M   'P 1'
_cell_length_a   13.35745563
_cell_length_b   5.51353000
_cell_length_c   13.26492856
_cell_angle_alpha   90.00000000
_cell_angle_beta   119.14805276
_cell_angle_gamma   90.00000000
_symmetry_Int_Tables_number   1
_chemical_formula_structural   Rb6GeAs3
_chemical_formula_sum   'Rb12 Ge2 As6'
_cell_volume   853.20560999
_cell_formula_units_Z   2
loop_
 _symmetry_equiv_pos_site_id
 _symmetry_equiv_pos_as_xyz
  1  'x, y, z'
loop_
 _atom_site_type_symbol
 _atom_site_label
 _atom_site_symmetry_multiplicity
 _atom_site_fract_x
 _atom_site_fract_y
 _atom_site_fract_z
 _atom_site_occupancy
  Rb  Rb0  1  0.388631  0.250000  0.014973  1
  Rb  Rb1  1  0.969406  0.750001  0.229067  1
  Rb  Rb2  1  0.124439  0.250000  0.112944  1
  Rb  Rb3  1  0.723314  0.250000  0.258008  1
  Rb  Rb4  1  0.481976  0.250000  0.377427  1
  Rb  Rb5  1  0.762683  0.750001  0.526761  1
  Rb  Rb6  1  0.237317  0.250000  0.473239  1
  Rb  Rb7  1  0.518024  0.750001  0.622573  1
  Rb  Rb8  1  0.276686  0.750001  0.741992  1
  Rb  Rb9  1  0.875562  0.750001  0.887056  1
  Rb  Rb10  1  0.030593  0.250000  0.770933  1
  Rb  Rb11  1  0.611369  0.750001  0.985027  1
  Ge  Ge12  1  0.331495  0.750001  0.169917  1
  Ge  Ge13  1  0.668505  0.250000  0.830083  1
  As  As14  1  0.189423  0.750001  0.965565  1
  As  As15  1  0.534457  0.750001  0.226634  1
  As  As16  1  0.272051  0.750001  0.316737  1
  As  As17  1  0.727949  0.250000  0.683263  1
  As  As18  1  0.465544  0.250000  0.773366  1
  As  As19  1  0.810578  0.250000  0.034435  1
