# generated using pymatgen
data_Th10Sn7Hg
_symmetry_space_group_name_H-M   'P 1'
_cell_length_a   9.64250600
_cell_length_b   9.64250537
_cell_length_c   6.64465800
_cell_angle_alpha   90.00000000
_cell_angle_beta   90.00000000
_cell_angle_gamma   119.99999531
_symmetry_Int_Tables_number   1
_chemical_formula_structural   Th10Sn7Hg
_chemical_formula_sum   'Th10 Sn7 Hg1'
_cell_volume   535.03610779
_cell_formula_units_Z   1
loop_
 _symmetry_equiv_pos_site_id
 _symmetry_equiv_pos_as_xyz
  1  'x, y, z'
loop_
 _atom_site_type_symbol
 _atom_site_label
 _atom_site_symmetry_multiplicity
 _atom_site_fract_x
 _atom_site_fract_y
 _atom_site_fract_z
 _atom_site_occupancy
  Th  Th0  1  0.000000  0.719699  0.747143  1
  Th  Th1  1  0.280301  0.280301  0.747143  1
  Th  Th2  1  0.333333  0.666667  0.500000  1
  Th  Th3  1  0.666667  0.333333  0.500000  1
  Th  Th4  1  0.719699  0.719699  0.252857  1
  Th  Th5  1  0.719699  0.000000  0.747143  1
  Th  Th6  1  0.000000  0.280301  0.252857  1
  Th  Th7  1  0.280301  0.000000  0.252857  1
  Th  Th8  1  0.333333  0.666667  0.000000  1
  Th  Th9  1  0.666667  0.333333  0.000000  1
  Sn  Sn10  1  0.622856  0.622856  0.751118  1
  Sn  Sn11  1  0.000000  0.377144  0.751118  1
  Sn  Sn12  1  0.377144  0.000000  0.751118  1
  Sn  Sn13  1  0.622856  0.000000  0.248882  1
  Sn  Sn14  1  0.377144  0.377144  0.248882  1
  Sn  Sn15  1  0.000000  0.622856  0.248882  1
  Sn  Sn16  1  0.000000  0.000000  0.500000  1
  Hg  Hg17  1  0.000000  0.000000  0.000000  1
