# generated using pymatgen
data_Dy16Tm4(Ir3Pt)3
_symmetry_space_group_name_H-M   'P 1'
_cell_length_a   10.95720865
_cell_length_b   10.95720945
_cell_length_c   6.33492600
_cell_angle_alpha   89.98021328
_cell_angle_beta   89.98020805
_cell_angle_gamma   90.20596059
_symmetry_Int_Tables_number   1
_chemical_formula_structural   Dy16Tm4(Ir3Pt)3
_chemical_formula_sum   'Dy16 Tm4 Ir9 Pt3'
_cell_volume   760.56893594
_cell_formula_units_Z   1
loop_
 _symmetry_equiv_pos_site_id
 _symmetry_equiv_pos_as_xyz
  1  'x, y, z'
loop_
 _atom_site_type_symbol
 _atom_site_label
 _atom_site_symmetry_multiplicity
 _atom_site_fract_x
 _atom_site_fract_y
 _atom_site_fract_z
 _atom_site_occupancy
  Dy  Dy0  1  0.293153  0.086588  0.371705  1
  Dy  Dy1  1  0.292514  0.908544  0.876913  1
  Dy  Dy2  1  0.705806  0.089956  0.873798  1
  Dy  Dy3  1  0.704758  0.909907  0.373157  1
  Dy  Dy4  1  0.584905  0.790242  0.878254  1
  Dy  Dy5  1  0.585342  0.209745  0.378185  1
  Dy  Dy6  1  0.410811  0.790569  0.378199  1
  Dy  Dy7  1  0.414312  0.209739  0.878027  1
  Dy  Dy8  1  0.209758  0.415095  0.621746  1
  Dy  Dy9  1  0.209431  0.589189  0.121801  1
  Dy  Dy10  1  0.790255  0.414658  0.121815  1
  Dy  Dy11  1  0.790261  0.585688  0.621973  1
  Dy  Dy12  1  0.913412  0.706847  0.128295  1
  Dy  Dy13  1  0.910044  0.294194  0.626202  1
  Dy  Dy14  1  0.091456  0.707486  0.623087  1
  Dy  Dy15  1  0.090093  0.295242  0.126843  1
  Tm  Tm16  1  0.001147  0.998055  0.499536  1
  Tm  Tm17  1  0.001945  0.998853  0.000464  1
  Tm  Tm18  1  0.499755  0.499861  0.000494  1
  Tm  Tm19  1  0.500139  0.500245  0.499506  1
  Ir  Ir20  1  0.150851  0.849149  0.250000  1
  Ir  Ir21  1  0.653036  0.346964  0.750000  1
  Ir  Ir22  1  0.653591  0.653094  0.249479  1
  Ir  Ir23  1  0.346906  0.346409  0.250521  1
  Ir  Ir24  1  0.347900  0.652100  0.750000  1
  Ir  Ir25  1  0.500421  0.000003  0.122579  1
  Ir  Ir26  1  0.500177  0.000226  0.624053  1
  Ir  Ir27  1  0.999774  0.499823  0.875947  1
  Ir  Ir28  1  0.999997  0.499579  0.377421  1
  Pt  Pt29  1  0.848605  0.151395  0.250000  1
  Pt  Pt30  1  0.846996  0.847551  0.749915  1
  Pt  Pt31  1  0.152449  0.153004  0.750085  1
