# generated using pymatgen
data_YHo19(Bi2As)4
_symmetry_space_group_name_H-M   'P 1'
_cell_length_a   8.01513216
_cell_length_b   9.08841700
_cell_length_c   12.07458812
_cell_angle_alpha   90.00000000
_cell_angle_beta   89.99683624
_cell_angle_gamma   90.00000000
_symmetry_Int_Tables_number   1
_chemical_formula_structural   YHo19(Bi2As)4
_chemical_formula_sum   'Y1 Ho19 Bi8 As4'
_cell_volume   879.57172032
_cell_formula_units_Z   1
loop_
 _symmetry_equiv_pos_site_id
 _symmetry_equiv_pos_as_xyz
  1  'x, y, z'
loop_
 _atom_site_type_symbol
 _atom_site_label
 _atom_site_symmetry_multiplicity
 _atom_site_fract_x
 _atom_site_fract_y
 _atom_site_fract_z
 _atom_site_occupancy
  Y  Y0  1  0.346777  0.750000  0.711256  1
  Ho  Ho1  1  0.653138  0.250000  0.288805  1
  Ho  Ho2  1  0.846895  0.250000  0.789026  1
  Ho  Ho3  1  0.153310  0.750000  0.211262  1
  Ho  Ho4  1  0.868294  0.750000  0.793326  1
  Ho  Ho5  1  0.131146  0.250000  0.206751  1
  Ho  Ho6  1  0.368732  0.250000  0.706781  1
  Ho  Ho7  1  0.631574  0.750000  0.292924  1
  Ho  Ho8  1  0.683773  0.555941  0.563712  1
  Ho  Ho9  1  0.315826  0.444111  0.436273  1
  Ho  Ho10  1  0.184068  0.443944  0.936259  1
  Ho  Ho11  1  0.315826  0.055889  0.436273  1
  Ho  Ho12  1  0.816420  0.555872  0.063840  1
  Ho  Ho13  1  0.683773  0.944059  0.563712  1
  Ho  Ho14  1  0.816420  0.944128  0.063840  1
  Ho  Ho15  1  0.184068  0.056056  0.936259  1
  Ho  Ho16  1  0.037304  0.750000  0.499370  1
  Ho  Ho17  1  0.961937  0.250000  0.500310  1
  Ho  Ho18  1  0.537783  0.250000  0.000758  1
  Ho  Ho19  1  0.462833  0.750000  0.999892  1
  Bi  Bi20  1  0.577424  0.509322  0.827512  1
  Bi  Bi21  1  0.423276  0.490165  0.173019  1
  Bi  Bi22  1  0.076012  0.490012  0.672804  1
  Bi  Bi23  1  0.423276  0.009835  0.173019  1
  Bi  Bi24  1  0.923259  0.509742  0.326956  1
  Bi  Bi25  1  0.577424  0.990678  0.827512  1
  Bi  Bi26  1  0.923259  0.990258  0.326956  1
  Bi  Bi27  1  0.076012  0.009988  0.672804  1
  As  As28  1  0.084918  0.750000  0.980495  1
  As  As29  1  0.915580  0.250000  0.019487  1
  As  As30  1  0.584321  0.250000  0.519302  1
  As  As31  1  0.415341  0.750000  0.479508  1
