# generated using pymatgen
data_Eu3PtO7
_symmetry_space_group_name_H-M   'P 1'
_cell_length_a   6.58387621
_cell_length_b   6.58387661
_cell_length_c   7.59633600
_cell_angle_alpha   90.00000000
_cell_angle_beta   90.00000000
_cell_angle_gamma   109.69344994
_symmetry_Int_Tables_number   1
_chemical_formula_structural   Eu3PtO7
_chemical_formula_sum   'Eu6 Pt2 O14'
_cell_volume   310.02164524
_cell_formula_units_Z   2
loop_
 _symmetry_equiv_pos_site_id
 _symmetry_equiv_pos_as_xyz
  1  'x, y, z'
loop_
 _atom_site_type_symbol
 _atom_site_label
 _atom_site_symmetry_multiplicity
 _atom_site_fract_x
 _atom_site_fract_y
 _atom_site_fract_z
 _atom_site_occupancy
  Eu  Eu0  1  0.001787  0.473881  0.749298  1
  Eu  Eu1  1  0.998213  0.526119  0.249298  1
  Eu  Eu2  1  0.526119  0.998213  0.750702  1
  Eu  Eu3  1  0.473881  0.001787  0.250702  1
  Eu  Eu4  1  0.501351  0.501351  0.500000  1
  Eu  Eu5  1  0.498649  0.498649  0.000000  1
  Pt  Pt6  1  0.999344  0.999344  0.500000  1
  Pt  Pt7  1  0.000656  0.000656  0.000000  1
  O  O8  1  0.635283  0.364717  0.750000  1
  O  O9  1  0.364717  0.635283  0.250000  1
  O  O10  1  0.927966  0.072034  0.750000  1
  O  O11  1  0.072034  0.927966  0.250000  1
  O  O12  1  0.922312  0.677219  0.524106  1
  O  O13  1  0.077688  0.322781  0.024106  1
  O  O14  1  0.322781  0.077688  0.975894  1
  O  O15  1  0.677219  0.922312  0.475894  1
  O  O16  1  0.368597  0.631403  0.750000  1
  O  O17  1  0.631403  0.368597  0.250000  1
  O  O18  1  0.925455  0.679586  0.974465  1
  O  O19  1  0.074545  0.320414  0.474465  1
  O  O20  1  0.320414  0.074545  0.525535  1
  O  O21  1  0.679586  0.925455  0.025535  1
