# generated using pymatgen
data_Nd4Y3Ho(ReB6)4
_symmetry_space_group_name_H-M   'P 1'
_cell_length_a   3.73254000
_cell_length_b   9.26053202
_cell_length_c   11.71760302
_cell_angle_alpha   90.00721569
_cell_angle_beta   90.00000000
_cell_angle_gamma   90.00000000
_symmetry_Int_Tables_number   1
_chemical_formula_structural   Nd4Y3Ho(ReB6)4
_chemical_formula_sum   'Nd4 Y3 Ho1 Re4 B24'
_cell_volume   405.02253298
_cell_formula_units_Z   1
loop_
 _symmetry_equiv_pos_site_id
 _symmetry_equiv_pos_as_xyz
  1  'x, y, z'
loop_
 _atom_site_type_symbol
 _atom_site_label
 _atom_site_symmetry_multiplicity
 _atom_site_fract_x
 _atom_site_fract_y
 _atom_site_fract_z
 _atom_site_occupancy
  Nd  Nd0  1  0.000000  0.323041  0.414170  1
  Nd  Nd1  1  0.000000  0.676942  0.585915  1
  Nd  Nd2  1  0.000000  0.822941  0.085778  1
  Nd  Nd3  1  0.000000  0.177066  0.914158  1
  Y  Y4  1  0.000000  0.943024  0.369527  1
  Y  Y5  1  0.000000  0.056965  0.630515  1
  Y  Y6  1  0.000000  0.443097  0.130317  1
  Ho  Ho7  1  0.000000  0.557077  0.869283  1
  Re  Re8  1  0.000000  0.639302  0.319608  1
  Re  Re9  1  0.000000  0.360973  0.680674  1
  Re  Re10  1  0.000000  0.139327  0.180348  1
  Re  Re11  1  0.000000  0.860196  0.819683  1
  B  B12  1  0.500000  0.555093  0.430555  1
  B  B13  1  0.500000  0.444917  0.569502  1
  B  B14  1  0.500000  0.055077  0.069441  1
  B  B15  1  0.500000  0.944861  0.930529  1
  B  B16  1  0.500000  0.749473  0.416067  1
  B  B17  1  0.500000  0.250555  0.583950  1
  B  B18  1  0.500000  0.249478  0.083918  1
  B  B19  1  0.500000  0.750159  0.916003  1
  B  B20  1  0.500000  0.791155  0.266179  1
  B  B21  1  0.500000  0.208924  0.733835  1
  B  B22  1  0.500000  0.291174  0.233817  1
  B  B23  1  0.500000  0.708530  0.766356  1
  B  B24  1  0.500000  0.630050  0.186710  1
  B  B25  1  0.500000  0.370295  0.813397  1
  B  B26  1  0.500000  0.130052  0.313262  1
  B  B27  1  0.500000  0.869901  0.686781  1
  B  B28  1  0.500000  0.984212  0.212820  1
  B  B29  1  0.500000  0.015745  0.787195  1
  B  B30  1  0.500000  0.484203  0.287171  1
  B  B31  1  0.500000  0.515911  0.713122  1
  B  B32  1  0.500000  0.596666  0.026467  1
  B  B33  1  0.500000  0.403619  0.972939  1
  B  B34  1  0.500000  0.096775  0.473190  1
  B  B35  1  0.500000  0.903222  0.526820  1
