# generated using pymatgen
data_Y3Er17Cd6RuRh
_symmetry_space_group_name_H-M   'P 1'
_cell_length_a   9.55923524
_cell_length_b   9.55709569
_cell_length_c   9.77006000
_cell_angle_alpha   90.00000000
_cell_angle_beta   90.00000000
_cell_angle_gamma   119.98178512
_symmetry_Int_Tables_number   1
_chemical_formula_structural   Y3Er17Cd6RuRh
_chemical_formula_sum   'Y3 Er17 Cd6 Ru1 Rh1'
_cell_volume   773.13730528
_cell_formula_units_Z   1
loop_
 _symmetry_equiv_pos_site_id
 _symmetry_equiv_pos_as_xyz
  1  'x, y, z'
loop_
 _atom_site_type_symbol
 _atom_site_label
 _atom_site_symmetry_multiplicity
 _atom_site_fract_x
 _atom_site_fract_y
 _atom_site_fract_z
 _atom_site_occupancy
  Y  Y0  1  0.541663  0.083797  0.250000  1
  Y  Y1  1  0.916263  0.458374  0.250000  1
  Y  Y2  1  0.082519  0.541260  0.750000  1
  Er  Er3  1  0.999968  0.999957  0.499578  1
  Er  Er4  1  0.999968  0.999957  0.000422  1
  Er  Er5  1  0.209650  0.790856  0.440827  1
  Er  Er6  1  0.210015  0.418710  0.440674  1
  Er  Er7  1  0.581176  0.790179  0.440952  1
  Er  Er8  1  0.789988  0.209235  0.560149  1
  Er  Er9  1  0.789678  0.580623  0.559900  1
  Er  Er10  1  0.419308  0.209888  0.560048  1
  Er  Er11  1  0.789988  0.209235  0.939851  1
  Er  Er12  1  0.789678  0.580623  0.940100  1
  Er  Er13  1  0.419308  0.209888  0.939952  1
  Er  Er14  1  0.209650  0.790856  0.059173  1
  Er  Er15  1  0.210015  0.418710  0.059326  1
  Er  Er16  1  0.581176  0.790179  0.059048  1
  Er  Er17  1  0.541590  0.458446  0.250000  1
  Er  Er18  1  0.459277  0.541098  0.750000  1
  Er  Er19  1  0.459325  0.918276  0.750000  1
  Cd  Cd20  1  0.885548  0.114313  0.250000  1
  Cd  Cd21  1  0.885045  0.770776  0.250000  1
  Cd  Cd22  1  0.229237  0.114891  0.250000  1
  Cd  Cd23  1  0.114948  0.885651  0.750000  1
  Cd  Cd24  1  0.114991  0.229279  0.750000  1
  Cd  Cd25  1  0.770292  0.885083  0.750000  1
  Ru  Ru26  1  0.666371  0.333129  0.750000  1
  Rh  Rh27  1  0.333369  0.666731  0.250000  1
