# generated using pymatgen
data_Ce5Nd3Cu3Si12Pd
_symmetry_space_group_name_H-M   'P 1'
_cell_length_a   8.14788800
_cell_length_b   8.15088830
_cell_length_c   8.47054429
_cell_angle_alpha   89.97430583
_cell_angle_beta   90.00000000
_cell_angle_gamma   119.98782426
_symmetry_Int_Tables_number   1
_chemical_formula_structural   Ce5Nd3Cu3Si12Pd
_chemical_formula_sum   'Ce5 Nd3 Cu3 Si12 Pd1'
_cell_volume   487.24249026
_cell_formula_units_Z   1
loop_
 _symmetry_equiv_pos_site_id
 _symmetry_equiv_pos_as_xyz
  1  'x, y, z'
loop_
 _atom_site_type_symbol
 _atom_site_label
 _atom_site_symmetry_multiplicity
 _atom_site_fract_x
 _atom_site_fract_y
 _atom_site_fract_z
 _atom_site_occupancy
  Ce  Ce0  1  0.499507  0.500756  0.750600  1
  Ce  Ce1  1  0.499721  0.500444  0.249655  1
  Ce  Ce2  1  0.001250  0.500756  0.750600  1
  Ce  Ce3  1  0.000723  0.500444  0.249655  1
  Ce  Ce4  1  0.499442  0.998883  0.750276  1
  Nd  Nd5  1  0.499129  0.998259  0.249172  1
  Nd  Nd6  1  0.999975  0.999951  0.750435  1
  Nd  Nd7  1  0.000000  0.000001  0.249555  1
  Cu  Cu8  1  0.666574  0.333147  0.000158  1
  Cu  Cu9  1  0.333343  0.666688  0.000888  1
  Cu  Cu10  1  0.333345  0.666691  0.499515  1
  Si  Si11  1  0.831446  0.170103  0.999289  1
  Si  Si12  1  0.168323  0.830024  0.999144  1
  Si  Si13  1  0.338657  0.170103  0.999289  1
  Si  Si14  1  0.168159  0.830296  0.500652  1
  Si  Si15  1  0.661701  0.830024  0.999144  1
  Si  Si16  1  0.835170  0.165946  0.500732  1
  Si  Si17  1  0.830077  0.660155  0.000452  1
  Si  Si18  1  0.662137  0.830296  0.500652  1
  Si  Si19  1  0.169738  0.339476  0.000382  1
  Si  Si20  1  0.330777  0.165946  0.500732  1
  Si  Si21  1  0.169455  0.338912  0.499432  1
  Si  Si22  1  0.834399  0.668798  0.499662  1
  Pd  Pd23  1  0.666951  0.333901  0.499921  1
