# generated using pymatgen
data_Pr3Dy5(CdIr)2
_symmetry_space_group_name_H-M   'P 1'
_cell_length_a   9.78881572
_cell_length_b   9.78881542
_cell_length_c   9.78881600
_cell_angle_alpha   59.99999802
_cell_angle_beta   59.99999904
_cell_angle_gamma   59.99999639
_symmetry_Int_Tables_number   1
_chemical_formula_structural   Pr3Dy5(CdIr)2
_chemical_formula_sum   'Pr6 Dy10 Cd4 Ir4'
_cell_volume   663.24721891
_cell_formula_units_Z   2
loop_
 _symmetry_equiv_pos_site_id
 _symmetry_equiv_pos_as_xyz
  1  'x, y, z'
loop_
 _atom_site_type_symbol
 _atom_site_label
 _atom_site_symmetry_multiplicity
 _atom_site_fract_x
 _atom_site_fract_y
 _atom_site_fract_z
 _atom_site_occupancy
  Pr  Pr0  1  0.941046  0.558954  0.558954  1
  Pr  Pr1  1  0.558954  0.941046  0.941046  1
  Pr  Pr2  1  0.558954  0.941046  0.558954  1
  Pr  Pr3  1  0.941046  0.558954  0.941046  1
  Pr  Pr4  1  0.558954  0.558954  0.941046  1
  Pr  Pr5  1  0.941046  0.941046  0.558954  1
  Dy  Dy6  1  0.346948  0.346948  0.346948  1
  Dy  Dy7  1  0.346948  0.346948  0.959155  1
  Dy  Dy8  1  0.346948  0.959155  0.346948  1
  Dy  Dy9  1  0.959155  0.346948  0.346948  1
  Dy  Dy10  1  0.813110  0.186890  0.186890  1
  Dy  Dy11  1  0.186890  0.813110  0.813110  1
  Dy  Dy12  1  0.186890  0.813110  0.186890  1
  Dy  Dy13  1  0.813110  0.186890  0.813110  1
  Dy  Dy14  1  0.186890  0.186890  0.813110  1
  Dy  Dy15  1  0.813110  0.813110  0.186890  1
  Cd  Cd16  1  0.579096  0.579096  0.579096  1
  Cd  Cd17  1  0.579096  0.579096  0.262710  1
  Cd  Cd18  1  0.579096  0.262710  0.579096  1
  Cd  Cd19  1  0.262710  0.579096  0.579096  1
  Ir  Ir20  1  0.141278  0.141278  0.141278  1
  Ir  Ir21  1  0.141278  0.141278  0.576166  1
  Ir  Ir22  1  0.141278  0.576166  0.141278  1
  Ir  Ir23  1  0.576166  0.141278  0.141278  1
