# generated using pymatgen
data_NaLiUBr6
_symmetry_space_group_name_H-M   'P 1'
_cell_length_a   7.20822500
_cell_length_b   7.20822528
_cell_length_c   7.09703000
_cell_angle_alpha   90.00000000
_cell_angle_beta   90.00000000
_cell_angle_gamma   120.00000331
_symmetry_Int_Tables_number   1
_chemical_formula_structural   NaLiUBr6
_chemical_formula_sum   'Na1 Li1 U1 Br6'
_cell_volume   319.34781122
_cell_formula_units_Z   1
loop_
 _symmetry_equiv_pos_site_id
 _symmetry_equiv_pos_as_xyz
  1  'x, y, z'
loop_
 _atom_site_type_symbol
 _atom_site_label
 _atom_site_symmetry_multiplicity
 _atom_site_fract_x
 _atom_site_fract_y
 _atom_site_fract_z
 _atom_site_occupancy
  Na  Na0  1  0.333333  0.666667  0.500000  1
  Li  Li1  1  0.666667  0.333333  0.500000  1
  U  U2  1  0.000000  0.000000  0.500000  1
  Br  Br3  1  0.688605  0.672604  0.722730  1
  Br  Br4  1  0.983999  0.311395  0.722730  1
  Br  Br5  1  0.327396  0.016001  0.722730  1
  Br  Br6  1  0.327396  0.311395  0.277270  1
  Br  Br7  1  0.983999  0.672604  0.277270  1
  Br  Br8  1  0.688605  0.016001  0.277270  1
