# generated using pymatgen
data_HoLu3(HfRh)4
_symmetry_space_group_name_H-M   'P 1'
_cell_length_a   4.56784100
_cell_length_b   6.91112223
_cell_length_c   8.20640515
_cell_angle_alpha   90.08140698
_cell_angle_beta   90.00000000
_cell_angle_gamma   90.00000000
_symmetry_Int_Tables_number   1
_chemical_formula_structural   HoLu3(HfRh)4
_chemical_formula_sum   'Ho1 Lu3 Hf4 Rh4'
_cell_volume   259.06698345
_cell_formula_units_Z   1
loop_
 _symmetry_equiv_pos_site_id
 _symmetry_equiv_pos_as_xyz
  1  'x, y, z'
loop_
 _atom_site_type_symbol
 _atom_site_label
 _atom_site_symmetry_multiplicity
 _atom_site_fract_x
 _atom_site_fract_y
 _atom_site_fract_z
 _atom_site_occupancy
  Ho  Ho0  1  0.250000  0.015032  0.322380  1
  Lu  Lu1  1  0.250000  0.516186  0.177089  1
  Lu  Lu2  1  0.750000  0.483707  0.822456  1
  Lu  Lu3  1  0.750000  0.984089  0.678264  1
  Hf  Hf4  1  0.250000  0.641735  0.574426  1
  Hf  Hf5  1  0.750000  0.359055  0.426439  1
  Hf  Hf6  1  0.750000  0.857598  0.071982  1
  Hf  Hf7  1  0.250000  0.142389  0.925868  1
  Rh  Rh8  1  0.250000  0.764042  0.908596  1
  Rh  Rh9  1  0.750000  0.236230  0.090664  1
  Rh  Rh10  1  0.750000  0.734858  0.409364  1
  Rh  Rh11  1  0.250000  0.265080  0.592473  1
