# generated using pymatgen
data_Ce4ReOs6W
_symmetry_space_group_name_H-M   'P 1'
_cell_length_a   5.19496896
_cell_length_b   5.19496929
_cell_length_c   9.15027100
_cell_angle_alpha   90.00000000
_cell_angle_beta   90.00000000
_cell_angle_gamma   113.90038850
_symmetry_Int_Tables_number   1
_chemical_formula_structural   Ce4ReOs6W
_chemical_formula_sum   'Ce4 Re1 Os6 W1'
_cell_volume   225.76958808
_cell_formula_units_Z   1
loop_
 _symmetry_equiv_pos_site_id
 _symmetry_equiv_pos_as_xyz
  1  'x, y, z'
loop_
 _atom_site_type_symbol
 _atom_site_label
 _atom_site_symmetry_multiplicity
 _atom_site_fract_x
 _atom_site_fract_y
 _atom_site_fract_z
 _atom_site_occupancy
  Ce  Ce0  1  0.338128  0.661872  0.434940  1
  Ce  Ce1  1  0.662753  0.337247  0.563448  1
  Ce  Ce2  1  0.662753  0.337247  0.936552  1
  Ce  Ce3  1  0.338128  0.661872  0.065060  1
  Re  Re4  1  0.835243  0.164757  0.250000  1
  Os  Os5  1  0.999404  0.000596  0.498908  1
  Os  Os6  1  0.999404  0.000596  0.001092  1
  Os  Os7  1  0.839186  0.656150  0.250000  1
  Os  Os8  1  0.343850  0.160814  0.250000  1
  Os  Os9  1  0.161759  0.343805  0.750000  1
  Os  Os10  1  0.656195  0.838241  0.750000  1
  W  W11  1  0.163197  0.836803  0.750000  1
