# generated using pymatgen
data_V7(ReSi2)3
_symmetry_space_group_name_H-M   'P 1'
_cell_length_a   7.05986249
_cell_length_b   7.06338548
_cell_length_c   7.05986232
_cell_angle_alpha   96.65663718
_cell_angle_beta   96.65973937
_cell_angle_gamma   140.14488215
_symmetry_Int_Tables_number   1
_chemical_formula_structural   V7(ReSi2)3
_chemical_formula_sum   'V7 Re3 Si6'
_cell_volume   212.15544063
_cell_formula_units_Z   1
loop_
 _symmetry_equiv_pos_site_id
 _symmetry_equiv_pos_as_xyz
  1  'x, y, z'
loop_
 _atom_site_type_symbol
 _atom_site_label
 _atom_site_symmetry_multiplicity
 _atom_site_fract_x
 _atom_site_fract_y
 _atom_site_fract_z
 _atom_site_occupancy
  V  V0  1  0.925812  0.776063  0.699664  1
  V  V1  1  0.749230  0.250000  0.499230  1
  V  V2  1  0.726094  0.578419  0.305334  1
  V  V3  1  0.423601  0.723937  0.149748  1
  V  V4  1  0.775262  0.072271  0.845268  1
  V  V5  1  0.272996  0.427729  0.702991  1
  V  V6  1  0.226916  0.921581  0.147675  1
  Re  Re7  1  0.577017  0.278585  0.852313  1
  Re  Re8  1  0.249550  0.750000  0.499550  1
  Re  Re9  1  0.073726  0.221415  0.298432  1
  Si  Si10  1  0.163230  0.661758  0.835529  1
  Si  Si11  1  0.250259  0.250000  0.000259  1
  Si  Si12  1  0.673771  0.838242  0.501472  1
  Si  Si13  1  0.825392  0.327221  0.164861  1
  Si  Si14  1  0.749504  0.750000  0.999504  1
  Si  Si15  1  0.337639  0.172779  0.498171  1
