# generated using pymatgen
data_LaPr7Te8
_symmetry_space_group_name_H-M   'P 1'
_cell_length_a   9.08252665
_cell_length_b   9.11180683
_cell_length_c   9.08252700
_cell_angle_alpha   60.10624505
_cell_angle_beta   60.00000238
_cell_angle_gamma   60.10624217
_symmetry_Int_Tables_number   1
_chemical_formula_structural   LaPr7Te8
_chemical_formula_sum   'La1 Pr7 Te8'
_cell_volume   532.35146106
_cell_formula_units_Z   1
loop_
 _symmetry_equiv_pos_site_id
 _symmetry_equiv_pos_as_xyz
  1  'x, y, z'
loop_
 _atom_site_type_symbol
 _atom_site_label
 _atom_site_symmetry_multiplicity
 _atom_site_fract_x
 _atom_site_fract_y
 _atom_site_fract_z
 _atom_site_occupancy
  La  La0  1  0.125000  0.625000  0.125000  1
  Pr  Pr1  1  0.125000  0.125000  0.625000  1
  Pr  Pr2  1  0.625000  0.125000  0.125000  1
  Pr  Pr3  1  0.125000  0.125000  0.125000  1
  Pr  Pr4  1  0.625000  0.125000  0.625000  1
  Pr  Pr5  1  0.625000  0.625000  0.625000  1
  Pr  Pr6  1  0.125000  0.625000  0.625000  1
  Pr  Pr7  1  0.625000  0.625000  0.125000  1
  Te  Te8  1  0.375297  0.874107  0.375297  1
  Te  Te9  1  0.874703  0.375893  0.874703  1
  Te  Te10  1  0.874374  0.875588  0.375664  1
  Te  Te11  1  0.874374  0.875588  0.874374  1
  Te  Te12  1  0.874336  0.374412  0.375626  1
  Te  Te13  1  0.375626  0.374412  0.874336  1
  Te  Te14  1  0.375626  0.374412  0.375626  1
  Te  Te15  1  0.375664  0.875588  0.874374  1
