# generated using pymatgen
data_Ba10Si17Hg
_symmetry_space_group_name_H-M   'P 1'
_cell_length_a   6.68726662
_cell_length_b   6.68726670
_cell_length_c   18.05355525
_cell_angle_alpha   81.58403168
_cell_angle_beta   81.58403116
_cell_angle_gamma   100.01841841
_symmetry_Int_Tables_number   1
_chemical_formula_structural   Ba10Si17Hg
_chemical_formula_sum   'Ba10 Si17 Hg1'
_cell_volume   774.14459382
_cell_formula_units_Z   1
loop_
 _symmetry_equiv_pos_site_id
 _symmetry_equiv_pos_as_xyz
  1  'x, y, z'
loop_
 _atom_site_type_symbol
 _atom_site_label
 _atom_site_symmetry_multiplicity
 _atom_site_fract_x
 _atom_site_fract_y
 _atom_site_fract_z
 _atom_site_occupancy
  Ba  Ba0  1  0.750227  0.254802  0.996170  1
  Ba  Ba1  1  0.112052  0.579651  0.790040  1
  Ba  Ba2  1  0.286455  0.709341  0.500260  1
  Ba  Ba3  1  0.758520  0.758520  0.647859  1
  Ba  Ba4  1  0.243614  0.243614  0.351638  1
  Ba  Ba5  1  0.579651  0.112052  0.790040  1
  Ba  Ba6  1  0.254802  0.750227  0.996170  1
  Ba  Ba7  1  0.709341  0.286455  0.500260  1
  Ba  Ba8  1  0.420444  0.885686  0.212662  1
  Ba  Ba9  1  0.885686  0.420444  0.212662  1
  Si  Si10  1  0.921805  0.921805  0.263726  1
  Si  Si11  1  0.071457  0.071457  0.736053  1
  Si  Si12  1  0.778709  0.778709  0.930753  1
  Si  Si13  1  0.345909  0.345909  0.647919  1
  Si  Si14  1  0.297269  0.297269  0.923409  1
  Si  Si15  1  0.926862  0.926862  0.133039  1
  Si  Si16  1  0.649968  0.649968  0.356905  1
  Si  Si17  1  0.441376  0.441376  0.147991  1
  Si  Si18  1  0.062312  0.062312  0.867179  1
  Si  Si19  1  0.816385  0.816385  0.450667  1
  Si  Si20  1  0.327809  0.972183  0.643387  1
  Si  Si21  1  0.666694  0.023509  0.358082  1
  Si  Si22  1  0.183009  0.183009  0.550622  1
  Si  Si23  1  0.972183  0.327809  0.643387  1
  Si  Si24  1  0.023509  0.666694  0.358082  1
  Si  Si25  1  0.708086  0.708086  0.068101  1
  Si  Si26  1  0.581078  0.581078  0.852451  1
  Hg  Hg27  1  0.224790  0.224790  0.070487  1
