# generated using pymatgen
data_Dy3Y4HoAu4
_symmetry_space_group_name_H-M   'P 1'
_cell_length_a   4.95804800
_cell_length_b   7.14629596
_cell_length_c   8.98781801
_cell_angle_alpha   90.04541703
_cell_angle_beta   90.00000000
_cell_angle_gamma   90.00000000
_symmetry_Int_Tables_number   1
_chemical_formula_structural   Dy3Y4HoAu4
_chemical_formula_sum   'Dy3 Y4 Ho1 Au4'
_cell_volume   318.45337715
_cell_formula_units_Z   1
loop_
 _symmetry_equiv_pos_site_id
 _symmetry_equiv_pos_as_xyz
  1  'x, y, z'
loop_
 _atom_site_type_symbol
 _atom_site_label
 _atom_site_symmetry_multiplicity
 _atom_site_fract_x
 _atom_site_fract_y
 _atom_site_fract_z
 _atom_site_occupancy
  Dy  Dy0  1  0.750000  0.648629  0.419356  1
  Dy  Dy1  1  0.250000  0.351430  0.580754  1
  Dy  Dy2  1  0.750000  0.148585  0.080392  1
  Y  Y3  1  0.250000  0.487008  0.176718  1
  Y  Y4  1  0.750000  0.513486  0.823200  1
  Y  Y5  1  0.250000  0.986782  0.323073  1
  Y  Y6  1  0.750000  0.013054  0.676875  1
  Ho  Ho7  1  0.250000  0.851445  0.919495  1
  Au  Au8  1  0.250000  0.256605  0.900696  1
  Au  Au9  1  0.750000  0.742926  0.098917  1
  Au  Au10  1  0.250000  0.757353  0.599839  1
  Au  Au11  1  0.750000  0.242698  0.400686  1
