# generated using pymatgen
data_TmZr2(FeCo2)3
_symmetry_space_group_name_H-M   'P 1'
_cell_length_a   4.97562995
_cell_length_b   4.97563062
_cell_length_c   8.30003482
_cell_angle_alpha   72.55828983
_cell_angle_beta   72.55829064
_cell_angle_gamma   60.00000400
_symmetry_Int_Tables_number   1
_chemical_formula_structural   TmZr2(FeCo2)3
_chemical_formula_sum   'Tm1 Zr2 Fe3 Co6'
_cell_volume   166.95533972
_cell_formula_units_Z   1
loop_
 _symmetry_equiv_pos_site_id
 _symmetry_equiv_pos_as_xyz
  1  'x, y, z'
loop_
 _atom_site_type_symbol
 _atom_site_label
 _atom_site_symmetry_multiplicity
 _atom_site_fract_x
 _atom_site_fract_y
 _atom_site_fract_z
 _atom_site_occupancy
  Tm  Tm0  1  0.000000  0.000000  0.000000  1
  Zr  Zr1  1  0.140426  0.140426  0.578721  1
  Zr  Zr2  1  0.859574  0.859574  0.421279  1
  Fe  Fe3  1  0.334103  0.334103  0.997691  1
  Fe  Fe4  1  0.665897  0.665897  0.002309  1
  Fe  Fe5  1  0.500000  0.500000  0.500000  1
  Co  Co6  1  0.079550  0.586868  0.746713  1
  Co  Co7  1  0.586868  0.586868  0.746713  1
  Co  Co8  1  0.586868  0.079550  0.746713  1
  Co  Co9  1  0.920450  0.413132  0.253287  1
  Co  Co10  1  0.413132  0.413132  0.253287  1
  Co  Co11  1  0.413132  0.920450  0.253287  1
