# generated using pymatgen
data_Tb10Th6Mg3HgRu4
_symmetry_space_group_name_H-M   'P 1'
_cell_length_a   9.74611353
_cell_length_b   9.82519880
_cell_length_c   9.82519893
_cell_angle_alpha   59.21546055
_cell_angle_beta   60.24030607
_cell_angle_gamma   60.24030974
_symmetry_Int_Tables_number   1
_chemical_formula_structural   Tb10Th6Mg3HgRu4
_chemical_formula_sum   'Tb10 Th6 Mg3 Hg1 Ru4'
_cell_volume   663.60180578
_cell_formula_units_Z   1
loop_
 _symmetry_equiv_pos_site_id
 _symmetry_equiv_pos_as_xyz
  1  'x, y, z'
loop_
 _atom_site_type_symbol
 _atom_site_label
 _atom_site_symmetry_multiplicity
 _atom_site_fract_x
 _atom_site_fract_y
 _atom_site_fract_z
 _atom_site_occupancy
  Tb  Tb0  1  0.439142  0.060066  0.439570  1
  Tb  Tb1  1  0.059425  0.439418  0.059736  1
  Tb  Tb2  1  0.439142  0.439570  0.060066  1
  Tb  Tb3  1  0.059425  0.059736  0.439418  1
  Tb  Tb4  1  0.181499  0.817088  0.817088  1
  Tb  Tb5  1  0.814464  0.184270  0.184270  1
  Tb  Tb6  1  0.811726  0.187638  0.812817  1
  Tb  Tb7  1  0.187633  0.812211  0.187422  1
  Tb  Tb8  1  0.811726  0.812817  0.187638  1
  Tb  Tb9  1  0.187633  0.187422  0.812211  1
  Th  Th10  1  0.590037  0.598546  0.598546  1
  Th  Th11  1  0.601499  0.593154  0.206604  1
  Th  Th12  1  0.601499  0.206604  0.593154  1
  Th  Th13  1  0.208593  0.599655  0.599655  1
  Th  Th14  1  0.065081  0.435388  0.435388  1
  Th  Th15  1  0.433227  0.065867  0.065867  1
  Mg  Mg16  1  0.828365  0.830669  0.512794  1
  Mg  Mg17  1  0.828365  0.512794  0.830669  1
  Mg  Mg18  1  0.513152  0.828191  0.828191  1
  Hg  Hg19  1  0.836562  0.830892  0.830892  1
  Ru  Ru20  1  0.378223  0.398442  0.398442  1
  Ru  Ru21  1  0.399341  0.377755  0.822386  1
  Ru  Ru22  1  0.399341  0.822386  0.377755  1
  Ru  Ru23  1  0.824903  0.399425  0.399425  1
