# generated using pymatgen
data_CsDy2Er8(C2Br9)2
_symmetry_space_group_name_H-M   'P 1'
_cell_length_a   10.68158529
_cell_length_b   10.73809739
_cell_length_c   10.82911775
_cell_angle_alpha   113.45935831
_cell_angle_beta   87.37543299
_cell_angle_gamma   119.07920231
_symmetry_Int_Tables_number   1
_chemical_formula_structural   CsDy2Er8(C2Br9)2
_chemical_formula_sum   'Cs1 Dy2 Er8 C4 Br18'
_cell_volume   978.76025205
_cell_formula_units_Z   1
loop_
 _symmetry_equiv_pos_site_id
 _symmetry_equiv_pos_as_xyz
  1  'x, y, z'
loop_
 _atom_site_type_symbol
 _atom_site_label
 _atom_site_symmetry_multiplicity
 _atom_site_fract_x
 _atom_site_fract_y
 _atom_site_fract_z
 _atom_site_occupancy
  Cs  Cs0  1  0.499992  0.999025  0.499940  1
  Dy  Dy1  1  0.717511  0.634636  0.988119  1
  Dy  Dy2  1  0.888483  0.058358  0.999292  1
  Er  Er3  1  0.665711  0.717741  0.704112  1
  Er  Er4  1  0.281586  0.363001  0.012189  1
  Er  Er5  1  0.093890  0.404246  0.299439  1
  Er  Er6  1  0.960272  0.037014  0.332825  1
  Er  Er7  1  0.906583  0.595417  0.699846  1
  Er  Er8  1  0.109479  0.942535  0.001264  1
  Er  Er9  1  0.040324  0.963435  0.667523  1
  Er  Er10  1  0.333991  0.281728  0.296017  1
  C  C11  1  0.157496  0.227701  0.122992  1
  C  C12  1  0.843163  0.771567  0.876579  1
  C  C13  1  0.922795  0.851630  0.795580  1
  C  C14  1  0.077609  0.147946  0.204469  1
  Br  Br15  1  0.450796  0.530394  0.832822  1
  Br  Br16  1  0.380492  0.040393  0.158944  1
  Br  Br17  1  0.780457  0.857923  0.502071  1
  Br  Br18  1  0.840364  0.313375  0.156224  1
  Br  Br19  1  0.546533  0.468189  0.167269  1
  Br  Br20  1  0.220250  0.142790  0.498568  1
  Br  Br21  1  0.314055  0.100226  0.828607  1
  Br  Br22  1  0.685649  0.900915  0.173320  1
  Br  Br23  1  0.975060  0.762097  0.173869  1
  Br  Br24  1  0.934484  0.302819  0.500437  1
  Br  Br25  1  0.028185  0.239985  0.826655  1
  Br  Br26  1  0.067178  0.698495  0.500069  1
  Br  Br27  1  0.259836  0.621141  0.186219  1
  Br  Br28  1  0.741455  0.376299  0.810984  1
  Br  Br29  1  0.639873  0.435432  0.500702  1
  Br  Br30  1  0.160081  0.691090  0.845848  1
  Br  Br31  1  0.616317  0.957882  0.838210  1
  Br  Br32  1  0.360047  0.564575  0.498994  1
