# generated using pymatgen
data_Ba8VTc3O16
_symmetry_space_group_name_H-M   'P 1'
_cell_length_a   5.76686192
_cell_length_b   9.30950209
_cell_length_c   9.29719100
_cell_angle_alpha   88.22790922
_cell_angle_beta   71.45666416
_cell_angle_gamma   108.51531729
_symmetry_Int_Tables_number   1
_chemical_formula_structural   Ba8VTc3O16
_chemical_formula_sum   'Ba8 V1 Tc3 O16'
_cell_volume   443.86985314
_cell_formula_units_Z   1
loop_
 _symmetry_equiv_pos_site_id
 _symmetry_equiv_pos_as_xyz
  1  'x, y, z'
loop_
 _atom_site_type_symbol
 _atom_site_label
 _atom_site_symmetry_multiplicity
 _atom_site_fract_x
 _atom_site_fract_y
 _atom_site_fract_z
 _atom_site_occupancy
  Ba  Ba0  1  0.249738  0.394027  0.894821  1
  Ba  Ba1  1  0.999360  0.642172  0.642741  1
  Ba  Ba2  1  0.749873  0.894740  0.394493  1
  Ba  Ba3  1  0.500301  0.146624  0.146224  1
  Ba  Ba4  1  0.000229  0.357722  0.357176  1
  Ba  Ba5  1  0.750252  0.606154  0.105087  1
  Ba  Ba6  1  0.500037  0.853558  0.853831  1
  Ba  Ba7  1  0.249998  0.105204  0.605606  1
  V  V8  1  0.499729  0.499891  0.499814  1
  Tc  Tc9  1  0.251741  0.752118  0.248446  1
  Tc  Tc10  1  0.000271  0.000187  0.000055  1
  Tc  Tc11  1  0.748446  0.247956  0.751491  1
  O  O12  1  0.251322  0.597160  0.093787  1
  O  O13  1  0.999773  0.843987  0.844615  1
  O  O14  1  0.750044  0.094187  0.596042  1
  O  O15  1  0.500421  0.355930  0.355428  1
  O  O16  1  0.000652  0.156101  0.155542  1
  O  O17  1  0.748962  0.402924  0.905987  1
  O  O18  1  0.499329  0.643895  0.644628  1
  O  O19  1  0.249730  0.905436  0.404079  1
  O  O20  1  0.873799  0.123415  0.876218  1
  O  O21  1  0.624768  0.373763  0.625499  1
  O  O22  1  0.374819  0.625838  0.374288  1
  O  O23  1  0.126644  0.876937  0.124007  1
  O  O24  1  0.374029  0.123109  0.876303  1
  O  O25  1  0.124975  0.374064  0.625073  1
  O  O26  1  0.874782  0.625828  0.374546  1
  O  O27  1  0.625975  0.877072  0.124170  1
