# generated using pymatgen
data_CeDy3Sc2(AlIr2)2
_symmetry_space_group_name_H-M   'P 1'
_cell_length_a   6.93828032
_cell_length_b   4.33450400
_cell_length_c   8.23044640
_cell_angle_alpha   90.00000000
_cell_angle_beta   90.21445203
_cell_angle_gamma   90.00000000
_symmetry_Int_Tables_number   1
_chemical_formula_structural   CeDy3Sc2(AlIr2)2
_chemical_formula_sum   'Ce1 Dy3 Sc2 Al2 Ir4'
_cell_volume   247.52074257
_cell_formula_units_Z   1
loop_
 _symmetry_equiv_pos_site_id
 _symmetry_equiv_pos_as_xyz
  1  'x, y, z'
loop_
 _atom_site_type_symbol
 _atom_site_label
 _atom_site_symmetry_multiplicity
 _atom_site_fract_x
 _atom_site_fract_y
 _atom_site_fract_z
 _atom_site_occupancy
  Ce  Ce0  1  0.535608  0.750000  0.679969  1
  Dy  Dy1  1  0.972331  0.250000  0.174777  1
  Dy  Dy2  1  0.468502  0.250000  0.322415  1
  Dy  Dy3  1  0.039041  0.750000  0.823501  1
  Sc  Sc4  1  0.131409  0.750000  0.437527  1
  Sc  Sc5  1  0.633965  0.750000  0.061844  1
  Al  Al6  1  0.864385  0.250000  0.557830  1
  Al  Al7  1  0.359151  0.250000  0.941972  1
  Ir  Ir8  1  0.738453  0.250000  0.871674  1
  Ir  Ir9  1  0.241902  0.250000  0.623262  1
  Ir  Ir10  1  0.259339  0.750000  0.114781  1
  Ir  Ir11  1  0.755914  0.750000  0.390445  1
