# generated using pymatgen
data_Fe2HgCl8
_symmetry_space_group_name_H-M   'P 1'
_cell_length_a   7.22067600
_cell_length_b   7.31983825
_cell_length_c   13.43221887
_cell_angle_alpha   87.36676632
_cell_angle_beta   90.00000000
_cell_angle_gamma   90.00000000
_symmetry_Int_Tables_number   1
_chemical_formula_structural   Fe2HgCl8
_chemical_formula_sum   'Fe4 Hg2 Cl16'
_cell_volume   709.19927621
_cell_formula_units_Z   2
loop_
 _symmetry_equiv_pos_site_id
 _symmetry_equiv_pos_as_xyz
  1  'x, y, z'
loop_
 _atom_site_type_symbol
 _atom_site_label
 _atom_site_symmetry_multiplicity
 _atom_site_fract_x
 _atom_site_fract_y
 _atom_site_fract_z
 _atom_site_occupancy
  Fe  Fe0  1  0.922496  0.436341  0.539474  1
  Fe  Fe1  1  0.435202  0.856997  0.240950  1
  Fe  Fe2  1  0.564798  0.856997  0.740950  1
  Fe  Fe3  1  0.077504  0.436341  0.039474  1
  Hg  Hg4  1  0.742595  0.994775  0.502885  1
  Hg  Hg5  1  0.257405  0.994775  0.002885  1
  Cl  Cl6  1  0.929386  0.463898  0.176286  1
  Cl  Cl7  1  0.070614  0.463898  0.676286  1
  Cl  Cl8  1  0.630575  0.344859  0.561825  1
  Cl  Cl9  1  0.369425  0.344859  0.061825  1
  Cl  Cl10  1  0.926995  0.701523  0.446507  1
  Cl  Cl11  1  0.073005  0.701523  0.946507  1
  Cl  Cl12  1  0.437799  0.845369  0.587324  1
  Cl  Cl13  1  0.562201  0.845369  0.087324  1
  Cl  Cl14  1  0.042518  0.207773  0.453226  1
  Cl  Cl15  1  0.957482  0.207773  0.953226  1
  Cl  Cl16  1  0.147695  0.948480  0.204004  1
  Cl  Cl17  1  0.852305  0.948480  0.704004  1
  Cl  Cl18  1  0.437886  0.597887  0.321545  1
  Cl  Cl19  1  0.562114  0.597887  0.821545  1
  Cl  Cl20  1  0.585016  0.070699  0.324974  1
  Cl  Cl21  1  0.414984  0.070699  0.824974  1
