# generated using pymatgen
data_Er4Tm5Mg(Ni2Sb)2
_symmetry_space_group_name_H-M   'P 1'
_cell_length_a   8.54717566
_cell_length_b   8.55311186
_cell_length_c   8.54466919
_cell_angle_alpha   128.43563530
_cell_angle_beta   128.39444546
_cell_angle_gamma   75.98753717
_symmetry_Int_Tables_number   1
_chemical_formula_structural   Er4Tm5Mg(Ni2Sb)2
_chemical_formula_sum   'Er4 Tm5 Mg1 Ni4 Sb2'
_cell_volume   372.79902388
_cell_formula_units_Z   1
loop_
 _symmetry_equiv_pos_site_id
 _symmetry_equiv_pos_as_xyz
  1  'x, y, z'
loop_
 _atom_site_type_symbol
 _atom_site_label
 _atom_site_symmetry_multiplicity
 _atom_site_fract_x
 _atom_site_fract_y
 _atom_site_fract_z
 _atom_site_occupancy
  Er  Er0  1  0.021076  0.197568  0.483757  1
  Er  Er1  1  0.537604  0.021294  0.824263  1
  Er  Er2  1  0.713170  0.536802  0.515902  1
  Er  Er3  1  0.979031  0.802254  0.515816  1
  Tm  Tm4  1  0.499731  0.500315  0.999684  1
  Tm  Tm5  1  0.801997  0.286195  0.823720  1
  Tm  Tm6  1  0.198039  0.713840  0.176123  1
  Tm  Tm7  1  0.462133  0.978440  0.176883  1
  Tm  Tm8  1  0.285748  0.462201  0.483787  1
  Mg  Mg9  1  0.000366  0.000292  0.000227  1
  Ni  Ni10  1  0.132475  0.623922  0.755913  1
  Ni  Ni11  1  0.868807  0.376616  0.244588  1
  Ni  Ni12  1  0.623296  0.868721  0.491504  1
  Ni  Ni13  1  0.376669  0.131769  0.507654  1
  Sb  Sb14  1  0.257579  0.257756  0.000335  1
  Sb  Sb15  1  0.742279  0.742014  0.999845  1
