# generated using pymatgen
data_Pr(S8Br)3
_symmetry_space_group_name_H-M   'P 1'
_cell_length_a   16.27628133
_cell_length_b   16.27628073
_cell_length_c   16.27627998
_cell_angle_alpha   119.25255101
_cell_angle_beta   119.25255433
_cell_angle_gamma   119.25255880
_symmetry_Int_Tables_number   1
_chemical_formula_structural   Pr(S8Br)3
_chemical_formula_sum   'Pr1 S24 Br3'
_cell_volume   966.67355956
_cell_formula_units_Z   1
loop_
 _symmetry_equiv_pos_site_id
 _symmetry_equiv_pos_as_xyz
  1  'x, y, z'
loop_
 _atom_site_type_symbol
 _atom_site_label
 _atom_site_symmetry_multiplicity
 _atom_site_fract_x
 _atom_site_fract_y
 _atom_site_fract_z
 _atom_site_occupancy
  Pr  Pr0  1  0.556452  0.556452  0.556452  1
  S  S1  1  0.803123  0.515878  0.515878  1
  S  S2  1  0.515878  0.515878  0.803123  1
  S  S3  1  0.515878  0.803123  0.515878  1
  S  S4  1  0.214311  0.335058  0.604162  1
  S  S5  1  0.401940  0.984495  0.401940  1
  S  S6  1  0.401940  0.401940  0.984495  1
  S  S7  1  0.984495  0.401940  0.401940  1
  S  S8  1  0.134191  0.732438  0.254376  1
  S  S9  1  0.254376  0.134191  0.732438  1
  S  S10  1  0.732438  0.254376  0.134191  1
  S  S11  1  0.732438  0.134191  0.254376  1
  S  S12  1  0.254376  0.732438  0.134191  1
  S  S13  1  0.134191  0.254376  0.732438  1
  S  S14  1  0.374745  0.894401  0.544742  1
  S  S15  1  0.544742  0.374745  0.894401  1
  S  S16  1  0.894401  0.544742  0.374745  1
  S  S17  1  0.894401  0.374745  0.544742  1
  S  S18  1  0.544742  0.894401  0.374745  1
  S  S19  1  0.374745  0.544742  0.894401  1
  S  S20  1  0.214311  0.604162  0.335058  1
  S  S21  1  0.335058  0.214311  0.604162  1
  S  S22  1  0.604162  0.335058  0.214311  1
  S  S23  1  0.604162  0.214311  0.335058  1
  S  S24  1  0.335058  0.604162  0.214311  1
  Br  Br25  1  0.968532  0.100104  0.100104  1
  Br  Br26  1  0.100104  0.100104  0.968532  1
  Br  Br27  1  0.100104  0.968532  0.100104  1
