# generated using pymatgen
data_Th2AlFe9
_symmetry_space_group_name_H-M   'P 1'
_cell_length_a   5.13022816
_cell_length_b   5.13022966
_cell_length_c   8.06456000
_cell_angle_alpha   90.00000000
_cell_angle_beta   90.00000000
_cell_angle_gamma   120.73989405
_symmetry_Int_Tables_number   1
_chemical_formula_structural   Th2AlFe9
_chemical_formula_sum   'Th2 Al1 Fe9'
_cell_volume   182.43086543
_cell_formula_units_Z   1
loop_
 _symmetry_equiv_pos_site_id
 _symmetry_equiv_pos_as_xyz
  1  'x, y, z'
loop_
 _atom_site_type_symbol
 _atom_site_label
 _atom_site_symmetry_multiplicity
 _atom_site_fract_x
 _atom_site_fract_y
 _atom_site_fract_z
 _atom_site_occupancy
  Th  Th0  1  0.000000  0.000000  0.759239  1
  Th  Th1  1  0.000000  0.000000  0.240761  1
  Al  Al2  1  0.500000  0.500000  0.500000  1
  Fe  Fe3  1  0.672845  0.327155  0.752818  1
  Fe  Fe4  1  0.672845  0.327155  0.247182  1
  Fe  Fe5  1  0.500000  0.500000  0.000000  1
  Fe  Fe6  1  0.327155  0.672845  0.752818  1
  Fe  Fe7  1  0.500000  0.000000  0.500000  1
  Fe  Fe8  1  0.000000  0.500000  0.000000  1
  Fe  Fe9  1  0.500000  0.000000  0.000000  1
  Fe  Fe10  1  0.327155  0.672845  0.247182  1
  Fe  Fe11  1  0.000000  0.500000  0.500000  1
