# generated using pymatgen
data_KOs5O13
_symmetry_space_group_name_H-M   'P 1'
_cell_length_a   5.55066286
_cell_length_b   5.55066330
_cell_length_c   16.75699300
_cell_angle_alpha   90.00000000
_cell_angle_beta   90.00000000
_cell_angle_gamma   108.35862495
_symmetry_Int_Tables_number   1
_chemical_formula_structural   KOs5O13
_chemical_formula_sum   'K2 Os10 O26'
_cell_volume   490.00384811
_cell_formula_units_Z   2
loop_
 _symmetry_equiv_pos_site_id
 _symmetry_equiv_pos_as_xyz
  1  'x, y, z'
loop_
 _atom_site_type_symbol
 _atom_site_label
 _atom_site_symmetry_multiplicity
 _atom_site_fract_x
 _atom_site_fract_y
 _atom_site_fract_z
 _atom_site_occupancy
  K  K0  1  0.129383  0.870617  0.750000  1
  K  K1  1  0.870617  0.129383  0.250000  1
  Os  Os2  1  0.000000  0.000000  0.000000  1
  Os  Os3  1  0.000000  0.000000  0.500000  1
  Os  Os4  1  0.238528  0.761472  0.137738  1
  Os  Os5  1  0.761472  0.238528  0.637738  1
  Os  Os6  1  0.761472  0.238528  0.862262  1
  Os  Os7  1  0.238528  0.761472  0.362262  1
  Os  Os8  1  0.380712  0.619288  0.928749  1
  Os  Os9  1  0.619288  0.380712  0.428749  1
  Os  Os10  1  0.619288  0.380712  0.071251  1
  Os  Os11  1  0.380712  0.619288  0.571251  1
  O  O12  1  0.222733  0.777267  0.250000  1
  O  O13  1  0.777267  0.222733  0.750000  1
  O  O14  1  0.482072  0.931831  0.870957  1
  O  O15  1  0.517928  0.068169  0.370957  1
  O  O16  1  0.931831  0.482072  0.129043  1
  O  O17  1  0.068169  0.517928  0.629043  1
  O  O18  1  0.517928  0.068169  0.129043  1
  O  O19  1  0.482072  0.931831  0.629043  1
  O  O20  1  0.068169  0.517928  0.870957  1
  O  O21  1  0.931831  0.482072  0.370957  1
  O  O22  1  0.694410  0.694410  0.000000  1
  O  O23  1  0.305590  0.305590  0.500000  1
  O  O24  1  0.305590  0.305590  0.000000  1
  O  O25  1  0.694410  0.694410  0.500000  1
  O  O26  1  0.223328  0.776672  0.013722  1
  O  O27  1  0.776672  0.223328  0.513722  1
  O  O28  1  0.776672  0.223328  0.986278  1
  O  O29  1  0.223328  0.776672  0.486278  1
  O  O30  1  0.547935  0.452065  0.861216  1
  O  O31  1  0.452065  0.547935  0.361216  1
  O  O32  1  0.452065  0.547935  0.138784  1
  O  O33  1  0.547935  0.452065  0.638784  1
  O  O34  1  0.027199  0.972801  0.114215  1
  O  O35  1  0.972801  0.027199  0.614215  1
  O  O36  1  0.972801  0.027199  0.885785  1
  O  O37  1  0.027199  0.972801  0.385785  1
