# generated using pymatgen
data_Nd12Ru3AuBr12
_symmetry_space_group_name_H-M   'P 1'
_cell_length_a   10.54397601
_cell_length_b   10.54397562
_cell_length_c   10.41559000
_cell_angle_alpha   109.22475055
_cell_angle_beta   109.22474980
_cell_angle_gamma   109.71656096
_symmetry_Int_Tables_number   1
_chemical_formula_structural   Nd12Ru3AuBr12
_chemical_formula_sum   'Nd12 Ru3 Au1 Br12'
_cell_volume   894.09319705
_cell_formula_units_Z   1
loop_
 _symmetry_equiv_pos_site_id
 _symmetry_equiv_pos_as_xyz
  1  'x, y, z'
loop_
 _atom_site_type_symbol
 _atom_site_label
 _atom_site_symmetry_multiplicity
 _atom_site_fract_x
 _atom_site_fract_y
 _atom_site_fract_z
 _atom_site_occupancy
  Nd  Nd0  1  0.258178  0.732930  0.227844  1
  Nd  Nd1  1  0.474752  0.732930  0.005086  1
  Nd  Nd2  1  0.234180  0.468358  0.484180  1
  Nd  Nd3  1  0.015637  0.031275  0.265637  1
  Nd  Nd4  1  0.234180  0.265820  0.750000  1
  Nd  Nd5  1  0.015637  0.484363  0.750000  1
  Nd  Nd6  1  0.474752  0.241822  0.469665  1
  Nd  Nd7  1  0.258178  0.025248  0.030335  1
  Nd  Nd8  1  0.767070  0.241822  0.272156  1
  Nd  Nd9  1  0.767070  0.025248  0.494914  1
  Nd  Nd10  1  0.468725  0.484363  0.234363  1
  Nd  Nd11  1  0.031642  0.265820  0.015820  1
  Ru  Ru12  1  0.249303  0.498606  0.999303  1
  Ru  Ru13  1  0.001394  0.250697  0.500697  1
  Ru  Ru14  1  0.249303  0.250697  0.250000  1
  Au  Au15  1  0.500000  0.000000  0.250000  1
  Br  Br16  1  0.248398  0.995234  0.502494  1
  Br  Br17  1  0.513076  0.506538  0.756538  1
  Br  Br18  1  0.248398  0.753166  0.745904  1
  Br  Br19  1  0.993856  0.746929  0.996929  1
  Br  Br20  1  0.993462  0.506538  0.250000  1
  Br  Br21  1  0.746834  0.995234  0.992737  1
  Br  Br22  1  0.753071  0.746929  0.250000  1
  Br  Br23  1  0.504766  0.753166  0.507263  1
  Br  Br24  1  0.504766  0.251602  0.997506  1
  Br  Br25  1  0.753071  0.506144  0.503071  1
  Br  Br26  1  0.746834  0.251602  0.754096  1
  Br  Br27  1  0.993462  0.986924  0.743462  1
