# generated using pymatgen
data_Er2TmNi6B2Ir
_symmetry_space_group_name_H-M   'P 1'
_cell_length_a   5.05121200
_cell_length_b   5.05121258
_cell_length_c   14.55603700
_cell_angle_alpha   90.00000000
_cell_angle_beta   90.00000000
_cell_angle_gamma   120.00000932
_symmetry_Int_Tables_number   1
_chemical_formula_structural   Er2TmNi6B2Ir
_chemical_formula_sum   'Er4 Tm2 Ni12 B4 Ir2'
_cell_volume   321.63624548
_cell_formula_units_Z   2
loop_
 _symmetry_equiv_pos_site_id
 _symmetry_equiv_pos_as_xyz
  1  'x, y, z'
loop_
 _atom_site_type_symbol
 _atom_site_label
 _atom_site_symmetry_multiplicity
 _atom_site_fract_x
 _atom_site_fract_y
 _atom_site_fract_z
 _atom_site_occupancy
  Er  Er0  1  0.333333  0.666667  0.531501  1
  Er  Er1  1  0.666667  0.333333  0.031501  1
  Er  Er2  1  0.333333  0.666667  0.750227  1
  Er  Er3  1  0.666667  0.333333  0.250227  1
  Tm  Tm4  1  0.666667  0.333333  0.468639  1
  Tm  Tm5  1  0.333333  0.666667  0.968639  1
  Ni  Ni6  1  0.165487  0.330974  0.151587  1
  Ni  Ni7  1  0.834513  0.669026  0.651587  1
  Ni  Ni8  1  0.669026  0.834513  0.151587  1
  Ni  Ni9  1  0.165487  0.834513  0.151587  1
  Ni  Ni10  1  0.834513  0.165487  0.651587  1
  Ni  Ni11  1  0.330974  0.165487  0.651587  1
  Ni  Ni12  1  0.834556  0.669112  0.848366  1
  Ni  Ni13  1  0.834556  0.165444  0.848366  1
  Ni  Ni14  1  0.330888  0.165444  0.848366  1
  Ni  Ni15  1  0.669112  0.834556  0.348366  1
  Ni  Ni16  1  0.165444  0.834556  0.348366  1
  Ni  Ni17  1  0.165444  0.330888  0.348366  1
  B  B18  1  0.333333  0.666667  0.250018  1
  B  B19  1  0.666667  0.333333  0.750018  1
  B  B20  1  0.000000  0.000000  0.249889  1
  B  B21  1  0.000000  0.000000  0.749889  1
  Ir  Ir22  1  0.000000  0.000000  0.999867  1
  Ir  Ir23  1  0.000000  0.000000  0.499867  1
