# generated using pymatgen
data_Tb3TiFeC6
_symmetry_space_group_name_H-M   'P 1'
_cell_length_a   8.24127800
_cell_length_b   8.24127691
_cell_length_c   5.04074900
_cell_angle_alpha   90.00000000
_cell_angle_beta   90.00000000
_cell_angle_gamma   119.99999528
_symmetry_Int_Tables_number   1
_chemical_formula_structural   Tb3TiFeC6
_chemical_formula_sum   'Tb6 Ti2 Fe2 C12'
_cell_volume   296.49323997
_cell_formula_units_Z   2
loop_
 _symmetry_equiv_pos_site_id
 _symmetry_equiv_pos_as_xyz
  1  'x, y, z'
loop_
 _atom_site_type_symbol
 _atom_site_label
 _atom_site_symmetry_multiplicity
 _atom_site_fract_x
 _atom_site_fract_y
 _atom_site_fract_z
 _atom_site_occupancy
  Tb  Tb0  1  0.621906  0.675486  0.750000  1
  Tb  Tb1  1  0.946421  0.621906  0.250000  1
  Tb  Tb2  1  0.675486  0.053579  0.250000  1
  Tb  Tb3  1  0.324514  0.946421  0.750000  1
  Tb  Tb4  1  0.053579  0.378094  0.750000  1
  Tb  Tb5  1  0.378094  0.324514  0.250000  1
  Ti  Ti6  1  0.000000  0.000000  0.500000  1
  Ti  Ti7  1  0.000000  0.000000  0.000000  1
  Fe  Fe8  1  0.666667  0.333333  0.750000  1
  Fe  Fe9  1  0.333333  0.666667  0.250000  1
  C  C10  1  0.961611  0.759208  0.750000  1
  C  C11  1  0.202403  0.961611  0.250000  1
  C  C12  1  0.759208  0.797597  0.250000  1
  C  C13  1  0.240792  0.202403  0.750000  1
  C  C14  1  0.797597  0.038389  0.750000  1
  C  C15  1  0.038389  0.240792  0.250000  1
  C  C16  1  0.865967  0.568531  0.750000  1
  C  C17  1  0.297435  0.865967  0.250000  1
  C  C18  1  0.568531  0.702565  0.250000  1
  C  C19  1  0.431469  0.297435  0.750000  1
  C  C20  1  0.134033  0.431469  0.250000  1
  C  C21  1  0.702565  0.134033  0.750000  1
