# generated using pymatgen
data_Y6MnVB14
_symmetry_space_group_name_H-M   'P 1'
_cell_length_a   8.11219214
_cell_length_b   8.11219264
_cell_length_c   9.37347600
_cell_angle_alpha   90.00000000
_cell_angle_beta   90.00000000
_cell_angle_gamma   155.58417504
_symmetry_Int_Tables_number   1
_chemical_formula_structural   Y6MnVB14
_chemical_formula_sum   'Y6 Mn1 V1 B14'
_cell_volume   254.97719633
_cell_formula_units_Z   1
loop_
 _symmetry_equiv_pos_site_id
 _symmetry_equiv_pos_as_xyz
  1  'x, y, z'
loop_
 _atom_site_type_symbol
 _atom_site_label
 _atom_site_symmetry_multiplicity
 _atom_site_fract_x
 _atom_site_fract_y
 _atom_site_fract_z
 _atom_site_occupancy
  Y  Y0  1  0.757072  0.242928  0.250000  1
  Y  Y1  1  0.241544  0.758456  0.750000  1
  Y  Y2  1  0.894682  0.105318  0.562387  1
  Y  Y3  1  0.105883  0.894117  0.441331  1
  Y  Y4  1  0.105883  0.894117  0.058669  1
  Y  Y5  1  0.894682  0.105318  0.937613  1
  Mn  Mn6  1  0.053797  0.946203  0.750000  1
  V  V7  1  0.947449  0.052551  0.250000  1
  B  B8  1  0.541848  0.458152  0.250000  1
  B  B9  1  0.461226  0.538774  0.750000  1
  B  B10  1  0.521639  0.478361  0.903291  1
  B  B11  1  0.479379  0.520621  0.093913  1
  B  B12  1  0.479379  0.520621  0.406087  1
  B  B13  1  0.521639  0.478361  0.596709  1
  B  B14  1  0.630078  0.369922  0.847647  1
  B  B15  1  0.367531  0.632469  0.149008  1
  B  B16  1  0.726976  0.273024  0.966072  1
  B  B17  1  0.272366  0.727634  0.031327  1
  B  B18  1  0.272366  0.727634  0.468673  1
  B  B19  1  0.726976  0.273024  0.533928  1
  B  B20  1  0.630078  0.369922  0.652353  1
  B  B21  1  0.367531  0.632469  0.350992  1
