# generated using pymatgen
data_NaSr9(Si2Bi)2
_symmetry_space_group_name_H-M   'P 1'
_cell_length_a   9.89363791
_cell_length_b   9.89363717
_cell_length_c   9.89363744
_cell_angle_alpha   130.65936790
_cell_angle_beta   130.65936475
_cell_angle_gamma   72.35483640
_symmetry_Int_Tables_number   1
_chemical_formula_structural   NaSr9(Si2Bi)2
_chemical_formula_sum   'Na1 Sr9 Si4 Bi2'
_cell_volume   544.75680398
_cell_formula_units_Z   1
loop_
 _symmetry_equiv_pos_site_id
 _symmetry_equiv_pos_as_xyz
  1  'x, y, z'
loop_
 _atom_site_type_symbol
 _atom_site_label
 _atom_site_symmetry_multiplicity
 _atom_site_fract_x
 _atom_site_fract_y
 _atom_site_fract_z
 _atom_site_occupancy
  Na  Na0  1  0.500000  0.500000  0.000000  1
  Sr  Sr1  1  0.539101  0.053836  0.856433  1
  Sr  Sr2  1  0.197403  0.682668  0.143567  1
  Sr  Sr3  1  0.053836  0.197403  0.514736  1
  Sr  Sr4  1  0.682668  0.539101  0.485264  1
  Sr  Sr5  1  0.460899  0.946164  0.143567  1
  Sr  Sr6  1  0.802597  0.317332  0.856433  1
  Sr  Sr7  1  0.946164  0.802597  0.485264  1
  Sr  Sr8  1  0.317332  0.460899  0.514736  1
  Sr  Sr9  1  0.000000  0.000000  0.000000  1
  Si  Si10  1  0.897862  0.386863  0.284725  1
  Si  Si11  1  0.102138  0.613137  0.715275  1
  Si  Si12  1  0.386863  0.102138  0.489000  1
  Si  Si13  1  0.613137  0.897862  0.511000  1
  Bi  Bi14  1  0.242608  0.242608  0.000000  1
  Bi  Bi15  1  0.757392  0.757392  0.000000  1
