# generated using pymatgen
data_Ti10Nb3MoP8
_symmetry_space_group_name_H-M   'P 1'
_cell_length_a   7.55045919
_cell_length_b   7.55045990
_cell_length_c   13.60258584
_cell_angle_alpha   75.87146127
_cell_angle_beta   75.87146014
_cell_angle_gamma   26.15000516
_symmetry_Int_Tables_number   1
_chemical_formula_structural   Ti10Nb3MoP8
_chemical_formula_sum   'Ti10 Nb3 Mo1 P8'
_cell_volume   330.86466127
_cell_formula_units_Z   1
loop_
 _symmetry_equiv_pos_site_id
 _symmetry_equiv_pos_as_xyz
  1  'x, y, z'
loop_
 _atom_site_type_symbol
 _atom_site_label
 _atom_site_symmetry_multiplicity
 _atom_site_fract_x
 _atom_site_fract_y
 _atom_site_fract_z
 _atom_site_occupancy
  Ti  Ti0  1  0.197901  0.197901  0.688553  1
  Ti  Ti1  1  0.802099  0.802099  0.311447  1
  Ti  Ti2  1  0.206666  0.206666  0.207816  1
  Ti  Ti3  1  0.793334  0.793334  0.792184  1
  Ti  Ti4  1  0.339349  0.339349  0.968351  1
  Ti  Ti5  1  0.660651  0.660651  0.031649  1
  Ti  Ti6  1  0.003708  0.003708  0.341050  1
  Ti  Ti7  1  0.996292  0.996292  0.658950  1
  Ti  Ti8  1  0.175845  0.175845  0.459869  1
  Ti  Ti9  1  0.824155  0.824155  0.540131  1
  Nb  Nb10  1  0.000000  0.000000  0.000000  1
  Nb  Nb11  1  0.427349  0.427349  0.175338  1
  Nb  Nb12  1  0.572651  0.572651  0.824662  1
  Mo  Mo13  1  0.500000  0.500000  0.500000  1
  P  P14  1  0.181572  0.181572  0.889580  1
  P  P15  1  0.818428  0.818428  0.110420  1
  P  P16  1  0.372966  0.372966  0.395313  1
  P  P17  1  0.627034  0.627034  0.604687  1
  P  P18  1  0.369349  0.369349  0.658763  1
  P  P19  1  0.630651  0.630651  0.341237  1
  P  P20  1  0.064271  0.064271  0.154771  1
  P  P21  1  0.935729  0.935729  0.845229  1
