# generated using pymatgen
data_Ca3Gd(OsC2)2
_symmetry_space_group_name_H-M   'P 1'
_cell_length_a   5.13007400
_cell_length_b   6.48492361
_cell_length_c   10.18837400
_cell_angle_alpha   90.73845998
_cell_angle_beta   90.00000000
_cell_angle_gamma   90.00000000
_symmetry_Int_Tables_number   1
_chemical_formula_structural   Ca3Gd(OsC2)2
_chemical_formula_sum   'Ca6 Gd2 Os4 C8'
_cell_volume   338.92008068
_cell_formula_units_Z   2
loop_
 _symmetry_equiv_pos_site_id
 _symmetry_equiv_pos_as_xyz
  1  'x, y, z'
loop_
 _atom_site_type_symbol
 _atom_site_label
 _atom_site_symmetry_multiplicity
 _atom_site_fract_x
 _atom_site_fract_y
 _atom_site_fract_z
 _atom_site_occupancy
  Ca  Ca0  1  0.750000  0.807679  0.051816  1
  Ca  Ca1  1  0.250000  0.192321  0.948184  1
  Ca  Ca2  1  0.250000  0.535180  0.218839  1
  Ca  Ca3  1  0.750000  0.464820  0.781161  1
  Ca  Ca4  1  0.750000  0.966407  0.726917  1
  Ca  Ca5  1  0.250000  0.033593  0.273083  1
  Gd  Gd6  1  0.250000  0.688237  0.550101  1
  Gd  Gd7  1  0.750000  0.311763  0.449899  1
  Os  Os8  1  0.250000  0.729776  0.852188  1
  Os  Os9  1  0.750000  0.270224  0.147812  1
  Os  Os10  1  0.750000  0.772687  0.355214  1
  Os  Os11  1  0.250000  0.227313  0.644786  1
  C  C12  1  0.250000  0.467370  0.754925  1
  C  C13  1  0.750000  0.532630  0.245075  1
  C  C14  1  0.750000  0.036282  0.263768  1
  C  C15  1  0.250000  0.963718  0.736232  1
  C  C16  1  0.250000  0.794911  0.028917  1
  C  C17  1  0.750000  0.205089  0.971083  1
  C  C18  1  0.750000  0.688447  0.532136  1
  C  C19  1  0.250000  0.311553  0.467864  1
