# generated using pymatgen
data_Be2B2MoW3
_symmetry_space_group_name_H-M   'P 1'
_cell_length_a   3.21355700
_cell_length_b   3.22767300
_cell_length_c   8.65570000
_cell_angle_alpha   90.00000000
_cell_angle_beta   90.00000000
_cell_angle_gamma   90.00000000
_symmetry_Int_Tables_number   1
_chemical_formula_structural   Be2B2MoW3
_chemical_formula_sum   'Be2 B2 Mo1 W3'
_cell_volume   89.77961373
_cell_formula_units_Z   1
loop_
 _symmetry_equiv_pos_site_id
 _symmetry_equiv_pos_as_xyz
  1  'x, y, z'
loop_
 _atom_site_type_symbol
 _atom_site_label
 _atom_site_symmetry_multiplicity
 _atom_site_fract_x
 _atom_site_fract_y
 _atom_site_fract_z
 _atom_site_occupancy
  Be  Be0  1  0.000000  0.000000  0.436080  1
  Be  Be1  1  0.000000  0.500000  0.936589  1
  B  B2  1  0.500000  0.500000  0.065247  1
  B  B3  1  0.500000  0.000000  0.565568  1
  Mo  Mo4  1  0.000000  0.000000  0.147195  1
  W  W5  1  0.000000  0.500000  0.647531  1
  W  W6  1  0.500000  0.500000  0.351643  1
  W  W7  1  0.500000  0.000000  0.850147  1
