# generated using pymatgen
data_Hf8FeCo7Si13P
_symmetry_space_group_name_H-M   'P 1'
_cell_length_a   9.41477303
_cell_length_b   9.42073790
_cell_length_c   9.43532609
_cell_angle_alpha   94.17474485
_cell_angle_beta   94.14107816
_cell_angle_gamma   148.72862539
_symmetry_Int_Tables_number   1
_chemical_formula_structural   Hf8FeCo7Si13P
_chemical_formula_sum   'Hf8 Fe1 Co7 Si13 P1'
_cell_volume   418.39203015
_cell_formula_units_Z   1
loop_
 _symmetry_equiv_pos_site_id
 _symmetry_equiv_pos_as_xyz
  1  'x, y, z'
loop_
 _atom_site_type_symbol
 _atom_site_label
 _atom_site_symmetry_multiplicity
 _atom_site_fract_x
 _atom_site_fract_y
 _atom_site_fract_z
 _atom_site_occupancy
  Hf  Hf0  1  0.139203  0.139203  0.278407  1
  Hf  Hf1  1  0.861027  0.861027  0.722054  1
  Hf  Hf2  1  0.137729  0.862493  0.999934  1
  Hf  Hf3  1  0.862205  0.137441  0.999934  1
  Hf  Hf4  1  0.303777  0.498147  0.802509  1
  Hf  Hf5  1  0.695289  0.499408  0.195218  1
  Hf  Hf6  1  0.499929  0.695810  0.195218  1
  Hf  Hf7  1  0.498732  0.304362  0.802509  1
  Fe  Fe8  1  0.101964  0.601964  0.203928  1
  Co  Co9  1  0.398412  0.898412  0.796825  1
  Co  Co10  1  0.900405  0.101679  0.500944  1
  Co  Co11  1  0.600539  0.399265  0.500944  1
  Co  Co12  1  0.601948  0.101948  0.203896  1
  Co  Co13  1  0.897788  0.397788  0.795578  1
  Co  Co14  1  0.102988  0.903504  0.502362  1
  Co  Co15  1  0.399374  0.598858  0.502362  1
  Si  Si16  1  0.707294  0.707294  0.414588  1
  Si  Si17  1  0.289346  0.709082  0.000151  1
  Si  Si18  1  0.710804  0.291069  0.000151  1
  Si  Si19  1  0.091626  0.500355  0.592412  1
  Si  Si20  1  0.911985  0.503682  0.407479  1
  Si  Si21  1  0.495494  0.903797  0.407479  1
  Si  Si22  1  0.500786  0.092057  0.592412  1
  Si  Si23  1  0.250499  0.250756  0.999242  1
  Si  Si24  1  0.748743  0.748486  0.999242  1
  Si  Si25  1  0.299398  0.997882  0.300671  1
  Si  Si26  1  0.698463  0.999575  0.699315  1
  Si  Si27  1  0.000852  0.699740  0.699315  1
  Si  Si28  1  0.001273  0.302789  0.300671  1
  P  P29  1  0.292126  0.292126  0.584253  1
