# generated using pymatgen
data_La7Nd4In9Ir4
_symmetry_space_group_name_H-M   'P 1'
_cell_length_a   13.43588900
_cell_length_b   13.43342528
_cell_length_c   3.90491500
_cell_angle_alpha   90.00000000
_cell_angle_beta   90.00000000
_cell_angle_gamma   112.09843703
_symmetry_Int_Tables_number   1
_chemical_formula_structural   La7Nd4In9Ir4
_chemical_formula_sum   'La7 Nd4 In9 Ir4'
_cell_volume   653.02289935
_cell_formula_units_Z   1
loop_
 _symmetry_equiv_pos_site_id
 _symmetry_equiv_pos_as_xyz
  1  'x, y, z'
loop_
 _atom_site_type_symbol
 _atom_site_label
 _atom_site_symmetry_multiplicity
 _atom_site_fract_x
 _atom_site_fract_y
 _atom_site_fract_z
 _atom_site_occupancy
  La  La0  1  0.500000  0.500000  0.500000  1
  La  La1  1  0.919506  0.580518  0.500000  1
  La  La2  1  0.080494  0.419482  0.500000  1
  La  La3  1  0.127085  0.874202  0.500000  1
  La  La4  1  0.872915  0.125798  0.500000  1
  La  La5  1  0.341558  0.658493  0.500000  1
  La  La6  1  0.658442  0.341507  0.500000  1
  Nd  Nd7  1  0.813862  0.815157  0.500000  1
  Nd  Nd8  1  0.186138  0.184843  0.500000  1
  Nd  Nd9  1  0.580064  0.918313  0.500000  1
  Nd  Nd10  1  0.419936  0.081687  0.500000  1
  In  In11  1  0.341141  0.867803  0.000000  1
  In  In12  1  0.658859  0.132197  0.000000  1
  In  In13  1  0.862321  0.336642  0.000000  1
  In  In14  1  0.137679  0.663358  0.000000  1
  In  In15  1  0.580227  0.721828  0.000000  1
  In  In16  1  0.419773  0.278172  0.000000  1
  In  In17  1  0.719270  0.581780  0.000000  1
  In  In18  1  0.280730  0.418220  0.000000  1
  In  In19  1  0.000000  0.000000  0.000000  1
  Ir  Ir20  1  0.749016  0.955530  0.000000  1
  Ir  Ir21  1  0.250984  0.044470  0.000000  1
  Ir  Ir22  1  0.953785  0.746136  0.000000  1
  Ir  Ir23  1  0.046215  0.253864  0.000000  1
