# generated using pymatgen
data_Dy4ErGa6P6Ir19
_symmetry_space_group_name_H-M   'P 1'
_cell_length_a   12.96571700
_cell_length_b   12.96571699
_cell_length_c   3.98110100
_cell_angle_alpha   90.00000000
_cell_angle_beta   90.00000000
_cell_angle_gamma   120.00000258
_symmetry_Int_Tables_number   1
_chemical_formula_structural   Dy4ErGa6P6Ir19
_chemical_formula_sum   'Dy4 Er1 Ga6 P6 Ir19'
_cell_volume   579.59801846
_cell_formula_units_Z   1
loop_
 _symmetry_equiv_pos_site_id
 _symmetry_equiv_pos_as_xyz
  1  'x, y, z'
loop_
 _atom_site_type_symbol
 _atom_site_label
 _atom_site_symmetry_multiplicity
 _atom_site_fract_x
 _atom_site_fract_y
 _atom_site_fract_z
 _atom_site_occupancy
  Dy  Dy0  1  0.666667  0.333333  0.000000  1
  Dy  Dy1  1  0.816538  0.812240  0.500000  1
  Dy  Dy2  1  0.187760  0.004298  0.500000  1
  Dy  Dy3  1  0.995702  0.183462  0.500000  1
  Er  Er4  1  0.333333  0.666667  0.000000  1
  Ga  Ga5  1  0.677077  0.158388  0.500000  1
  Ga  Ga6  1  0.841612  0.518689  0.500000  1
  Ga  Ga7  1  0.481311  0.322923  0.500000  1
  Ga  Ga8  1  0.635152  0.636780  0.000000  1
  Ga  Ga9  1  0.363220  0.998373  0.000000  1
  Ga  Ga10  1  0.001627  0.364848  0.000000  1
  P  P11  1  0.180435  0.697473  0.500000  1
  P  P12  1  0.517037  0.819565  0.500000  1
  P  P13  1  0.302527  0.482963  0.500000  1
  P  P14  1  0.175785  0.181477  0.000000  1
  P  P15  1  0.818523  0.994307  0.000000  1
  P  P16  1  0.005693  0.824215  0.000000  1
  Ir  Ir17  1  0.808717  0.169114  0.000000  1
  Ir  Ir18  1  0.830886  0.639604  0.000000  1
  Ir  Ir19  1  0.360396  0.191283  0.000000  1
  Ir  Ir20  1  0.182302  0.793563  0.000000  1
  Ir  Ir21  1  0.611261  0.817698  0.000000  1
  Ir  Ir22  1  0.206437  0.388739  0.000000  1
  Ir  Ir23  1  0.446352  0.440519  0.000000  1
  Ir  Ir24  1  0.559481  0.005833  0.000000  1
  Ir  Ir25  1  0.994167  0.553648  0.000000  1
  Ir  Ir26  1  0.268342  0.281133  0.500000  1
  Ir  Ir27  1  0.718867  0.987209  0.500000  1
  Ir  Ir28  1  0.012791  0.731658  0.500000  1
  Ir  Ir29  1  0.873037  0.348742  0.500000  1
  Ir  Ir30  1  0.651258  0.524296  0.500000  1
  Ir  Ir31  1  0.475704  0.126963  0.500000  1
  Ir  Ir32  1  0.371519  0.868532  0.500000  1
  Ir  Ir33  1  0.497015  0.628481  0.500000  1
  Ir  Ir34  1  0.131468  0.502985  0.500000  1
  Ir  Ir35  1  0.000000  0.000000  0.000000  1
