# generated using pymatgen
data_Dy5Er(CdIn4)2
_symmetry_space_group_name_H-M   'P 1'
_cell_length_a   6.36154009
_cell_length_b   6.36153939
_cell_length_c   10.47492400
_cell_angle_alpha   90.00000000
_cell_angle_beta   90.00000000
_cell_angle_gamma   103.21440336
_symmetry_Int_Tables_number   1
_chemical_formula_structural   Dy5Er(CdIn4)2
_chemical_formula_sum   'Dy5 Er1 Cd2 In8'
_cell_volume   412.68710864
_cell_formula_units_Z   1
loop_
 _symmetry_equiv_pos_site_id
 _symmetry_equiv_pos_as_xyz
  1  'x, y, z'
loop_
 _atom_site_type_symbol
 _atom_site_label
 _atom_site_symmetry_multiplicity
 _atom_site_fract_x
 _atom_site_fract_y
 _atom_site_fract_z
 _atom_site_occupancy
  Dy  Dy0  1  0.620455  0.620455  0.250000  1
  Dy  Dy1  1  0.203579  0.796071  0.500111  1
  Dy  Dy2  1  0.203579  0.796071  0.999889  1
  Dy  Dy3  1  0.796071  0.203579  0.500111  1
  Dy  Dy4  1  0.796071  0.203579  0.999889  1
  Er  Er5  1  0.379496  0.379496  0.750000  1
  Cd  Cd6  1  0.011017  0.011017  0.250000  1
  Cd  Cd7  1  0.989522  0.989522  0.750000  1
  In  In8  1  0.309040  0.309040  0.044426  1
  In  In9  1  0.690798  0.690798  0.954851  1
  In  In10  1  0.309040  0.309040  0.455574  1
  In  In11  1  0.690798  0.690798  0.545149  1
  In  In12  1  0.511425  0.072545  0.250000  1
  In  In13  1  0.928104  0.488461  0.750000  1
  In  In14  1  0.488461  0.928104  0.750000  1
  In  In15  1  0.072545  0.511425  0.250000  1
