# generated using pymatgen
data_Sm4Y2Zn4Pd13
_symmetry_space_group_name_H-M   'P 1'
_cell_length_a   8.32273793
_cell_length_b   8.32273801
_cell_length_c   8.32232702
_cell_angle_alpha   109.47430708
_cell_angle_beta   109.47430977
_cell_angle_gamma   109.46703850
_symmetry_Int_Tables_number   1
_chemical_formula_structural   Sm4Y2Zn4Pd13
_chemical_formula_sum   'Sm4 Y2 Zn4 Pd13'
_cell_volume   443.75641378
_cell_formula_units_Z   1
loop_
 _symmetry_equiv_pos_site_id
 _symmetry_equiv_pos_as_xyz
  1  'x, y, z'
loop_
 _atom_site_type_symbol
 _atom_site_label
 _atom_site_symmetry_multiplicity
 _atom_site_fract_x
 _atom_site_fract_y
 _atom_site_fract_z
 _atom_site_occupancy
  Sm  Sm0  1  0.698766  0.698766  0.999394  1
  Sm  Sm1  1  0.301433  0.999634  0.301067  1
  Sm  Sm2  1  0.999634  0.301433  0.301067  1
  Sm  Sm3  1  0.300628  0.300628  0.999395  1
  Y  Y4  1  0.697321  0.999693  0.697014  1
  Y  Y5  1  0.999693  0.697321  0.697014  1
  Zn  Zn6  1  0.999908  0.999908  0.501348  1
  Zn  Zn7  1  0.999930  0.499930  0.999860  1
  Zn  Zn8  1  0.499930  0.999930  0.999860  1
  Zn  Zn9  1  0.501440  0.501440  0.501349  1
  Pd  Pd10  1  0.333036  0.333036  0.666072  1
  Pd  Pd11  1  0.666830  0.000063  0.334264  1
  Pd  Pd12  1  0.000063  0.666830  0.334264  1
  Pd  Pd13  1  0.667383  0.332356  0.999739  1
  Pd  Pd14  1  0.334202  0.667437  0.334266  1
  Pd  Pd15  1  0.999706  0.333538  0.667189  1
  Pd  Pd16  1  0.332356  0.667383  0.999739  1
  Pd  Pd17  1  0.333538  0.999706  0.667189  1
  Pd  Pd18  1  0.667437  0.334202  0.334266  1
  Pd  Pd19  1  0.668135  0.668135  0.336269  1
  Pd  Pd20  1  0.667482  0.333650  0.667189  1
  Pd  Pd21  1  0.333650  0.667482  0.667189  1
  Pd  Pd22  1  0.997498  0.997498  0.994996  1
