# generated using pymatgen
data_Ti6Tc3OsPt2
_symmetry_space_group_name_H-M   'P 1'
_cell_length_a   4.40398900
_cell_length_b   6.25978700
_cell_length_c   13.21341500
_cell_angle_alpha   90.00000000
_cell_angle_beta   89.99977017
_cell_angle_gamma   90.00000000
_symmetry_Int_Tables_number   1
_chemical_formula_structural   Ti6Tc3OsPt2
_chemical_formula_sum   'Ti12 Tc6 Os2 Pt4'
_cell_volume   364.26786195
_cell_formula_units_Z   2
loop_
 _symmetry_equiv_pos_site_id
 _symmetry_equiv_pos_as_xyz
  1  'x, y, z'
loop_
 _atom_site_type_symbol
 _atom_site_label
 _atom_site_symmetry_multiplicity
 _atom_site_fract_x
 _atom_site_fract_y
 _atom_site_fract_z
 _atom_site_occupancy
  Ti  Ti0  1  0.499988  0.245670  0.995943  1
  Ti  Ti1  1  0.499988  0.754331  0.995943  1
  Ti  Ti2  1  0.000052  0.250607  0.166260  1
  Ti  Ti3  1  0.000052  0.749392  0.166260  1
  Ti  Ti4  1  0.500047  0.249392  0.333733  1
  Ti  Ti5  1  0.500047  0.750608  0.333733  1
  Ti  Ti6  1  0.999988  0.254307  0.504038  1
  Ti  Ti7  1  0.999988  0.745693  0.504038  1
  Ti  Ti8  1  0.499966  0.254250  0.669966  1
  Ti  Ti9  1  0.499966  0.745750  0.669966  1
  Ti  Ti10  1  0.999958  0.245752  0.830048  1
  Ti  Ti11  1  0.999958  0.754247  0.830048  1
  Tc  Tc12  1  0.000004  0.000000  0.001832  1
  Tc  Tc13  1  0.500040  0.499999  0.167012  1
  Tc  Tc14  1  0.000038  0.000000  0.333001  1
  Tc  Tc15  1  0.500002  0.499999  0.498156  1
  Tc  Tc16  1  0.999966  0.000000  0.665185  1
  Tc  Tc17  1  0.499963  0.499999  0.834827  1
  Os  Os18  1  0.999962  0.499999  0.666647  1
  Os  Os19  1  0.499959  0.000000  0.833346  1
  Pt  Pt20  1  0.999984  0.499999  0.999494  1
  Pt  Pt21  1  0.500059  0.000000  0.166844  1
  Pt  Pt22  1  0.000047  0.499999  0.333168  1
  Pt  Pt23  1  0.499986  0.000000  0.500518  1
