# generated using pymatgen
data_Dy3Pt3Au7
_symmetry_space_group_name_H-M   'P 1'
_cell_length_a   10.83316700
_cell_length_b   10.83316554
_cell_length_c   4.93542700
_cell_angle_alpha   90.00000000
_cell_angle_beta   90.00000000
_cell_angle_gamma   119.99999531
_symmetry_Int_Tables_number   1
_chemical_formula_structural   Dy3Pt3Au7
_chemical_formula_sum   'Dy6 Pt6 Au14'
_cell_volume   501.61001898
_cell_formula_units_Z   2
loop_
 _symmetry_equiv_pos_site_id
 _symmetry_equiv_pos_as_xyz
  1  'x, y, z'
loop_
 _atom_site_type_symbol
 _atom_site_label
 _atom_site_symmetry_multiplicity
 _atom_site_fract_x
 _atom_site_fract_y
 _atom_site_fract_z
 _atom_site_occupancy
  Dy  Dy0  1  0.656125  0.756051  0.250000  1
  Dy  Dy1  1  0.243949  0.900075  0.250000  1
  Dy  Dy2  1  0.099925  0.343875  0.250000  1
  Dy  Dy3  1  0.343875  0.243949  0.750000  1
  Dy  Dy4  1  0.756051  0.099925  0.750000  1
  Dy  Dy5  1  0.900075  0.656125  0.750000  1
  Pt  Pt6  1  0.881211  0.049955  0.250000  1
  Pt  Pt7  1  0.950045  0.831257  0.250000  1
  Pt  Pt8  1  0.168743  0.118789  0.250000  1
  Pt  Pt9  1  0.118789  0.950045  0.750000  1
  Pt  Pt10  1  0.049955  0.168743  0.750000  1
  Pt  Pt11  1  0.831257  0.881211  0.750000  1
  Au  Au12  1  0.566481  0.979503  0.250000  1
  Au  Au13  1  0.020497  0.586977  0.250000  1
  Au  Au14  1  0.413023  0.433519  0.250000  1
  Au  Au15  1  0.433519  0.020497  0.750000  1
  Au  Au16  1  0.979503  0.413023  0.750000  1
  Au  Au17  1  0.586977  0.566481  0.750000  1
  Au  Au18  1  0.794149  0.281894  0.250000  1
  Au  Au19  1  0.718106  0.512255  0.250000  1
  Au  Au20  1  0.487745  0.205851  0.250000  1
  Au  Au21  1  0.205851  0.718106  0.750000  1
  Au  Au22  1  0.281894  0.487745  0.750000  1
  Au  Au23  1  0.512255  0.794149  0.750000  1
  Au  Au24  1  0.666667  0.333333  0.750000  1
  Au  Au25  1  0.333333  0.666667  0.250000  1
