# generated using pymatgen
data_YbHo6NiCl12
_symmetry_space_group_name_H-M   'P 1'
_cell_length_a   8.80729655
_cell_length_b   8.80729601
_cell_length_c   8.80729504
_cell_angle_alpha   106.59169318
_cell_angle_beta   106.59170223
_cell_angle_gamma   106.59169290
_symmetry_Int_Tables_number   1
_chemical_formula_structural   YbHo6NiCl12
_chemical_formula_sum   'Yb1 Ho6 Ni1 Cl12'
_cell_volume   575.16852012
_cell_formula_units_Z   1
loop_
 _symmetry_equiv_pos_site_id
 _symmetry_equiv_pos_as_xyz
  1  'x, y, z'
loop_
 _atom_site_type_symbol
 _atom_site_label
 _atom_site_symmetry_multiplicity
 _atom_site_fract_x
 _atom_site_fract_y
 _atom_site_fract_z
 _atom_site_occupancy
  Yb  Yb0  1  0.500000  0.500000  0.500000  1
  Ho  Ho1  1  0.106255  0.022108  0.313712  1
  Ho  Ho2  1  0.022108  0.313712  0.106255  1
  Ho  Ho3  1  0.313712  0.106255  0.022108  1
  Ho  Ho4  1  0.893744  0.977892  0.686288  1
  Ho  Ho5  1  0.977892  0.686288  0.893744  1
  Ho  Ho6  1  0.686288  0.893744  0.977892  1
  Ni  Ni7  1  0.000000  0.000000  0.000000  1
  Cl  Cl8  1  0.072017  0.677693  0.214304  1
  Cl  Cl9  1  0.677693  0.214304  0.072017  1
  Cl  Cl10  1  0.214304  0.072017  0.677693  1
  Cl  Cl11  1  0.927983  0.322307  0.785696  1
  Cl  Cl12  1  0.322307  0.785696  0.927983  1
  Cl  Cl13  1  0.785696  0.927983  0.322307  1
  Cl  Cl14  1  0.451382  0.160951  0.372415  1
  Cl  Cl15  1  0.160951  0.372415  0.451382  1
  Cl  Cl16  1  0.372415  0.451382  0.160951  1
  Cl  Cl17  1  0.548618  0.839049  0.627585  1
  Cl  Cl18  1  0.839049  0.627585  0.548618  1
  Cl  Cl19  1  0.627585  0.548618  0.839049  1
