# generated using pymatgen
data_Pr2YTm3(IrO7)2
_symmetry_space_group_name_H-M   'P 1'
_cell_length_a   6.44229550
_cell_length_b   6.43453507
_cell_length_c   7.48118600
_cell_angle_alpha   90.00000000
_cell_angle_beta   90.00000000
_cell_angle_gamma   109.52260391
_symmetry_Int_Tables_number   1
_chemical_formula_structural   Pr2YTm3(IrO7)2
_chemical_formula_sum   'Pr2 Y1 Tm3 Ir2 O14'
_cell_volume   292.29010076
_cell_formula_units_Z   1
loop_
 _symmetry_equiv_pos_site_id
 _symmetry_equiv_pos_as_xyz
  1  'x, y, z'
loop_
 _atom_site_type_symbol
 _atom_site_label
 _atom_site_symmetry_multiplicity
 _atom_site_fract_x
 _atom_site_fract_y
 _atom_site_fract_z
 _atom_site_occupancy
  Pr  Pr0  1  0.998533  0.999167  0.998913  1
  Pr  Pr1  1  0.998533  0.999167  0.501087  1
  Y  Y2  1  0.060956  0.515274  0.250000  1
  Tm  Tm3  1  0.486777  0.941274  0.750000  1
  Tm  Tm4  1  0.513454  0.058587  0.250000  1
  Tm  Tm5  1  0.940051  0.487264  0.750000  1
  Ir  Ir6  1  0.498858  0.498826  0.998887  1
  Ir  Ir7  1  0.498858  0.498826  0.501113  1
  O  O8  1  0.595834  0.595267  0.750000  1
  O  O9  1  0.414927  0.408531  0.250000  1
  O  O10  1  0.836435  0.125883  0.750000  1
  O  O11  1  0.162615  0.880362  0.250000  1
  O  O12  1  0.126049  0.837261  0.750000  1
  O  O13  1  0.873170  0.159204  0.250000  1
  O  O14  1  0.440661  0.177935  0.966238  1
  O  O15  1  0.556989  0.820646  0.467111  1
  O  O16  1  0.178381  0.437261  0.963017  1
  O  O17  1  0.821444  0.561710  0.469981  1
  O  O18  1  0.440661  0.177935  0.533762  1
  O  O19  1  0.556989  0.820646  0.032889  1
  O  O20  1  0.821444  0.561710  0.030019  1
  O  O21  1  0.178381  0.437261  0.536983  1
