# generated using pymatgen
data_TbNd5IrCl10
_symmetry_space_group_name_H-M   'P 1'
_cell_length_a   7.36828146
_cell_length_b   9.23046686
_cell_length_c   9.25428250
_cell_angle_alpha   109.70565030
_cell_angle_beta   95.78446270
_cell_angle_gamma   106.49614247
_symmetry_Int_Tables_number   1
_chemical_formula_structural   TbNd5IrCl10
_chemical_formula_sum   'Tb1 Nd5 Ir1 Cl10'
_cell_volume   554.52950857
_cell_formula_units_Z   1
loop_
 _symmetry_equiv_pos_site_id
 _symmetry_equiv_pos_as_xyz
  1  'x, y, z'
loop_
 _atom_site_type_symbol
 _atom_site_label
 _atom_site_symmetry_multiplicity
 _atom_site_fract_x
 _atom_site_fract_y
 _atom_site_fract_z
 _atom_site_occupancy
  Tb  Tb0  1  0.632852  0.858410  0.811008  1
  Nd  Nd1  1  0.141548  0.055388  0.751901  1
  Nd  Nd2  1  0.853615  0.940725  0.246688  1
  Nd  Nd3  1  0.969721  0.309251  0.104488  1
  Nd  Nd4  1  0.027016  0.689420  0.892378  1
  Nd  Nd5  1  0.375020  0.148669  0.197166  1
  Ir  Ir6  1  0.000056  0.999546  0.000748  1
  Cl  Cl7  1  0.552143  0.164026  0.924511  1
  Cl  Cl8  1  0.449911  0.829958  0.066919  1
  Cl  Cl9  1  0.353115  0.456539  0.271186  1
  Cl  Cl10  1  0.641070  0.555040  0.724412  1
  Cl  Cl11  1  0.231227  0.072996  0.445195  1
  Cl  Cl12  1  0.758533  0.919616  0.559650  1
  Cl  Cl13  1  0.792148  0.250111  0.350478  1
  Cl  Cl14  1  0.227804  0.754527  0.658438  1
  Cl  Cl15  1  0.084624  0.365437  0.837792  1
  Cl  Cl16  1  0.909597  0.630343  0.157044  1
