# generated using pymatgen
data_CsSmBeF6
_symmetry_space_group_name_H-M   'P 1'
_cell_length_a   6.03585300
_cell_length_b   6.73515845
_cell_length_c   7.74220250
_cell_angle_alpha   65.12033478
_cell_angle_beta   90.00000000
_cell_angle_gamma   90.00000000
_symmetry_Int_Tables_number   1
_chemical_formula_structural   CsSmBeF6
_chemical_formula_sum   'Cs2 Sm2 Be2 F12'
_cell_volume   285.52942675
_cell_formula_units_Z   2
loop_
 _symmetry_equiv_pos_site_id
 _symmetry_equiv_pos_as_xyz
  1  'x, y, z'
loop_
 _atom_site_type_symbol
 _atom_site_label
 _atom_site_symmetry_multiplicity
 _atom_site_fract_x
 _atom_site_fract_y
 _atom_site_fract_z
 _atom_site_occupancy
  Cs  Cs0  1  0.250000  0.104291  0.774057  1
  Cs  Cs1  1  0.750000  0.895709  0.225943  1
  Sm  Sm2  1  0.250000  0.403543  0.180104  1
  Sm  Sm3  1  0.750000  0.596457  0.819896  1
  Be  Be4  1  0.250000  0.767040  0.467783  1
  Be  Be5  1  0.750000  0.232960  0.532217  1
  F  F6  1  0.459942  0.723213  0.597397  1
  F  F7  1  0.540058  0.276787  0.402603  1
  F  F8  1  0.959942  0.276787  0.402603  1
  F  F9  1  0.040058  0.723213  0.597397  1
  F  F10  1  0.250000  0.618376  0.357935  1
  F  F11  1  0.750000  0.381624  0.642065  1
  F  F12  1  0.499194  0.684081  0.009201  1
  F  F13  1  0.500806  0.315919  0.990799  1
  F  F14  1  0.999194  0.315919  0.990799  1
  F  F15  1  0.000806  0.684081  0.009201  1
  F  F16  1  0.250000  0.011552  0.313114  1
  F  F17  1  0.750000  0.988448  0.686886  1
