# generated using pymatgen
data_Nd2Ni7(As2Ru)3
_symmetry_space_group_name_H-M   'P 1'
_cell_length_a   3.91140500
_cell_length_b   11.03089700
_cell_length_c   12.47671600
_cell_angle_alpha   90.00000000
_cell_angle_beta   90.00000000
_cell_angle_gamma   90.00000000
_symmetry_Int_Tables_number   1
_chemical_formula_structural   Nd2Ni7(As2Ru)3
_chemical_formula_sum   'Nd4 Ni14 As12 Ru6'
_cell_volume   538.32420242
_cell_formula_units_Z   2
loop_
 _symmetry_equiv_pos_site_id
 _symmetry_equiv_pos_as_xyz
  1  'x, y, z'
loop_
 _atom_site_type_symbol
 _atom_site_label
 _atom_site_symmetry_multiplicity
 _atom_site_fract_x
 _atom_site_fract_y
 _atom_site_fract_z
 _atom_site_occupancy
  Nd  Nd0  1  0.250000  0.590526  0.704527  1
  Nd  Nd1  1  0.250000  0.909474  0.204527  1
  Nd  Nd2  1  0.750000  0.410749  0.293821  1
  Nd  Nd3  1  0.750000  0.089251  0.793821  1
  Ni  Ni4  1  0.750000  0.592916  0.508872  1
  Ni  Ni5  1  0.750000  0.907084  0.008872  1
  Ni  Ni6  1  0.250000  0.216191  0.183208  1
  Ni  Ni7  1  0.250000  0.283809  0.683208  1
  Ni  Ni8  1  0.750000  0.786703  0.818576  1
  Ni  Ni9  1  0.750000  0.713297  0.318576  1
  Ni  Ni10  1  0.250000  0.887920  0.696438  1
  Ni  Ni11  1  0.250000  0.612080  0.196438  1
  Ni  Ni12  1  0.750000  0.108226  0.303493  1
  Ni  Ni13  1  0.750000  0.391774  0.803493  1
  Ni  Ni14  1  0.250000  0.471855  0.930740  1
  Ni  Ni15  1  0.250000  0.028145  0.430740  1
  Ni  Ni16  1  0.750000  0.530076  0.067994  1
  Ni  Ni17  1  0.750000  0.969924  0.567994  1
  As  As18  1  0.250000  0.411565  0.110051  1
  As  As19  1  0.250000  0.088435  0.610051  1
  As  As20  1  0.750000  0.590341  0.889496  1
  As  As21  1  0.750000  0.909659  0.389496  1
  As  As22  1  0.250000  0.274541  0.874661  1
  As  As23  1  0.250000  0.225459  0.374661  1
  As  As24  1  0.750000  0.726961  0.125098  1
  As  As25  1  0.750000  0.773039  0.625098  1
  As  As26  1  0.250000  0.598858  0.386545  1
  As  As27  1  0.250000  0.901142  0.886545  1
  As  As28  1  0.750000  0.400896  0.614687  1
  As  As29  1  0.750000  0.099104  0.114687  1
  Ru  Ru30  1  0.250000  0.713147  0.988201  1
  Ru  Ru31  1  0.250000  0.786853  0.488201  1
  Ru  Ru32  1  0.750000  0.289602  0.011682  1
  Ru  Ru33  1  0.750000  0.210398  0.511682  1
  Ru  Ru34  1  0.250000  0.409632  0.491912  1
  Ru  Ru35  1  0.250000  0.090368  0.991912  1
