# generated using pymatgen
data_CrCu2RhO4
_symmetry_space_group_name_H-M   'P 1'
_cell_length_a   3.09008598
_cell_length_b   10.57420997
_cell_length_c   6.03898534
_cell_angle_alpha   81.01411378
_cell_angle_beta   75.17498863
_cell_angle_gamma   89.99607492
_symmetry_Int_Tables_number   1
_chemical_formula_structural   CrCu2RhO4
_chemical_formula_sum   'Cr2 Cu4 Rh2 O8'
_cell_volume   188.25083921
_cell_formula_units_Z   2
loop_
 _symmetry_equiv_pos_site_id
 _symmetry_equiv_pos_as_xyz
  1  'x, y, z'
loop_
 _atom_site_type_symbol
 _atom_site_label
 _atom_site_symmetry_multiplicity
 _atom_site_fract_x
 _atom_site_fract_y
 _atom_site_fract_z
 _atom_site_occupancy
  Cr  Cr0  1  0.750031  0.625012  0.499960  1
  Cr  Cr1  1  0.749997  0.124989  0.499953  1
  Cu  Cu2  1  0.499735  0.250346  0.000421  1
  Cu  Cu3  1  0.499759  0.749850  0.000321  1
  Cu  Cu4  1  0.000260  0.999670  0.999597  1
  Cu  Cu5  1  0.000241  0.500166  0.999717  1
  Rh  Rh6  1  0.249966  0.375018  0.500089  1
  Rh  Rh7  1  0.250027  0.874979  0.499933  1
  O  O8  1  0.160774  0.030249  0.678522  1
  O  O9  1  0.160683  0.530453  0.678737  1
  O  O10  1  0.339216  0.219753  0.321472  1
  O  O11  1  0.339312  0.719545  0.321284  1
  O  O12  1  0.659995  0.273240  0.680048  1
  O  O13  1  0.660003  0.773055  0.679988  1
  O  O14  1  0.839994  0.476941  0.320020  1
  O  O15  1  0.840008  0.976737  0.319942  1
