# generated using pymatgen
data_YbNiF5
_symmetry_space_group_name_H-M   'P 1'
_cell_length_a   9.95282900
_cell_length_b   5.41764068
_cell_length_c   7.55649504
_cell_angle_alpha   69.56669766
_cell_angle_beta   90.00000000
_cell_angle_gamma   90.00000000
_symmetry_Int_Tables_number   1
_chemical_formula_structural   YbNiF5
_chemical_formula_sum   'Yb4 Ni4 F20'
_cell_volume   381.81541028
_cell_formula_units_Z   4
loop_
 _symmetry_equiv_pos_site_id
 _symmetry_equiv_pos_as_xyz
  1  'x, y, z'
loop_
 _atom_site_type_symbol
 _atom_site_label
 _atom_site_symmetry_multiplicity
 _atom_site_fract_x
 _atom_site_fract_y
 _atom_site_fract_z
 _atom_site_occupancy
  Yb  Yb0  1  0.023206  0.536743  0.742159  1
  Yb  Yb1  1  0.523206  0.463257  0.757841  1
  Yb  Yb2  1  0.976794  0.463257  0.257841  1
  Yb  Yb3  1  0.476794  0.536743  0.242159  1
  Ni  Ni4  1  0.752354  0.113381  0.597856  1
  Ni  Ni5  1  0.252354  0.886619  0.902144  1
  Ni  Ni6  1  0.247646  0.886619  0.402144  1
  Ni  Ni7  1  0.747646  0.113381  0.097856  1
  F  F8  1  0.880063  0.398995  0.556963  1
  F  F9  1  0.380063  0.601005  0.943037  1
  F  F10  1  0.119937  0.601005  0.443037  1
  F  F11  1  0.619937  0.398995  0.056963  1
  F  F12  1  0.612294  0.365253  0.500059  1
  F  F13  1  0.112294  0.634747  0.999941  1
  F  F14  1  0.387706  0.634747  0.499941  1
  F  F15  1  0.887706  0.365253  0.000059  1
  F  F16  1  0.394284  0.114834  0.807385  1
  F  F17  1  0.894284  0.885166  0.692615  1
  F  F18  1  0.605716  0.885166  0.192615  1
  F  F19  1  0.105716  0.114834  0.307385  1
  F  F20  1  0.134810  0.163916  0.864293  1
  F  F21  1  0.634810  0.836084  0.635707  1
  F  F22  1  0.865190  0.836084  0.135707  1
  F  F23  1  0.365190  0.163916  0.364293  1
  F  F24  1  0.694570  0.154807  0.837066  1
  F  F25  1  0.194570  0.845193  0.662934  1
  F  F26  1  0.305430  0.845193  0.162934  1
  F  F27  1  0.805430  0.154807  0.337066  1
