# generated using pymatgen
data_Cs9TlBi4
_symmetry_space_group_name_H-M   'P 1'
_cell_length_a   11.79381200
_cell_length_b   11.79371916
_cell_length_c   12.51554600
_cell_angle_alpha   90.00000000
_cell_angle_beta   90.00000000
_cell_angle_gamma   119.99962487
_symmetry_Int_Tables_number   1
_chemical_formula_structural   Cs9TlBi4
_chemical_formula_sum   'Cs18 Tl2 Bi8'
_cell_volume   1507.60322031
_cell_formula_units_Z   2
loop_
 _symmetry_equiv_pos_site_id
 _symmetry_equiv_pos_as_xyz
  1  'x, y, z'
loop_
 _atom_site_type_symbol
 _atom_site_label
 _atom_site_symmetry_multiplicity
 _atom_site_fract_x
 _atom_site_fract_y
 _atom_site_fract_z
 _atom_site_occupancy
  Cs  Cs0  1  0.208182  0.416367  0.542917  1
  Cs  Cs1  1  0.791815  0.208183  0.042918  1
  Cs  Cs2  1  0.416370  0.208187  0.042915  1
  Cs  Cs3  1  0.583630  0.791813  0.542915  1
  Cs  Cs4  1  0.208185  0.791817  0.542918  1
  Cs  Cs5  1  0.791818  0.583633  0.457083  1
  Cs  Cs6  1  0.791815  0.208183  0.457082  1
  Cs  Cs7  1  0.791818  0.583633  0.042917  1
  Cs  Cs8  1  0.416370  0.208187  0.457085  1
  Cs  Cs9  1  0.583630  0.791813  0.957085  1
  Cs  Cs10  1  0.208182  0.416367  0.957083  1
  Cs  Cs11  1  0.208185  0.791817  0.957082  1
  Cs  Cs12  1  0.120210  0.240417  0.250000  1
  Cs  Cs13  1  0.879781  0.120205  0.750000  1
  Cs  Cs14  1  0.240419  0.120211  0.750000  1
  Cs  Cs15  1  0.759581  0.879789  0.250000  1
  Cs  Cs16  1  0.120219  0.879795  0.250000  1
  Cs  Cs17  1  0.879790  0.759583  0.750000  1
  Tl  Tl18  1  0.333334  0.666665  0.250000  1
  Tl  Tl19  1  0.666666  0.333335  0.750000  1
  Bi  Bi20  1  0.482696  0.517304  0.250000  1
  Bi  Bi21  1  0.965383  0.482686  0.750000  1
  Bi  Bi22  1  0.517313  0.034616  0.750000  1
  Bi  Bi23  1  0.482687  0.965384  0.250000  1
  Bi  Bi24  1  0.034617  0.517314  0.250000  1
  Bi  Bi25  1  0.517304  0.482696  0.750000  1
  Bi  Bi26  1  0.000000  0.000000  0.000000  1
  Bi  Bi27  1  0.000000  0.000000  0.500000  1
