# generated using pymatgen
data_HfTa11(BOs)12
_symmetry_space_group_name_H-M   'P 1'
_cell_length_a   3.12195700
_cell_length_b   9.09238116
_cell_length_c   15.84899749
_cell_angle_alpha   89.88651811
_cell_angle_beta   90.00000000
_cell_angle_gamma   90.00000000
_symmetry_Int_Tables_number   1
_chemical_formula_structural   HfTa11(BOs)12
_chemical_formula_sum   'Hf1 Ta11 B12 Os12'
_cell_volume   449.88912499
_cell_formula_units_Z   1
loop_
 _symmetry_equiv_pos_site_id
 _symmetry_equiv_pos_as_xyz
  1  'x, y, z'
loop_
 _atom_site_type_symbol
 _atom_site_label
 _atom_site_symmetry_multiplicity
 _atom_site_fract_x
 _atom_site_fract_y
 _atom_site_fract_z
 _atom_site_occupancy
  Hf  Hf0  1  0.000000  0.815067  0.705650  1
  Ta  Ta1  1  0.000000  0.798870  0.494184  1
  Ta  Ta2  1  0.000000  0.199924  0.504490  1
  Ta  Ta3  1  0.000000  0.298566  0.004837  1
  Ta  Ta4  1  0.000000  0.700757  0.996218  1
  Ta  Ta5  1  0.000000  0.515228  0.593115  1
  Ta  Ta6  1  0.000000  0.483880  0.406495  1
  Ta  Ta7  1  0.000000  0.015697  0.906700  1
  Ta  Ta8  1  0.000000  0.983980  0.093343  1
  Ta  Ta9  1  0.000000  0.688653  0.202110  1
  Ta  Ta10  1  0.000000  0.313568  0.797242  1
  Ta  Ta11  1  0.000000  0.188358  0.297410  1
  B  B12  1  0.500000  0.604332  0.496096  1
  B  B13  1  0.500000  0.394609  0.503354  1
  B  B14  1  0.500000  0.104595  0.002961  1
  B  B15  1  0.500000  0.895278  0.997260  1
  B  B16  1  0.000000  0.608642  0.832602  1
  B  B17  1  0.000000  0.390755  0.167623  1
  B  B18  1  0.000000  0.108725  0.666802  1
  B  B19  1  0.000000  0.891138  0.332300  1
  B  B20  1  0.500000  0.713307  0.594887  1
  B  B21  1  0.500000  0.284376  0.401326  1
  B  B22  1  0.500000  0.214791  0.902282  1
  B  B23  1  0.500000  0.784858  0.098464  1
  Os  Os24  1  0.500000  0.719098  0.354632  1
  Os  Os25  1  0.500000  0.280247  0.643546  1
  Os  Os26  1  0.500000  0.219475  0.144852  1
  Os  Os27  1  0.500000  0.779283  0.858313  1
  Os  Os28  1  0.500000  0.515577  0.093873  1
  Os  Os29  1  0.500000  0.483141  0.906508  1
  Os  Os30  1  0.500000  0.016341  0.405708  1
  Os  Os31  1  0.500000  0.983693  0.593464  1
  Os  Os32  1  0.500000  0.559602  0.734768  1
  Os  Os33  1  0.500000  0.439547  0.265816  1
  Os  Os34  1  0.500000  0.065842  0.766481  1
  Os  Os35  1  0.500000  0.940202  0.234286  1
