# generated using pymatgen
data_La4Sn8Ir3Rh
_symmetry_space_group_name_H-M   'P 1'
_cell_length_a   8.90586675
_cell_length_b   8.90586564
_cell_length_c   9.75855256
_cell_angle_alpha   89.88173450
_cell_angle_beta   90.11826423
_cell_angle_gamma   149.20409818
_symmetry_Int_Tables_number   1
_chemical_formula_structural   La4Sn8Ir3Rh
_chemical_formula_sum   'La4 Sn8 Ir3 Rh1'
_cell_volume   396.26977354
_cell_formula_units_Z   1
loop_
 _symmetry_equiv_pos_site_id
 _symmetry_equiv_pos_as_xyz
  1  'x, y, z'
loop_
 _atom_site_type_symbol
 _atom_site_label
 _atom_site_symmetry_multiplicity
 _atom_site_fract_x
 _atom_site_fract_y
 _atom_site_fract_z
 _atom_site_occupancy
  La  La0  1  0.501042  0.498958  0.499950  1
  La  La1  1  0.499939  0.500061  0.000194  1
  La  La2  1  0.296360  0.703640  0.249407  1
  La  La3  1  0.703198  0.296802  0.750027  1
  Sn  Sn4  1  0.908296  0.091704  0.749552  1
  Sn  Sn5  1  0.925222  0.074778  0.250503  1
  Sn  Sn6  1  0.090905  0.909095  0.250021  1
  Sn  Sn7  1  0.074334  0.925666  0.749733  1
  Sn  Sn8  1  0.698155  0.301845  0.409781  1
  Sn  Sn9  1  0.302680  0.697320  0.590270  1
  Sn  Sn10  1  0.301903  0.698097  0.909797  1
  Sn  Sn11  1  0.698180  0.301820  0.089894  1
  Ir  Ir12  1  0.146780  0.853220  0.504961  1
  Ir  Ir13  1  0.853281  0.146719  0.004484  1
  Ir  Ir14  1  0.146748  0.853252  0.995388  1
  Rh  Rh15  1  0.852977  0.147023  0.496038  1
