# generated using pymatgen
data_U4Mn6Si3TcAs3
_symmetry_space_group_name_H-M   'P 1'
_cell_length_a   6.94992753
_cell_length_b   6.94992802
_cell_length_c   6.94992720
_cell_angle_alpha   109.68750678
_cell_angle_beta   109.45266257
_cell_angle_gamma   109.27375929
_symmetry_Int_Tables_number   1
_chemical_formula_structural   U4Mn6Si3TcAs3
_chemical_formula_sum   'U4 Mn6 Si3 Tc1 As3'
_cell_volume   258.41233736
_cell_formula_units_Z   1
loop_
 _symmetry_equiv_pos_site_id
 _symmetry_equiv_pos_as_xyz
  1  'x, y, z'
loop_
 _atom_site_type_symbol
 _atom_site_label
 _atom_site_symmetry_multiplicity
 _atom_site_fract_x
 _atom_site_fract_y
 _atom_site_fract_z
 _atom_site_occupancy
  U  U0  1  0.499174  0.495420  0.499330  1
  U  U1  1  0.003910  0.504580  0.003755  1
  U  U2  1  0.499174  0.999844  0.003755  1
  U  U3  1  0.003910  0.000156  0.499330  1
  Mn  Mn4  1  0.496649  0.750717  0.247365  1
  Mn  Mn5  1  0.747158  0.250159  0.496998  1
  Mn  Mn6  1  0.246839  0.749841  0.496998  1
  Mn  Mn7  1  0.248851  0.500000  0.748851  1
  Mn  Mn8  1  0.496649  0.249283  0.745932  1
  Mn  Mn9  1  0.750463  0.500000  0.250463  1
  Si  Si10  1  0.000286  0.672353  0.672639  1
  Si  Si11  1  0.000286  0.327647  0.327934  1
  Si  Si12  1  0.322612  0.000000  0.322612  1
  Tc  Tc13  1  0.004059  0.000000  0.004059  1
  As  As14  1  0.678958  0.000000  0.678958  1
  As  As15  1  0.682776  0.682265  0.000510  1
  As  As16  1  0.318245  0.317735  0.000510  1
