# generated using pymatgen
data_Be8Tc2OsW
_symmetry_space_group_name_H-M   'P 1'
_cell_length_a   4.38551800
_cell_length_b   4.38551577
_cell_length_c   7.16842700
_cell_angle_alpha   90.00000000
_cell_angle_beta   90.00000000
_cell_angle_gamma   120.00000173
_symmetry_Int_Tables_number   1
_chemical_formula_structural   Be8Tc2OsW
_chemical_formula_sum   'Be8 Tc2 Os1 W1'
_cell_volume   119.39772891
_cell_formula_units_Z   1
loop_
 _symmetry_equiv_pos_site_id
 _symmetry_equiv_pos_as_xyz
  1  'x, y, z'
loop_
 _atom_site_type_symbol
 _atom_site_label
 _atom_site_symmetry_multiplicity
 _atom_site_fract_x
 _atom_site_fract_y
 _atom_site_fract_z
 _atom_site_occupancy
  Be  Be0  1  0.000000  0.000000  0.502631  1
  Be  Be1  1  0.000000  0.000000  0.999148  1
  Be  Be2  1  0.831266  0.168734  0.252279  1
  Be  Be3  1  0.831266  0.662534  0.252279  1
  Be  Be4  1  0.337466  0.168734  0.252279  1
  Be  Be5  1  0.168678  0.831322  0.747522  1
  Be  Be6  1  0.168678  0.337357  0.747522  1
  Be  Be7  1  0.662643  0.831322  0.747522  1
  Tc  Tc8  1  0.333333  0.666667  0.434782  1
  Tc  Tc9  1  0.666667  0.333333  0.560076  1
  Os  Os10  1  0.666667  0.333333  0.941118  1
  W  W11  1  0.333333  0.666667  0.062842  1
