# generated using pymatgen
data_Pr2(PPt2)3
_symmetry_space_group_name_H-M   'P 1'
_cell_length_a   23.21978073
_cell_length_b   4.18055432
_cell_length_c   4.18069015
_cell_angle_alpha   90.02374254
_cell_angle_beta   95.17268293
_cell_angle_gamma   95.17223581
_symmetry_Int_Tables_number   1
_chemical_formula_structural   Pr2(PPt2)3
_chemical_formula_sum   'Pr4 P6 Pt12'
_cell_volume   402.51272315
_cell_formula_units_Z   2
loop_
 _symmetry_equiv_pos_site_id
 _symmetry_equiv_pos_as_xyz
  1  'x, y, z'
loop_
 _atom_site_type_symbol
 _atom_site_label
 _atom_site_symmetry_multiplicity
 _atom_site_fract_x
 _atom_site_fract_y
 _atom_site_fract_z
 _atom_site_occupancy
  Pr  Pr0  1  0.849157  0.924898  0.174415  1
  Pr  Pr1  1  0.348928  0.674267  0.424809  1
  Pr  Pr2  1  0.651036  0.325672  0.575171  1
  Pr  Pr3  1  0.150880  0.075142  0.825631  1
  P  P4  1  0.598004  0.799020  0.049148  1
  P  P5  1  0.750134  0.375097  0.125029  1
  P  P6  1  0.097879  0.549106  0.298966  1
  P  P7  1  0.902172  0.450925  0.701074  1
  P  P8  1  0.249864  0.624904  0.874966  1
  P  P9  1  0.401924  0.200939  0.950786  1
  Pt  Pt10  1  0.544188  0.272069  0.022119  1
  Pt  Pt11  1  0.701668  0.850729  0.101099  1
  Pt  Pt12  1  0.955878  0.477890  0.227967  1
  Pt  Pt13  1  0.048027  0.024108  0.274229  1
  Pt  Pt14  1  0.201537  0.601045  0.350672  1
  Pt  Pt15  1  0.451855  0.225700  0.475823  1
  Pt  Pt16  1  0.548098  0.774258  0.524124  1
  Pt  Pt17  1  0.798511  0.398995  0.649356  1
  Pt  Pt18  1  0.952047  0.975939  0.725813  1
  Pt  Pt19  1  0.044198  0.522157  0.772081  1
  Pt  Pt20  1  0.298269  0.149233  0.898886  1
  Pt  Pt21  1  0.455746  0.727897  0.977836  1
