# generated using pymatgen
data_TbZr3(BRu)16
_symmetry_space_group_name_H-M   'P 1'
_cell_length_a   9.14923795
_cell_length_b   7.43917521
_cell_length_c   7.43917613
_cell_angle_alpha   90.02151640
_cell_angle_beta   113.97847689
_cell_angle_gamma   113.97847556
_symmetry_Int_Tables_number   1
_chemical_formula_structural   TbZr3(BRu)16
_chemical_formula_sum   'Tb1 Zr3 B16 Ru16'
_cell_volume   414.31512257
_cell_formula_units_Z   1
loop_
 _symmetry_equiv_pos_site_id
 _symmetry_equiv_pos_as_xyz
  1  'x, y, z'
loop_
 _atom_site_type_symbol
 _atom_site_label
 _atom_site_symmetry_multiplicity
 _atom_site_fract_x
 _atom_site_fract_y
 _atom_site_fract_z
 _atom_site_occupancy
  Tb  Tb0  1  0.249999  0.125000  0.875000  1
  Zr  Zr1  1  0.750000  0.874999  0.124999  1
  Zr  Zr2  1  0.249999  0.624999  0.375000  1
  Zr  Zr3  1  0.750000  0.375000  0.625000  1
  B  B4  1  0.915059  0.288381  0.068627  1
  B  B5  1  0.413495  0.567134  0.124414  1
  B  B6  1  0.086505  0.210921  0.153641  1
  B  B7  1  0.585808  0.153362  0.211676  1
  B  B8  1  0.413980  0.067151  0.288777  1
  B  B9  1  0.915059  0.626678  0.346431  1
  B  B10  1  0.584941  0.653568  0.373323  1
  B  B11  1  0.086505  0.875586  0.432866  1
  B  B12  1  0.914192  0.125868  0.567554  1
  B  B13  1  0.413980  0.346828  0.625202  1
  B  B14  1  0.086020  0.374798  0.653172  1
  B  B15  1  0.584941  0.931372  0.711618  1
  B  B16  1  0.413495  0.846359  0.789079  1
  B  B17  1  0.914192  0.788324  0.846639  1
  B  B18  1  0.585808  0.432446  0.874131  1
  B  B19  1  0.086020  0.711223  0.932849  1
  Ru  Ru20  1  0.872974  0.550166  0.033391  1
  Ru  Ru21  1  0.374539  0.834331  0.052994  1
  Ru  Ru22  1  0.125461  0.947006  0.165669  1
  Ru  Ru23  1  0.629379  0.468021  0.178786  1
  Ru  Ru24  1  0.374966  0.339321  0.324484  1
  Ru  Ru25  1  0.872974  0.322808  0.339584  1
  Ru  Ru26  1  0.627026  0.966610  0.449834  1
  Ru  Ru27  1  0.125461  0.178456  0.459792  1
  Ru  Ru28  1  0.870621  0.821215  0.531978  1
  Ru  Ru29  1  0.374966  0.035646  0.550481  1
  Ru  Ru30  1  0.125034  0.675516  0.660679  1
  Ru  Ru31  1  0.627026  0.660417  0.677191  1
  Ru  Ru32  1  0.374539  0.540208  0.821544  1
  Ru  Ru33  1  0.870621  0.049407  0.838643  1
  Ru  Ru34  1  0.629379  0.161358  0.950592  1
  Ru  Ru35  1  0.125034  0.449519  0.964354  1
