# generated using pymatgen
data_Y2Er2TmRe2C7
_symmetry_space_group_name_H-M   'P 1'
_cell_length_a   8.32457000
_cell_length_b   8.29384575
_cell_length_c   3.40889300
_cell_angle_alpha   90.00000000
_cell_angle_beta   90.00000000
_cell_angle_gamma   122.45920102
_symmetry_Int_Tables_number   1
_chemical_formula_structural   Y2Er2TmRe2C7
_chemical_formula_sum   'Y2 Er2 Tm1 Re2 C7'
_cell_volume   198.58991275
_cell_formula_units_Z   1
loop_
 _symmetry_equiv_pos_site_id
 _symmetry_equiv_pos_as_xyz
  1  'x, y, z'
loop_
 _atom_site_type_symbol
 _atom_site_label
 _atom_site_symmetry_multiplicity
 _atom_site_fract_x
 _atom_site_fract_y
 _atom_site_fract_z
 _atom_site_occupancy
  Y  Y0  1  0.499799  0.499406  0.000000  1
  Y  Y1  1  0.924923  0.666408  0.500000  1
  Er  Er2  1  0.662821  0.923259  0.500000  1
  Er  Er3  1  0.337017  0.077145  0.500000  1
  Tm  Tm4  1  0.077805  0.336278  0.500000  1
  Re  Re5  1  0.715688  0.283851  0.000000  1
  Re  Re6  1  0.284832  0.714341  0.000000  1
  C  C7  1  0.626886  0.371441  0.500000  1
  C  C8  1  0.372394  0.626055  0.500000  1
  C  C9  1  0.999202  0.001703  0.000000  1
  C  C10  1  0.169716  0.170497  0.000000  1
  C  C11  1  0.828738  0.833116  0.000000  1
  C  C12  1  0.000733  0.497150  0.000000  1
  C  C13  1  0.499444  0.999350  0.000000  1
