# generated using pymatgen
data_Sc20Si12Cl
_symmetry_space_group_name_H-M   'P 1'
_cell_length_a   13.80104200
_cell_length_b   5.84377012
_cell_length_c   7.94208709
_cell_angle_alpha   89.97982995
_cell_angle_beta   90.00000000
_cell_angle_gamma   90.00000000
_symmetry_Int_Tables_number   1
_chemical_formula_structural   Sc20Si12Cl
_chemical_formula_sum   'Sc20 Si12 Cl1'
_cell_volume   640.53021225
_cell_formula_units_Z   1
loop_
 _symmetry_equiv_pos_site_id
 _symmetry_equiv_pos_as_xyz
  1  'x, y, z'
loop_
 _atom_site_type_symbol
 _atom_site_label
 _atom_site_symmetry_multiplicity
 _atom_site_fract_x
 _atom_site_fract_y
 _atom_site_fract_z
 _atom_site_occupancy
  Sc  Sc0  1  0.668411  0.500000  0.500000  1
  Sc  Sc1  1  0.166693  0.500000  0.000000  1
  Sc  Sc2  1  0.833307  0.500000  0.000000  1
  Sc  Sc3  1  0.331589  0.500000  0.500000  1
  Sc  Sc4  1  0.830280  0.000000  0.000000  1
  Sc  Sc5  1  0.337221  0.000000  0.500000  1
  Sc  Sc6  1  0.662779  0.000000  0.500000  1
  Sc  Sc7  1  0.169720  0.000000  0.000000  1
  Sc  Sc8  1  0.500000  0.253558  0.757615  1
  Sc  Sc9  1  0.000000  0.234354  0.244551  1
  Sc  Sc10  1  0.619936  0.249749  0.121787  1
  Sc  Sc11  1  0.127845  0.234627  0.627644  1
  Sc  Sc12  1  0.872155  0.234627  0.627644  1
  Sc  Sc13  1  0.380064  0.249749  0.121787  1
  Sc  Sc14  1  0.000000  0.765646  0.755449  1
  Sc  Sc15  1  0.500000  0.746442  0.242385  1
  Sc  Sc16  1  0.872155  0.765373  0.372356  1
  Sc  Sc17  1  0.380064  0.750251  0.878213  1
  Sc  Sc18  1  0.619936  0.750251  0.878213  1
  Sc  Sc19  1  0.127845  0.765373  0.372356  1
  Si  Si20  1  0.000000  0.242327  0.893692  1
  Si  Si21  1  0.500000  0.257611  0.394997  1
  Si  Si22  1  0.801615  0.244241  0.302986  1
  Si  Si23  1  0.304347  0.249612  0.804386  1
  Si  Si24  1  0.695653  0.249612  0.804386  1
  Si  Si25  1  0.198385  0.244241  0.302986  1
  Si  Si26  1  0.500000  0.742389  0.605003  1
  Si  Si27  1  0.000000  0.757673  0.106308  1
  Si  Si28  1  0.695653  0.750388  0.195614  1
  Si  Si29  1  0.198385  0.755759  0.697014  1
  Si  Si30  1  0.801615  0.755759  0.697014  1
  Si  Si31  1  0.304347  0.750388  0.195614  1
  Cl  Cl32  1  0.000000  0.500000  0.500000  1
