# generated using pymatgen
data_ThScF36
_symmetry_space_group_name_H-M   'P 1'
_cell_length_a   6.01066486
_cell_length_b   10.87536706
_cell_length_c   10.93746430
_cell_angle_alpha   90.77525763
_cell_angle_beta   98.98206796
_cell_angle_gamma   75.56589211
_symmetry_Int_Tables_number   1
_chemical_formula_structural   ThScF36
_chemical_formula_sum   'Th1 Sc1 F36'
_cell_volume   683.66283683
_cell_formula_units_Z   1
loop_
 _symmetry_equiv_pos_site_id
 _symmetry_equiv_pos_as_xyz
  1  'x, y, z'
loop_
 _atom_site_type_symbol
 _atom_site_label
 _atom_site_symmetry_multiplicity
 _atom_site_fract_x
 _atom_site_fract_y
 _atom_site_fract_z
 _atom_site_occupancy
  Th  Th0  1  0.751260  0.829887  0.875332  1
  Sc  Sc1  1  0.228318  0.190376  0.155798  1
  F  F2  1  0.306334  0.385797  0.874337  1
  F  F3  1  0.625562  0.625873  0.123636  1
  F  F4  1  0.331880  0.278356  0.587558  1
  F  F5  1  0.672938  0.747562  0.429656  1
  F  F6  1  0.864771  0.221257  0.808995  1
  F  F7  1  0.163329  0.768265  0.187180  1
  F  F8  1  0.676502  0.835446  0.057304  1
  F  F9  1  0.316591  0.120891  0.993314  1
  F  F10  1  0.789025  0.608647  0.866182  1
  F  F11  1  0.222939  0.366720  0.100747  1
  F  F12  1  0.458777  0.457886  0.843281  1
  F  F13  1  0.590013  0.504858  0.152639  1
  F  F14  1  0.728818  0.700820  0.702746  1
  F  F15  1  0.249683  0.327265  0.283396  1
  F  F16  1  0.752001  0.972209  0.551275  1
  F  F17  1  0.239712  0.014027  0.446003  1
  F  F18  1  0.293047  0.174914  0.653330  1
  F  F19  1  0.687058  0.813941  0.320526  1
  F  F20  1  0.811050  0.088929  0.583444  1
  F  F21  1  0.169556  0.925470  0.359630  1
  F  F22  1  0.822388  0.006066  0.845809  1
  F  F23  1  0.186770  0.014120  0.099589  1
  F  F24  1  0.903002  0.345178  0.796320  1
  F  F25  1  0.115262  0.649718  0.211099  1
  F  F26  1  0.164096  0.746742  0.910649  1
  F  F27  1  0.869491  0.243115  0.126735  1
  F  F28  1  0.393786  0.941678  0.746820  1
  F  F29  1  0.536340  0.085210  0.261293  1
  F  F30  1  0.117211  0.755807  0.581272  1
  F  F31  1  0.931030  0.244019  0.415154  1
  F  F32  1  0.207172  0.636766  0.646717  1
  F  F33  1  0.804579  0.366690  0.365422  1
  F  F34  1  0.282272  0.844774  0.827769  1
  F  F35  1  0.704941  0.160626  0.193314  1
  F  F36  1  0.533045  0.448850  0.551065  1
  F  F37  1  0.499449  0.551244  0.464668  1
