# generated using pymatgen
data_Dy20Bi8Os3Rh
_symmetry_space_group_name_H-M   'P 1'
_cell_length_a   7.98845124
_cell_length_b   9.03626600
_cell_length_c   12.48107589
_cell_angle_alpha   90.00000000
_cell_angle_beta   90.07877489
_cell_angle_gamma   90.00000000
_symmetry_Int_Tables_number   1
_chemical_formula_structural   Dy20Bi8Os3Rh
_chemical_formula_sum   'Dy20 Bi8 Os3 Rh1'
_cell_volume   900.95522622
_cell_formula_units_Z   1
loop_
 _symmetry_equiv_pos_site_id
 _symmetry_equiv_pos_as_xyz
  1  'x, y, z'
loop_
 _atom_site_type_symbol
 _atom_site_label
 _atom_site_symmetry_multiplicity
 _atom_site_fract_x
 _atom_site_fract_y
 _atom_site_fract_z
 _atom_site_occupancy
  Dy  Dy0  1  0.840518  0.750000  0.792577  1
  Dy  Dy1  1  0.158893  0.250000  0.207138  1
  Dy  Dy2  1  0.341296  0.250000  0.708286  1
  Dy  Dy3  1  0.657003  0.750000  0.293879  1
  Dy  Dy4  1  0.376375  0.750000  0.694195  1
  Dy  Dy5  1  0.622291  0.250000  0.306158  1
  Dy  Dy6  1  0.876190  0.250000  0.807045  1
  Dy  Dy7  1  0.125506  0.750000  0.192862  1
  Dy  Dy8  1  0.942143  0.750000  0.504129  1
  Dy  Dy9  1  0.058327  0.250000  0.495904  1
  Dy  Dy10  1  0.445586  0.250000  0.996996  1
  Dy  Dy11  1  0.551352  0.750000  0.003558  1
  Dy  Dy12  1  0.674016  0.042100  0.563778  1
  Dy  Dy13  1  0.324626  0.957071  0.435895  1
  Dy  Dy14  1  0.177514  0.960807  0.934581  1
  Dy  Dy15  1  0.324626  0.542929  0.435895  1
  Dy  Dy16  1  0.824107  0.045471  0.064563  1
  Dy  Dy17  1  0.674016  0.457900  0.563778  1
  Dy  Dy18  1  0.824107  0.454529  0.064563  1
  Dy  Dy19  1  0.177514  0.539193  0.934581  1
  Bi  Bi20  1  0.570091  0.492311  0.828032  1
  Bi  Bi21  1  0.430932  0.508107  0.172105  1
  Bi  Bi22  1  0.068698  0.507855  0.672549  1
  Bi  Bi23  1  0.430932  0.991893  0.172105  1
  Bi  Bi24  1  0.931078  0.492621  0.326940  1
  Bi  Bi25  1  0.570091  0.007689  0.828032  1
  Bi  Bi26  1  0.931078  0.007379  0.326940  1
  Bi  Bi27  1  0.068698  0.992145  0.672549  1
  Os  Os28  1  0.575462  0.750000  0.511812  1
  Os  Os29  1  0.423920  0.250000  0.489457  1
  Os  Os30  1  0.074701  0.250000  0.988944  1
  Rh  Rh31  1  0.928312  0.750000  0.010168  1
