# generated using pymatgen
data_U5Pa3(TcB6)4
_symmetry_space_group_name_H-M   'P 1'
_cell_length_a   3.66776700
_cell_length_b   9.30560266
_cell_length_c   11.39199481
_cell_angle_alpha   90.04329698
_cell_angle_beta   90.00000000
_cell_angle_gamma   90.00000000
_symmetry_Int_Tables_number   1
_chemical_formula_structural   U5Pa3(TcB6)4
_chemical_formula_sum   'U5 Pa3 Tc4 B24'
_cell_volume   388.81758468
_cell_formula_units_Z   1
loop_
 _symmetry_equiv_pos_site_id
 _symmetry_equiv_pos_as_xyz
  1  'x, y, z'
loop_
 _atom_site_type_symbol
 _atom_site_label
 _atom_site_symmetry_multiplicity
 _atom_site_fract_x
 _atom_site_fract_y
 _atom_site_fract_z
 _atom_site_occupancy
  U  U0  1  0.000000  0.163592  0.906707  1
  U  U1  1  0.000000  0.956611  0.395864  1
  U  U2  1  0.000000  0.043997  0.605058  1
  U  U3  1  0.000000  0.455441  0.103779  1
  U  U4  1  0.000000  0.542626  0.895641  1
  Pa  Pa5  1  0.000000  0.334975  0.407069  1
  Pa  Pa6  1  0.000000  0.664882  0.593048  1
  Pa  Pa7  1  0.000000  0.835930  0.092293  1
  Tc  Tc8  1  0.000000  0.645936  0.319390  1
  Tc  Tc9  1  0.000000  0.353677  0.681228  1
  Tc  Tc10  1  0.000000  0.146236  0.180269  1
  Tc  Tc11  1  0.000000  0.855799  0.819545  1
  B  B12  1  0.500000  0.550755  0.432027  1
  B  B13  1  0.500000  0.449125  0.568157  1
  B  B14  1  0.500000  0.051259  0.066891  1
  B  B15  1  0.500000  0.950480  0.932197  1
  B  B16  1  0.500000  0.743297  0.423245  1
  B  B17  1  0.500000  0.256774  0.577169  1
  B  B18  1  0.500000  0.242520  0.075883  1
  B  B19  1  0.500000  0.757169  0.923145  1
  B  B20  1  0.500000  0.803894  0.273780  1
  B  B21  1  0.500000  0.195764  0.726990  1
  B  B22  1  0.500000  0.303678  0.225896  1
  B  B23  1  0.500000  0.696402  0.773998  1
  B  B24  1  0.500000  0.644526  0.188259  1
  B  B25  1  0.500000  0.354594  0.811876  1
  B  B26  1  0.500000  0.144412  0.311509  1
  B  B27  1  0.500000  0.855887  0.688782  1
  B  B28  1  0.500000  0.986975  0.219346  1
  B  B29  1  0.500000  0.014579  0.781045  1
  B  B30  1  0.500000  0.486785  0.280307  1
  B  B31  1  0.500000  0.513001  0.719928  1
  B  B32  1  0.500000  0.641943  0.039096  1
  B  B33  1  0.500000  0.356352  0.960200  1
  B  B34  1  0.500000  0.141656  0.460914  1
  B  B35  1  0.500000  0.858469  0.539470  1
