# generated using pymatgen
data_Hf3Ga3IrPt2
_symmetry_space_group_name_H-M   'P 1'
_cell_length_a   7.17322700
_cell_length_b   7.17322655
_cell_length_c   7.03961600
_cell_angle_alpha   90.00000000
_cell_angle_beta   90.00000000
_cell_angle_gamma   120.00000669
_symmetry_Int_Tables_number   1
_chemical_formula_structural   Hf3Ga3IrPt2
_chemical_formula_sum   'Hf6 Ga6 Ir2 Pt4'
_cell_volume   313.69579261
_cell_formula_units_Z   2
loop_
 _symmetry_equiv_pos_site_id
 _symmetry_equiv_pos_as_xyz
  1  'x, y, z'
loop_
 _atom_site_type_symbol
 _atom_site_label
 _atom_site_symmetry_multiplicity
 _atom_site_fract_x
 _atom_site_fract_y
 _atom_site_fract_z
 _atom_site_occupancy
  Hf  Hf0  1  0.410989  0.385025  0.250000  1
  Hf  Hf1  1  0.591334  0.986359  0.750000  1
  Hf  Hf2  1  0.395025  0.408666  0.750000  1
  Hf  Hf3  1  0.013641  0.604975  0.750000  1
  Hf  Hf4  1  0.974036  0.589011  0.250000  1
  Hf  Hf5  1  0.614975  0.025964  0.250000  1
  Ga  Ga6  1  0.268181  0.999160  0.999002  1
  Ga  Ga7  1  0.268181  0.999160  0.500998  1
  Ga  Ga8  1  0.000840  0.269020  0.500998  1
  Ga  Ga9  1  0.000840  0.269020  0.999002  1
  Ga  Ga10  1  0.730980  0.731819  0.999002  1
  Ga  Ga11  1  0.730980  0.731819  0.500998  1
  Ir  Ir12  1  0.666667  0.333333  0.524271  1
  Ir  Ir13  1  0.666667  0.333333  0.975729  1
  Pt  Pt14  1  0.000000  0.000000  0.750000  1
  Pt  Pt15  1  0.333333  0.666667  0.033463  1
  Pt  Pt16  1  0.333333  0.666667  0.466537  1
  Pt  Pt17  1  0.000000  0.000000  0.250000  1
