# generated using pymatgen
data_CePr4Mo3(P3Ir4)4
_symmetry_space_group_name_H-M   'P 1'
_cell_length_a   12.79321900
_cell_length_b   12.79321955
_cell_length_c   4.03151300
_cell_angle_alpha   90.00000000
_cell_angle_beta   90.00000000
_cell_angle_gamma   120.00000116
_symmetry_Int_Tables_number   1
_chemical_formula_structural   CePr4Mo3(P3Ir4)4
_chemical_formula_sum   'Ce1 Pr4 Mo3 P12 Ir16'
_cell_volume   571.42387082
_cell_formula_units_Z   1
loop_
 _symmetry_equiv_pos_site_id
 _symmetry_equiv_pos_as_xyz
  1  'x, y, z'
loop_
 _atom_site_type_symbol
 _atom_site_label
 _atom_site_symmetry_multiplicity
 _atom_site_fract_x
 _atom_site_fract_y
 _atom_site_fract_z
 _atom_site_occupancy
  Ce  Ce0  1  0.666667  0.333333  0.500000  1
  Pr  Pr1  1  0.333333  0.666667  0.500000  1
  Pr  Pr2  1  0.999952  0.812017  0.000000  1
  Pr  Pr3  1  0.187983  0.187935  0.000000  1
  Pr  Pr4  1  0.812065  0.000048  0.000000  1
  Mo  Mo5  1  0.998746  0.452424  0.500000  1
  Mo  Mo6  1  0.547576  0.546320  0.500000  1
  Mo  Mo7  1  0.453680  0.001254  0.500000  1
  P  P8  1  0.001318  0.636293  0.500000  1
  P  P9  1  0.363707  0.365025  0.500000  1
  P  P10  1  0.634975  0.998682  0.500000  1
  P  P11  1  0.517654  0.684965  0.000000  1
  P  P12  1  0.315035  0.832689  0.000000  1
  P  P13  1  0.167311  0.482346  0.000000  1
  P  P14  1  0.482145  0.167626  0.000000  1
  P  P15  1  0.685481  0.517855  0.000000  1
  P  P16  1  0.832374  0.314519  0.000000  1
  P  P17  1  0.999566  0.178478  0.500000  1
  P  P18  1  0.821522  0.821087  0.500000  1
  P  P19  1  0.178913  0.000434  0.500000  1
  Ir  Ir20  1  0.511198  0.870430  0.000000  1
  Ir  Ir21  1  0.129570  0.640769  0.000000  1
  Ir  Ir22  1  0.359231  0.488802  0.000000  1
  Ir  Ir23  1  0.491824  0.358988  0.000000  1
  Ir  Ir24  1  0.867165  0.508176  0.000000  1
  Ir  Ir25  1  0.641012  0.132835  0.000000  1
  Ir  Ir26  1  0.999253  0.288021  0.000000  1
  Ir  Ir27  1  0.711979  0.711231  0.000000  1
  Ir  Ir28  1  0.288769  0.000747  0.000000  1
  Ir  Ir29  1  0.622976  0.800310  0.500000  1
  Ir  Ir30  1  0.199690  0.822667  0.500000  1
  Ir  Ir31  1  0.177333  0.377024  0.500000  1
  Ir  Ir32  1  0.378980  0.179644  0.500000  1
  Ir  Ir33  1  0.800664  0.621020  0.500000  1
  Ir  Ir34  1  0.820356  0.199336  0.500000  1
  Ir  Ir35  1  0.000000  0.000000  0.500000  1
