# generated using pymatgen
data_Zr10Tl2ZnGePb4
_symmetry_space_group_name_H-M   'P 1'
_cell_length_a   8.83402997
_cell_length_b   8.84014208
_cell_length_c   5.97295971
_cell_angle_alpha   90.05582833
_cell_angle_beta   89.97205968
_cell_angle_gamma   120.02289398
_symmetry_Int_Tables_number   1
_chemical_formula_structural   Zr10Tl2ZnGePb4
_chemical_formula_sum   'Zr10 Tl2 Zn1 Ge1 Pb4'
_cell_volume   403.86655334
_cell_formula_units_Z   1
loop_
 _symmetry_equiv_pos_site_id
 _symmetry_equiv_pos_as_xyz
  1  'x, y, z'
loop_
 _atom_site_type_symbol
 _atom_site_label
 _atom_site_symmetry_multiplicity
 _atom_site_fract_x
 _atom_site_fract_y
 _atom_site_fract_z
 _atom_site_occupancy
  Zr  Zr0  1  0.334799  0.667400  0.000000  1
  Zr  Zr1  1  0.666592  0.333295  0.500000  1
  Zr  Zr2  1  0.666462  0.333231  0.000000  1
  Zr  Zr3  1  0.334681  0.667341  0.500000  1
  Zr  Zr4  1  0.260312  0.999667  0.247346  1
  Zr  Zr5  1  0.260312  0.260644  0.752654  1
  Zr  Zr6  1  0.999082  0.738827  0.752399  1
  Zr  Zr7  1  0.999082  0.260256  0.247601  1
  Zr  Zr8  1  0.739063  0.739925  0.246819  1
  Zr  Zr9  1  0.739063  0.999138  0.753181  1
  Tl  Tl10  1  0.612829  0.000122  0.251161  1
  Tl  Tl11  1  0.612829  0.612707  0.748839  1
  Zn  Zn12  1  0.998884  0.999442  0.500000  1
  Ge  Ge13  1  0.999140  0.999570  0.000000  1
  Pb  Pb14  1  0.000029  0.387736  0.748765  1
  Pb  Pb15  1  0.000029  0.612294  0.251235  1
  Pb  Pb16  1  0.388406  0.388388  0.251650  1
  Pb  Pb17  1  0.388406  0.000018  0.748350  1
