# generated using pymatgen
data_Ho3Er(SiRh2)8
_symmetry_space_group_name_H-M   'P 1'
_cell_length_a   4.12464800
_cell_length_b   9.06850711
_cell_length_c   11.30001814
_cell_angle_alpha   90.01817411
_cell_angle_beta   90.00000000
_cell_angle_gamma   90.00000000
_symmetry_Int_Tables_number   1
_chemical_formula_structural   Ho3Er(SiRh2)8
_chemical_formula_sum   'Ho3 Er1 Si8 Rh16'
_cell_volume   422.67037429
_cell_formula_units_Z   1
loop_
 _symmetry_equiv_pos_site_id
 _symmetry_equiv_pos_as_xyz
  1  'x, y, z'
loop_
 _atom_site_type_symbol
 _atom_site_label
 _atom_site_symmetry_multiplicity
 _atom_site_fract_x
 _atom_site_fract_y
 _atom_site_fract_z
 _atom_site_occupancy
  Ho  Ho0  1  0.250000  0.148120  0.825339  1
  Ho  Ho1  1  0.250000  0.351892  0.325370  1
  Ho  Ho2  1  0.750000  0.851871  0.174662  1
  Er  Er3  1  0.750000  0.648067  0.674608  1
  Si  Si4  1  0.250000  0.412435  0.637290  1
  Si  Si5  1  0.250000  0.087819  0.137261  1
  Si  Si6  1  0.750000  0.587831  0.362756  1
  Si  Si7  1  0.750000  0.912080  0.862671  1
  Si  Si8  1  0.250000  0.616419  0.058598  1
  Si  Si9  1  0.250000  0.883496  0.558653  1
  Si  Si10  1  0.750000  0.383607  0.941414  1
  Si  Si11  1  0.750000  0.116401  0.441427  1
  Rh  Rh12  1  0.250000  0.614781  0.500838  1
  Rh  Rh13  1  0.250000  0.885351  0.000331  1
  Rh  Rh14  1  0.750000  0.385515  0.499692  1
  Rh  Rh15  1  0.750000  0.114643  0.999608  1
  Rh  Rh16  1  0.250000  0.684266  0.268719  1
  Rh  Rh17  1  0.250000  0.815240  0.768416  1
  Rh  Rh18  1  0.750000  0.315929  0.731284  1
  Rh  Rh19  1  0.750000  0.184336  0.231293  1
  Rh  Rh20  1  0.250000  0.172716  0.559225  1
  Rh  Rh21  1  0.250000  0.327307  0.059181  1
  Rh  Rh22  1  0.750000  0.827236  0.440943  1
  Rh  Rh23  1  0.750000  0.672652  0.940578  1
  Rh  Rh24  1  0.250000  0.006588  0.344554  1
  Rh  Rh25  1  0.250000  0.493562  0.844402  1
  Rh  Rh26  1  0.750000  0.993254  0.655461  1
  Rh  Rh27  1  0.750000  0.506586  0.155429  1
