# generated using pymatgen
data_Ho4Sn4As2Rh7
_symmetry_space_group_name_H-M   'P 1'
_cell_length_a   7.46891414
_cell_length_b   7.46891546
_cell_length_c   7.49689699
_cell_angle_alpha   109.38339885
_cell_angle_beta   109.38340285
_cell_angle_gamma   109.49577359
_symmetry_Int_Tables_number   1
_chemical_formula_structural   Ho4Sn4As2Rh7
_chemical_formula_sum   'Ho4 Sn4 As2 Rh7'
_cell_volume   322.53838076
_cell_formula_units_Z   1
loop_
 _symmetry_equiv_pos_site_id
 _symmetry_equiv_pos_as_xyz
  1  'x, y, z'
loop_
 _atom_site_type_symbol
 _atom_site_label
 _atom_site_symmetry_multiplicity
 _atom_site_fract_x
 _atom_site_fract_y
 _atom_site_fract_z
 _atom_site_occupancy
  Ho  Ho0  1  0.455952  0.455952  0.459296  1
  Ho  Ho1  1  0.007410  0.507410  0.014820  1
  Ho  Ho2  1  0.507410  0.007410  0.014820  1
  Ho  Ho3  1  0.003343  0.003343  0.459296  1
  Sn  Sn4  1  0.704162  0.989767  0.693929  1
  Sn  Sn5  1  0.672084  0.672084  0.976413  1
  Sn  Sn6  1  0.304329  0.304329  0.976413  1
  Sn  Sn7  1  0.989767  0.704162  0.693929  1
  As  As8  1  0.994269  0.338374  0.332643  1
  As  As9  1  0.338374  0.994269  0.332643  1
  Rh  Rh10  1  0.502237  0.748978  0.251214  1
  Rh  Rh11  1  0.751572  0.251572  0.503144  1
  Rh  Rh12  1  0.251572  0.751572  0.503144  1
  Rh  Rh13  1  0.237840  0.503760  0.741599  1
  Rh  Rh14  1  0.026939  0.026939  0.053878  1
  Rh  Rh15  1  0.503760  0.237840  0.741599  1
  Rh  Rh16  1  0.748978  0.502237  0.251214  1
