# generated using pymatgen
data_Lu8Os3WC8
_symmetry_space_group_name_H-M   'P 1'
_cell_length_a   4.97818100
_cell_length_b   6.44912220
_cell_length_c   9.65034367
_cell_angle_alpha   89.61794305
_cell_angle_beta   90.00000000
_cell_angle_gamma   90.00000000
_symmetry_Int_Tables_number   1
_chemical_formula_structural   Lu8Os3WC8
_chemical_formula_sum   'Lu8 Os3 W1 C8'
_cell_volume   309.81640748
_cell_formula_units_Z   1
loop_
 _symmetry_equiv_pos_site_id
 _symmetry_equiv_pos_as_xyz
  1  'x, y, z'
loop_
 _atom_site_type_symbol
 _atom_site_label
 _atom_site_symmetry_multiplicity
 _atom_site_fract_x
 _atom_site_fract_y
 _atom_site_fract_z
 _atom_site_occupancy
  Lu  Lu0  1  0.250000  0.675881  0.556545  1
  Lu  Lu1  1  0.750000  0.325388  0.443431  1
  Lu  Lu2  1  0.750000  0.826052  0.057125  1
  Lu  Lu3  1  0.250000  0.177677  0.941256  1
  Lu  Lu4  1  0.250000  0.534071  0.215865  1
  Lu  Lu5  1  0.750000  0.464594  0.778840  1
  Lu  Lu6  1  0.750000  0.967661  0.716634  1
  Lu  Lu7  1  0.250000  0.032283  0.283699  1
  Os  Os8  1  0.750000  0.283396  0.131785  1
  Os  Os9  1  0.750000  0.781829  0.367174  1
  Os  Os10  1  0.250000  0.219030  0.628496  1
  W  W11  1  0.250000  0.716018  0.871676  1
  C  C12  1  0.250000  0.448273  0.760096  1
  C  C13  1  0.750000  0.547297  0.242197  1
  C  C14  1  0.750000  0.048685  0.259558  1
  C  C15  1  0.250000  0.952602  0.739829  1
  C  C16  1  0.250000  0.828880  0.062220  1
  C  C17  1  0.750000  0.171817  0.945664  1
  C  C18  1  0.750000  0.670472  0.555825  1
  C  C19  1  0.250000  0.328091  0.442085  1
