# generated using pymatgen
data_Li28Sc2Si7Sn
_symmetry_space_group_name_H-M   'P 1'
_cell_length_a   9.29994979
_cell_length_b   9.27850069
_cell_length_c   9.29441773
_cell_angle_alpha   109.39800140
_cell_angle_beta   109.70038051
_cell_angle_gamma   109.21074909
_symmetry_Int_Tables_number   1
_chemical_formula_structural   Li28Sc2Si7Sn
_chemical_formula_sum   'Li28 Sc2 Si7 Sn1'
_cell_volume   618.17529330
_cell_formula_units_Z   1
loop_
 _symmetry_equiv_pos_site_id
 _symmetry_equiv_pos_as_xyz
  1  'x, y, z'
loop_
 _atom_site_type_symbol
 _atom_site_label
 _atom_site_symmetry_multiplicity
 _atom_site_fract_x
 _atom_site_fract_y
 _atom_site_fract_z
 _atom_site_occupancy
  Li  Li0  1  0.061593  0.541653  0.284196  1
  Li  Li1  1  0.263883  0.792725  0.719439  1
  Li  Li2  1  0.178633  0.956984  0.970443  1
  Li  Li3  1  0.978074  0.201806  0.025503  1
  Li  Li4  1  0.042543  0.014675  0.222902  1
  Li  Li5  1  0.793252  0.821085  0.777074  1
  Li  Li6  1  0.463938  0.742907  0.538546  1
  Li  Li7  1  0.208316  0.928100  0.469922  1
  Li  Li8  1  0.722517  0.340442  0.062531  1
  Li  Li9  1  0.961263  0.403451  0.872686  1
  Li  Li10  1  0.281719  0.662706  0.931743  1
  Li  Li11  1  0.527161  0.086633  0.119881  1
  Li  Li12  1  0.692889  0.865277  0.094377  1
  Li  Li13  1  0.483955  0.894351  0.334315  1
  Li  Li14  1  0.557901  0.151085  0.673644  1
  Li  Li15  1  0.775186  0.601731  0.905539  1
  Li  Li16  1  0.844506  0.522318  0.405170  1
  Li  Li17  1  0.407186  0.301450  0.173172  1
  Li  Li18  1  0.132313  0.222841  0.821954  1
  Li  Li19  1  0.115342  0.442361  0.593539  1
  Li  Li20  1  0.908983  0.031206  0.436969  1
  Li  Li21  1  0.341215  0.276095  0.619951  1
  Li  Li22  1  0.591721  0.473392  0.561753  1
  Li  Li23  1  0.663988  0.724515  0.382494  1
  Li  Li24  1  0.003936  0.874466  0.626633  1
  Li  Li25  1  0.246687  0.371778  0.376375  1
  Li  Li26  1  0.123250  0.755154  0.126412  1
  Li  Li27  1  0.623884  0.997321  0.874218  1
  Sc  Sc28  1  0.506362  0.498233  0.995774  1
  Sc  Sc29  1  0.749492  0.251871  0.499517  1
  Si  Si30  1  0.376044  0.132454  0.839284  1
  Si  Si31  1  0.955887  0.616423  0.738626  1
  Si  Si32  1  0.872855  0.214119  0.259749  1
  Si  Si33  1  0.384441  0.125754  0.341135  1
  Si  Si34  1  0.785181  0.044993  0.659610  1
  Si  Si35  1  0.466280  0.624970  0.759725  1
  Si  Si36  1  0.866343  0.706763  0.240221  1
  Sn  Sn37  1  0.291279  0.535915  0.164980  1
