# generated using pymatgen
data_Ce2Y(Co3As2)3
_symmetry_space_group_name_H-M   'P 1'
_cell_length_a   3.90054300
_cell_length_b   10.92061300
_cell_length_c   12.80056000
_cell_angle_alpha   90.00000000
_cell_angle_beta   90.00000000
_cell_angle_gamma   90.00000000
_symmetry_Int_Tables_number   1
_chemical_formula_structural   Ce2Y(Co3As2)3
_chemical_formula_sum   'Ce4 Y2 Co18 As12'
_cell_volume   545.25675753
_cell_formula_units_Z   2
loop_
 _symmetry_equiv_pos_site_id
 _symmetry_equiv_pos_as_xyz
  1  'x, y, z'
loop_
 _atom_site_type_symbol
 _atom_site_label
 _atom_site_symmetry_multiplicity
 _atom_site_fract_x
 _atom_site_fract_y
 _atom_site_fract_z
 _atom_site_occupancy
  Ce  Ce0  1  0.000000  0.500000  0.526113  1
  Ce  Ce1  1  0.500000  0.000000  0.477819  1
  Ce  Ce2  1  0.500000  0.815480  0.208584  1
  Ce  Ce3  1  0.500000  0.184520  0.208584  1
  Y  Y4  1  0.000000  0.684560  0.792795  1
  Y  Y5  1  0.000000  0.315440  0.792795  1
  Co  Co6  1  0.500000  0.500000  0.155585  1
  Co  Co7  1  0.000000  0.000000  0.848193  1
  Co  Co8  1  0.500000  0.500000  0.697251  1
  Co  Co9  1  0.000000  0.000000  0.298073  1
  Co  Co10  1  0.000000  0.500000  0.979203  1
  Co  Co11  1  0.500000  0.000000  0.015192  1
  Co  Co12  1  0.500000  0.335108  0.994769  1
  Co  Co13  1  0.500000  0.664892  0.994769  1
  Co  Co14  1  0.000000  0.167447  0.004050  1
  Co  Co15  1  0.000000  0.832553  0.004050  1
  Co  Co16  1  0.500000  0.301970  0.428396  1
  Co  Co17  1  0.500000  0.698030  0.428396  1
  Co  Co18  1  0.000000  0.196940  0.573603  1
  Co  Co19  1  0.000000  0.803060  0.573603  1
  Co  Co20  1  0.500000  0.881984  0.711578  1
  Co  Co21  1  0.500000  0.118016  0.711578  1
  Co  Co22  1  0.000000  0.619316  0.288242  1
  Co  Co23  1  0.000000  0.380684  0.288242  1
  As  As24  1  0.500000  0.500000  0.876019  1
  As  As25  1  0.000000  0.000000  0.117019  1
  As  As26  1  0.500000  0.500000  0.343936  1
  As  As27  1  0.000000  0.000000  0.659504  1
  As  As28  1  0.500000  0.307764  0.615739  1
  As  As29  1  0.500000  0.692236  0.615739  1
  As  As30  1  0.000000  0.191873  0.388147  1
  As  As31  1  0.000000  0.808127  0.388147  1
  As  As32  1  0.500000  0.845981  0.892429  1
  As  As33  1  0.500000  0.154019  0.892429  1
  As  As34  1  0.000000  0.649755  0.104714  1
  As  As35  1  0.000000  0.350245  0.104714  1
