# generated using pymatgen
data_Cs6LuSe4
_symmetry_space_group_name_H-M   'P 1'
_cell_length_a   11.65175100
_cell_length_b   11.65175180
_cell_length_c   8.78516900
_cell_angle_alpha   90.00000000
_cell_angle_beta   90.00000000
_cell_angle_gamma   120.00000057
_symmetry_Int_Tables_number   1
_chemical_formula_structural   Cs6LuSe4
_chemical_formula_sum   'Cs12 Lu2 Se8'
_cell_volume   1032.91163550
_cell_formula_units_Z   2
loop_
 _symmetry_equiv_pos_site_id
 _symmetry_equiv_pos_as_xyz
  1  'x, y, z'
loop_
 _atom_site_type_symbol
 _atom_site_label
 _atom_site_symmetry_multiplicity
 _atom_site_fract_x
 _atom_site_fract_y
 _atom_site_fract_z
 _atom_site_occupancy
  Cs  Cs0  1  0.134581  0.865419  0.546281  1
  Cs  Cs1  1  0.269162  0.134581  0.046281  1
  Cs  Cs2  1  0.865419  0.730838  0.046281  1
  Cs  Cs3  1  0.134581  0.269162  0.546281  1
  Cs  Cs4  1  0.730838  0.865419  0.546281  1
  Cs  Cs5  1  0.865419  0.134581  0.046281  1
  Cs  Cs6  1  0.531954  0.468046  0.360109  1
  Cs  Cs7  1  0.063908  0.531954  0.860109  1
  Cs  Cs8  1  0.468046  0.936092  0.860109  1
  Cs  Cs9  1  0.531954  0.063908  0.360109  1
  Cs  Cs10  1  0.936092  0.468046  0.360109  1
  Cs  Cs11  1  0.468046  0.531954  0.860109  1
  Lu  Lu12  1  0.333333  0.666667  0.257490  1
  Lu  Lu13  1  0.666667  0.333333  0.757490  1
  Se  Se14  1  0.333333  0.666667  0.563487  1
  Se  Se15  1  0.666667  0.333333  0.063487  1
  Se  Se16  1  0.207252  0.792748  0.156518  1
  Se  Se17  1  0.414505  0.207252  0.656518  1
  Se  Se18  1  0.792748  0.585495  0.656518  1
  Se  Se19  1  0.207252  0.414505  0.156518  1
  Se  Se20  1  0.585495  0.792748  0.156518  1
  Se  Se21  1  0.792748  0.207252  0.656518  1
