# generated using pymatgen
data_Cs2BrOF5
_symmetry_space_group_name_H-M   'P 1'
_cell_length_a   6.67135269
_cell_length_b   6.67135189
_cell_length_c   9.05988400
_cell_angle_alpha   90.00000000
_cell_angle_beta   90.00000000
_cell_angle_gamma   92.55086030
_symmetry_Int_Tables_number   1
_chemical_formula_structural   Cs2BrOF5
_chemical_formula_sum   'Cs4 Br2 O2 F10'
_cell_volume   402.82817097
_cell_formula_units_Z   2
loop_
 _symmetry_equiv_pos_site_id
 _symmetry_equiv_pos_as_xyz
  1  'x, y, z'
loop_
 _atom_site_type_symbol
 _atom_site_label
 _atom_site_symmetry_multiplicity
 _atom_site_fract_x
 _atom_site_fract_y
 _atom_site_fract_z
 _atom_site_occupancy
  Cs  Cs0  1  0.213494  0.786506  0.500000  1
  Cs  Cs1  1  0.213494  0.786506  0.000000  1
  Cs  Cs2  1  0.786506  0.213494  0.500000  1
  Cs  Cs3  1  0.786506  0.213494  0.000000  1
  Br  Br4  1  0.292960  0.292960  0.250000  1
  Br  Br5  1  0.707040  0.707040  0.750000  1
  O  O6  1  0.469743  0.469743  0.250000  1
  O  O7  1  0.530257  0.530257  0.750000  1
  F  F8  1  0.481447  0.070169  0.250000  1
  F  F9  1  0.929831  0.518553  0.750000  1
  F  F10  1  0.518553  0.929831  0.750000  1
  F  F11  1  0.070169  0.481447  0.250000  1
  F  F12  1  0.044868  0.044868  0.250000  1
  F  F13  1  0.955132  0.955132  0.750000  1
  F  F14  1  0.277958  0.277958  0.468182  1
  F  F15  1  0.722042  0.722042  0.531818  1
  F  F16  1  0.277958  0.277958  0.031818  1
  F  F17  1  0.722042  0.722042  0.968182  1
