# generated using pymatgen
data_Tb2DyIn3GaPt2
_symmetry_space_group_name_H-M   'P 1'
_cell_length_a   7.69319500
_cell_length_b   7.68951504
_cell_length_c   3.94922800
_cell_angle_alpha   90.00000000
_cell_angle_beta   90.00000000
_cell_angle_gamma   120.01505338
_symmetry_Int_Tables_number   1
_chemical_formula_structural   Tb2DyIn3GaPt2
_chemical_formula_sum   'Tb2 Dy1 In3 Ga1 Pt2'
_cell_volume   202.29382834
_cell_formula_units_Z   1
loop_
 _symmetry_equiv_pos_site_id
 _symmetry_equiv_pos_as_xyz
  1  'x, y, z'
loop_
 _atom_site_type_symbol
 _atom_site_label
 _atom_site_symmetry_multiplicity
 _atom_site_fract_x
 _atom_site_fract_y
 _atom_site_fract_z
 _atom_site_occupancy
  Tb  Tb0  1  0.605518  0.013828  0.500000  1
  Tb  Tb1  1  0.408236  0.394595  0.500000  1
  Dy  Dy2  1  0.985987  0.591641  0.500000  1
  In  In3  1  0.740939  0.740662  0.000000  1
  In  In4  1  0.999821  0.259283  0.000000  1
  In  In5  1  0.259229  0.000094  0.000000  1
  Ga  Ga6  1  0.333113  0.666541  0.000000  1
  Pt  Pt7  1  0.667157  0.333643  0.000000  1
  Pt  Pt8  1  0.000000  0.999711  0.500000  1
