# generated using pymatgen
data_Ba2YbCe(Ge4N7)2
_symmetry_space_group_name_H-M   'P 1'
_cell_length_a   6.35864000
_cell_length_b   6.35863970
_cell_length_c   10.42455100
_cell_angle_alpha   90.00000000
_cell_angle_beta   90.00000000
_cell_angle_gamma   119.99999118
_symmetry_Int_Tables_number   1
_chemical_formula_structural   Ba2YbCe(Ge4N7)2
_chemical_formula_sum   'Ba2 Yb1 Ce1 Ge8 N14'
_cell_volume   365.01985090
_cell_formula_units_Z   1
loop_
 _symmetry_equiv_pos_site_id
 _symmetry_equiv_pos_as_xyz
  1  'x, y, z'
loop_
 _atom_site_type_symbol
 _atom_site_label
 _atom_site_symmetry_multiplicity
 _atom_site_fract_x
 _atom_site_fract_y
 _atom_site_fract_z
 _atom_site_occupancy
  Ba  Ba0  1  0.333333  0.666667  0.353757  1
  Ba  Ba1  1  0.666667  0.333333  0.876902  1
  Yb  Yb2  1  0.666667  0.333333  0.237338  1
  Ce  Ce3  1  0.333333  0.666667  0.734977  1
  Ge  Ge4  1  0.827425  0.654850  0.544014  1
  Ge  Ge5  1  0.174816  0.825184  0.049034  1
  Ge  Ge6  1  0.650367  0.825184  0.049034  1
  Ge  Ge7  1  0.345150  0.172575  0.544014  1
  Ge  Ge8  1  0.827425  0.172575  0.544014  1
  Ge  Ge9  1  0.174816  0.349633  0.049034  1
  Ge  Ge10  1  0.000000  0.000000  0.810942  1
  Ge  Ge11  1  0.000000  0.000000  0.314699  1
  N  N12  1  0.000000  0.000000  0.622106  1
  N  N13  1  0.000000  0.000000  0.120574  1
  N  N14  1  0.158384  0.316768  0.868698  1
  N  N15  1  0.841972  0.158028  0.370191  1
  N  N16  1  0.316057  0.158028  0.370191  1
  N  N17  1  0.683232  0.841616  0.868698  1
  N  N18  1  0.158384  0.841616  0.868698  1
  N  N19  1  0.841972  0.683943  0.370191  1
  N  N20  1  0.984954  0.492478  0.605944  1
  N  N21  1  0.494502  0.989001  0.100953  1
  N  N22  1  0.494502  0.505498  0.100953  1
  N  N23  1  0.507522  0.492478  0.605944  1
  N  N24  1  0.010999  0.505498  0.100953  1
  N  N25  1  0.507522  0.015046  0.605944  1
