# generated using pymatgen
data_La8Yb9Y3Pt16
_symmetry_space_group_name_H-M   'P 1'
_cell_length_a   7.66401315
_cell_length_b   7.80774515
_cell_length_c   14.83088500
_cell_angle_alpha   90.00894542
_cell_angle_beta   89.92743841
_cell_angle_gamma   89.94929619
_symmetry_Int_Tables_number   1
_chemical_formula_structural   La8Yb9Y3Pt16
_chemical_formula_sum   'La8 Yb9 Y3 Pt16'
_cell_volume   887.45923710
_cell_formula_units_Z   1
loop_
 _symmetry_equiv_pos_site_id
 _symmetry_equiv_pos_as_xyz
  1  'x, y, z'
loop_
 _atom_site_type_symbol
 _atom_site_label
 _atom_site_symmetry_multiplicity
 _atom_site_fract_x
 _atom_site_fract_y
 _atom_site_fract_z
 _atom_site_occupancy
  La  La0  1  0.497686  0.321549  0.902828  1
  La  La1  1  0.997301  0.179401  0.597456  1
  La  La2  1  0.503439  0.678424  0.401412  1
  La  La3  1  0.002958  0.819462  0.097497  1
  La  La4  1  0.503988  0.679358  0.098710  1
  La  La5  1  0.005015  0.820743  0.400172  1
  La  La6  1  0.495466  0.319441  0.598778  1
  La  La7  1  0.996042  0.181192  0.903206  1
  Yb  Yb8  1  0.159148  0.333615  0.124198  1
  Yb  Yb9  1  0.659482  0.167626  0.123852  1
  Yb  Yb10  1  0.159230  0.332076  0.376429  1
  Yb  Yb11  1  0.341060  0.831766  0.623546  1
  Yb  Yb12  1  0.840803  0.668802  0.876123  1
  Yb  Yb13  1  0.176022  0.500287  0.749909  1
  Yb  Yb14  1  0.676696  0.000234  0.750874  1
  Yb  Yb15  1  0.826057  0.497780  0.248361  1
  Yb  Yb16  1  0.322558  0.002953  0.249260  1
  Y  Y17  1  0.340462  0.832455  0.875109  1
  Y  Y18  1  0.841447  0.667176  0.624941  1
  Y  Y19  1  0.658570  0.167592  0.374726  1
  Pt  Pt20  1  0.314542  0.031125  0.037823  1
  Pt  Pt21  1  0.814807  0.461935  0.462416  1
  Pt  Pt22  1  0.685714  0.962260  0.538138  1
  Pt  Pt23  1  0.183284  0.538807  0.960649  1
  Pt  Pt24  1  0.675318  0.967827  0.959084  1
  Pt  Pt25  1  0.172998  0.533654  0.541013  1
  Pt  Pt26  1  0.327250  0.034729  0.459316  1
  Pt  Pt27  1  0.822235  0.467750  0.039451  1
  Pt  Pt28  1  0.544100  0.620407  0.751396  1
  Pt  Pt29  1  0.044195  0.880072  0.748327  1
  Pt  Pt30  1  0.457282  0.380524  0.252693  1
  Pt  Pt31  1  0.954115  0.119483  0.251503  1
  Pt  Pt32  1  0.303644  0.140281  0.752500  1
  Pt  Pt33  1  0.803770  0.359731  0.748265  1
  Pt  Pt34  1  0.695141  0.858249  0.250923  1
  Pt  Pt35  1  0.198173  0.641233  0.249114  1
