# generated using pymatgen
data_Ce4Ga(FeB3)2
_symmetry_space_group_name_H-M   'P 1'
_cell_length_a   5.28178582
_cell_length_b   5.28178483
_cell_length_c   7.99373700
_cell_angle_alpha   70.70874540
_cell_angle_beta   70.70874919
_cell_angle_gamma   59.99998826
_symmetry_Int_Tables_number   1
_chemical_formula_structural   Ce4Ga(FeB3)2
_chemical_formula_sum   'Ce4 Ga1 Fe2 B6'
_cell_volume   178.52183639
_cell_formula_units_Z   1
loop_
 _symmetry_equiv_pos_site_id
 _symmetry_equiv_pos_as_xyz
  1  'x, y, z'
loop_
 _atom_site_type_symbol
 _atom_site_label
 _atom_site_symmetry_multiplicity
 _atom_site_fract_x
 _atom_site_fract_y
 _atom_site_fract_z
 _atom_site_occupancy
  Ce  Ce0  1  0.259586  0.259586  0.221243  1
  Ce  Ce1  1  0.740414  0.740414  0.778757  1
  Ce  Ce2  1  0.406998  0.406998  0.779006  1
  Ce  Ce3  1  0.593002  0.593002  0.220995  1
  Ga  Ga4  1  0.000000  0.000000  0.000000  1
  Fe  Fe5  1  0.114070  0.114070  0.657792  1
  Fe  Fe6  1  0.885930  0.885930  0.342208  1
  B  B7  1  0.168431  0.831569  0.500000  1
  B  B8  1  0.831569  0.500000  0.500000  1
  B  B9  1  0.500000  0.168431  0.500000  1
  B  B10  1  0.168431  0.500000  0.500000  1
  B  B11  1  0.500000  0.831569  0.500000  1
  B  B12  1  0.831569  0.168431  0.500000  1
