# generated using pymatgen
data_Rb8SnSb4
_symmetry_space_group_name_H-M   'P 1'
_cell_length_a   12.12043112
_cell_length_b   12.12043085
_cell_length_c   12.12043100
_cell_angle_alpha   59.99999686
_cell_angle_beta   59.99999760
_cell_angle_gamma   59.99999767
_symmetry_Int_Tables_number   1
_chemical_formula_structural   Rb8SnSb4
_chemical_formula_sum   'Rb16 Sn2 Sb8'
_cell_volume   1259.03895019
_cell_formula_units_Z   2
loop_
 _symmetry_equiv_pos_site_id
 _symmetry_equiv_pos_as_xyz
  1  'x, y, z'
loop_
 _atom_site_type_symbol
 _atom_site_label
 _atom_site_symmetry_multiplicity
 _atom_site_fract_x
 _atom_site_fract_y
 _atom_site_fract_z
 _atom_site_occupancy
  Rb  Rb0  1  0.625000  0.125000  0.625000  1
  Rb  Rb1  1  0.625000  0.625000  0.125000  1
  Rb  Rb2  1  0.125000  0.625000  0.625000  1
  Rb  Rb3  1  0.625000  0.625000  0.625000  1
  Rb  Rb4  1  0.022847  0.022847  0.477153  1
  Rb  Rb5  1  0.772847  0.227153  0.227153  1
  Rb  Rb6  1  0.227153  0.772847  0.772847  1
  Rb  Rb7  1  0.772847  0.772847  0.227153  1
  Rb  Rb8  1  0.772847  0.227153  0.772847  1
  Rb  Rb9  1  0.227153  0.772847  0.227153  1
  Rb  Rb10  1  0.477153  0.022847  0.477153  1
  Rb  Rb11  1  0.477153  0.022847  0.022847  1
  Rb  Rb12  1  0.022847  0.477153  0.477153  1
  Rb  Rb13  1  0.022847  0.477153  0.022847  1
  Rb  Rb14  1  0.227153  0.227153  0.772847  1
  Rb  Rb15  1  0.477153  0.477153  0.022847  1
  Sn  Sn16  1  0.750000  0.750000  0.750000  1
  Sn  Sn17  1  0.500000  0.500000  0.500000  1
  Sb  Sb18  1  0.399575  0.801276  0.399575  1
  Sb  Sb19  1  0.850425  0.850425  0.448724  1
  Sb  Sb20  1  0.448724  0.850425  0.850425  1
  Sb  Sb21  1  0.850425  0.850425  0.850425  1
  Sb  Sb22  1  0.801276  0.399575  0.399575  1
  Sb  Sb23  1  0.399575  0.399575  0.399575  1
  Sb  Sb24  1  0.399575  0.399575  0.801276  1
  Sb  Sb25  1  0.850425  0.448724  0.850425  1
