# generated using pymatgen
data_DyHo3(B6Ir)2
_symmetry_space_group_name_H-M   'P 1'
_cell_length_a   3.63780400
_cell_length_b   9.18377801
_cell_length_c   11.51779801
_cell_angle_alpha   90.00557946
_cell_angle_beta   90.00000000
_cell_angle_gamma   90.00000000
_symmetry_Int_Tables_number   1
_chemical_formula_structural   DyHo3(B6Ir)2
_chemical_formula_sum   'Dy2 Ho6 B24 Ir4'
_cell_volume   384.79562858
_cell_formula_units_Z   2
loop_
 _symmetry_equiv_pos_site_id
 _symmetry_equiv_pos_as_xyz
  1  'x, y, z'
loop_
 _atom_site_type_symbol
 _atom_site_label
 _atom_site_symmetry_multiplicity
 _atom_site_fract_x
 _atom_site_fract_y
 _atom_site_fract_z
 _atom_site_occupancy
  Dy  Dy0  1  0.000000  0.322267  0.412878  1
  Dy  Dy1  1  0.000000  0.677733  0.587122  1
  Ho  Ho2  1  0.000000  0.822144  0.087068  1
  Ho  Ho3  1  0.000000  0.177856  0.912932  1
  Ho  Ho4  1  0.000000  0.944298  0.374492  1
  Ho  Ho5  1  0.000000  0.055702  0.625508  1
  Ho  Ho6  1  0.000000  0.444344  0.125377  1
  Ho  Ho7  1  0.000000  0.555656  0.874623  1
  B  B8  1  0.500000  0.553137  0.433545  1
  B  B9  1  0.500000  0.446863  0.566455  1
  B  B10  1  0.500000  0.053043  0.066253  1
  B  B11  1  0.500000  0.946957  0.933747  1
  B  B12  1  0.500000  0.749316  0.420628  1
  B  B13  1  0.500000  0.250684  0.579372  1
  B  B14  1  0.500000  0.249229  0.079168  1
  B  B15  1  0.500000  0.750771  0.920832  1
  B  B16  1  0.500000  0.793285  0.265580  1
  B  B17  1  0.500000  0.206715  0.734420  1
  B  B18  1  0.500000  0.293179  0.234177  1
  B  B19  1  0.500000  0.706821  0.765823  1
  B  B20  1  0.500000  0.632460  0.184426  1
  B  B21  1  0.500000  0.367540  0.815574  1
  B  B22  1  0.500000  0.132301  0.315411  1
  B  B23  1  0.500000  0.867699  0.684589  1
  B  B24  1  0.500000  0.982017  0.212919  1
  B  B25  1  0.500000  0.017983  0.787081  1
  B  B26  1  0.500000  0.482189  0.286931  1
  B  B27  1  0.500000  0.517811  0.713069  1
  B  B28  1  0.500000  0.611723  0.030614  1
  B  B29  1  0.500000  0.388277  0.969386  1
  B  B30  1  0.500000  0.111357  0.469491  1
  B  B31  1  0.500000  0.888643  0.530509  1
  Ir  Ir32  1  0.000000  0.638593  0.321282  1
  Ir  Ir33  1  0.000000  0.361407  0.678718  1
  Ir  Ir34  1  0.000000  0.138256  0.178357  1
  Ir  Ir35  1  0.000000  0.861744  0.821643  1
