# generated using pymatgen
data_ErTm7Re2(B12Ru)2
_symmetry_space_group_name_H-M   'P 1'
_cell_length_a   3.63111300
_cell_length_b   9.08718152
_cell_length_c   11.46368800
_cell_angle_alpha   89.80647816
_cell_angle_beta   90.00000000
_cell_angle_gamma   90.00000000
_symmetry_Int_Tables_number   1
_chemical_formula_structural   ErTm7Re2(B12Ru)2
_chemical_formula_sum   'Er1 Tm7 Re2 B24 Ru2'
_cell_volume   378.26037444
_cell_formula_units_Z   1
loop_
 _symmetry_equiv_pos_site_id
 _symmetry_equiv_pos_as_xyz
  1  'x, y, z'
loop_
 _atom_site_type_symbol
 _atom_site_label
 _atom_site_symmetry_multiplicity
 _atom_site_fract_x
 _atom_site_fract_y
 _atom_site_fract_z
 _atom_site_occupancy
  Er  Er0  1  0.000000  0.324499  0.415485  1
  Tm  Tm1  1  0.000000  0.675490  0.584461  1
  Tm  Tm2  1  0.000000  0.820607  0.087708  1
  Tm  Tm3  1  0.000000  0.179385  0.912292  1
  Tm  Tm4  1  0.000000  0.943019  0.371067  1
  Tm  Tm5  1  0.000000  0.056875  0.628973  1
  Tm  Tm6  1  0.000000  0.442961  0.129052  1
  Tm  Tm7  1  0.000000  0.557088  0.870928  1
  Re  Re8  1  0.000000  0.638572  0.320143  1
  Re  Re9  1  0.000000  0.361576  0.679921  1
  B  B10  1  0.500000  0.552965  0.433481  1
  B  B11  1  0.500000  0.447262  0.566632  1
  B  B12  1  0.500000  0.053574  0.066512  1
  B  B13  1  0.500000  0.946413  0.933478  1
  B  B14  1  0.500000  0.749474  0.419588  1
  B  B15  1  0.500000  0.250508  0.580591  1
  B  B16  1  0.500000  0.248962  0.080458  1
  B  B17  1  0.500000  0.751044  0.919525  1
  B  B18  1  0.500000  0.792554  0.265006  1
  B  B19  1  0.500000  0.207434  0.735020  1
  B  B20  1  0.500000  0.291167  0.234142  1
  B  B21  1  0.500000  0.708764  0.765730  1
  B  B22  1  0.500000  0.631237  0.184485  1
  B  B23  1  0.500000  0.368785  0.815520  1
  B  B24  1  0.500000  0.130865  0.314439  1
  B  B25  1  0.500000  0.868998  0.685467  1
  B  B26  1  0.500000  0.982509  0.212024  1
  B  B27  1  0.500000  0.017463  0.787968  1
  B  B28  1  0.500000  0.481704  0.287208  1
  B  B29  1  0.500000  0.518514  0.712722  1
  B  B30  1  0.500000  0.603524  0.028467  1
  B  B31  1  0.500000  0.396484  0.971526  1
  B  B32  1  0.500000  0.103044  0.471307  1
  B  B33  1  0.500000  0.896747  0.528759  1
  Ru  Ru34  1  0.000000  0.137694  0.178357  1
  Ru  Ru35  1  0.000000  0.862238  0.821557  1
