# generated using pymatgen
data_Tm8Sc12Ga9Sn7
_symmetry_space_group_name_H-M   'P 1'
_cell_length_a   7.31122210
_cell_length_b   7.74594163
_cell_length_c   14.70408295
_cell_angle_alpha   90.02249613
_cell_angle_beta   90.14082708
_cell_angle_gamma   90.09174482
_symmetry_Int_Tables_number   1
_chemical_formula_structural   Tm8Sc12Ga9Sn7
_chemical_formula_sum   'Tm8 Sc12 Ga9 Sn7'
_cell_volume   832.72238281
_cell_formula_units_Z   1
loop_
 _symmetry_equiv_pos_site_id
 _symmetry_equiv_pos_as_xyz
  1  'x, y, z'
loop_
 _atom_site_type_symbol
 _atom_site_label
 _atom_site_symmetry_multiplicity
 _atom_site_fract_x
 _atom_site_fract_y
 _atom_site_fract_z
 _atom_site_occupancy
  Tm  Tm0  1  0.995108  0.183184  0.100481  1
  Tm  Tm1  1  0.004572  0.816779  0.899055  1
  Tm  Tm2  1  0.504575  0.684163  0.899246  1
  Tm  Tm3  1  0.006181  0.812581  0.599807  1
  Tm  Tm4  1  0.495023  0.316732  0.100399  1
  Tm  Tm5  1  0.999051  0.186155  0.401859  1
  Tm  Tm6  1  0.493158  0.320881  0.402042  1
  Tm  Tm7  1  0.494721  0.676187  0.597809  1
  Sc  Sc8  1  0.176251  0.504133  0.746736  1
  Sc  Sc9  1  0.824280  0.496111  0.250812  1
  Sc  Sc10  1  0.324529  0.003276  0.250206  1
  Sc  Sc11  1  0.674257  0.995706  0.749314  1
  Sc  Sc12  1  0.328762  0.174218  0.628846  1
  Sc  Sc13  1  0.665823  0.834774  0.368063  1
  Sc  Sc14  1  0.168952  0.656878  0.371087  1
  Sc  Sc15  1  0.664403  0.837049  0.133459  1
  Sc  Sc16  1  0.842726  0.337844  0.631761  1
  Sc  Sc17  1  0.336159  0.162915  0.866592  1
  Sc  Sc18  1  0.835397  0.336783  0.866634  1
  Sc  Sc19  1  0.164097  0.663091  0.132982  1
  Ga  Ga20  1  0.035457  0.112406  0.750024  1
  Ga  Ga21  1  0.965214  0.885632  0.251320  1
  Ga  Ga22  1  0.463866  0.613406  0.250360  1
  Ga  Ga23  1  0.536874  0.387005  0.748446  1
  Ga  Ga24  1  0.294291  0.866962  0.748908  1
  Ga  Ga25  1  0.705694  0.135520  0.251108  1
  Ga  Ga26  1  0.206084  0.364518  0.249900  1
  Ga  Ga27  1  0.793188  0.634821  0.749827  1
  Ga  Ga28  1  0.174887  0.459655  0.541284  1
  Sn  Sn29  1  0.825851  0.541399  0.461731  1
  Sn  Sn30  1  0.318373  0.957293  0.459813  1
  Sn  Sn31  1  0.816821  0.543396  0.039951  1
  Sn  Sn32  1  0.681949  0.041691  0.540882  1
  Sn  Sn33  1  0.183134  0.456809  0.959366  1
  Sn  Sn34  1  0.683118  0.043158  0.959896  1
  Sn  Sn35  1  0.317172  0.956888  0.039994  1
