# generated using pymatgen
data_Y2Tm4Al24Os7Pt
_symmetry_space_group_name_H-M   'P 1'
_cell_length_a   8.79187312
_cell_length_b   8.78527250
_cell_length_c   9.57216153
_cell_angle_alpha   89.72288918
_cell_angle_beta   90.26393097
_cell_angle_gamma   119.61105652
_symmetry_Int_Tables_number   1
_chemical_formula_structural   Y2Tm4Al24Os7Pt
_chemical_formula_sum   'Y2 Tm4 Al24 Os7 Pt1'
_cell_volume   642.77593699
_cell_formula_units_Z   1
loop_
 _symmetry_equiv_pos_site_id
 _symmetry_equiv_pos_as_xyz
  1  'x, y, z'
loop_
 _atom_site_type_symbol
 _atom_site_label
 _atom_site_symmetry_multiplicity
 _atom_site_fract_x
 _atom_site_fract_y
 _atom_site_fract_z
 _atom_site_occupancy
  Y  Y0  1  0.189003  0.385748  0.251680  1
  Y  Y1  1  0.810997  0.614252  0.748320  1
  Tm  Tm2  1  0.610135  0.809607  0.252339  1
  Tm  Tm3  1  0.389865  0.190393  0.747661  1
  Tm  Tm4  1  0.195832  0.804558  0.250722  1
  Tm  Tm5  1  0.804168  0.195442  0.749278  1
  Al  Al6  1  0.330932  0.669142  0.025329  1
  Al  Al7  1  0.669068  0.330858  0.974671  1
  Al  Al8  1  0.667067  0.333090  0.522248  1
  Al  Al9  1  0.332933  0.666910  0.477752  1
  Al  Al10  1  0.165078  0.327309  0.576105  1
  Al  Al11  1  0.834922  0.672691  0.423895  1
  Al  Al12  1  0.672197  0.835066  0.575079  1
  Al  Al13  1  0.840824  0.675041  0.077894  1
  Al  Al14  1  0.327803  0.164934  0.424921  1
  Al  Al15  1  0.159176  0.324959  0.922106  1
  Al  Al16  1  0.164995  0.835484  0.573288  1
  Al  Al17  1  0.325328  0.159069  0.076725  1
  Al  Al18  1  0.835005  0.164516  0.426712  1
  Al  Al19  1  0.674672  0.840931  0.923275  1
  Al  Al20  1  0.834928  0.164440  0.073668  1
  Al  Al21  1  0.165072  0.835560  0.926332  1
  Al  Al22  1  0.560726  0.123657  0.249432  1
  Al  Al23  1  0.439274  0.876343  0.750568  1
  Al  Al24  1  0.875820  0.439251  0.249429  1
  Al  Al25  1  0.124180  0.560749  0.750571  1
  Al  Al26  1  0.562628  0.438161  0.252427  1
  Al  Al27  1  0.437372  0.561839  0.747573  1
  Al  Al28  1  0.997611  0.997513  0.250194  1
  Al  Al29  1  0.002389  0.002487  0.749806  1
  Os  Os30  1  0.500000  0.000000  0.000000  1
  Os  Os31  1  0.000000  0.500000  0.000000  1
  Os  Os32  1  0.500000  0.000000  0.500000  1
  Os  Os33  1  0.000000  0.500000  0.500000  1
  Os  Os34  1  0.500000  0.500000  0.500000  1
  Os  Os35  1  0.000000  0.000000  0.000000  1
  Os  Os36  1  0.000000  0.000000  0.500000  1
  Pt  Pt37  1  0.500000  0.500000  0.000000  1
