# generated using pymatgen
data_Nd12Ni3Ru
_symmetry_space_group_name_H-M   'P 1'
_cell_length_a   6.50401101
_cell_length_b   7.15987737
_cell_length_c   9.90530600
_cell_angle_alpha   90.00000000
_cell_angle_beta   90.00000000
_cell_angle_gamma   90.17753583
_symmetry_Int_Tables_number   1
_chemical_formula_structural   Nd12Ni3Ru
_chemical_formula_sum   'Nd12 Ni3 Ru1'
_cell_volume   461.26729541
_cell_formula_units_Z   1
loop_
 _symmetry_equiv_pos_site_id
 _symmetry_equiv_pos_as_xyz
  1  'x, y, z'
loop_
 _atom_site_type_symbol
 _atom_site_label
 _atom_site_symmetry_multiplicity
 _atom_site_fract_x
 _atom_site_fract_y
 _atom_site_fract_z
 _atom_site_occupancy
  Nd  Nd0  1  0.324858  0.673722  0.065851  1
  Nd  Nd1  1  0.173799  0.177334  0.433792  1
  Nd  Nd2  1  0.672464  0.324420  0.568552  1
  Nd  Nd3  1  0.828893  0.823228  0.935671  1
  Nd  Nd4  1  0.672464  0.324420  0.931448  1
  Nd  Nd5  1  0.828893  0.823228  0.564329  1
  Nd  Nd6  1  0.324858  0.673722  0.434149  1
  Nd  Nd7  1  0.173799  0.177334  0.066208  1
  Nd  Nd8  1  0.859229  0.539497  0.250000  1
  Nd  Nd9  1  0.639815  0.037383  0.250000  1
  Nd  Nd10  1  0.142259  0.464005  0.750000  1
  Nd  Nd11  1  0.361364  0.963330  0.750000  1
  Ni  Ni12  1  0.437413  0.387137  0.250000  1
  Ni  Ni13  1  0.931064  0.110570  0.750000  1
  Ni  Ni14  1  0.567102  0.613026  0.750000  1
  Ru  Ru15  1  0.061726  0.887645  0.250000  1
