# generated using pymatgen
data_Tm8Ge(Pd7Pt5)2
_symmetry_space_group_name_H-M   'P 1'
_cell_length_a   8.37510000
_cell_length_b   8.36828200
_cell_length_c   8.37822500
_cell_angle_alpha   90.00000000
_cell_angle_beta   90.00000000
_cell_angle_gamma   90.00000000
_symmetry_Int_Tables_number   1
_chemical_formula_structural   Tm8Ge(Pd7Pt5)2
_chemical_formula_sum   'Tm8 Ge1 Pd14 Pt10'
_cell_volume   587.18956286
_cell_formula_units_Z   1
loop_
 _symmetry_equiv_pos_site_id
 _symmetry_equiv_pos_as_xyz
  1  'x, y, z'
loop_
 _atom_site_type_symbol
 _atom_site_label
 _atom_site_symmetry_multiplicity
 _atom_site_fract_x
 _atom_site_fract_y
 _atom_site_fract_z
 _atom_site_occupancy
  Tm  Tm0  1  0.253946  0.254599  0.253528  1
  Tm  Tm1  1  0.745645  0.745245  0.746235  1
  Tm  Tm2  1  0.745645  0.745245  0.253765  1
  Tm  Tm3  1  0.746054  0.254599  0.746472  1
  Tm  Tm4  1  0.253946  0.254599  0.746472  1
  Tm  Tm5  1  0.254355  0.745245  0.253765  1
  Tm  Tm6  1  0.254355  0.745245  0.746235  1
  Tm  Tm7  1  0.746054  0.254599  0.253528  1
  Ge  Ge8  1  0.000000  0.000280  0.000000  1
  Pd  Pd9  1  0.000000  0.740627  0.500000  1
  Pd  Pd10  1  0.500000  0.741649  0.000000  1
  Pd  Pd11  1  0.500000  0.000116  0.259728  1
  Pd  Pd12  1  0.259431  0.000160  0.500000  1
  Pd  Pd13  1  0.500000  0.000116  0.740272  1
  Pd  Pd14  1  0.740569  0.000160  0.500000  1
  Pd  Pd15  1  0.000000  0.500403  0.258986  1
  Pd  Pd16  1  0.000000  0.500403  0.741014  1
  Pd  Pd17  1  0.287981  0.999869  0.000000  1
  Pd  Pd18  1  0.712019  0.999869  0.000000  1
  Pd  Pd19  1  0.000000  0.288000  0.000000  1
  Pd  Pd20  1  0.000000  0.712559  0.000000  1
  Pd  Pd21  1  0.000000  0.999840  0.288371  1
  Pd  Pd22  1  0.000000  0.999840  0.711629  1
  Pt  Pt23  1  0.258382  0.500090  0.000000  1
  Pt  Pt24  1  0.741618  0.500090  0.000000  1
  Pt  Pt25  1  0.000000  0.259249  0.500000  1
  Pt  Pt26  1  0.500000  0.258092  0.000000  1
  Pt  Pt27  1  0.251662  0.499732  0.500000  1
  Pt  Pt28  1  0.748338  0.499732  0.500000  1
  Pt  Pt29  1  0.500000  0.251711  0.500000  1
  Pt  Pt30  1  0.500000  0.747906  0.500000  1
  Pt  Pt31  1  0.500000  0.500065  0.252304  1
  Pt  Pt32  1  0.500000  0.500065  0.747696  1
