# generated using pymatgen
data_Ba2PuN3
_symmetry_space_group_name_H-M   'P 1'
_cell_length_a   7.54378010
_cell_length_b   7.54378118
_cell_length_c   12.12474201
_cell_angle_alpha   90.02192572
_cell_angle_beta   90.02192683
_cell_angle_gamma   131.81164392
_symmetry_Int_Tables_number   1
_chemical_formula_structural   Ba2PuN3
_chemical_formula_sum   'Ba8 Pu4 N12'
_cell_volume   514.28653642
_cell_formula_units_Z   4
loop_
 _symmetry_equiv_pos_site_id
 _symmetry_equiv_pos_as_xyz
  1  'x, y, z'
loop_
 _atom_site_type_symbol
 _atom_site_label
 _atom_site_symmetry_multiplicity
 _atom_site_fract_x
 _atom_site_fract_y
 _atom_site_fract_z
 _atom_site_occupancy
  Ba  Ba0  1  0.100847  0.397285  0.132528  1
  Ba  Ba1  1  0.397285  0.100847  0.632528  1
  Ba  Ba2  1  0.899153  0.602715  0.867472  1
  Ba  Ba3  1  0.602715  0.899153  0.367472  1
  Ba  Ba4  1  0.097821  0.399361  0.631657  1
  Ba  Ba5  1  0.600639  0.902179  0.868343  1
  Ba  Ba6  1  0.902179  0.600639  0.368343  1
  Ba  Ba7  1  0.399361  0.097821  0.131657  1
  Pu  Pu8  1  0.252276  0.248799  0.374548  1
  Pu  Pu9  1  0.747724  0.751201  0.625452  1
  Pu  Pu10  1  0.751201  0.747724  0.125452  1
  Pu  Pu11  1  0.248799  0.252276  0.874548  1
  N  N12  1  0.106653  0.394405  0.883543  1
  N  N13  1  0.605595  0.893347  0.616457  1
  N  N14  1  0.893347  0.605595  0.116457  1
  N  N15  1  0.394405  0.106653  0.383543  1
  N  N16  1  0.998450  0.001550  0.750000  1
  N  N17  1  0.001550  0.998450  0.250000  1
  N  N18  1  0.498831  0.501169  0.750000  1
  N  N19  1  0.609770  0.890244  0.115214  1
  N  N20  1  0.890244  0.609770  0.615214  1
  N  N21  1  0.390230  0.109756  0.884786  1
  N  N22  1  0.109756  0.390230  0.384786  1
  N  N23  1  0.501169  0.498831  0.250000  1
