# generated using pymatgen
data_LiDy6Y10Cd3Ni4
_symmetry_space_group_name_H-M   'P 1'
_cell_length_a   9.56477019
_cell_length_b   9.57539564
_cell_length_c   9.57539489
_cell_angle_alpha   59.88822890
_cell_angle_beta   59.97899879
_cell_angle_gamma   59.97900298
_symmetry_Int_Tables_number   1
_chemical_formula_structural   LiDy6Y10Cd3Ni4
_chemical_formula_sum   'Li1 Dy6 Y10 Cd3 Ni4'
_cell_volume   619.39412331
_cell_formula_units_Z   1
loop_
 _symmetry_equiv_pos_site_id
 _symmetry_equiv_pos_as_xyz
  1  'x, y, z'
loop_
 _atom_site_type_symbol
 _atom_site_label
 _atom_site_symmetry_multiplicity
 _atom_site_fract_x
 _atom_site_fract_y
 _atom_site_fract_z
 _atom_site_occupancy
  Li  Li0  1  0.820603  0.820276  0.820276  1
  Dy  Dy1  1  0.597066  0.596930  0.596930  1
  Dy  Dy2  1  0.598332  0.598456  0.204744  1
  Dy  Dy3  1  0.598332  0.204744  0.598456  1
  Dy  Dy4  1  0.204798  0.598339  0.598339  1
  Dy  Dy5  1  0.061648  0.441319  0.441319  1
  Dy  Dy6  1  0.437154  0.064205  0.064205  1
  Y  Y7  1  0.441505  0.061251  0.441652  1
  Y  Y8  1  0.063836  0.437243  0.063798  1
  Y  Y9  1  0.441505  0.441652  0.061251  1
  Y  Y10  1  0.063836  0.063798  0.437243  1
  Y  Y11  1  0.186525  0.813911  0.813911  1
  Y  Y12  1  0.813433  0.186945  0.186945  1
  Y  Y13  1  0.813587  0.186984  0.813708  1
  Y  Y14  1  0.187195  0.813233  0.187087  1
  Y  Y15  1  0.813587  0.813708  0.186984  1
  Y  Y16  1  0.187195  0.187087  0.813233  1
  Cd  Cd17  1  0.831587  0.831560  0.505913  1
  Cd  Cd18  1  0.831587  0.505913  0.831560  1
  Cd  Cd19  1  0.505988  0.831413  0.831413  1
  Ni  Ni20  1  0.392887  0.394599  0.394599  1
  Ni  Ni21  1  0.392810  0.391407  0.822338  1
  Ni  Ni22  1  0.392810  0.822338  0.391407  1
  Ni  Ni23  1  0.822192  0.392686  0.392686  1
