# generated using pymatgen
data_SmDySc3Si7PdPt8
_symmetry_space_group_name_H-M   'P 1'
_cell_length_a   10.05414100
_cell_length_b   10.05414030
_cell_length_c   3.99141900
_cell_angle_alpha   90.00000000
_cell_angle_beta   90.00000000
_cell_angle_gamma   119.99999901
_symmetry_Int_Tables_number   1
_chemical_formula_structural   SmDySc3Si7PdPt8
_chemical_formula_sum   'Sm1 Dy1 Sc3 Si7 Pd1 Pt8'
_cell_volume   349.42008832
_cell_formula_units_Z   1
loop_
 _symmetry_equiv_pos_site_id
 _symmetry_equiv_pos_as_xyz
  1  'x, y, z'
loop_
 _atom_site_type_symbol
 _atom_site_label
 _atom_site_symmetry_multiplicity
 _atom_site_fract_x
 _atom_site_fract_y
 _atom_site_fract_z
 _atom_site_occupancy
  Sm  Sm0  1  0.999991  0.999905  0.000000  1
  Dy  Dy1  1  0.333549  0.666461  0.500000  1
  Sc  Sc2  1  0.894551  0.454959  0.500000  1
  Sc  Sc3  1  0.560387  0.105618  0.500000  1
  Sc  Sc4  1  0.545225  0.439864  0.500000  1
  Si  Si5  1  0.247961  0.197410  0.500000  1
  Si  Si6  1  0.803092  0.050751  0.500000  1
  Si  Si7  1  0.948411  0.751866  0.500000  1
  Si  Si8  1  0.556568  0.647106  0.000000  1
  Si  Si9  1  0.353723  0.909517  0.000000  1
  Si  Si10  1  0.090716  0.443476  0.000000  1
  Si  Si11  1  0.666458  0.333215  0.000000  1
  Pd  Pd12  1  0.220223  0.935582  0.500000  1
  Pt  Pt13  1  0.064290  0.284902  0.500000  1
  Pt  Pt14  1  0.715143  0.779527  0.500000  1
  Pt  Pt15  1  0.314079  0.412692  0.000000  1
  Pt  Pt16  1  0.587406  0.901054  0.000000  1
  Pt  Pt17  1  0.099241  0.687571  0.000000  1
  Pt  Pt18  1  0.383552  0.170326  0.000000  1
  Pt  Pt19  1  0.828425  0.212752  0.000000  1
  Pt  Pt20  1  0.787011  0.615445  0.000000  1
