# generated using pymatgen
data_Ba3GaO4F
_symmetry_space_group_name_H-M   'P 1'
_cell_length_a   7.90547384
_cell_length_b   7.90547303
_cell_length_c   7.90547342
_cell_angle_alpha   124.89544947
_cell_angle_beta   124.89543945
_cell_angle_gamma   81.71128287
_symmetry_Int_Tables_number   1
_chemical_formula_structural   Ba3GaO4F
_chemical_formula_sum   'Ba6 Ga2 O8 F2'
_cell_volume   319.81895155
_cell_formula_units_Z   2
loop_
 _symmetry_equiv_pos_site_id
 _symmetry_equiv_pos_as_xyz
  1  'x, y, z'
loop_
 _atom_site_type_symbol
 _atom_site_label
 _atom_site_symmetry_multiplicity
 _atom_site_fract_x
 _atom_site_fract_y
 _atom_site_fract_z
 _atom_site_occupancy
  Ba  Ba0  1  0.831408  0.331408  0.162817  1
  Ba  Ba1  1  0.331408  0.168592  0.500000  1
  Ba  Ba2  1  0.668592  0.831408  0.500000  1
  Ba  Ba3  1  0.168592  0.668592  0.837183  1
  Ba  Ba4  1  0.250000  0.250000  0.000000  1
  Ba  Ba5  1  0.750000  0.750000  0.000000  1
  Ga  Ga6  1  0.750000  0.250000  0.500000  1
  Ga  Ga7  1  0.250000  0.750000  0.500000  1
  O  O8  1  0.507462  0.007462  0.217165  1
  O  O9  1  0.209701  0.709701  0.217165  1
  O  O10  1  0.492538  0.992538  0.782835  1
  O  O11  1  0.992538  0.209701  0.500000  1
  O  O12  1  0.709701  0.492538  0.500000  1
  O  O13  1  0.007462  0.790299  0.500000  1
  O  O14  1  0.290299  0.507462  0.500000  1
  O  O15  1  0.790299  0.290299  0.782835  1
  F  F16  1  0.500000  0.500000  0.000000  1
  F  F17  1  0.000000  0.000000  0.000000  1
