# generated using pymatgen
data_Tm4Lu2InGa2
_symmetry_space_group_name_H-M   'P 1'
_cell_length_a   8.49345094
_cell_length_b   8.49345101
_cell_length_c   8.49345114
_cell_angle_alpha   112.01160869
_cell_angle_beta   112.63415761
_cell_angle_gamma   103.90778315
_symmetry_Int_Tables_number   1
_chemical_formula_structural   Tm4Lu2InGa2
_chemical_formula_sum   'Tm8 Lu4 In2 Ga4'
_cell_volume   468.35479252
_cell_formula_units_Z   2
loop_
 _symmetry_equiv_pos_site_id
 _symmetry_equiv_pos_as_xyz
  1  'x, y, z'
loop_
 _atom_site_type_symbol
 _atom_site_label
 _atom_site_symmetry_multiplicity
 _atom_site_fract_x
 _atom_site_fract_y
 _atom_site_fract_z
 _atom_site_occupancy
  Tm  Tm0  1  0.187347  0.280641  0.467987  1
  Tm  Tm1  1  0.812653  0.719359  0.532013  1
  Tm  Tm2  1  0.187347  0.719359  0.906705  1
  Tm  Tm3  1  0.812653  0.280641  0.093295  1
  Tm  Tm4  1  0.320145  0.615668  0.295523  1
  Tm  Tm5  1  0.679855  0.384332  0.704477  1
  Tm  Tm6  1  0.320145  0.024622  0.704477  1
  Tm  Tm7  1  0.679855  0.975378  0.295523  1
  Lu  Lu8  1  0.443841  0.240314  0.203527  1
  Lu  Lu9  1  0.556159  0.759686  0.796473  1
  Lu  Lu10  1  0.036787  0.240314  0.796473  1
  Lu  Lu11  1  0.963213  0.759686  0.203527  1
  In  In12  1  0.500000  0.500000  0.000000  1
  In  In13  1  0.000000  0.000000  0.000000  1
  Ga  Ga14  1  0.352517  0.000000  0.352517  1
  Ga  Ga15  1  0.647483  0.000000  0.647483  1
  Ga  Ga16  1  0.121113  0.621113  0.500000  1
  Ga  Ga17  1  0.878887  0.378887  0.500000  1
