# generated using pymatgen
data_Nd2HoZr(NiAs)4
_symmetry_space_group_name_H-M   'P 1'
_cell_length_a   4.05654700
_cell_length_b   4.05654746
_cell_length_c   15.59122100
_cell_angle_alpha   90.00000000
_cell_angle_beta   90.00000000
_cell_angle_gamma   120.00000438
_symmetry_Int_Tables_number   1
_chemical_formula_structural   Nd2HoZr(NiAs)4
_chemical_formula_sum   'Nd2 Ho1 Zr1 Ni4 As4'
_cell_volume   222.18964447
_cell_formula_units_Z   1
loop_
 _symmetry_equiv_pos_site_id
 _symmetry_equiv_pos_as_xyz
  1  'x, y, z'
loop_
 _atom_site_type_symbol
 _atom_site_label
 _atom_site_symmetry_multiplicity
 _atom_site_fract_x
 _atom_site_fract_y
 _atom_site_fract_z
 _atom_site_occupancy
  Nd  Nd0  1  0.000000  0.000000  0.006483  1
  Nd  Nd1  1  0.000000  0.000000  0.493517  1
  Ho  Ho2  1  0.000000  0.000000  0.750000  1
  Zr  Zr3  1  0.000000  0.000000  0.250000  1
  Ni  Ni4  1  0.333333  0.666667  0.160822  1
  Ni  Ni5  1  0.666667  0.333333  0.866974  1
  Ni  Ni6  1  0.666667  0.333333  0.633026  1
  Ni  Ni7  1  0.333333  0.666667  0.339178  1
  As  As8  1  0.333333  0.666667  0.622986  1
  As  As9  1  0.666667  0.333333  0.371064  1
  As  As10  1  0.666667  0.333333  0.128936  1
  As  As11  1  0.333333  0.666667  0.877014  1
