# generated using pymatgen
data_Pr7Eu(WO6)4
_symmetry_space_group_name_H-M   'P 1'
_cell_length_a   5.47705946
_cell_length_b   9.47727433
_cell_length_c   10.35303600
_cell_angle_alpha   90.05453129
_cell_angle_beta   89.89929144
_cell_angle_gamma   89.99490269
_symmetry_Int_Tables_number   1
_chemical_formula_structural   Pr7Eu(WO6)4
_chemical_formula_sum   'Pr7 Eu1 W4 O24'
_cell_volume   537.40012435
_cell_formula_units_Z   1
loop_
 _symmetry_equiv_pos_site_id
 _symmetry_equiv_pos_as_xyz
  1  'x, y, z'
loop_
 _atom_site_type_symbol
 _atom_site_label
 _atom_site_symmetry_multiplicity
 _atom_site_fract_x
 _atom_site_fract_y
 _atom_site_fract_z
 _atom_site_occupancy
  Pr  Pr0  1  0.476463  0.603186  0.537770  1
  Pr  Pr1  1  0.976472  0.897073  0.462191  1
  Pr  Pr2  1  0.522857  0.103744  0.962322  1
  Pr  Pr3  1  0.022434  0.396093  0.038025  1
  Pr  Pr4  1  0.967466  0.782265  0.867490  1
  Pr  Pr5  1  0.466214  0.718608  0.132439  1
  Pr  Pr6  1  0.035470  0.280972  0.630792  1
  Eu  Eu7  1  0.533576  0.219861  0.366148  1
  W  W8  1  0.460895  0.997514  0.646551  1
  W  W9  1  0.958453  0.502058  0.353050  1
  W  W10  1  0.541530  0.496475  0.852255  1
  W  W11  1  0.039893  0.004353  0.148800  1
  O  O12  1  0.256615  0.089860  0.507289  1
  O  O13  1  0.751071  0.410480  0.490801  1
  O  O14  1  0.748805  0.588392  0.990599  1
  O  O15  1  0.248801  0.912158  0.010034  1
  O  O16  1  0.724026  0.111275  0.565316  1
  O  O17  1  0.223769  0.387616  0.433924  1
  O  O18  1  0.278519  0.611989  0.934914  1
  O  O19  1  0.777917  0.888729  0.065674  1
  O  O20  1  0.573839  0.848553  0.527783  1
  O  O21  1  0.071884  0.649623  0.473001  1
  O  O22  1  0.426112  0.349283  0.972661  1
  O  O23  1  0.928686  0.150832  0.027537  1
  O  O24  1  0.180468  0.862562  0.259118  1
  O  O25  1  0.682935  0.637476  0.741177  1
  O  O26  1  0.813993  0.360025  0.243041  1
  O  O27  1  0.316975  0.137332  0.758498  1
  O  O28  1  0.828640  0.051379  0.287802  1
  O  O29  1  0.330991  0.450464  0.712808  1
  O  O30  1  0.166058  0.548622  0.212287  1
  O  O31  1  0.669003  0.950745  0.787093  1
  O  O32  1  0.308494  0.133813  0.180929  1
  O  O33  1  0.808405  0.365850  0.821314  1
  O  O34  1  0.691748  0.633078  0.321284  1
  O  O35  1  0.190522  0.867660  0.677282  1
