# generated using pymatgen
data_Er16MgGa(Co2Ag)2
_symmetry_space_group_name_H-M   'P 1'
_cell_length_a   9.32943921
_cell_length_b   9.32468211
_cell_length_c   9.32468183
_cell_angle_alpha   60.11528769
_cell_angle_beta   60.07220885
_cell_angle_gamma   60.07219963
_symmetry_Int_Tables_number   1
_chemical_formula_structural   Er16MgGa(Co2Ag)2
_chemical_formula_sum   'Er16 Mg1 Ga1 Co4 Ag2'
_cell_volume   574.72422622
_cell_formula_units_Z   1
loop_
 _symmetry_equiv_pos_site_id
 _symmetry_equiv_pos_as_xyz
  1  'x, y, z'
loop_
 _atom_site_type_symbol
 _atom_site_label
 _atom_site_symmetry_multiplicity
 _atom_site_fract_x
 _atom_site_fract_y
 _atom_site_fract_z
 _atom_site_occupancy
  Er  Er0  1  0.595544  0.595717  0.595717  1
  Er  Er1  1  0.598603  0.597806  0.208645  1
  Er  Er2  1  0.598603  0.208645  0.597806  1
  Er  Er3  1  0.200210  0.600991  0.600991  1
  Er  Er4  1  0.059607  0.439066  0.439066  1
  Er  Er5  1  0.439316  0.060622  0.060622  1
  Er  Er6  1  0.435728  0.063089  0.437045  1
  Er  Er7  1  0.057918  0.441694  0.059298  1
  Er  Er8  1  0.435728  0.437045  0.063089  1
  Er  Er9  1  0.057918  0.059298  0.441694  1
  Er  Er10  1  0.182037  0.814013  0.814013  1
  Er  Er11  1  0.810685  0.189211  0.189211  1
  Er  Er12  1  0.811765  0.187785  0.814053  1
  Er  Er13  1  0.186319  0.812051  0.190351  1
  Er  Er14  1  0.811765  0.814053  0.187785  1
  Er  Er15  1  0.186319  0.190351  0.812051  1
  Mg  Mg16  1  0.537739  0.820227  0.820227  1
  Ga  Ga17  1  0.836368  0.831728  0.831728  1
  Co  Co18  1  0.388592  0.392884  0.392884  1
  Co  Co19  1  0.388689  0.390805  0.827042  1
  Co  Co20  1  0.388689  0.827042  0.390805  1
  Co  Co21  1  0.826193  0.390487  0.390487  1
  Ag  Ag22  1  0.832835  0.832440  0.502948  1
  Ag  Ag23  1  0.832835  0.502948  0.832440  1
