# generated using pymatgen
data_Gd3Al3Si2Tc
_symmetry_space_group_name_H-M   'P 1'
_cell_length_a   6.95867100
_cell_length_b   6.95867087
_cell_length_c   4.25593400
_cell_angle_alpha   90.00000000
_cell_angle_beta   90.00000000
_cell_angle_gamma   119.99999587
_symmetry_Int_Tables_number   1
_chemical_formula_structural   Gd3Al3Si2Tc
_chemical_formula_sum   'Gd3 Al3 Si2 Tc1'
_cell_volume   178.47530542
_cell_formula_units_Z   1
loop_
 _symmetry_equiv_pos_site_id
 _symmetry_equiv_pos_as_xyz
  1  'x, y, z'
loop_
 _atom_site_type_symbol
 _atom_site_label
 _atom_site_symmetry_multiplicity
 _atom_site_fract_x
 _atom_site_fract_y
 _atom_site_fract_z
 _atom_site_occupancy
  Gd  Gd0  1  0.417650  0.000000  0.000000  1
  Gd  Gd1  1  0.000000  0.417650  0.000000  1
  Gd  Gd2  1  0.582350  0.582349  0.000000  1
  Al  Al3  1  0.768499  0.000000  0.500001  1
  Al  Al4  1  0.231502  0.231501  0.500001  1
  Al  Al5  1  0.000000  0.768500  0.500001  1
  Si  Si6  1  0.666668  0.333334  0.500001  1
  Si  Si7  1  0.333333  0.666667  0.500001  1
  Tc  Tc8  1  0.000000  0.000000  0.000000  1
