# generated using pymatgen
data_Y2Tm2Ga16Co2Ru
_symmetry_space_group_name_H-M   'P 1'
_cell_length_a   6.06220300
_cell_length_b   6.06220300
_cell_length_c   11.13533400
_cell_angle_alpha   90.00000000
_cell_angle_beta   90.00000000
_cell_angle_gamma   90.00000000
_symmetry_Int_Tables_number   1
_chemical_formula_structural   Y2Tm2Ga16Co2Ru
_chemical_formula_sum   'Y2 Tm2 Ga16 Co2 Ru1'
_cell_volume   409.22692315
_cell_formula_units_Z   1
loop_
 _symmetry_equiv_pos_site_id
 _symmetry_equiv_pos_as_xyz
  1  'x, y, z'
loop_
 _atom_site_type_symbol
 _atom_site_label
 _atom_site_symmetry_multiplicity
 _atom_site_fract_x
 _atom_site_fract_y
 _atom_site_fract_z
 _atom_site_occupancy
  Y  Y0  1  0.500000  0.000000  0.194505  1
  Y  Y1  1  0.000000  0.500000  0.194505  1
  Tm  Tm2  1  0.500000  0.000000  0.804479  1
  Tm  Tm3  1  0.000000  0.500000  0.804479  1
  Ga  Ga4  1  0.248720  0.248720  0.615698  1
  Ga  Ga5  1  0.751280  0.751280  0.615698  1
  Ga  Ga6  1  0.751280  0.248720  0.615698  1
  Ga  Ga7  1  0.248720  0.751280  0.615698  1
  Ga  Ga8  1  0.751244  0.751244  0.385884  1
  Ga  Ga9  1  0.248756  0.248756  0.385884  1
  Ga  Ga10  1  0.248756  0.751244  0.385884  1
  Ga  Ga11  1  0.751244  0.248756  0.385884  1
  Ga  Ga12  1  0.286613  0.286613  0.998497  1
  Ga  Ga13  1  0.713387  0.713387  0.998497  1
  Ga  Ga14  1  0.713387  0.286613  0.998497  1
  Ga  Ga15  1  0.286613  0.713387  0.998497  1
  Ga  Ga16  1  0.500000  0.500000  0.802328  1
  Ga  Ga17  1  0.500000  0.500000  0.197604  1
  Ga  Ga18  1  0.000000  0.000000  0.776067  1
  Ga  Ga19  1  0.000000  0.000000  0.224372  1
  Co  Co20  1  0.500000  0.000000  0.500720  1
  Co  Co21  1  0.000000  0.500000  0.500720  1
  Ru  Ru22  1  0.000000  0.000000  0.999906  1
