# generated using pymatgen
data_DyLu3Re3Os5
_symmetry_space_group_name_H-M   'P 1'
_cell_length_a   5.28343275
_cell_length_b   5.32673108
_cell_length_c   8.89785302
_cell_angle_alpha   89.99999804
_cell_angle_beta   90.00726081
_cell_angle_gamma   120.27144745
_symmetry_Int_Tables_number   1
_chemical_formula_structural   DyLu3Re3Os5
_chemical_formula_sum   'Dy1 Lu3 Re3 Os5'
_cell_volume   216.27104624
_cell_formula_units_Z   1
loop_
 _symmetry_equiv_pos_site_id
 _symmetry_equiv_pos_as_xyz
  1  'x, y, z'
loop_
 _atom_site_type_symbol
 _atom_site_label
 _atom_site_symmetry_multiplicity
 _atom_site_fract_x
 _atom_site_fract_y
 _atom_site_fract_z
 _atom_site_occupancy
  Dy  Dy0  1  0.339135  0.669568  0.434694  1
  Lu  Lu1  1  0.667699  0.333849  0.564012  1
  Lu  Lu2  1  0.668021  0.334010  0.936826  1
  Lu  Lu3  1  0.339508  0.669754  0.064891  1
  Re  Re4  1  0.161943  0.337635  0.751039  1
  Re  Re5  1  0.161943  0.824309  0.751039  1
  Re  Re6  1  0.336956  0.168478  0.248958  1
  Os  Os7  1  0.821087  0.650977  0.248225  1
  Os  Os8  1  0.642057  0.821029  0.751550  1
  Os  Os9  1  0.020058  0.010030  0.000787  1
  Os  Os10  1  0.821087  0.170109  0.248225  1
  Os  Os11  1  0.020506  0.010254  0.499753  1
