# generated using pymatgen
data_Tm8ReB24Ir2W
_symmetry_space_group_name_H-M   'P 1'
_cell_length_a   3.62576800
_cell_length_b   9.11565203
_cell_length_c   11.50297702
_cell_angle_alpha   90.30431056
_cell_angle_beta   90.00000000
_cell_angle_gamma   90.00000000
_symmetry_Int_Tables_number   1
_chemical_formula_structural   Tm8ReB24Ir2W
_chemical_formula_sum   'Tm8 Re1 B24 Ir2 W1'
_cell_volume   380.18228513
_cell_formula_units_Z   1
loop_
 _symmetry_equiv_pos_site_id
 _symmetry_equiv_pos_as_xyz
  1  'x, y, z'
loop_
 _atom_site_type_symbol
 _atom_site_label
 _atom_site_symmetry_multiplicity
 _atom_site_fract_x
 _atom_site_fract_y
 _atom_site_fract_z
 _atom_site_occupancy
  Tm  Tm0  1  0.000000  0.316090  0.410609  1
  Tm  Tm1  1  0.000000  0.683919  0.589564  1
  Tm  Tm2  1  0.000000  0.825056  0.082407  1
  Tm  Tm3  1  0.000000  0.173657  0.916574  1
  Tm  Tm4  1  0.000000  0.945219  0.373584  1
  Tm  Tm5  1  0.000000  0.054131  0.628206  1
  Tm  Tm6  1  0.000000  0.443417  0.125314  1
  Tm  Tm7  1  0.000000  0.558805  0.873848  1
  Re  Re8  1  0.000000  0.861402  0.819653  1
  B  B9  1  0.500000  0.553952  0.434807  1
  B  B10  1  0.500000  0.446141  0.565375  1
  B  B11  1  0.500000  0.050353  0.064847  1
  B  B12  1  0.500000  0.947072  0.932250  1
  B  B13  1  0.500000  0.749692  0.421671  1
  B  B14  1  0.500000  0.250298  0.578513  1
  B  B15  1  0.500000  0.250962  0.078499  1
  B  B16  1  0.500000  0.751528  0.919023  1
  B  B17  1  0.500000  0.791271  0.266255  1
  B  B18  1  0.500000  0.208477  0.734367  1
  B  B19  1  0.500000  0.295860  0.236322  1
  B  B20  1  0.500000  0.706849  0.765039  1
  B  B21  1  0.500000  0.631808  0.184133  1
  B  B22  1  0.500000  0.368499  0.816069  1
  B  B23  1  0.500000  0.131858  0.317543  1
  B  B24  1  0.500000  0.868214  0.684629  1
  B  B25  1  0.500000  0.977964  0.213753  1
  B  B26  1  0.500000  0.018085  0.786674  1
  B  B27  1  0.500000  0.482283  0.287548  1
  B  B28  1  0.500000  0.518284  0.712518  1
  B  B29  1  0.500000  0.606140  0.029337  1
  B  B30  1  0.500000  0.395188  0.969726  1
  B  B31  1  0.500000  0.106749  0.471984  1
  B  B32  1  0.500000  0.892984  0.529359  1
  Ir  Ir33  1  0.000000  0.636853  0.322466  1
  Ir  Ir34  1  0.000000  0.363100  0.678086  1
  W  W35  1  0.000000  0.137842  0.179451  1
