# generated using pymatgen
data_TbHo15MgZn3Co4
_symmetry_space_group_name_H-M   'P 1'
_cell_length_a   9.37597773
_cell_length_b   9.34620885
_cell_length_c   9.34101400
_cell_angle_alpha   60.01838481
_cell_angle_beta   60.12328036
_cell_angle_gamma   60.10455882
_symmetry_Int_Tables_number   1
_chemical_formula_structural   TbHo15MgZn3Co4
_chemical_formula_sum   'Tb1 Ho15 Mg1 Zn3 Co4'
_cell_volume   579.87879850
_cell_formula_units_Z   1
loop_
 _symmetry_equiv_pos_site_id
 _symmetry_equiv_pos_as_xyz
  1  'x, y, z'
loop_
 _atom_site_type_symbol
 _atom_site_label
 _atom_site_symmetry_multiplicity
 _atom_site_fract_x
 _atom_site_fract_y
 _atom_site_fract_z
 _atom_site_occupancy
  Tb  Tb0  1  0.932904  0.941306  0.562895  1
  Ho  Ho1  1  0.349103  0.346756  0.346604  1
  Ho  Ho2  1  0.349103  0.346756  0.957537  1
  Ho  Ho3  1  0.349541  0.957461  0.346499  1
  Ho  Ho4  1  0.947435  0.351226  0.350670  1
  Ho  Ho5  1  0.808406  0.191262  0.190517  1
  Ho  Ho6  1  0.188268  0.812070  0.812430  1
  Ho  Ho7  1  0.188268  0.812070  0.187233  1
  Ho  Ho8  1  0.808406  0.191262  0.809815  1
  Ho  Ho9  1  0.187902  0.187693  0.812203  1
  Ho  Ho10  1  0.808642  0.809699  0.190829  1
  Ho  Ho11  1  0.932906  0.561963  0.562590  1
  Ho  Ho12  1  0.560163  0.937781  0.938238  1
  Ho  Ho13  1  0.560163  0.937781  0.563819  1
  Ho  Ho14  1  0.932906  0.561963  0.942541  1
  Ho  Ho15  1  0.560910  0.563893  0.937599  1
  Mg  Mg16  1  0.287143  0.570867  0.570996  1
  Zn  Zn17  1  0.585081  0.577887  0.577920  1
  Zn  Zn18  1  0.585081  0.577887  0.259112  1
  Zn  Zn19  1  0.584759  0.259563  0.577839  1
  Co  Co20  1  0.139267  0.143152  0.142562  1
  Co  Co21  1  0.139267  0.143152  0.575018  1
  Co  Co22  1  0.139103  0.574949  0.142974  1
  Co  Co23  1  0.575274  0.141602  0.141562  1
