# generated using pymatgen
data_KAc2NbO6
_symmetry_space_group_name_H-M   'P 1'
_cell_length_a   7.09654450
_cell_length_b   7.09654501
_cell_length_c   8.97484900
_cell_angle_alpha   75.43700339
_cell_angle_beta   104.56299769
_cell_angle_gamma   131.20791319
_symmetry_Int_Tables_number   1
_chemical_formula_structural   KAc2NbO6
_chemical_formula_sum   'K2 Ac4 Nb2 O12'
_cell_volume   326.81955218
_cell_formula_units_Z   2
loop_
 _symmetry_equiv_pos_site_id
 _symmetry_equiv_pos_as_xyz
  1  'x, y, z'
loop_
 _atom_site_type_symbol
 _atom_site_label
 _atom_site_symmetry_multiplicity
 _atom_site_fract_x
 _atom_site_fract_y
 _atom_site_fract_z
 _atom_site_occupancy
  K  K0  1  0.885929  0.114069  0.519950  1
  K  K1  1  0.114069  0.885929  0.480050  1
  Ac  Ac2  1  0.130699  0.869299  0.926136  1
  Ac  Ac3  1  0.869299  0.130699  0.073864  1
  Ac  Ac4  1  0.407488  0.592510  0.787487  1
  Ac  Ac5  1  0.592510  0.407488  0.212512  1
  Nb  Nb6  1  0.657911  0.342087  0.699262  1
  Nb  Nb7  1  0.342088  0.657910  0.300738  1
  O  O8  1  0.682437  0.317561  0.505491  1
  O  O9  1  0.317561  0.682437  0.494508  1
  O  O10  1  0.221456  0.316775  0.301930  1
  O  O11  1  0.316775  0.221456  0.698069  1
  O  O12  1  0.778543  0.683224  0.698069  1
  O  O13  1  0.683224  0.778543  0.301930  1
  O  O14  1  0.747126  0.747126  0.000000  1
  O  O15  1  0.252874  0.252874  0.000000  1
  O  O16  1  0.010297  0.531978  0.171606  1
  O  O17  1  0.531978  0.010297  0.828395  1
  O  O18  1  0.989702  0.468022  0.828394  1
  O  O19  1  0.468022  0.989702  0.171606  1
