# generated using pymatgen
data_Li2Dy2Y3P12Ir17
_symmetry_space_group_name_H-M   'P 1'
_cell_length_a   12.67618200
_cell_length_b   12.77569712
_cell_length_c   3.96276300
_cell_angle_alpha   90.00000000
_cell_angle_beta   90.00000000
_cell_angle_gamma   119.74266125
_symmetry_Int_Tables_number   1
_chemical_formula_structural   Li2Dy2Y3P12Ir17
_chemical_formula_sum   'Li2 Dy2 Y3 P12 Ir17'
_cell_volume   557.21416687
_cell_formula_units_Z   1
loop_
 _symmetry_equiv_pos_site_id
 _symmetry_equiv_pos_as_xyz
  1  'x, y, z'
loop_
 _atom_site_type_symbol
 _atom_site_label
 _atom_site_symmetry_multiplicity
 _atom_site_fract_x
 _atom_site_fract_y
 _atom_site_fract_z
 _atom_site_occupancy
  Li  Li0  1  0.999504  0.442052  0.500000  1
  Li  Li1  1  0.557452  0.557948  0.500000  1
  Dy  Dy2  1  0.332406  0.662475  0.500000  1
  Dy  Dy3  1  0.669932  0.337525  0.500000  1
  Y  Y4  1  0.001734  0.809144  0.000000  1
  Y  Y5  1  0.192590  0.190856  0.000000  1
  Y  Y6  1  0.810977  0.000000  0.000000  1
  P  P7  1  0.999253  0.630063  0.500000  1
  P  P8  1  0.369189  0.369937  0.500000  1
  P  P9  1  0.639318  0.000000  0.500000  1
  P  P10  1  0.513545  0.683372  0.000000  1
  P  P11  1  0.307098  0.823001  0.000000  1
  P  P12  1  0.166929  0.479833  0.000000  1
  P  P13  1  0.484097  0.176999  0.000000  1
  P  P14  1  0.687095  0.520167  0.000000  1
  P  P15  1  0.830174  0.316628  0.000000  1
  P  P16  1  0.997672  0.178004  0.500000  1
  P  P17  1  0.819668  0.821996  0.500000  1
  P  P18  1  0.178677  0.000000  0.500000  1
  Ir  Ir19  1  0.503336  0.865110  0.000000  1
  Ir  Ir20  1  0.129430  0.638658  0.000000  1
  Ir  Ir21  1  0.356285  0.488071  0.000000  1
  Ir  Ir22  1  0.490773  0.361342  0.000000  1
  Ir  Ir23  1  0.868215  0.511929  0.000000  1
  Ir  Ir24  1  0.638227  0.134890  0.000000  1
  Ir  Ir25  1  0.458763  0.000000  0.500000  1
  Ir  Ir26  1  0.996322  0.277519  0.000000  1
  Ir  Ir27  1  0.718804  0.722481  0.000000  1
  Ir  Ir28  1  0.286921  0.000000  0.000000  1
  Ir  Ir29  1  0.622044  0.807169  0.500000  1
  Ir  Ir30  1  0.199988  0.823511  0.500000  1
  Ir  Ir31  1  0.177049  0.370808  0.500000  1
  Ir  Ir32  1  0.376478  0.176489  0.500000  1
  Ir  Ir33  1  0.806241  0.629192  0.500000  1
  Ir  Ir34  1  0.814876  0.192831  0.500000  1
  Ir  Ir35  1  0.998938  0.000000  0.500000  1
