# generated using pymatgen
data_ErAg3Ir3RuO14
_symmetry_space_group_name_H-M   'P 1'
_cell_length_a   7.25249589
_cell_length_b   7.18331360
_cell_length_c   7.18293801
_cell_angle_alpha   59.99764125
_cell_angle_beta   60.31194112
_cell_angle_gamma   60.31413382
_symmetry_Int_Tables_number   1
_chemical_formula_structural   ErAg3Ir3RuO14
_chemical_formula_sum   'Er1 Ag3 Ir3 Ru1 O14'
_cell_volume   265.84615934
_cell_formula_units_Z   1
loop_
 _symmetry_equiv_pos_site_id
 _symmetry_equiv_pos_as_xyz
  1  'x, y, z'
loop_
 _atom_site_type_symbol
 _atom_site_label
 _atom_site_symmetry_multiplicity
 _atom_site_fract_x
 _atom_site_fract_y
 _atom_site_fract_z
 _atom_site_occupancy
  Er  Er0  1  0.625000  0.125000  0.125000  1
  Ag  Ag1  1  0.125000  0.125000  0.625000  1
  Ag  Ag2  1  0.125000  0.625000  0.125000  1
  Ag  Ag3  1  0.125000  0.125000  0.125000  1
  Ir  Ir4  1  0.625000  0.625000  0.125000  1
  Ir  Ir5  1  0.625000  0.125000  0.625000  1
  Ir  Ir6  1  0.625000  0.625000  0.625000  1
  Ru  Ru7  1  0.125000  0.625000  0.625000  1
  O  O8  1  0.238428  0.253846  0.253881  1
  O  O9  1  0.011572  0.996154  0.996119  1
  O  O10  1  0.556507  0.956008  0.531523  1
  O  O11  1  0.310023  0.692713  0.304550  1
  O  O12  1  0.556515  0.531431  0.956145  1
  O  O13  1  0.940123  0.557322  0.557339  1
  O  O14  1  0.556522  0.955936  0.956130  1
  O  O15  1  0.940093  0.945260  0.557334  1
  O  O16  1  0.939977  0.557287  0.945450  1
  O  O17  1  0.693478  0.294064  0.293870  1
  O  O18  1  0.309877  0.692678  0.692661  1
  O  O19  1  0.693493  0.293992  0.718477  1
  O  O20  1  0.309907  0.304740  0.692666  1
  O  O21  1  0.693485  0.718569  0.293855  1
