# generated using pymatgen
data_TmU(CoB4)2
_symmetry_space_group_name_H-M   'P 1'
_cell_length_a   3.35619000
_cell_length_b   5.88602029
_cell_length_c   11.40073717
_cell_angle_alpha   89.85695507
_cell_angle_beta   90.00000000
_cell_angle_gamma   90.00000000
_symmetry_Int_Tables_number   1
_chemical_formula_structural   TmU(CoB4)2
_chemical_formula_sum   'Tm2 U2 Co4 B16'
_cell_volume   225.21632850
_cell_formula_units_Z   2
loop_
 _symmetry_equiv_pos_site_id
 _symmetry_equiv_pos_as_xyz
  1  'x, y, z'
loop_
 _atom_site_type_symbol
 _atom_site_label
 _atom_site_symmetry_multiplicity
 _atom_site_fract_x
 _atom_site_fract_y
 _atom_site_fract_z
 _atom_site_occupancy
  Tm  Tm0  1  0.500000  0.127820  0.648591  1
  Tm  Tm1  1  0.500000  0.872180  0.351409  1
  U  U2  1  0.500000  0.372778  0.150963  1
  U  U3  1  0.500000  0.627222  0.849037  1
  Co  Co4  1  0.500000  0.365708  0.410310  1
  Co  Co5  1  0.500000  0.634292  0.589690  1
  Co  Co6  1  0.500000  0.133290  0.910263  1
  Co  Co7  1  0.500000  0.866710  0.089737  1
  B  B8  1  0.000000  0.112767  0.046557  1
  B  B9  1  0.000000  0.887233  0.953443  1
  B  B10  1  0.000000  0.386776  0.545668  1
  B  B11  1  0.000000  0.613224  0.454332  1
  B  B12  1  0.000000  0.137420  0.467318  1
  B  B13  1  0.000000  0.862580  0.532682  1
  B  B14  1  0.000000  0.363889  0.965873  1
  B  B15  1  0.000000  0.636111  0.034127  1
  B  B16  1  0.000000  0.022168  0.191880  1
  B  B17  1  0.000000  0.977832  0.808120  1
  B  B18  1  0.000000  0.476235  0.690054  1
  B  B19  1  0.000000  0.523765  0.309946  1
  B  B20  1  0.000000  0.216263  0.315170  1
  B  B21  1  0.000000  0.783737  0.684830  1
  B  B22  1  0.000000  0.283615  0.813891  1
  B  B23  1  0.000000  0.716385  0.186109  1
