# generated using pymatgen
data_PrSmHo4(RuBr3)2
_symmetry_space_group_name_H-M   'P 1'
_cell_length_a   4.14973900
_cell_length_b   8.53552922
_cell_length_c   11.98259229
_cell_angle_alpha   85.09166958
_cell_angle_beta   90.00000000
_cell_angle_gamma   90.00000000
_symmetry_Int_Tables_number   1
_chemical_formula_structural   PrSmHo4(RuBr3)2
_chemical_formula_sum   'Pr1 Sm1 Ho4 Ru2 Br6'
_cell_volume   422.86961012
_cell_formula_units_Z   1
loop_
 _symmetry_equiv_pos_site_id
 _symmetry_equiv_pos_as_xyz
  1  'x, y, z'
loop_
 _atom_site_type_symbol
 _atom_site_label
 _atom_site_symmetry_multiplicity
 _atom_site_fract_x
 _atom_site_fract_y
 _atom_site_fract_z
 _atom_site_occupancy
  Pr  Pr0  1  0.750000  0.122492  0.169461  1
  Sm  Sm1  1  0.250000  0.878635  0.826590  1
  Ho  Ho2  1  0.250000  0.277478  0.398053  1
  Ho  Ho3  1  0.750000  0.722439  0.602834  1
  Ho  Ho4  1  0.250000  0.866362  0.370291  1
  Ho  Ho5  1  0.750000  0.132320  0.629341  1
  Ru  Ru6  1  0.250000  0.938735  0.594284  1
  Ru  Ru7  1  0.750000  0.059914  0.406198  1
  Br  Br8  1  0.250000  0.420668  0.627976  1
  Br  Br9  1  0.750000  0.577864  0.374696  1
  Br  Br10  1  0.250000  0.872574  0.111096  1
  Br  Br11  1  0.750000  0.119231  0.885694  1
  Br  Br12  1  0.250000  0.378183  0.146118  1
  Br  Br13  1  0.750000  0.633105  0.857370  1
