# generated using pymatgen
data_Nd2Ho(TmSi2)2
_symmetry_space_group_name_H-M   'P 1'
_cell_length_a   7.73193900
_cell_length_b   7.73204728
_cell_length_c   14.22899435
_cell_angle_alpha   90.06586174
_cell_angle_beta   89.99916513
_cell_angle_gamma   90.00389801
_symmetry_Int_Tables_number   1
_chemical_formula_structural   Nd2Ho(TmSi2)2
_chemical_formula_sum   'Nd8 Ho4 Tm8 Si16'
_cell_volume   850.66162107
_cell_formula_units_Z   4
loop_
 _symmetry_equiv_pos_site_id
 _symmetry_equiv_pos_as_xyz
  1  'x, y, z'
loop_
 _atom_site_type_symbol
 _atom_site_label
 _atom_site_symmetry_multiplicity
 _atom_site_fract_x
 _atom_site_fract_y
 _atom_site_fract_z
 _atom_site_occupancy
  Nd  Nd0  1  0.642324  0.992659  0.459025  1
  Nd  Nd1  1  0.357571  0.007211  0.959059  1
  Nd  Nd2  1  0.992707  0.642350  0.540975  1
  Nd  Nd3  1  0.492860  0.857517  0.209077  1
  Nd  Nd4  1  0.506895  0.142558  0.709080  1
  Nd  Nd5  1  0.857408  0.493131  0.790928  1
  Nd  Nd6  1  0.142508  0.506976  0.290954  1
  Nd  Nd7  1  0.007041  0.357553  0.040986  1
  Ho  Ho8  1  0.493071  0.360211  0.124256  1
  Ho  Ho9  1  0.993124  0.140194  0.625686  1
  Ho  Ho10  1  0.860020  0.006776  0.874198  1
  Ho  Ho11  1  0.139909  0.992943  0.374194  1
  Tm  Tm12  1  0.506843  0.639961  0.624177  1
  Tm  Tm13  1  0.359823  0.493304  0.875756  1
  Tm  Tm14  1  0.640160  0.506968  0.375761  1
  Tm  Tm15  1  0.006805  0.859680  0.125770  1
  Tm  Tm16  1  0.318571  0.318471  0.500019  1
  Tm  Tm17  1  0.182426  0.817670  0.750009  1
  Tm  Tm18  1  0.818000  0.181881  0.249991  1
  Tm  Tm19  1  0.681877  0.681986  0.999990  1
  Si  Si20  1  0.290366  0.936946  0.561972  1
  Si  Si21  1  0.710630  0.061917  0.062029  1
  Si  Si22  1  0.936947  0.290297  0.438016  1
  Si  Si23  1  0.438050  0.210752  0.312048  1
  Si  Si24  1  0.561802  0.788792  0.811582  1
  Si  Si25  1  0.211280  0.438211  0.688411  1
  Si  Si26  1  0.789721  0.562916  0.188452  1
  Si  Si27  1  0.062865  0.710171  0.938481  1
  Si  Si28  1  0.795119  0.847888  0.687634  1
  Si  Si29  1  0.203682  0.150809  0.187595  1
  Si  Si30  1  0.848262  0.795093  0.311927  1
  Si  Si31  1  0.349570  0.703613  0.438088  1
  Si  Si32  1  0.650811  0.296395  0.937615  1
  Si  Si33  1  0.703652  0.349556  0.561944  1
  Si  Si34  1  0.295184  0.651732  0.061910  1
  Si  Si35  1  0.152118  0.204911  0.812406  1
