# generated using pymatgen
data_BeV10Si2Ge3
_symmetry_space_group_name_H-M   'P 1'
_cell_length_a   9.51762717
_cell_length_b   7.12343448
_cell_length_c   7.11581730
_cell_angle_alpha   83.87051442
_cell_angle_beta   48.11575993
_cell_angle_gamma   48.04695017
_symmetry_Int_Tables_number   1
_chemical_formula_structural   BeV10Si2Ge3
_chemical_formula_sum   'Be1 V10 Si2 Ge3'
_cell_volume   210.98898775
_cell_formula_units_Z   1
loop_
 _symmetry_equiv_pos_site_id
 _symmetry_equiv_pos_as_xyz
  1  'x, y, z'
loop_
 _atom_site_type_symbol
 _atom_site_label
 _atom_site_symmetry_multiplicity
 _atom_site_fract_x
 _atom_site_fract_y
 _atom_site_fract_z
 _atom_site_occupancy
  Be  Be0  1  0.250165  0.250221  0.249927  1
  V  V1  1  0.787862  0.422488  0.566795  1
  V  V2  1  0.224782  0.564088  0.424620  1
  V  V3  1  0.714538  0.931238  0.078801  1
  V  V4  1  0.277266  0.081906  0.930299  1
  V  V5  1  0.931201  0.714656  0.275723  1
  V  V6  1  0.082153  0.276161  0.710127  1
  V  V7  1  0.420981  0.790041  0.224723  1
  V  V8  1  0.565241  0.223993  0.784725  1
  V  V9  1  0.744475  0.250118  0.255834  1
  V  V10  1  0.250328  0.744520  0.749452  1
  Si  Si11  1  0.750520  0.750137  0.749679  1
  Si  Si12  1  0.333426  0.333970  0.666121  1
  Ge  Ge13  1  0.666257  0.665383  0.334027  1
  Ge  Ge14  1  0.167624  0.833699  0.165485  1
  Ge  Ge15  1  0.833183  0.167384  0.833665  1
