# generated using pymatgen
data_RbCeSiSe4
_symmetry_space_group_name_H-M   'P 1'
_cell_length_a   7.14472000
_cell_length_b   6.91240182
_cell_length_c   9.53054351
_cell_angle_alpha   72.73952273
_cell_angle_beta   90.00000000
_cell_angle_gamma   90.00000000
_symmetry_Int_Tables_number   1
_chemical_formula_structural   RbCeSiSe4
_chemical_formula_sum   'Rb2 Ce2 Si2 Se8'
_cell_volume   449.48958390
_cell_formula_units_Z   2
loop_
 _symmetry_equiv_pos_site_id
 _symmetry_equiv_pos_as_xyz
  1  'x, y, z'
loop_
 _atom_site_type_symbol
 _atom_site_label
 _atom_site_symmetry_multiplicity
 _atom_site_fract_x
 _atom_site_fract_y
 _atom_site_fract_z
 _atom_site_occupancy
  Rb  Rb0  1  0.977062  0.732191  0.066427  1
  Rb  Rb1  1  0.477062  0.267809  0.933573  1
  Ce  Ce2  1  0.500921  0.231466  0.450115  1
  Ce  Ce3  1  0.000921  0.768534  0.549885  1
  Si  Si4  1  0.461170  0.781873  0.329715  1
  Si  Si5  1  0.961170  0.218127  0.670285  1
  Se  Se6  1  0.465696  0.585456  0.176166  1
  Se  Se7  1  0.228574  0.022419  0.279951  1
  Se  Se8  1  0.729074  0.974970  0.300676  1
  Se  Se9  1  0.904502  0.415281  0.434229  1
  Se  Se10  1  0.404502  0.584719  0.565771  1
  Se  Se11  1  0.229074  0.025030  0.699324  1
  Se  Se12  1  0.728574  0.977581  0.720049  1
  Se  Se13  1  0.965696  0.414544  0.823834  1
