# generated using pymatgen
data_NaHo7(Sn11Ru3)2
_symmetry_space_group_name_H-M   'P 1'
_cell_length_a   9.82773100
_cell_length_b   9.82772964
_cell_length_c   10.08350300
_cell_angle_alpha   90.00000000
_cell_angle_beta   90.00000000
_cell_angle_gamma   119.99999449
_symmetry_Int_Tables_number   1
_chemical_formula_structural   NaHo7(Sn11Ru3)2
_chemical_formula_sum   'Na1 Ho7 Sn22 Ru6'
_cell_volume   843.42903746
_cell_formula_units_Z   1
loop_
 _symmetry_equiv_pos_site_id
 _symmetry_equiv_pos_as_xyz
  1  'x, y, z'
loop_
 _atom_site_type_symbol
 _atom_site_label
 _atom_site_symmetry_multiplicity
 _atom_site_fract_x
 _atom_site_fract_y
 _atom_site_fract_z
 _atom_site_occupancy
  Na  Na0  1  0.000000  0.000000  0.500000  1
  Ho  Ho1  1  0.000000  0.000000  0.000000  1
  Ho  Ho2  1  0.516166  0.483834  0.694175  1
  Ho  Ho3  1  0.516166  0.032331  0.694175  1
  Ho  Ho4  1  0.967669  0.483834  0.694175  1
  Ho  Ho5  1  0.032331  0.516166  0.305825  1
  Ho  Ho6  1  0.483834  0.967669  0.305825  1
  Ho  Ho7  1  0.483834  0.516166  0.305825  1
  Sn  Sn8  1  0.666667  0.333333  0.177394  1
  Sn  Sn9  1  0.666667  0.333333  0.872334  1
  Sn  Sn10  1  0.333333  0.666667  0.127666  1
  Sn  Sn11  1  0.348846  0.348846  0.000000  1
  Sn  Sn12  1  0.000000  0.651154  0.000000  1
  Sn  Sn13  1  0.651154  0.000000  0.000000  1
  Sn  Sn14  1  0.651154  0.651154  0.000000  1
  Sn  Sn15  1  0.333333  0.666667  0.822606  1
  Sn  Sn16  1  0.441493  0.220748  0.462937  1
  Sn  Sn17  1  0.220748  0.779252  0.537063  1
  Sn  Sn18  1  0.220748  0.441493  0.537063  1
  Sn  Sn19  1  0.558507  0.779252  0.537063  1
  Sn  Sn20  1  0.123275  0.876725  0.266045  1
  Sn  Sn21  1  0.779252  0.558507  0.462937  1
  Sn  Sn22  1  0.779252  0.220748  0.462937  1
  Sn  Sn23  1  0.348846  0.000000  0.000000  1
  Sn  Sn24  1  0.123275  0.246549  0.266045  1
  Sn  Sn25  1  0.753451  0.876725  0.266045  1
  Sn  Sn26  1  0.246549  0.123275  0.733955  1
  Sn  Sn27  1  0.876725  0.753451  0.733955  1
  Sn  Sn28  1  0.876725  0.123275  0.733955  1
  Sn  Sn29  1  0.000000  0.348846  0.000000  1
  Ru  Ru30  1  0.168452  0.831548  0.794997  1
  Ru  Ru31  1  0.168452  0.336902  0.794997  1
  Ru  Ru32  1  0.663098  0.831548  0.794997  1
  Ru  Ru33  1  0.336902  0.168452  0.205003  1
  Ru  Ru34  1  0.831548  0.663098  0.205003  1
  Ru  Ru35  1  0.831548  0.168452  0.205003  1
