# generated using pymatgen
data_Sr2As7Rh12
_symmetry_space_group_name_H-M   'P 1'
_cell_length_a   10.06660100
_cell_length_b   10.06660108
_cell_length_c   3.97959500
_cell_angle_alpha   90.00000000
_cell_angle_beta   90.00000000
_cell_angle_gamma   120.00000302
_symmetry_Int_Tables_number   1
_chemical_formula_structural   Sr2As7Rh12
_chemical_formula_sum   'Sr2 As7 Rh12'
_cell_volume   349.24903032
_cell_formula_units_Z   1
loop_
 _symmetry_equiv_pos_site_id
 _symmetry_equiv_pos_as_xyz
  1  'x, y, z'
loop_
 _atom_site_type_symbol
 _atom_site_label
 _atom_site_symmetry_multiplicity
 _atom_site_fract_x
 _atom_site_fract_y
 _atom_site_fract_z
 _atom_site_occupancy
  Sr  Sr0  1  0.000000  0.000000  0.747949  1
  Sr  Sr1  1  0.333333  0.666667  0.252869  1
  As  As2  1  0.666667  0.333333  0.523506  1
  As  As3  1  0.068347  0.621527  0.752918  1
  As  As4  1  0.378473  0.446820  0.752918  1
  As  As5  1  0.553180  0.931653  0.752918  1
  As  As6  1  0.265246  0.044835  0.248507  1
  As  As7  1  0.955165  0.220412  0.248507  1
  As  As8  1  0.779588  0.734754  0.248507  1
  Rh  Rh9  1  0.814382  0.595930  0.752499  1
  Rh  Rh10  1  0.404070  0.218453  0.752499  1
  Rh  Rh11  1  0.781547  0.185618  0.752499  1
  Rh  Rh12  1  0.521412  0.074658  0.249987  1
  Rh  Rh13  1  0.925342  0.446754  0.249987  1
  Rh  Rh14  1  0.553246  0.478588  0.249987  1
  Rh  Rh15  1  0.107355  0.392423  0.751588  1
  Rh  Rh16  1  0.607577  0.714932  0.751588  1
  Rh  Rh17  1  0.285068  0.892645  0.751588  1
  Rh  Rh18  1  0.226078  0.275133  0.249706  1
  Rh  Rh19  1  0.724867  0.950945  0.249706  1
  Rh  Rh20  1  0.049055  0.773922  0.249706  1
