# generated using pymatgen
data_Ho6Al24IrOs5Pd2
_symmetry_space_group_name_H-M   'P 1'
_cell_length_a   8.83162263
_cell_length_b   8.84176552
_cell_length_c   9.53176528
_cell_angle_alpha   90.16494385
_cell_angle_beta   89.57919309
_cell_angle_gamma   119.65883028
_symmetry_Int_Tables_number   1
_chemical_formula_structural   Ho6Al24IrOs5Pd2
_chemical_formula_sum   'Ho6 Al24 Ir1 Os5 Pd2'
_cell_volume   646.77673306
_cell_formula_units_Z   1
loop_
 _symmetry_equiv_pos_site_id
 _symmetry_equiv_pos_as_xyz
  1  'x, y, z'
loop_
 _atom_site_type_symbol
 _atom_site_label
 _atom_site_symmetry_multiplicity
 _atom_site_fract_x
 _atom_site_fract_y
 _atom_site_fract_z
 _atom_site_occupancy
  Ho  Ho0  1  0.188284  0.383771  0.252006  1
  Ho  Ho1  1  0.811716  0.616229  0.747994  1
  Ho  Ho2  1  0.613676  0.814147  0.252938  1
  Ho  Ho3  1  0.386324  0.185853  0.747062  1
  Ho  Ho4  1  0.196554  0.810019  0.248721  1
  Ho  Ho5  1  0.803446  0.189981  0.751279  1
  Al  Al6  1  0.338182  0.669573  0.028040  1
  Al  Al7  1  0.661818  0.330427  0.971960  1
  Al  Al8  1  0.670051  0.331184  0.525153  1
  Al  Al9  1  0.329949  0.668816  0.474847  1
  Al  Al10  1  0.157103  0.323983  0.578401  1
  Al  Al11  1  0.842897  0.676017  0.421599  1
  Al  Al12  1  0.675369  0.841638  0.577914  1
  Al  Al13  1  0.832965  0.676583  0.078089  1
  Al  Al14  1  0.324631  0.158362  0.422086  1
  Al  Al15  1  0.167035  0.323417  0.921911  1
  Al  Al16  1  0.164344  0.835600  0.574272  1
  Al  Al17  1  0.326251  0.162597  0.074139  1
  Al  Al18  1  0.835656  0.164400  0.425728  1
  Al  Al19  1  0.673749  0.837403  0.925861  1
  Al  Al20  1  0.831705  0.158928  0.076525  1
  Al  Al21  1  0.168295  0.841072  0.923475  1
  Al  Al22  1  0.561163  0.125452  0.249613  1
  Al  Al23  1  0.438837  0.874548  0.750387  1
  Al  Al24  1  0.874507  0.438678  0.252672  1
  Al  Al25  1  0.125493  0.561322  0.747328  1
  Al  Al26  1  0.560624  0.439354  0.247180  1
  Al  Al27  1  0.439376  0.560646  0.752820  1
  Al  Al28  1  0.999409  0.001764  0.250086  1
  Al  Al29  1  0.000591  0.998236  0.749914  1
  Ir  Ir30  1  0.500000  0.500000  0.000000  1
  Os  Os31  1  0.500000  0.000000  0.000000  1
  Os  Os32  1  0.500000  0.000000  0.500000  1
  Os  Os33  1  0.000000  0.500000  0.500000  1
  Os  Os34  1  0.000000  0.000000  0.000000  1
  Os  Os35  1  0.000000  0.000000  0.500000  1
  Pd  Pd36  1  0.000000  0.500000  0.000000  1
  Pd  Pd37  1  0.500000  0.500000  0.500000  1
