# generated using pymatgen
data_Nd3Th(GePd14)2
_symmetry_space_group_name_H-M   'P 1'
_cell_length_a   9.02548800
_cell_length_b   9.02548800
_cell_length_c   7.18539500
_cell_angle_alpha   90.00000000
_cell_angle_beta   90.00000000
_cell_angle_gamma   90.00000000
_symmetry_Int_Tables_number   1
_chemical_formula_structural   Nd3Th(GePd14)2
_chemical_formula_sum   'Nd3 Th1 Ge2 Pd28'
_cell_volume   585.31820717
_cell_formula_units_Z   1
loop_
 _symmetry_equiv_pos_site_id
 _symmetry_equiv_pos_as_xyz
  1  'x, y, z'
loop_
 _atom_site_type_symbol
 _atom_site_label
 _atom_site_symmetry_multiplicity
 _atom_site_fract_x
 _atom_site_fract_y
 _atom_site_fract_z
 _atom_site_occupancy
  Nd  Nd0  1  0.500000  0.000000  0.935035  1
  Nd  Nd1  1  0.000000  0.500000  0.064965  1
  Nd  Nd2  1  0.500000  0.500000  0.500000  1
  Th  Th3  1  0.000000  0.000000  0.500000  1
  Ge  Ge4  1  0.500000  0.000000  0.451634  1
  Ge  Ge5  1  0.000000  0.500000  0.548366  1
  Pd  Pd6  1  0.331000  0.830323  0.620907  1
  Pd  Pd7  1  0.331000  0.169677  0.620907  1
  Pd  Pd8  1  0.669000  0.830323  0.620907  1
  Pd  Pd9  1  0.669000  0.169677  0.620907  1
  Pd  Pd10  1  0.169677  0.669000  0.379093  1
  Pd  Pd11  1  0.169677  0.331000  0.379093  1
  Pd  Pd12  1  0.830323  0.669000  0.379093  1
  Pd  Pd13  1  0.830323  0.331000  0.379093  1
  Pd  Pd14  1  0.500000  0.767929  0.253066  1
  Pd  Pd15  1  0.500000  0.232071  0.253066  1
  Pd  Pd16  1  0.264791  0.000000  0.259404  1
  Pd  Pd17  1  0.735209  0.000000  0.259404  1
  Pd  Pd18  1  0.000000  0.735209  0.740596  1
  Pd  Pd19  1  0.000000  0.264791  0.740596  1
  Pd  Pd20  1  0.232071  0.500000  0.746934  1
  Pd  Pd21  1  0.767929  0.500000  0.746934  1
  Pd  Pd22  1  0.500000  0.348464  0.858833  1
  Pd  Pd23  1  0.500000  0.651536  0.858833  1
  Pd  Pd24  1  0.850050  0.000000  0.852698  1
  Pd  Pd25  1  0.149950  0.000000  0.852698  1
  Pd  Pd26  1  0.000000  0.149950  0.147302  1
  Pd  Pd27  1  0.000000  0.850050  0.147302  1
  Pd  Pd28  1  0.651536  0.500000  0.141167  1
  Pd  Pd29  1  0.348464  0.500000  0.141167  1
  Pd  Pd30  1  0.248959  0.751041  0.000000  1
  Pd  Pd31  1  0.248959  0.248959  0.000000  1
  Pd  Pd32  1  0.751041  0.751041  0.000000  1
  Pd  Pd33  1  0.751041  0.248959  0.000000  1
