# generated using pymatgen
data_Tm3Hf5Fe8(Si4Ru)4
_symmetry_space_group_name_H-M   'P 1'
_cell_length_a   9.81608194
_cell_length_b   9.78214954
_cell_length_c   13.09443760
_cell_angle_alpha   53.13814785
_cell_angle_beta   53.07859331
_cell_angle_gamma   31.03613997
_symmetry_Int_Tables_number   1
_chemical_formula_structural   Tm3Hf5Fe8(Si4Ru)4
_chemical_formula_sum   'Tm3 Hf5 Fe8 Si16 Ru4'
_cell_volume   507.08044122
_cell_formula_units_Z   1
loop_
 _symmetry_equiv_pos_site_id
 _symmetry_equiv_pos_as_xyz
  1  'x, y, z'
loop_
 _atom_site_type_symbol
 _atom_site_label
 _atom_site_symmetry_multiplicity
 _atom_site_fract_x
 _atom_site_fract_y
 _atom_site_fract_z
 _atom_site_occupancy
  Tm  Tm0  1  0.294681  0.566445  0.643011  1
  Tm  Tm1  1  0.430780  0.707222  0.858919  1
  Tm  Tm2  1  0.702953  0.435672  0.356614  1
  Hf  Hf3  1  0.566591  0.289189  0.144419  1
  Hf  Hf4  1  0.038364  0.296498  0.636851  1
  Hf  Hf5  1  0.703868  0.957113  0.863708  1
  Hf  Hf6  1  0.962342  0.707812  0.357548  1
  Hf  Hf7  1  0.295367  0.039257  0.140620  1
  Fe  Fe8  1  0.651345  0.831927  0.277293  1
  Fe  Fe9  1  0.173890  0.350077  0.220315  1
  Fe  Fe10  1  0.777240  0.469735  0.068453  1
  Fe  Fe11  1  0.829570  0.649020  0.782958  1
  Fe  Fe12  1  0.902759  0.141992  0.585471  1
  Fe  Fe13  1  0.849146  0.107326  0.919083  1
  Fe  Fe14  1  0.101384  0.858928  0.409639  1
  Fe  Fe15  1  0.124888  0.908806  0.086254  1
  Si  Si16  1  0.884817  0.119002  0.245169  1
  Si  Si17  1  0.105283  0.894081  0.751787  1
  Si  Si18  1  0.379551  0.630329  0.238754  1
  Si  Si19  1  0.631779  0.368000  0.750470  1
  Si  Si20  1  0.964379  0.260641  0.897738  1
  Si  Si21  1  0.755339  0.023270  0.605260  1
  Si  Si22  1  0.027265  0.743983  0.107951  1
  Si  Si23  1  0.253690  0.976640  0.390956  1
  Si  Si24  1  0.576186  0.081934  0.068008  1
  Si  Si25  1  0.917320  0.427128  0.430687  1
  Si  Si26  1  0.432838  0.896690  0.945348  1
  Si  Si27  1  0.078040  0.582449  0.564708  1
  Si  Si28  1  0.387473  0.142959  0.389998  1
  Si  Si29  1  0.862710  0.606766  0.107311  1
  Si  Si30  1  0.616086  0.855509  0.602875  1
  Si  Si31  1  0.134417  0.386941  0.899127  1
  Ru  Ru32  1  0.241433  0.514159  0.935236  1
  Ru  Ru33  1  0.484163  0.759408  0.564715  1
  Ru  Ru34  1  0.510678  0.246338  0.429750  1
  Ru  Ru35  1  0.351387  0.166752  0.722996  1
