# generated using pymatgen
data_Al2Zn(GaRh2)3
_symmetry_space_group_name_H-M   'P 1'
_cell_length_a   4.27374900
_cell_length_b   6.01621700
_cell_length_c   12.90367400
_cell_angle_alpha   90.00000000
_cell_angle_beta   90.00020938
_cell_angle_gamma   90.00000000
_symmetry_Int_Tables_number   1
_chemical_formula_structural   Al2Zn(GaRh2)3
_chemical_formula_sum   'Al4 Zn2 Ga6 Rh12'
_cell_volume   331.77670306
_cell_formula_units_Z   2
loop_
 _symmetry_equiv_pos_site_id
 _symmetry_equiv_pos_as_xyz
  1  'x, y, z'
loop_
 _atom_site_type_symbol
 _atom_site_label
 _atom_site_symmetry_multiplicity
 _atom_site_fract_x
 _atom_site_fract_y
 _atom_site_fract_z
 _atom_site_occupancy
  Al  Al0  1  0.000000  0.500000  0.999559  1
  Al  Al1  1  0.499853  0.000000  0.166397  1
  Al  Al2  1  0.999850  0.500000  0.333610  1
  Al  Al3  1  0.499994  0.000000  0.500439  1
  Zn  Zn4  1  0.000159  0.500000  0.666749  1
  Zn  Zn5  1  0.500162  0.000000  0.833280  1
  Ga  Ga6  1  0.999969  0.000000  0.997345  1
  Ga  Ga7  1  0.499850  0.500000  0.166537  1
  Ga  Ga8  1  0.999852  0.000000  0.333477  1
  Ga  Ga9  1  0.499950  0.500000  0.502601  1
  Ga  Ga10  1  0.000164  0.000000  0.669076  1
  Ga  Ga11  1  0.500167  0.500000  0.830934  1
  Rh  Rh12  1  0.499977  0.251944  0.003884  1
  Rh  Rh13  1  0.499977  0.748055  0.003884  1
  Rh  Rh14  1  0.999866  0.249379  0.167521  1
  Rh  Rh15  1  0.999866  0.750620  0.167521  1
  Rh  Rh16  1  0.499866  0.250621  0.332485  1
  Rh  Rh17  1  0.499866  0.749380  0.332485  1
  Rh  Rh18  1  0.999934  0.248085  0.496138  1
  Rh  Rh19  1  0.999934  0.751916  0.496138  1
  Rh  Rh20  1  0.500179  0.246637  0.663472  1
  Rh  Rh21  1  0.500179  0.753364  0.663472  1
  Rh  Rh22  1  0.000192  0.253393  0.836500  1
  Rh  Rh23  1  0.000192  0.746606  0.836500  1
