# generated using pymatgen
data_Cs4I15Br
_symmetry_space_group_name_H-M   'P 1'
_cell_length_a   9.18312696
_cell_length_b   10.63319961
_cell_length_c   11.66960587
_cell_angle_alpha   67.53251477
_cell_angle_beta   89.80776431
_cell_angle_gamma   90.36029824
_symmetry_Int_Tables_number   1
_chemical_formula_structural   Cs4I15Br
_chemical_formula_sum   'Cs4 I15 Br1'
_cell_volume   1052.95806425
_cell_formula_units_Z   1
loop_
 _symmetry_equiv_pos_site_id
 _symmetry_equiv_pos_as_xyz
  1  'x, y, z'
loop_
 _atom_site_type_symbol
 _atom_site_label
 _atom_site_symmetry_multiplicity
 _atom_site_fract_x
 _atom_site_fract_y
 _atom_site_fract_z
 _atom_site_occupancy
  Cs  Cs0  1  0.623081  0.725805  0.692183  1
  Cs  Cs1  1  0.131495  0.278150  0.799525  1
  Cs  Cs2  1  0.373618  0.272991  0.305536  1
  Cs  Cs3  1  0.879065  0.734075  0.192879  1
  I  I4  1  0.856701  0.454244  0.988865  1
  I  I5  1  0.645415  0.451256  0.489153  1
  I  I6  1  0.141732  0.545109  0.013454  1
  I  I7  1  0.024638  0.662148  0.553530  1
  I  I8  1  0.532441  0.334925  0.949673  1
  I  I9  1  0.946182  0.345229  0.455011  1
  I  I10  1  0.470308  0.664624  0.053186  1
  I  I11  1  0.204747  0.866488  0.607079  1
  I  I12  1  0.707847  0.126405  0.891173  1
  I  I13  1  0.785195  0.125974  0.391561  1
  I  I14  1  0.298086  0.872353  0.111759  1
  I  I15  1  0.388904  0.061538  0.663568  1
  I  I16  1  0.892878  0.941956  0.831140  1
  I  I17  1  0.607061  0.940638  0.328264  1
  I  I18  1  0.110814  0.061117  0.165946  1
  Br  Br19  1  0.379792  0.534975  0.516516  1
