# generated using pymatgen
data_NdHo2ZnGa7Ag3
_symmetry_space_group_name_H-M   'P 1'
_cell_length_a   4.34596345
_cell_length_b   8.37076463
_cell_length_c   8.39342815
_cell_angle_alpha   69.94818943
_cell_angle_beta   74.99573824
_cell_angle_gamma   74.95416046
_symmetry_Int_Tables_number   1
_chemical_formula_structural   NdHo2ZnGa7Ag3
_chemical_formula_sum   'Nd1 Ho2 Zn1 Ga7 Ag3'
_cell_volume   272.10212419
_cell_formula_units_Z   1
loop_
 _symmetry_equiv_pos_site_id
 _symmetry_equiv_pos_as_xyz
  1  'x, y, z'
loop_
 _atom_site_type_symbol
 _atom_site_label
 _atom_site_symmetry_multiplicity
 _atom_site_fract_x
 _atom_site_fract_y
 _atom_site_fract_z
 _atom_site_occupancy
  Nd  Nd0  1  0.499151  0.500248  0.501449  1
  Ho  Ho1  1  0.200971  0.797563  0.800493  1
  Ho  Ho2  1  0.800183  0.202061  0.197574  1
  Zn  Zn3  1  0.355882  0.365172  0.923064  1
  Ga  Ga4  1  0.643841  0.638862  0.073456  1
  Ga  Ga5  1  0.355394  0.927741  0.361472  1
  Ga  Ga6  1  0.642957  0.073846  0.640241  1
  Ga  Ga7  1  0.163721  0.468387  0.204170  1
  Ga  Ga8  1  0.840331  0.526173  0.793164  1
  Ga  Ga9  1  0.159806  0.208801  0.471585  1
  Ga  Ga10  1  0.839623  0.790650  0.530106  1
  Ag  Ag11  1  0.498710  0.001521  0.001058  1
  Ag  Ag12  1  0.000407  0.804060  0.195125  1
  Ag  Ag13  1  0.999021  0.194913  0.807045  1
