# generated using pymatgen
data_Nb3SnPdN
_symmetry_space_group_name_H-M   'P 1'
_cell_length_a   7.20323800
_cell_length_b   7.20323800
_cell_length_c   7.20323800
_cell_angle_alpha   90.00000000
_cell_angle_beta   90.00000000
_cell_angle_gamma   90.00000000
_symmetry_Int_Tables_number   1
_chemical_formula_structural   Nb3SnPdN
_chemical_formula_sum   'Nb12 Sn4 Pd4 N4'
_cell_volume   373.75180026
_cell_formula_units_Z   4
loop_
 _symmetry_equiv_pos_site_id
 _symmetry_equiv_pos_as_xyz
  1  'x, y, z'
loop_
 _atom_site_type_symbol
 _atom_site_label
 _atom_site_symmetry_multiplicity
 _atom_site_fract_x
 _atom_site_fract_y
 _atom_site_fract_z
 _atom_site_occupancy
  Nb  Nb0  1  0.787650  0.960605  0.375474  1
  Nb  Nb1  1  0.712350  0.039395  0.875474  1
  Nb  Nb2  1  0.212350  0.460605  0.124526  1
  Nb  Nb3  1  0.287650  0.539395  0.624526  1
  Nb  Nb4  1  0.960605  0.375474  0.787650  1
  Nb  Nb5  1  0.039395  0.875474  0.712350  1
  Nb  Nb6  1  0.460605  0.124526  0.212350  1
  Nb  Nb7  1  0.539395  0.624526  0.287650  1
  Nb  Nb8  1  0.375474  0.787650  0.960605  1
  Nb  Nb9  1  0.875474  0.712350  0.039395  1
  Nb  Nb10  1  0.124526  0.212350  0.460605  1
  Nb  Nb11  1  0.624526  0.287650  0.539395  1
  Sn  Sn12  1  0.572684  0.427316  0.927316  1
  Sn  Sn13  1  0.427316  0.927316  0.572684  1
  Sn  Sn14  1  0.927316  0.572684  0.427316  1
  Sn  Sn15  1  0.072684  0.072684  0.072684  1
  Pd  Pd16  1  0.181647  0.818353  0.318353  1
  Pd  Pd17  1  0.318353  0.181647  0.818353  1
  Pd  Pd18  1  0.818353  0.318353  0.181647  1
  Pd  Pd19  1  0.681647  0.681647  0.681647  1
  N  N20  1  0.877490  0.122510  0.622510  1
  N  N21  1  0.622510  0.877490  0.122510  1
  N  N22  1  0.122510  0.622510  0.877490  1
  N  N23  1  0.377490  0.377490  0.377490  1
