# generated using pymatgen
data_ErPa2Zn11
_symmetry_space_group_name_H-M   'P 1'
_cell_length_a   8.05870321
_cell_length_b   8.05870246
_cell_length_c   8.05870293
_cell_angle_alpha   148.24121488
_cell_angle_beta   112.78786956
_cell_angle_gamma   76.25553726
_symmetry_Int_Tables_number   1
_chemical_formula_structural   ErPa2Zn11
_chemical_formula_sum   'Er1 Pa2 Zn11'
_cell_volume   249.38370758
_cell_formula_units_Z   1
loop_
 _symmetry_equiv_pos_site_id
 _symmetry_equiv_pos_as_xyz
  1  'x, y, z'
loop_
 _atom_site_type_symbol
 _atom_site_label
 _atom_site_symmetry_multiplicity
 _atom_site_fract_x
 _atom_site_fract_y
 _atom_site_fract_z
 _atom_site_occupancy
  Er  Er0  1  0.000000  0.000000  0.000000  1
  Pa  Pa1  1  0.292366  0.292366  0.000000  1
  Pa  Pa2  1  0.707633  0.707633  0.000000  1
  Zn  Zn3  1  0.679958  0.500000  0.179958  1
  Zn  Zn4  1  0.425498  0.142136  0.283363  1
  Zn  Zn5  1  0.141227  0.857865  0.283363  1
  Zn  Zn6  1  0.706253  0.344881  0.361373  1
  Zn  Zn7  1  0.016492  0.655120  0.361373  1
  Zn  Zn8  1  0.500000  0.000000  0.500000  1
  Zn  Zn9  1  0.983507  0.344881  0.638626  1
  Zn  Zn10  1  0.293748  0.655120  0.638628  1
  Zn  Zn11  1  0.858773  0.142136  0.716637  1
  Zn  Zn12  1  0.574502  0.857865  0.716638  1
  Zn  Zn13  1  0.320042  0.500000  0.820043  1
