# generated using pymatgen
data_Nd10SnBi5N2
_symmetry_space_group_name_H-M   'P 1'
_cell_length_a   9.40854872
_cell_length_b   9.42302832
_cell_length_c   6.57765300
_cell_angle_alpha   90.00000000
_cell_angle_beta   90.00000000
_cell_angle_gamma   120.05092143
_symmetry_Int_Tables_number   1
_chemical_formula_structural   Nd10SnBi5N2
_chemical_formula_sum   'Nd10 Sn1 Bi5 N2'
_cell_volume   504.76781051
_cell_formula_units_Z   1
loop_
 _symmetry_equiv_pos_site_id
 _symmetry_equiv_pos_as_xyz
  1  'x, y, z'
loop_
 _atom_site_type_symbol
 _atom_site_label
 _atom_site_symmetry_multiplicity
 _atom_site_fract_x
 _atom_site_fract_y
 _atom_site_fract_z
 _atom_site_occupancy
  Nd  Nd0  1  0.669909  0.334031  0.001347  1
  Nd  Nd1  1  0.330091  0.664123  0.001347  1
  Nd  Nd2  1  0.330091  0.664123  0.498653  1
  Nd  Nd3  1  0.669909  0.334031  0.498653  1
  Nd  Nd4  1  0.787722  0.788471  0.750000  1
  Nd  Nd5  1  0.212278  0.000749  0.750000  1
  Nd  Nd6  1  0.000000  0.215965  0.750000  1
  Nd  Nd7  1  0.210601  0.214465  0.250000  1
  Nd  Nd8  1  0.789399  0.003864  0.250000  1
  Nd  Nd9  1  0.000000  0.785624  0.250000  1
  Sn  Sn10  1  0.000000  0.399919  0.250000  1
  Bi  Bi11  1  0.400752  0.399989  0.750000  1
  Bi  Bi12  1  0.599248  0.999237  0.750000  1
  Bi  Bi13  1  0.000000  0.599025  0.750000  1
  Bi  Bi14  1  0.599549  0.599525  0.250000  1
  Bi  Bi15  1  0.400451  0.999976  0.250000  1
  N  N16  1  0.000000  0.998442  0.999383  1
  N  N17  1  0.000000  0.998442  0.500617  1
