# generated using pymatgen
data_Zr(Co3Si2)2
_symmetry_space_group_name_H-M   'P 1'
_cell_length_a   6.53132600
_cell_length_b   6.53132493
_cell_length_c   3.56524000
_cell_angle_alpha   90.00000000
_cell_angle_beta   90.00000000
_cell_angle_gamma   120.00000542
_symmetry_Int_Tables_number   1
_chemical_formula_structural   Zr(Co3Si2)2
_chemical_formula_sum   'Zr1 Co6 Si4'
_cell_volume   131.71099479
_cell_formula_units_Z   1
loop_
 _symmetry_equiv_pos_site_id
 _symmetry_equiv_pos_as_xyz
  1  'x, y, z'
loop_
 _atom_site_type_symbol
 _atom_site_label
 _atom_site_symmetry_multiplicity
 _atom_site_fract_x
 _atom_site_fract_y
 _atom_site_fract_z
 _atom_site_occupancy
  Zr  Zr0  1  0.000000  0.000000  0.000000  1
  Co  Co1  1  0.466512  0.533488  0.000000  1
  Co  Co2  1  0.466512  0.933024  0.000000  1
  Co  Co3  1  0.066976  0.533488  0.000000  1
  Co  Co4  1  0.797844  0.202156  0.500000  1
  Co  Co5  1  0.797844  0.595689  0.500000  1
  Co  Co6  1  0.404311  0.202156  0.500000  1
  Si  Si7  1  0.666667  0.333333  0.000000  1
  Si  Si8  1  0.197282  0.802718  0.500000  1
  Si  Si9  1  0.197282  0.394565  0.500000  1
  Si  Si10  1  0.605435  0.802718  0.500000  1
