# generated using pymatgen
data_Tc2OsBr9
_symmetry_space_group_name_H-M   'P 1'
_cell_length_a   10.64048100
_cell_length_b   8.77286266
_cell_length_c   9.41995485
_cell_angle_alpha   69.81511276
_cell_angle_beta   90.00000000
_cell_angle_gamma   90.00000000
_symmetry_Int_Tables_number   1
_chemical_formula_structural   Tc2OsBr9
_chemical_formula_sum   'Tc4 Os2 Br18'
_cell_volume   825.32422053
_cell_formula_units_Z   2
loop_
 _symmetry_equiv_pos_site_id
 _symmetry_equiv_pos_as_xyz
  1  'x, y, z'
loop_
 _atom_site_type_symbol
 _atom_site_label
 _atom_site_symmetry_multiplicity
 _atom_site_fract_x
 _atom_site_fract_y
 _atom_site_fract_z
 _atom_site_occupancy
  Tc  Tc0  1  0.749998  0.163272  0.644392  1
  Tc  Tc1  1  0.867759  0.163566  0.867948  1
  Tc  Tc2  1  0.367759  0.836434  0.132052  1
  Tc  Tc3  1  0.249998  0.836728  0.355608  1
  Os  Os4  1  0.130140  0.837175  0.131240  1
  Os  Os5  1  0.630140  0.162825  0.868760  1
  Br  Br6  1  0.408891  0.548906  0.192631  1
  Br  Br7  1  0.410919  0.145727  0.016990  1
  Br  Br8  1  0.251529  0.099964  0.385010  1
  Br  Br9  1  0.989312  0.164028  0.635424  1
  Br  Br10  1  0.251330  0.566463  0.533895  1
  Br  Br11  1  0.591433  0.856232  0.981605  1
  Br  Br12  1  0.746394  0.152871  0.104210  1
  Br  Br13  1  0.009792  0.834845  0.361645  1
  Br  Br14  1  0.246394  0.847129  0.895790  1
  Br  Br15  1  0.751330  0.433537  0.466105  1
  Br  Br16  1  0.489312  0.835972  0.364576  1
  Br  Br17  1  0.592502  0.451981  0.807235  1
  Br  Br18  1  0.092502  0.548019  0.192765  1
  Br  Br19  1  0.091433  0.143768  0.018395  1
  Br  Br20  1  0.910919  0.854273  0.983010  1
  Br  Br21  1  0.509792  0.165155  0.638355  1
  Br  Br22  1  0.908891  0.451094  0.807369  1
  Br  Br23  1  0.751529  0.900036  0.614990  1
