# generated using pymatgen
data_LaYbPr5IrI12
_symmetry_space_group_name_H-M   'P 1'
_cell_length_a   10.19327456
_cell_length_b   10.07132781
_cell_length_c   10.18346417
_cell_angle_alpha   106.89960929
_cell_angle_beta   106.98285720
_cell_angle_gamma   107.27796833
_symmetry_Int_Tables_number   1
_chemical_formula_structural   LaYbPr5IrI12
_chemical_formula_sum   'La1 Yb1 Pr5 Ir1 I12'
_cell_volume   869.36483606
_cell_formula_units_Z   1
loop_
 _symmetry_equiv_pos_site_id
 _symmetry_equiv_pos_as_xyz
  1  'x, y, z'
loop_
 _atom_site_type_symbol
 _atom_site_label
 _atom_site_symmetry_multiplicity
 _atom_site_fract_x
 _atom_site_fract_y
 _atom_site_fract_z
 _atom_site_occupancy
  La  La0  1  0.097682  0.297371  0.025129  1
  Yb  Yb1  1  0.500423  0.499641  0.500863  1
  Pr  Pr2  1  0.308888  0.026474  0.101333  1
  Pr  Pr3  1  0.025952  0.101144  0.307999  1
  Pr  Pr4  1  0.973649  0.897468  0.690968  1
  Pr  Pr5  1  0.691016  0.974272  0.898398  1
  Pr  Pr6  1  0.902657  0.705196  0.974832  1
  Ir  Ir7  1  0.000858  0.003400  0.999617  1
  I  I8  1  0.223346  0.681396  0.074384  1
  I  I9  1  0.463741  0.385332  0.164520  1
  I  I10  1  0.682537  0.074179  0.225119  1
  I  I11  1  0.924304  0.771860  0.315872  1
  I  I12  1  0.164268  0.463101  0.386311  1
  I  I13  1  0.381648  0.159167  0.459638  1
  I  I14  1  0.618101  0.839412  0.539884  1
  I  I15  1  0.836687  0.536884  0.618014  1
  I  I16  1  0.074771  0.225339  0.679980  1
  I  I17  1  0.316996  0.924278  0.774493  1
  I  I18  1  0.539864  0.615268  0.837989  1
  I  I19  1  0.772615  0.318817  0.924661  1
