# generated using pymatgen
data_La4Tm5LuRu4
_symmetry_space_group_name_H-M   'P 1'
_cell_length_a   6.47030500
_cell_length_b   7.23676304
_cell_length_c   8.68173315
_cell_angle_alpha   96.60478731
_cell_angle_beta   111.87845930
_cell_angle_gamma   90.00000436
_symmetry_Int_Tables_number   1
_chemical_formula_structural   La4Tm5LuRu4
_chemical_formula_sum   'La4 Tm5 Lu1 Ru4'
_cell_volume   374.32649455
_cell_formula_units_Z   1
loop_
 _symmetry_equiv_pos_site_id
 _symmetry_equiv_pos_as_xyz
  1  'x, y, z'
loop_
 _atom_site_type_symbol
 _atom_site_label
 _atom_site_symmetry_multiplicity
 _atom_site_fract_x
 _atom_site_fract_y
 _atom_site_fract_z
 _atom_site_occupancy
  La  La0  1  0.520772  0.088419  0.802243  1
  La  La1  1  0.479361  0.911068  0.197591  1
  La  La2  1  0.718528  0.411581  0.197757  1
  La  La3  1  0.281770  0.588932  0.802409  1
  Tm  Tm4  1  0.300396  0.314063  0.429466  1
  Tm  Tm5  1  0.699608  0.686098  0.570949  1
  Tm  Tm6  1  0.870932  0.185937  0.570534  1
  Tm  Tm7  1  0.128656  0.813902  0.429051  1
  Tm  Tm8  1  0.074768  0.250000  0.000000  1
  Lu  Lu9  1  0.925567  0.750000  0.000000  1
  Ru  Ru10  1  0.321476  0.581877  0.225867  1
  Ru  Ru11  1  0.678395  0.418829  0.774236  1
  Ru  Ru12  1  0.095610  0.918123  0.774133  1
  Ru  Ru13  1  0.904159  0.081171  0.225764  1
