# generated using pymatgen
data_Li2SmPuC4
_symmetry_space_group_name_H-M   'P 1'
_cell_length_a   3.66026000
_cell_length_b   3.66026000
_cell_length_c   7.81092400
_cell_angle_alpha   90.00000000
_cell_angle_beta   90.00000000
_cell_angle_gamma   90.00000000
_symmetry_Int_Tables_number   1
_chemical_formula_structural   Li2SmPuC4
_chemical_formula_sum   'Li2 Sm1 Pu1 C4'
_cell_volume   104.64687981
_cell_formula_units_Z   1
loop_
 _symmetry_equiv_pos_site_id
 _symmetry_equiv_pos_as_xyz
  1  'x, y, z'
loop_
 _atom_site_type_symbol
 _atom_site_label
 _atom_site_symmetry_multiplicity
 _atom_site_fract_x
 _atom_site_fract_y
 _atom_site_fract_z
 _atom_site_occupancy
  Li  Li0  1  0.000000  0.000000  0.002579  1
  Li  Li1  1  0.500000  0.500000  0.002579  1
  Sm  Sm2  1  0.000000  0.500000  0.664393  1
  Pu  Pu3  1  0.500000  0.000000  0.340124  1
  C  C4  1  0.000000  0.500000  0.181508  1
  C  C5  1  0.500000  0.000000  0.814002  1
  C  C6  1  0.000000  0.500000  0.355051  1
  C  C7  1  0.500000  0.000000  0.639763  1
