# generated using pymatgen
data_Lu5Ti3(Co4As3)4
_symmetry_space_group_name_H-M   'P 1'
_cell_length_a   12.51958400
_cell_length_b   12.51958518
_cell_length_c   3.76970200
_cell_angle_alpha   90.00000000
_cell_angle_beta   90.00000000
_cell_angle_gamma   120.00000744
_symmetry_Int_Tables_number   1
_chemical_formula_structural   Lu5Ti3(Co4As3)4
_chemical_formula_sum   'Lu5 Ti3 Co16 As12'
_cell_volume   511.70240359
_cell_formula_units_Z   1
loop_
 _symmetry_equiv_pos_site_id
 _symmetry_equiv_pos_as_xyz
  1  'x, y, z'
loop_
 _atom_site_type_symbol
 _atom_site_label
 _atom_site_symmetry_multiplicity
 _atom_site_fract_x
 _atom_site_fract_y
 _atom_site_fract_z
 _atom_site_occupancy
  Lu  Lu0  1  0.185815  0.185815  0.500000  1
  Lu  Lu1  1  0.814185  0.000000  0.500000  1
  Lu  Lu2  1  0.000000  0.814185  0.500000  1
  Lu  Lu3  1  0.333333  0.666667  0.000000  1
  Lu  Lu4  1  0.666667  0.333333  0.000000  1
  Ti  Ti5  1  0.563271  0.563271  0.000000  1
  Ti  Ti6  1  0.436729  0.000000  0.000000  1
  Ti  Ti7  1  0.000000  0.436729  0.000000  1
  Co  Co8  1  0.716972  0.716972  0.500000  1
  Co  Co9  1  0.283028  0.000000  0.500000  1
  Co  Co10  1  0.000000  0.283028  0.500000  1
  Co  Co11  1  0.177396  0.375507  0.000000  1
  Co  Co12  1  0.624493  0.801888  0.000000  1
  Co  Co13  1  0.198112  0.822604  0.000000  1
  Co  Co14  1  0.801888  0.624493  0.000000  1
  Co  Co15  1  0.822604  0.198112  0.000000  1
  Co  Co16  1  0.375507  0.177396  0.000000  1
  Co  Co17  1  0.355714  0.480144  0.500000  1
  Co  Co18  1  0.519856  0.875571  0.500000  1
  Co  Co19  1  0.124429  0.644286  0.500000  1
  Co  Co20  1  0.875571  0.519856  0.500000  1
  Co  Co21  1  0.644286  0.124429  0.500000  1
  Co  Co22  1  0.480144  0.355714  0.500000  1
  Co  Co23  1  0.000000  0.000000  0.000000  1
  As  As24  1  0.822906  0.822906  0.000000  1
  As  As25  1  0.177094  0.000000  0.000000  1
  As  As26  1  0.000000  0.177094  0.000000  1
  As  As27  1  0.169705  0.484326  0.500000  1
  As  As28  1  0.515674  0.685379  0.500000  1
  As  As29  1  0.314621  0.830295  0.500000  1
  As  As30  1  0.685379  0.515674  0.500000  1
  As  As31  1  0.830295  0.314621  0.500000  1
  As  As32  1  0.484326  0.169705  0.500000  1
  As  As33  1  0.358190  0.358190  0.000000  1
  As  As34  1  0.641810  0.000000  0.000000  1
  As  As35  1  0.000000  0.641810  0.000000  1
