# generated using pymatgen
data_Gd2H5
_symmetry_space_group_name_H-M   'P 1'
_cell_length_a   6.50481248
_cell_length_b   6.50481233
_cell_length_c   6.50481306
_cell_angle_alpha   132.14150011
_cell_angle_beta   132.14149360
_cell_angle_gamma   70.00563369
_symmetry_Int_Tables_number   1
_chemical_formula_structural   Gd2H5
_chemical_formula_sum   'Gd4 H10'
_cell_volume   148.36367596
_cell_formula_units_Z   2
loop_
 _symmetry_equiv_pos_site_id
 _symmetry_equiv_pos_as_xyz
  1  'x, y, z'
loop_
 _atom_site_type_symbol
 _atom_site_label
 _atom_site_symmetry_multiplicity
 _atom_site_fract_x
 _atom_site_fract_y
 _atom_site_fract_z
 _atom_site_occupancy
  Gd  Gd0  1  0.504758  0.004758  0.500000  1
  Gd  Gd1  1  0.754758  0.754758  0.000000  1
  Gd  Gd2  1  0.995242  0.495242  0.500000  1
  Gd  Gd3  1  0.245242  0.245242  0.000000  1
  H  H4  1  0.375000  0.395578  0.520578  1
  H  H5  1  0.875000  0.854422  0.479422  1
  H  H6  1  0.604422  0.125000  0.979422  1
  H  H7  1  0.145578  0.625000  0.020578  1
  H  H8  1  0.375000  0.854422  0.979422  1
  H  H9  1  0.875000  0.395578  0.020578  1
  H  H10  1  0.604422  0.625000  0.479422  1
  H  H11  1  0.145578  0.125000  0.520578  1
  H  H12  1  0.750000  0.250000  0.500000  1
  H  H13  1  0.000000  0.000000  0.000000  1
