# generated using pymatgen
data_Lu16Hg3Rh4Pb
_symmetry_space_group_name_H-M   'P 1'
_cell_length_a   9.45694784
_cell_length_b   9.41511289
_cell_length_c   9.41511200
_cell_angle_alpha   60.00000313
_cell_angle_beta   60.14623121
_cell_angle_gamma   60.14623031
_symmetry_Int_Tables_number   1
_chemical_formula_structural   Lu16Hg3Rh4Pb
_chemical_formula_sum   'Lu16 Hg3 Rh4 Pb1'
_cell_volume   594.07792068
_cell_formula_units_Z   1
loop_
 _symmetry_equiv_pos_site_id
 _symmetry_equiv_pos_as_xyz
  1  'x, y, z'
loop_
 _atom_site_type_symbol
 _atom_site_label
 _atom_site_symmetry_multiplicity
 _atom_site_fract_x
 _atom_site_fract_y
 _atom_site_fract_z
 _atom_site_occupancy
  Lu  Lu0  1  0.601662  0.600778  0.600778  1
  Lu  Lu1  1  0.601662  0.600778  0.196784  1
  Lu  Lu2  1  0.601662  0.196784  0.600778  1
  Lu  Lu3  1  0.192852  0.602383  0.602383  1
  Lu  Lu4  1  0.063479  0.437140  0.437140  1
  Lu  Lu5  1  0.437653  0.062920  0.062920  1
  Lu  Lu6  1  0.437653  0.062920  0.436508  1
  Lu  Lu7  1  0.063479  0.437140  0.062242  1
  Lu  Lu8  1  0.437653  0.436508  0.062920  1
  Lu  Lu9  1  0.063479  0.062242  0.437140  1
  Lu  Lu10  1  0.181826  0.812912  0.812912  1
  Lu  Lu11  1  0.810516  0.187697  0.187697  1
  Lu  Lu12  1  0.810516  0.187697  0.814089  1
  Lu  Lu13  1  0.181826  0.812912  0.192349  1
  Lu  Lu14  1  0.810516  0.814089  0.187697  1
  Lu  Lu15  1  0.181826  0.192349  0.812912  1
  Hg  Hg16  1  0.840719  0.835199  0.835199  1
  Hg  Hg17  1  0.840719  0.835199  0.488881  1
  Hg  Hg18  1  0.840719  0.488881  0.835199  1
  Rh  Rh19  1  0.393381  0.393354  0.393354  1
  Rh  Rh20  1  0.393381  0.393354  0.819908  1
  Rh  Rh21  1  0.393381  0.819908  0.393354  1
  Rh  Rh22  1  0.820258  0.393247  0.393247  1
  Pb  Pb23  1  0.499178  0.833607  0.833607  1
