# generated using pymatgen
data_Ca7Ag2GeN2
_symmetry_space_group_name_H-M   'P 1'
_cell_length_a   12.40301656
_cell_length_b   12.40301700
_cell_length_c   4.79170800
_cell_angle_alpha   90.00000000
_cell_angle_beta   90.00000000
_cell_angle_gamma   157.43461042
_symmetry_Int_Tables_number   1
_chemical_formula_structural   Ca7Ag2GeN2
_chemical_formula_sum   'Ca7 Ag2 Ge1 N2'
_cell_volume   282.86507665
_cell_formula_units_Z   1
loop_
 _symmetry_equiv_pos_site_id
 _symmetry_equiv_pos_as_xyz
  1  'x, y, z'
loop_
 _atom_site_type_symbol
 _atom_site_label
 _atom_site_symmetry_multiplicity
 _atom_site_fract_x
 _atom_site_fract_y
 _atom_site_fract_z
 _atom_site_occupancy
  Ca  Ca0  1  0.908387  0.091612  0.000000  1
  Ca  Ca1  1  0.695232  0.304767  0.000000  1
  Ca  Ca2  1  0.500000  0.500000  0.000000  1
  Ca  Ca3  1  0.304767  0.695232  0.000000  1
  Ca  Ca4  1  0.091612  0.908387  0.000000  1
  Ca  Ca5  1  0.593349  0.406650  0.500000  1
  Ca  Ca6  1  0.406650  0.593349  0.500000  1
  Ag  Ag7  1  0.789708  0.210292  0.500000  1
  Ag  Ag8  1  0.210292  0.789708  0.500000  1
  Ge  Ge9  1  0.000000  0.000000  0.500000  1
  N  N10  1  0.602102  0.397897  0.000000  1
  N  N11  1  0.397897  0.602102  0.000000  1
