# generated using pymatgen
data_ErGa6(Ni2Ir)2
_symmetry_space_group_name_H-M   'P 1'
_cell_length_a   6.65362157
_cell_length_b   6.65362080
_cell_length_c   6.65362098
_cell_angle_alpha   135.74524814
_cell_angle_beta   103.20266949
_cell_angle_gamma   93.17349662
_symmetry_Int_Tables_number   1
_chemical_formula_structural   ErGa6(Ni2Ir)2
_chemical_formula_sum   'Er1 Ga6 Ni4 Ir2'
_cell_volume   189.44890030
_cell_formula_units_Z   1
loop_
 _symmetry_equiv_pos_site_id
 _symmetry_equiv_pos_as_xyz
  1  'x, y, z'
loop_
 _atom_site_type_symbol
 _atom_site_label
 _atom_site_symmetry_multiplicity
 _atom_site_fract_x
 _atom_site_fract_y
 _atom_site_fract_z
 _atom_site_occupancy
  Er  Er0  1  0.000000  0.000000  0.000000  1
  Ga  Ga1  1  0.341951  0.341951  0.000000  1
  Ga  Ga2  1  0.658049  0.658049  0.000000  1
  Ga  Ga3  1  0.344332  0.000000  0.344332  1
  Ga  Ga4  1  0.655668  0.000000  0.655668  1
  Ga  Ga5  1  0.187272  0.687272  0.500000  1
  Ga  Ga6  1  0.812728  0.312728  0.500000  1
  Ni  Ni7  1  0.500000  0.500000  0.500000  1
  Ni  Ni8  1  0.000000  0.000000  0.500000  1
  Ni  Ni9  1  0.000000  0.500000  0.000000  1
  Ni  Ni10  1  0.500000  0.000000  0.000000  1
  Ir  Ir11  1  0.763977  0.500000  0.263977  1
  Ir  Ir12  1  0.236023  0.500000  0.736023  1
