# generated using pymatgen
data_Tb2MnFe6Co5P7
_symmetry_space_group_name_H-M   'P 1'
_cell_length_a   3.60861000
_cell_length_b   8.99010148
_cell_length_c   9.02166806
_cell_angle_alpha   120.07916455
_cell_angle_beta   90.00000000
_cell_angle_gamma   90.00000000
_symmetry_Int_Tables_number   1
_chemical_formula_structural   Tb2MnFe6Co5P7
_chemical_formula_sum   'Tb2 Mn1 Fe6 Co5 P7'
_cell_volume   253.26490961
_cell_formula_units_Z   1
loop_
 _symmetry_equiv_pos_site_id
 _symmetry_equiv_pos_as_xyz
  1  'x, y, z'
loop_
 _atom_site_type_symbol
 _atom_site_label
 _atom_site_symmetry_multiplicity
 _atom_site_fract_x
 _atom_site_fract_y
 _atom_site_fract_z
 _atom_site_occupancy
  Tb  Tb0  1  0.000000  0.668124  0.335595  1
  Tb  Tb1  1  0.500000  0.334733  0.666079  1
  Mn  Mn2  1  0.500000  0.122101  0.895644  1
  Fe  Fe3  1  0.000000  0.568878  0.627144  1
  Fe  Fe4  1  0.000000  0.881624  0.728664  1
  Fe  Fe5  1  0.000000  0.274467  0.154909  1
  Fe  Fe6  1  0.000000  0.845372  0.120568  1
  Fe  Fe7  1  0.500000  0.101134  0.228990  1
  Fe  Fe8  1  0.500000  0.772404  0.874881  1
  Co  Co9  1  0.000000  0.371944  0.939279  1
  Co  Co10  1  0.000000  0.058776  0.430299  1
  Co  Co11  1  0.500000  0.948134  0.563052  1
  Co  Co12  1  0.500000  0.435565  0.383700  1
  Co  Co13  1  0.500000  0.614822  0.050533  1
  P  P14  1  0.000000  0.110196  0.700453  1
  P  P15  1  0.000000  0.297080  0.407237  1
  P  P16  1  0.000000  0.594344  0.886895  1
  P  P17  1  0.500000  0.709735  0.601821  1
  P  P18  1  0.500000  0.404800  0.115556  1
  P  P19  1  0.500000  0.886925  0.286671  1
  P  P20  1  0.000000  0.998844  0.002031  1
