# generated using pymatgen
data_Ti4CrI4
_symmetry_space_group_name_H-M   'P 1'
_cell_length_a   4.86984100
_cell_length_b   11.14428500
_cell_length_c   19.93002800
_cell_angle_alpha   90.00000000
_cell_angle_beta   90.00000000
_cell_angle_gamma   90.00000000
_symmetry_Int_Tables_number   1
_chemical_formula_structural   Ti4CrI4
_chemical_formula_sum   'Ti16 Cr4 I16'
_cell_volume   1081.62047704
_cell_formula_units_Z   4
loop_
 _symmetry_equiv_pos_site_id
 _symmetry_equiv_pos_as_xyz
  1  'x, y, z'
loop_
 _atom_site_type_symbol
 _atom_site_label
 _atom_site_symmetry_multiplicity
 _atom_site_fract_x
 _atom_site_fract_y
 _atom_site_fract_z
 _atom_site_occupancy
  Ti  Ti0  1  0.500000  0.564293  0.392299  1
  Ti  Ti1  1  0.500000  0.435707  0.607701  1
  Ti  Ti2  1  0.500000  0.064293  0.107701  1
  Ti  Ti3  1  0.500000  0.935707  0.892299  1
  Ti  Ti4  1  0.500000  0.693064  0.535656  1
  Ti  Ti5  1  0.500000  0.306936  0.464344  1
  Ti  Ti6  1  0.500000  0.193064  0.964344  1
  Ti  Ti7  1  0.500000  0.806936  0.035656  1
  Ti  Ti8  1  0.000000  0.681939  0.449089  1
  Ti  Ti9  1  0.000000  0.318061  0.550911  1
  Ti  Ti10  1  0.000000  0.181939  0.050911  1
  Ti  Ti11  1  0.000000  0.818061  0.949089  1
  Ti  Ti12  1  0.000000  0.408845  0.398537  1
  Ti  Ti13  1  0.000000  0.591155  0.601463  1
  Ti  Ti14  1  0.000000  0.908845  0.101463  1
  Ti  Ti15  1  0.000000  0.091155  0.898537  1
  Cr  Cr16  1  0.249947  0.500000  0.500000  1
  Cr  Cr17  1  0.750053  0.000000  0.000000  1
  Cr  Cr18  1  0.750053  0.500000  0.500000  1
  Cr  Cr19  1  0.249947  0.000000  0.000000  1
  I  I20  1  0.000000  0.841509  0.563927  1
  I  I21  1  0.000000  0.158491  0.436073  1
  I  I22  1  0.000000  0.341509  0.936073  1
  I  I23  1  0.000000  0.658491  0.063927  1
  I  I24  1  0.500000  0.339239  0.320463  1
  I  I25  1  0.500000  0.660761  0.679537  1
  I  I26  1  0.500000  0.839239  0.179537  1
  I  I27  1  0.500000  0.160761  0.820463  1
  I  I28  1  0.500000  0.822250  0.409495  1
  I  I29  1  0.500000  0.177750  0.590505  1
  I  I30  1  0.500000  0.322250  0.090505  1
  I  I31  1  0.500000  0.677750  0.909495  1
  I  I32  1  0.000000  0.612586  0.309238  1
  I  I33  1  0.000000  0.387414  0.690762  1
  I  I34  1  0.000000  0.112586  0.190762  1
  I  I35  1  0.000000  0.887414  0.809238  1
