# generated using pymatgen
data_Sm3Y3CoCl10
_symmetry_space_group_name_H-M   'P 1'
_cell_length_a   7.14307385
_cell_length_b   8.97063174
_cell_length_c   8.88773466
_cell_angle_alpha   108.57751964
_cell_angle_beta   95.81579146
_cell_angle_gamma   106.19207007
_symmetry_Int_Tables_number   1
_chemical_formula_structural   Sm3Y3CoCl10
_chemical_formula_sum   'Sm3 Y3 Co1 Cl10'
_cell_volume   506.97908910
_cell_formula_units_Z   1
loop_
 _symmetry_equiv_pos_site_id
 _symmetry_equiv_pos_as_xyz
  1  'x, y, z'
loop_
 _atom_site_type_symbol
 _atom_site_label
 _atom_site_symmetry_multiplicity
 _atom_site_fract_x
 _atom_site_fract_y
 _atom_site_fract_z
 _atom_site_occupancy
  Sm  Sm0  1  0.870598  0.950501  0.242522  1
  Sm  Sm1  1  0.130475  0.049193  0.758030  1
  Sm  Sm2  1  0.027646  0.691450  0.898323  1
  Y  Y3  1  0.971654  0.303787  0.099452  1
  Y  Y4  1  0.635278  0.862127  0.815801  1
  Y  Y5  1  0.364671  0.141286  0.185246  1
  Co  Co6  1  0.000332  0.999351  0.000165  1
  Cl  Cl7  1  0.642609  0.551742  0.728947  1
  Cl  Cl8  1  0.347126  0.449085  0.268894  1
  Cl  Cl9  1  0.753612  0.919322  0.551048  1
  Cl  Cl10  1  0.247872  0.081822  0.449185  1
  Cl  Cl11  1  0.915320  0.628062  0.169912  1
  Cl  Cl12  1  0.084196  0.364860  0.833892  1
  Cl  Cl13  1  0.549642  0.172206  0.921623  1
  Cl  Cl14  1  0.453923  0.831976  0.080850  1
  Cl  Cl15  1  0.223240  0.749181  0.654968  1
  Cl  Cl16  1  0.781806  0.254049  0.341145  1
