# generated using pymatgen
data_YPa2(SnRh)3
_symmetry_space_group_name_H-M   'P 1'
_cell_length_a   7.49388996
_cell_length_b   7.49389016
_cell_length_c   4.01543700
_cell_angle_alpha   90.00000000
_cell_angle_beta   90.00000000
_cell_angle_gamma   120.92654414
_symmetry_Int_Tables_number   1
_chemical_formula_structural   YPa2(SnRh)3
_chemical_formula_sum   'Y1 Pa2 Sn3 Rh3'
_cell_volume   193.44036902
_cell_formula_units_Z   1
loop_
 _symmetry_equiv_pos_site_id
 _symmetry_equiv_pos_as_xyz
  1  'x, y, z'
loop_
 _atom_site_type_symbol
 _atom_site_label
 _atom_site_symmetry_multiplicity
 _atom_site_fract_x
 _atom_site_fract_y
 _atom_site_fract_z
 _atom_site_occupancy
  Y  Y0  1  0.591900  0.591900  0.500000  1
  Pa  Pa1  1  0.412017  0.999295  0.500000  1
  Pa  Pa2  1  0.999295  0.412017  0.500000  1
  Sn  Sn3  1  0.745024  0.990349  0.000000  1
  Sn  Sn4  1  0.990349  0.745024  0.000000  1
  Sn  Sn5  1  0.263929  0.263929  0.000000  1
  Rh  Rh6  1  0.314578  0.670544  0.000000  1
  Rh  Rh7  1  0.670544  0.314578  0.000000  1
  Rh  Rh8  1  0.012364  0.012364  0.500000  1
