# generated using pymatgen
data_Yb3AlSb3
_symmetry_space_group_name_H-M   'P 1'
_cell_length_a   4.57720700
_cell_length_b   12.85812300
_cell_length_c   14.10992800
_cell_angle_alpha   90.00000000
_cell_angle_beta   90.00000000
_cell_angle_gamma   90.00000000
_symmetry_Int_Tables_number   1
_chemical_formula_structural   Yb3AlSb3
_chemical_formula_sum   'Yb12 Al4 Sb12'
_cell_volume   830.42980289
_cell_formula_units_Z   4
loop_
 _symmetry_equiv_pos_site_id
 _symmetry_equiv_pos_as_xyz
  1  'x, y, z'
loop_
 _atom_site_type_symbol
 _atom_site_label
 _atom_site_symmetry_multiplicity
 _atom_site_fract_x
 _atom_site_fract_y
 _atom_site_fract_z
 _atom_site_occupancy
  Yb  Yb0  1  0.250000  0.058422  0.886889  1
  Yb  Yb1  1  0.750000  0.941578  0.113111  1
  Yb  Yb2  1  0.250000  0.558422  0.613111  1
  Yb  Yb3  1  0.750000  0.441578  0.386889  1
  Yb  Yb4  1  0.250000  0.850891  0.496848  1
  Yb  Yb5  1  0.750000  0.149109  0.503152  1
  Yb  Yb6  1  0.250000  0.350891  0.003152  1
  Yb  Yb7  1  0.750000  0.649109  0.996848  1
  Yb  Yb8  1  0.750000  0.226216  0.220956  1
  Yb  Yb9  1  0.250000  0.773784  0.779044  1
  Yb  Yb10  1  0.750000  0.726216  0.279044  1
  Yb  Yb11  1  0.250000  0.273784  0.720956  1
  Al  Al12  1  0.250000  0.066978  0.298136  1
  Al  Al13  1  0.750000  0.933022  0.701864  1
  Al  Al14  1  0.250000  0.566978  0.201864  1
  Al  Al15  1  0.750000  0.433022  0.798136  1
  Sb  Sb16  1  0.250000  0.257863  0.382110  1
  Sb  Sb17  1  0.750000  0.742137  0.617890  1
  Sb  Sb18  1  0.250000  0.757863  0.117890  1
  Sb  Sb19  1  0.750000  0.242137  0.882110  1
  Sb  Sb20  1  0.250000  0.112562  0.108994  1
  Sb  Sb21  1  0.750000  0.887438  0.891006  1
  Sb  Sb22  1  0.250000  0.612562  0.391006  1
  Sb  Sb23  1  0.750000  0.387438  0.608994  1
  Sb  Sb24  1  0.250000  0.039633  0.649870  1
  Sb  Sb25  1  0.750000  0.960367  0.350130  1
  Sb  Sb26  1  0.250000  0.539633  0.850130  1
  Sb  Sb27  1  0.750000  0.460367  0.149870  1
