# generated using pymatgen
data_Pr3NdMg2(CoO6)2
_symmetry_space_group_name_H-M   'P 1'
_cell_length_a   5.46440630
_cell_length_b   5.50973034
_cell_length_c   7.74811173
_cell_angle_alpha   90.00292626
_cell_angle_beta   90.14501971
_cell_angle_gamma   90.07931181
_symmetry_Int_Tables_number   1
_chemical_formula_structural   Pr3NdMg2(CoO6)2
_chemical_formula_sum   'Pr3 Nd1 Mg2 Co2 O12'
_cell_volume   233.27456836
_cell_formula_units_Z   1
loop_
 _symmetry_equiv_pos_site_id
 _symmetry_equiv_pos_as_xyz
  1  'x, y, z'
loop_
 _atom_site_type_symbol
 _atom_site_label
 _atom_site_symmetry_multiplicity
 _atom_site_fract_x
 _atom_site_fract_y
 _atom_site_fract_z
 _atom_site_occupancy
  Pr  Pr0  1  0.009605  0.959382  0.750012  1
  Pr  Pr1  1  0.489988  0.458643  0.749852  1
  Pr  Pr2  1  0.509630  0.541256  0.250085  1
  Nd  Nd3  1  0.989497  0.043667  0.249727  1
  Mg  Mg4  1  0.500050  0.999736  0.499396  1
  Mg  Mg5  1  0.999841  0.500762  0.000374  1
  Co  Co6  1  0.000325  0.499946  0.499348  1
  Co  Co7  1  0.499613  0.000080  0.000768  1
  O  O8  1  0.726600  0.291986  0.459313  1
  O  O9  1  0.775292  0.794035  0.042144  1
  O  O10  1  0.203956  0.226659  0.539669  1
  O  O11  1  0.296888  0.726494  0.959979  1
  O  O12  1  0.274982  0.706451  0.539701  1
  O  O13  1  0.225591  0.207428  0.960551  1
  O  O14  1  0.797755  0.774394  0.458251  1
  O  O15  1  0.704741  0.272118  0.040930  1
  O  O16  1  0.073962  0.482515  0.259837  1
  O  O17  1  0.422064  0.985691  0.240010  1
  O  O18  1  0.573622  0.014005  0.760243  1
  O  O19  1  0.925998  0.514754  0.739809  1
