# generated using pymatgen
data_Li4Pr3LuPt4
_symmetry_space_group_name_H-M   'P 1'
_cell_length_a   4.10233400
_cell_length_b   7.15498862
_cell_length_c   8.57453900
_cell_angle_alpha   89.72633210
_cell_angle_beta   90.00000000
_cell_angle_gamma   90.00000000
_symmetry_Int_Tables_number   1
_chemical_formula_structural   Li4Pr3LuPt4
_chemical_formula_sum   'Li4 Pr3 Lu1 Pt4'
_cell_volume   251.67831033
_cell_formula_units_Z   1
loop_
 _symmetry_equiv_pos_site_id
 _symmetry_equiv_pos_as_xyz
  1  'x, y, z'
loop_
 _atom_site_type_symbol
 _atom_site_label
 _atom_site_symmetry_multiplicity
 _atom_site_fract_x
 _atom_site_fract_y
 _atom_site_fract_z
 _atom_site_occupancy
  Li  Li0  1  0.250000  0.629836  0.555209  1
  Li  Li1  1  0.750000  0.369359  0.440612  1
  Li  Li2  1  0.750000  0.876497  0.060198  1
  Li  Li3  1  0.250000  0.123957  0.946313  1
  Pr  Pr4  1  0.250000  0.543368  0.187783  1
  Pr  Pr5  1  0.750000  0.453348  0.816784  1
  Pr  Pr6  1  0.750000  0.955180  0.679221  1
  Lu  Lu7  1  0.250000  0.046304  0.319477  1
  Pt  Pt8  1  0.250000  0.748303  0.879143  1
  Pt  Pt9  1  0.750000  0.239843  0.130484  1
  Pt  Pt10  1  0.750000  0.765670  0.373417  1
  Pt  Pt11  1  0.250000  0.248335  0.611358  1
