# generated using pymatgen
data_TbY2Cd3Pb2Au
_symmetry_space_group_name_H-M   'P 1'
_cell_length_a   7.60210343
_cell_length_b   7.60210290
_cell_length_c   4.57780700
_cell_angle_alpha   90.00000000
_cell_angle_beta   90.00000000
_cell_angle_gamma   120.28910338
_symmetry_Int_Tables_number   1
_chemical_formula_structural   TbY2Cd3Pb2Au
_chemical_formula_sum   'Tb1 Y2 Cd3 Pb2 Au1'
_cell_volume   228.44573637
_cell_formula_units_Z   1
loop_
 _symmetry_equiv_pos_site_id
 _symmetry_equiv_pos_as_xyz
  1  'x, y, z'
loop_
 _atom_site_type_symbol
 _atom_site_label
 _atom_site_symmetry_multiplicity
 _atom_site_fract_x
 _atom_site_fract_y
 _atom_site_fract_z
 _atom_site_occupancy
  Tb  Tb0  1  0.405017  0.405017  0.000000  1
  Y  Y1  1  0.597362  0.000478  0.000000  1
  Y  Y2  1  0.000478  0.597362  0.000000  1
  Cd  Cd3  1  0.234842  0.000475  0.500000  1
  Cd  Cd4  1  0.000475  0.234842  0.500000  1
  Cd  Cd5  1  0.763250  0.763250  0.500000  1
  Pb  Pb6  1  0.332545  0.667945  0.500000  1
  Pb  Pb7  1  0.667945  0.332545  0.500000  1
  Au  Au8  1  0.998086  0.998086  0.000000  1
