# generated using pymatgen
data_Sm5Tm3Sc12Si15Hg
_symmetry_space_group_name_H-M   'P 1'
_cell_length_a   7.16002094
_cell_length_b   7.42122774
_cell_length_c   14.14196133
_cell_angle_alpha   89.91786629
_cell_angle_beta   89.66363313
_cell_angle_gamma   90.19761230
_symmetry_Int_Tables_number   1
_chemical_formula_structural   Sm5Tm3Sc12Si15Hg
_chemical_formula_sum   'Sm5 Tm3 Sc12 Si15 Hg1'
_cell_volume   751.43111030
_cell_formula_units_Z   1
loop_
 _symmetry_equiv_pos_site_id
 _symmetry_equiv_pos_as_xyz
  1  'x, y, z'
loop_
 _atom_site_type_symbol
 _atom_site_label
 _atom_site_symmetry_multiplicity
 _atom_site_fract_x
 _atom_site_fract_y
 _atom_site_fract_z
 _atom_site_occupancy
  Sm  Sm0  1  0.011714  0.174094  0.098113  1
  Sm  Sm1  1  0.988516  0.826983  0.903287  1
  Sm  Sm2  1  0.488693  0.674324  0.904348  1
  Sm  Sm3  1  0.988436  0.831593  0.596256  1
  Sm  Sm4  1  0.511041  0.325739  0.097243  1
  Tm  Tm5  1  0.007884  0.172871  0.397437  1
  Tm  Tm6  1  0.510972  0.321812  0.398718  1
  Tm  Tm7  1  0.496187  0.682110  0.599597  1
  Sc  Sc8  1  0.162780  0.501011  0.753457  1
  Sc  Sc9  1  0.836841  0.498434  0.251382  1
  Sc  Sc10  1  0.337421  0.000835  0.250345  1
  Sc  Sc11  1  0.664820  0.998015  0.750898  1
  Sc  Sc12  1  0.342534  0.168907  0.628342  1
  Sc  Sc13  1  0.664285  0.823937  0.373543  1
  Sc  Sc14  1  0.167627  0.677070  0.371438  1
  Sc  Sc15  1  0.669317  0.824401  0.126120  1
  Sc  Sc16  1  0.825123  0.325269  0.624741  1
  Sc  Sc17  1  0.329679  0.174537  0.875361  1
  Sc  Sc18  1  0.829597  0.323767  0.875490  1
  Sc  Sc19  1  0.169350  0.675887  0.126474  1
  Si  Si20  1  0.035855  0.124366  0.750292  1
  Si  Si21  1  0.964518  0.882256  0.250203  1
  Si  Si22  1  0.465982  0.616617  0.249898  1
  Si  Si23  1  0.534058  0.384427  0.750554  1
  Si  Si24  1  0.287760  0.873905  0.749691  1
  Si  Si25  1  0.711896  0.126448  0.251249  1
  Si  Si26  1  0.212528  0.372426  0.251366  1
  Si  Si27  1  0.787279  0.625127  0.750136  1
  Si  Si28  1  0.830970  0.534387  0.457819  1
  Si  Si29  1  0.340511  0.964562  0.458947  1
  Si  Si30  1  0.846006  0.536828  0.039321  1
  Si  Si31  1  0.655452  0.038345  0.536304  1
  Si  Si32  1  0.153294  0.463154  0.962189  1
  Si  Si33  1  0.654345  0.036332  0.961272  1
  Si  Si34  1  0.345240  0.963343  0.040048  1
  Hg  Hg35  1  0.171489  0.455878  0.538122  1
