# generated using pymatgen
data_CaTb3Er4(B6Ru)4
_symmetry_space_group_name_H-M   'P 1'
_cell_length_a   3.65320500
_cell_length_b   9.13296877
_cell_length_c   11.53037101
_cell_angle_alpha   89.90605562
_cell_angle_beta   90.00000000
_cell_angle_gamma   90.00000000
_symmetry_Int_Tables_number   1
_chemical_formula_structural   CaTb3Er4(B6Ru)4
_chemical_formula_sum   'Ca1 Tb3 Er4 B24 Ru4'
_cell_volume   384.70578196
_cell_formula_units_Z   1
loop_
 _symmetry_equiv_pos_site_id
 _symmetry_equiv_pos_as_xyz
  1  'x, y, z'
loop_
 _atom_site_type_symbol
 _atom_site_label
 _atom_site_symmetry_multiplicity
 _atom_site_fract_x
 _atom_site_fract_y
 _atom_site_fract_z
 _atom_site_occupancy
  Ca  Ca0  1  0.000000  0.322427  0.413984  1
  Tb  Tb1  1  0.000000  0.675886  0.585005  1
  Tb  Tb2  1  0.000000  0.822687  0.086359  1
  Tb  Tb3  1  0.000000  0.177800  0.914501  1
  Er  Er4  1  0.000000  0.944211  0.371153  1
  Er  Er5  1  0.000000  0.057827  0.628026  1
  Er  Er6  1  0.000000  0.443044  0.129702  1
  Er  Er7  1  0.000000  0.556082  0.872097  1
  B  B8  1  0.500000  0.554744  0.432150  1
  B  B9  1  0.500000  0.445568  0.568053  1
  B  B10  1  0.500000  0.053817  0.067006  1
  B  B11  1  0.500000  0.945344  0.932035  1
  B  B12  1  0.500000  0.749064  0.418648  1
  B  B13  1  0.500000  0.251538  0.581579  1
  B  B14  1  0.500000  0.248334  0.080911  1
  B  B15  1  0.500000  0.751047  0.919074  1
  B  B16  1  0.500000  0.791736  0.266112  1
  B  B17  1  0.500000  0.209381  0.734133  1
  B  B18  1  0.500000  0.290194  0.233401  1
  B  B19  1  0.500000  0.709089  0.766365  1
  B  B20  1  0.500000  0.631602  0.185622  1
  B  B21  1  0.500000  0.368896  0.815435  1
  B  B22  1  0.500000  0.130786  0.314019  1
  B  B23  1  0.500000  0.868920  0.684994  1
  B  B24  1  0.500000  0.983673  0.212202  1
  B  B25  1  0.500000  0.016204  0.786866  1
  B  B26  1  0.500000  0.484097  0.287284  1
  B  B27  1  0.500000  0.516140  0.713230  1
  B  B28  1  0.500000  0.606014  0.029425  1
  B  B29  1  0.500000  0.394164  0.971249  1
  B  B30  1  0.500000  0.103030  0.471514  1
  B  B31  1  0.500000  0.896070  0.528629  1
  Ru  Ru32  1  0.000000  0.640371  0.319780  1
  Ru  Ru33  1  0.000000  0.361501  0.681109  1
  Ru  Ru34  1  0.000000  0.137062  0.177930  1
  Ru  Ru35  1  0.000000  0.861646  0.820416  1
