# generated using pymatgen
data_PmZn4
_symmetry_space_group_name_H-M   'P 1'
_cell_length_a   6.10343581
_cell_length_b   6.10343545
_cell_length_c   6.10343614
_cell_angle_alpha   139.52516063
_cell_angle_beta   139.52515537
_cell_angle_gamma   58.57499260
_symmetry_Int_Tables_number   1
_chemical_formula_structural   PmZn4
_chemical_formula_sum   'Pm1 Zn4'
_cell_volume   94.91092833
_cell_formula_units_Z   1
loop_
 _symmetry_equiv_pos_site_id
 _symmetry_equiv_pos_as_xyz
  1  'x, y, z'
loop_
 _atom_site_type_symbol
 _atom_site_label
 _atom_site_symmetry_multiplicity
 _atom_site_fract_x
 _atom_site_fract_y
 _atom_site_fract_z
 _atom_site_occupancy
  Pm  Pm0  1  0.000000  0.000000  0.000000  1
  Zn  Zn1  1  0.383135  0.383135  0.000000  1
  Zn  Zn2  1  0.616864  0.616864  0.000000  1
  Zn  Zn3  1  0.750000  0.250000  0.500000  1
  Zn  Zn4  1  0.250000  0.750000  0.500000  1
