# generated using pymatgen
data_Ba2BiSb3Pt2
_symmetry_space_group_name_H-M   'P 1'
_cell_length_a   9.76236856
_cell_length_b   9.76236676
_cell_length_c   5.08514900
_cell_angle_alpha   90.00000000
_cell_angle_beta   90.00000000
_cell_angle_gamma   150.82595832
_symmetry_Int_Tables_number   1
_chemical_formula_structural   Ba2BiSb3Pt2
_chemical_formula_sum   'Ba2 Bi1 Sb3 Pt2'
_cell_volume   236.24175543
_cell_formula_units_Z   1
loop_
 _symmetry_equiv_pos_site_id
 _symmetry_equiv_pos_as_xyz
  1  'x, y, z'
loop_
 _atom_site_type_symbol
 _atom_site_label
 _atom_site_symmetry_multiplicity
 _atom_site_fract_x
 _atom_site_fract_y
 _atom_site_fract_z
 _atom_site_occupancy
  Ba  Ba0  1  0.104107  0.895892  0.250001  1
  Ba  Ba1  1  0.895290  0.104709  0.750000  1
  Bi  Bi2  1  0.747647  0.252351  0.250001  1
  Sb  Sb3  1  0.458430  0.541569  0.250001  1
  Sb  Sb4  1  0.541902  0.458097  0.750000  1
  Sb  Sb5  1  0.251992  0.748006  0.750000  1
  Pt  Pt6  1  0.316706  0.683293  0.250001  1
  Pt  Pt7  1  0.683919  0.316080  0.750000  1
