# generated using pymatgen
data_Np4Te3O4
_symmetry_space_group_name_H-M   'P 1'
_cell_length_a   3.97625342
_cell_length_b   3.97625404
_cell_length_c   13.89499000
_cell_angle_alpha   98.22623682
_cell_angle_beta   98.22623810
_cell_angle_gamma   89.99999752
_symmetry_Int_Tables_number   1
_chemical_formula_structural   Np4Te3O4
_chemical_formula_sum   'Np4 Te3 O4'
_cell_volume   215.14347129
_cell_formula_units_Z   1
loop_
 _symmetry_equiv_pos_site_id
 _symmetry_equiv_pos_as_xyz
  1  'x, y, z'
loop_
 _atom_site_type_symbol
 _atom_site_label
 _atom_site_symmetry_multiplicity
 _atom_site_fract_x
 _atom_site_fract_y
 _atom_site_fract_z
 _atom_site_occupancy
  Np  Np0  1  0.571904  0.571904  0.143810  1
  Np  Np1  1  0.159227  0.159227  0.318456  1
  Np  Np2  1  0.840771  0.840771  0.681544  1
  Np  Np3  1  0.428095  0.428095  0.856189  1
  Te  Te4  1  0.000000  0.000000  0.000000  1
  Te  Te5  1  0.713838  0.713838  0.427677  1
  Te  Te6  1  0.286161  0.286161  0.572323  1
  O  O7  1  0.611164  0.111165  0.222331  1
  O  O8  1  0.111165  0.611164  0.222331  1
  O  O9  1  0.888834  0.388835  0.777670  1
  O  O10  1  0.388835  0.888834  0.777670  1
