# generated using pymatgen
data_YHo5(PtRh8)2
_symmetry_space_group_name_H-M   'P 1'
_cell_length_a   5.28212600
_cell_length_b   5.28212524
_cell_length_c   17.54951200
_cell_angle_alpha   90.00000000
_cell_angle_beta   90.00000000
_cell_angle_gamma   119.99999224
_symmetry_Int_Tables_number   1
_chemical_formula_structural   YHo5(PtRh8)2
_chemical_formula_sum   'Y1 Ho5 Pt2 Rh16'
_cell_volume   424.04618551
_cell_formula_units_Z   1
loop_
 _symmetry_equiv_pos_site_id
 _symmetry_equiv_pos_as_xyz
  1  'x, y, z'
loop_
 _atom_site_type_symbol
 _atom_site_label
 _atom_site_symmetry_multiplicity
 _atom_site_fract_x
 _atom_site_fract_y
 _atom_site_fract_z
 _atom_site_occupancy
  Y  Y0  1  0.666667  0.333333  0.250000  1
  Ho  Ho1  1  0.333333  0.666667  0.956906  1
  Ho  Ho2  1  0.666667  0.333333  0.043047  1
  Ho  Ho3  1  0.666667  0.333333  0.456953  1
  Ho  Ho4  1  0.333333  0.666667  0.543094  1
  Ho  Ho5  1  0.333333  0.666667  0.750000  1
  Pt  Pt6  1  0.000000  0.000000  0.500010  1
  Pt  Pt7  1  0.000000  0.000000  0.999990  1
  Rh  Rh8  1  0.167780  0.832220  0.373710  1
  Rh  Rh9  1  0.167780  0.335560  0.373710  1
  Rh  Rh10  1  0.664440  0.832220  0.373710  1
  Rh  Rh11  1  0.832221  0.167779  0.626357  1
  Rh  Rh12  1  0.832221  0.664440  0.626357  1
  Rh  Rh13  1  0.335560  0.167779  0.626357  1
  Rh  Rh14  1  0.832221  0.167779  0.873643  1
  Rh  Rh15  1  0.832221  0.664440  0.873643  1
  Rh  Rh16  1  0.335560  0.167779  0.873643  1
  Rh  Rh17  1  0.167780  0.832220  0.126290  1
  Rh  Rh18  1  0.167780  0.335560  0.126290  1
  Rh  Rh19  1  0.664440  0.832220  0.126290  1
  Rh  Rh20  1  0.333333  0.666667  0.250000  1
  Rh  Rh21  1  0.666667  0.333333  0.750000  1
  Rh  Rh22  1  0.000000  0.000000  0.250000  1
  Rh  Rh23  1  0.000000  0.000000  0.750000  1
