# generated using pymatgen
data_Gd3U5(TcB6)4
_symmetry_space_group_name_H-M   'P 1'
_cell_length_a   3.64883500
_cell_length_b   9.31643008
_cell_length_c   11.42180110
_cell_angle_alpha   90.01520616
_cell_angle_beta   90.00000000
_cell_angle_gamma   90.00000000
_symmetry_Int_Tables_number   1
_chemical_formula_structural   Gd3U5(TcB6)4
_chemical_formula_sum   'Gd3 U5 Tc4 B24'
_cell_volume   388.27401968
_cell_formula_units_Z   1
loop_
 _symmetry_equiv_pos_site_id
 _symmetry_equiv_pos_as_xyz
  1  'x, y, z'
loop_
 _atom_site_type_symbol
 _atom_site_label
 _atom_site_symmetry_multiplicity
 _atom_site_fract_x
 _atom_site_fract_y
 _atom_site_fract_z
 _atom_site_occupancy
  Gd  Gd0  1  0.000000  0.337142  0.407501  1
  Gd  Gd1  1  0.000000  0.663144  0.592122  1
  Gd  Gd2  1  0.000000  0.835893  0.092982  1
  U  U3  1  0.000000  0.162947  0.907151  1
  U  U4  1  0.000000  0.956505  0.397167  1
  U  U5  1  0.000000  0.042920  0.603785  1
  U  U6  1  0.000000  0.457196  0.103567  1
  U  U7  1  0.000000  0.543164  0.896917  1
  Tc  Tc8  1  0.000000  0.645963  0.318651  1
  Tc  Tc9  1  0.000000  0.351888  0.683979  1
  Tc  Tc10  1  0.000000  0.146447  0.178049  1
  Tc  Tc11  1  0.000000  0.857712  0.819378  1
  B  B12  1  0.500000  0.552351  0.430673  1
  B  B13  1  0.500000  0.447097  0.570167  1
  B  B14  1  0.500000  0.053021  0.067816  1
  B  B15  1  0.500000  0.950133  0.930344  1
  B  B16  1  0.500000  0.743156  0.422876  1
  B  B17  1  0.500000  0.256831  0.577222  1
  B  B18  1  0.500000  0.242431  0.075872  1
  B  B19  1  0.500000  0.756769  0.922543  1
  B  B20  1  0.500000  0.801907  0.275074  1
  B  B21  1  0.500000  0.196647  0.726356  1
  B  B22  1  0.500000  0.301990  0.224732  1
  B  B23  1  0.500000  0.698385  0.775106  1
  B  B24  1  0.500000  0.643653  0.188749  1
  B  B25  1  0.500000  0.354596  0.812024  1
  B  B26  1  0.500000  0.144096  0.310713  1
  B  B27  1  0.500000  0.855871  0.688720  1
  B  B28  1  0.500000  0.989777  0.219533  1
  B  B29  1  0.500000  0.013175  0.781042  1
  B  B30  1  0.500000  0.489073  0.280405  1
  B  B31  1  0.500000  0.510743  0.719862  1
  B  B32  1  0.500000  0.640442  0.038615  1
  B  B33  1  0.500000  0.356697  0.960323  1
  B  B34  1  0.500000  0.139908  0.461027  1
  B  B35  1  0.500000  0.860332  0.538956  1
