# generated using pymatgen
data_Hf6Zr3Re3NiW
_symmetry_space_group_name_H-M   'P 1'
_cell_length_a   8.70469100
_cell_length_b   8.70469165
_cell_length_c   8.44081300
_cell_angle_alpha   90.00000000
_cell_angle_beta   90.00000000
_cell_angle_gamma   120.00000133
_symmetry_Int_Tables_number   1
_chemical_formula_structural   Hf6Zr3Re3NiW
_chemical_formula_sum   'Hf12 Zr6 Re6 Ni2 W2'
_cell_volume   553.88761631
_cell_formula_units_Z   2
loop_
 _symmetry_equiv_pos_site_id
 _symmetry_equiv_pos_as_xyz
  1  'x, y, z'
loop_
 _atom_site_type_symbol
 _atom_site_label
 _atom_site_symmetry_multiplicity
 _atom_site_fract_x
 _atom_site_fract_y
 _atom_site_fract_z
 _atom_site_occupancy
  Hf  Hf0  1  0.198084  0.801916  0.443354  1
  Hf  Hf1  1  0.198084  0.396166  0.443354  1
  Hf  Hf2  1  0.603834  0.801916  0.443354  1
  Hf  Hf3  1  0.801916  0.198084  0.556646  1
  Hf  Hf4  1  0.801916  0.603834  0.556646  1
  Hf  Hf5  1  0.396166  0.198084  0.556646  1
  Hf  Hf6  1  0.801916  0.198084  0.943354  1
  Hf  Hf7  1  0.801916  0.603834  0.943354  1
  Hf  Hf8  1  0.396166  0.198084  0.943354  1
  Hf  Hf9  1  0.198084  0.801916  0.056646  1
  Hf  Hf10  1  0.198084  0.396166  0.056646  1
  Hf  Hf11  1  0.603834  0.801916  0.056646  1
  Zr  Zr12  1  0.541029  0.458971  0.250000  1
  Zr  Zr13  1  0.541029  0.082057  0.250000  1
  Zr  Zr14  1  0.917943  0.458971  0.250000  1
  Zr  Zr15  1  0.458971  0.541029  0.750000  1
  Zr  Zr16  1  0.458971  0.917943  0.750000  1
  Zr  Zr17  1  0.082057  0.541029  0.750000  1
  Re  Re18  1  0.889864  0.110136  0.250000  1
  Re  Re19  1  0.889864  0.779726  0.250000  1
  Re  Re20  1  0.220274  0.110136  0.250000  1
  Re  Re21  1  0.110136  0.889864  0.750000  1
  Re  Re22  1  0.110136  0.220274  0.750000  1
  Re  Re23  1  0.779726  0.889864  0.750000  1
  Ni  Ni24  1  0.333333  0.666667  0.250000  1
  Ni  Ni25  1  0.666667  0.333333  0.750000  1
  W  W26  1  0.000000  0.000000  0.500000  1
  W  W27  1  0.000000  0.000000  0.000000  1
