# generated using pymatgen
data_Ga2SnCl8
_symmetry_space_group_name_H-M   'P 1'
_cell_length_a   7.17741600
_cell_length_b   7.61244319
_cell_length_c   13.92612376
_cell_angle_alpha   87.39515053
_cell_angle_beta   90.00000000
_cell_angle_gamma   90.00000000
_symmetry_Int_Tables_number   1
_chemical_formula_structural   Ga2SnCl8
_chemical_formula_sum   'Ga4 Sn2 Cl16'
_cell_volume   760.10476732
_cell_formula_units_Z   2
loop_
 _symmetry_equiv_pos_site_id
 _symmetry_equiv_pos_as_xyz
  1  'x, y, z'
loop_
 _atom_site_type_symbol
 _atom_site_label
 _atom_site_symmetry_multiplicity
 _atom_site_fract_x
 _atom_site_fract_y
 _atom_site_fract_z
 _atom_site_occupancy
  Ga  Ga0  1  0.937246  0.223495  0.577651  1
  Ga  Ga1  1  0.062754  0.223495  0.077651  1
  Ga  Ga2  1  0.560294  0.637629  0.777676  1
  Ga  Ga3  1  0.439706  0.637629  0.277676  1
  Sn  Sn4  1  0.754045  0.074472  0.815589  1
  Sn  Sn5  1  0.245955  0.074472  0.315589  1
  Cl  Cl6  1  0.424586  0.613648  0.642135  1
  Cl  Cl7  1  0.575414  0.613648  0.142135  1
  Cl  Cl8  1  0.857565  0.732594  0.762022  1
  Cl  Cl9  1  0.142435  0.732594  0.262022  1
  Cl  Cl10  1  0.941189  0.467465  0.495994  1
  Cl  Cl11  1  0.058811  0.467465  0.995994  1
  Cl  Cl12  1  0.928120  0.001961  0.005528  1
  Cl  Cl13  1  0.071880  0.001961  0.505528  1
  Cl  Cl14  1  0.648027  0.132696  0.619143  1
  Cl  Cl15  1  0.351973  0.132696  0.119143  1
  Cl  Cl16  1  0.555528  0.395704  0.871835  1
  Cl  Cl17  1  0.444472  0.395704  0.371835  1
  Cl  Cl18  1  0.437449  0.853136  0.862276  1
  Cl  Cl19  1  0.562551  0.853136  0.362276  1
  Cl  Cl20  1  0.927549  0.234602  0.222352  1
  Cl  Cl21  1  0.072451  0.234602  0.722352  1
