# generated using pymatgen
data_Eu3P6RuRh5
_symmetry_space_group_name_H-M   'P 1'
_cell_length_a   6.70736292
_cell_length_b   6.69095869
_cell_length_c   7.07201674
_cell_angle_alpha   90.05631815
_cell_angle_beta   89.83204252
_cell_angle_gamma   119.93339077
_symmetry_Int_Tables_number   1
_chemical_formula_structural   Eu3P6RuRh5
_chemical_formula_sum   'Eu3 P6 Ru1 Rh5'
_cell_volume   275.04467414
_cell_formula_units_Z   1
loop_
 _symmetry_equiv_pos_site_id
 _symmetry_equiv_pos_as_xyz
  1  'x, y, z'
loop_
 _atom_site_type_symbol
 _atom_site_label
 _atom_site_symmetry_multiplicity
 _atom_site_fract_x
 _atom_site_fract_y
 _atom_site_fract_z
 _atom_site_occupancy
  Eu  Eu0  1  0.395121  0.396933  0.500382  1
  Eu  Eu1  1  0.604878  0.001699  0.166278  1
  Eu  Eu2  1  0.999889  0.603847  0.833332  1
  P  P3  1  0.889649  0.226324  0.545104  1
  P  P4  1  0.225794  0.885917  0.458859  1
  P  P5  1  0.110361  0.336741  0.121544  1
  P  P6  1  0.774228  0.660120  0.207805  1
  P  P7  1  0.333915  0.111891  0.872675  1
  P  P8  1  0.666131  0.778037  0.794016  1
  Ru  Ru9  1  0.999995  0.132045  0.833359  1
  Rh  Rh10  1  0.868411  0.867792  0.499304  1
  Rh  Rh11  1  0.131617  0.999408  0.167344  1
  Rh  Rh12  1  0.477728  0.478053  0.000421  1
  Rh  Rh13  1  0.000027  0.520822  0.333356  1
  Rh  Rh14  1  0.522258  0.000371  0.666221  1
