# generated using pymatgen
data_Li3Y3SiHgGe
_symmetry_space_group_name_H-M   'P 1'
_cell_length_a   7.23765600
_cell_length_b   7.23765553
_cell_length_c   4.20849600
_cell_angle_alpha   90.00000000
_cell_angle_beta   90.00000000
_cell_angle_gamma   119.99999299
_symmetry_Int_Tables_number   1
_chemical_formula_structural   Li3Y3SiHgGe
_chemical_formula_sum   'Li3 Y3 Si1 Hg1 Ge1'
_cell_volume   190.92088041
_cell_formula_units_Z   1
loop_
 _symmetry_equiv_pos_site_id
 _symmetry_equiv_pos_as_xyz
  1  'x, y, z'
loop_
 _atom_site_type_symbol
 _atom_site_label
 _atom_site_symmetry_multiplicity
 _atom_site_fract_x
 _atom_site_fract_y
 _atom_site_fract_z
 _atom_site_occupancy
  Li  Li0  1  0.250039  0.000484  0.500000  1
  Li  Li1  1  0.750445  0.749961  0.500000  1
  Li  Li2  1  0.999516  0.249555  0.500000  1
  Y  Y3  1  0.998490  0.567393  0.000000  1
  Y  Y4  1  0.568903  0.001510  0.000000  1
  Y  Y5  1  0.432607  0.431097  0.000000  1
  Si  Si6  1  0.666667  0.333333  0.500000  1
  Hg  Hg7  1  0.000000  0.000000  0.000000  1
  Ge  Ge8  1  0.333333  0.666667  0.500000  1
