# generated using pymatgen
data_HfFe2MoP2
_symmetry_space_group_name_H-M   'P 1'
_cell_length_a   3.71464300
_cell_length_b   6.05992463
_cell_length_c   6.87928004
_cell_angle_alpha   90.69614945
_cell_angle_beta   90.00000000
_cell_angle_gamma   90.00000000
_symmetry_Int_Tables_number   1
_chemical_formula_structural   HfFe2MoP2
_chemical_formula_sum   'Hf2 Fe4 Mo2 P4'
_cell_volume   154.84430451
_cell_formula_units_Z   2
loop_
 _symmetry_equiv_pos_site_id
 _symmetry_equiv_pos_as_xyz
  1  'x, y, z'
loop_
 _atom_site_type_symbol
 _atom_site_label
 _atom_site_symmetry_multiplicity
 _atom_site_fract_x
 _atom_site_fract_y
 _atom_site_fract_z
 _atom_site_occupancy
  Hf  Hf0  1  0.250000  0.022464  0.812316  1
  Hf  Hf1  1  0.750000  0.977536  0.187684  1
  Fe  Fe2  1  0.750000  0.855410  0.564139  1
  Fe  Fe3  1  0.250000  0.144590  0.435861  1
  Fe  Fe4  1  0.750000  0.355821  0.942803  1
  Fe  Fe5  1  0.250000  0.644179  0.057197  1
  Mo  Mo6  1  0.250000  0.521118  0.670883  1
  Mo  Mo7  1  0.750000  0.478882  0.329117  1
  P  P8  1  0.250000  0.287942  0.125085  1
  P  P9  1  0.750000  0.712058  0.874915  1
  P  P10  1  0.250000  0.765505  0.389374  1
  P  P11  1  0.750000  0.234495  0.610626  1
