# generated using pymatgen
data_Tb8DyHo11Sn16
_symmetry_space_group_name_H-M   'P 1'
_cell_length_a   8.02840004
_cell_length_b   8.17213105
_cell_length_c   15.44011802
_cell_angle_alpha   89.99493801
_cell_angle_beta   89.99613238
_cell_angle_gamma   89.98899384
_symmetry_Int_Tables_number   1
_chemical_formula_structural   Tb8DyHo11Sn16
_chemical_formula_sum   'Tb8 Dy1 Ho11 Sn16'
_cell_volume   1013.01279728
_cell_formula_units_Z   1
loop_
 _symmetry_equiv_pos_site_id
 _symmetry_equiv_pos_as_xyz
  1  'x, y, z'
loop_
 _atom_site_type_symbol
 _atom_site_label
 _atom_site_symmetry_multiplicity
 _atom_site_fract_x
 _atom_site_fract_y
 _atom_site_fract_z
 _atom_site_occupancy
  Tb  Tb0  1  0.520442  0.320087  0.902354  1
  Tb  Tb1  1  0.020416  0.179976  0.597626  1
  Tb  Tb2  1  0.479559  0.679952  0.402362  1
  Tb  Tb3  1  0.979597  0.820069  0.097625  1
  Tb  Tb4  1  0.479592  0.679931  0.097713  1
  Tb  Tb5  1  0.979564  0.820032  0.402372  1
  Tb  Tb6  1  0.520434  0.320036  0.597619  1
  Tb  Tb7  1  0.020376  0.179999  0.902378  1
  Dy  Dy8  1  0.367500  0.835961  0.878084  1
  Ho  Ho9  1  0.867479  0.663979  0.621931  1
  Ho  Ho10  1  0.632549  0.163993  0.378040  1
  Ho  Ho11  1  0.132542  0.336023  0.122004  1
  Ho  Ho12  1  0.632531  0.163956  0.121932  1
  Ho  Ho13  1  0.132559  0.336025  0.378046  1
  Ho  Ho14  1  0.367433  0.836030  0.621921  1
  Ho  Ho15  1  0.867407  0.663986  0.878036  1
  Ho  Ho16  1  0.198301  0.502891  0.749945  1
  Ho  Ho17  1  0.698439  0.997056  0.749970  1
  Ho  Ho18  1  0.801619  0.497011  0.250000  1
  Ho  Ho19  1  0.301623  0.002988  0.250018  1
  Sn  Sn20  1  0.293120  0.035913  0.042117  1
  Sn  Sn21  1  0.793191  0.464279  0.458059  1
  Sn  Sn22  1  0.706795  0.964287  0.541925  1
  Sn  Sn23  1  0.206621  0.535368  0.958119  1
  Sn  Sn24  1  0.707148  0.964394  0.958105  1
  Sn  Sn25  1  0.206812  0.535703  0.541930  1
  Sn  Sn26  1  0.293192  0.035713  0.458067  1
  Sn  Sn27  1  0.793206  0.464283  0.041937  1
  Sn  Sn28  1  0.565244  0.619863  0.749913  1
  Sn  Sn29  1  0.064960  0.880011  0.749915  1
  Sn  Sn30  1  0.434908  0.379987  0.250013  1
  Sn  Sn31  1  0.934898  0.120018  0.250007  1
  Sn  Sn32  1  0.328511  0.146179  0.749927  1
  Sn  Sn33  1  0.828501  0.353987  0.749994  1
  Sn  Sn34  1  0.671463  0.853982  0.250000  1
  Sn  Sn35  1  0.171469  0.646049  0.249994  1
