# generated using pymatgen
data_Ho8MgAlPt2
_symmetry_space_group_name_H-M   'P 1'
_cell_length_a   9.63385693
_cell_length_b   9.63385619
_cell_length_c   9.59236700
_cell_angle_alpha   60.14236272
_cell_angle_beta   60.14236527
_cell_angle_gamma   60.39647953
_symmetry_Int_Tables_number   1
_chemical_formula_structural   Ho8MgAlPt2
_chemical_formula_sum   'Ho16 Mg2 Al2 Pt4'
_cell_volume   632.75032682
_cell_formula_units_Z   2
loop_
 _symmetry_equiv_pos_site_id
 _symmetry_equiv_pos_as_xyz
  1  'x, y, z'
loop_
 _atom_site_type_symbol
 _atom_site_label
 _atom_site_symmetry_multiplicity
 _atom_site_fract_x
 _atom_site_fract_y
 _atom_site_fract_z
 _atom_site_occupancy
  Ho  Ho0  1  0.808408  0.192125  0.190958  1
  Ho  Ho1  1  0.192125  0.808408  0.808508  1
  Ho  Ho2  1  0.192125  0.808408  0.190958  1
  Ho  Ho3  1  0.808408  0.192125  0.808508  1
  Ho  Ho4  1  0.187772  0.187772  0.812228  1
  Ho  Ho5  1  0.804918  0.804918  0.195082  1
  Ho  Ho6  1  0.930575  0.565252  0.565966  1
  Ho  Ho7  1  0.565252  0.930575  0.938207  1
  Ho  Ho8  1  0.565252  0.930575  0.565966  1
  Ho  Ho9  1  0.930575  0.565252  0.938207  1
  Ho  Ho10  1  0.565745  0.565745  0.934255  1
  Ho  Ho11  1  0.935852  0.935852  0.564148  1
  Ho  Ho12  1  0.350610  0.350610  0.348712  1
  Ho  Ho13  1  0.350610  0.350610  0.950067  1
  Ho  Ho14  1  0.355466  0.942585  0.350975  1
  Ho  Ho15  1  0.942585  0.355466  0.350975  1
  Mg  Mg16  1  0.580009  0.268831  0.575581  1
  Mg  Mg17  1  0.268831  0.580009  0.575581  1
  Al  Al18  1  0.583363  0.583363  0.575593  1
  Al  Al19  1  0.583363  0.583363  0.257680  1
  Pt  Pt20  1  0.141864  0.141864  0.145100  1
  Pt  Pt21  1  0.141864  0.141864  0.571172  1
  Pt  Pt22  1  0.140935  0.573490  0.142787  1
  Pt  Pt23  1  0.573490  0.140935  0.142787  1
