# generated using pymatgen
data_CsSrH9W
_symmetry_space_group_name_H-M   'P 1'
_cell_length_a   9.46927500
_cell_length_b   9.46927464
_cell_length_c   5.83185700
_cell_angle_alpha   90.00000000
_cell_angle_beta   90.00000000
_cell_angle_gamma   120.00000475
_symmetry_Int_Tables_number   1
_chemical_formula_structural   CsSrH9W
_chemical_formula_sum   'Cs3 Sr3 H27 W3'
_cell_volume   452.86725431
_cell_formula_units_Z   3
loop_
 _symmetry_equiv_pos_site_id
 _symmetry_equiv_pos_as_xyz
  1  'x, y, z'
loop_
 _atom_site_type_symbol
 _atom_site_label
 _atom_site_symmetry_multiplicity
 _atom_site_fract_x
 _atom_site_fract_y
 _atom_site_fract_z
 _atom_site_occupancy
  Cs  Cs0  1  0.000000  0.586989  0.000000  1
  Cs  Cs1  1  0.413011  0.413011  0.000000  1
  Cs  Cs2  1  0.586989  0.000000  0.000000  1
  Sr  Sr3  1  0.000000  0.276155  0.500000  1
  Sr  Sr4  1  0.723845  0.723845  0.500000  1
  Sr  Sr5  1  0.276155  0.000000  0.500000  1
  H  H6  1  0.783292  0.305312  0.717132  1
  H  H7  1  0.694688  0.477980  0.717132  1
  H  H8  1  0.522020  0.216708  0.717132  1
  H  H9  1  0.216708  0.522020  0.282868  1
  H  H10  1  0.522020  0.216708  0.282868  1
  H  H11  1  0.783292  0.305312  0.282868  1
  H  H12  1  0.694688  0.477980  0.282868  1
  H  H13  1  0.305312  0.783292  0.717132  1
  H  H14  1  0.477980  0.694688  0.717132  1
  H  H15  1  0.185512  0.000000  0.000000  1
  H  H16  1  0.814488  0.814488  0.000000  1
  H  H17  1  0.000000  0.185512  0.000000  1
  H  H18  1  0.869707  0.000000  0.225314  1
  H  H19  1  0.130293  0.130293  0.774686  1
  H  H20  1  0.000000  0.869707  0.774686  1
  H  H21  1  0.000000  0.869707  0.225314  1
  H  H22  1  0.130293  0.130293  0.225314  1
  H  H23  1  0.869707  0.000000  0.774686  1
  H  H24  1  0.132798  0.629516  0.500000  1
  H  H25  1  0.496719  0.867202  0.500000  1
  H  H26  1  0.370484  0.503281  0.500000  1
  H  H27  1  0.503281  0.370484  0.500000  1
  H  H28  1  0.867202  0.496719  0.500000  1
  H  H29  1  0.629516  0.132798  0.500000  1
  H  H30  1  0.216708  0.522020  0.717132  1
  H  H31  1  0.305312  0.783292  0.282868  1
  H  H32  1  0.477980  0.694688  0.282868  1
  W  W33  1  0.666667  0.333333  0.500000  1
  W  W34  1  0.333333  0.666667  0.500000  1
  W  W35  1  0.000000  0.000000  0.000000  1
