# generated using pymatgen
data_Th10Sn5Ge2Bi
_symmetry_space_group_name_H-M   'P 1'
_cell_length_a   9.63323030
_cell_length_b   9.63322966
_cell_length_c   6.54909300
_cell_angle_alpha   90.00000000
_cell_angle_beta   90.00000000
_cell_angle_gamma   120.14106554
_symmetry_Int_Tables_number   1
_chemical_formula_structural   Th10Sn5Ge2Bi
_chemical_formula_sum   'Th10 Sn5 Ge2 Bi1'
_cell_volume   525.57724387
_cell_formula_units_Z   1
loop_
 _symmetry_equiv_pos_site_id
 _symmetry_equiv_pos_as_xyz
  1  'x, y, z'
loop_
 _atom_site_type_symbol
 _atom_site_label
 _atom_site_symmetry_multiplicity
 _atom_site_fract_x
 _atom_site_fract_y
 _atom_site_fract_z
 _atom_site_occupancy
  Th  Th0  1  0.003102  0.737811  0.750000  1
  Th  Th1  1  0.261857  0.261857  0.750000  1
  Th  Th2  1  0.331245  0.667146  0.498635  1
  Th  Th3  1  0.667146  0.331245  0.498635  1
  Th  Th4  1  0.737932  0.737932  0.250000  1
  Th  Th5  1  0.737811  0.003102  0.750000  1
  Th  Th6  1  0.999931  0.263492  0.250000  1
  Th  Th7  1  0.263492  0.999931  0.250000  1
  Th  Th8  1  0.331245  0.667146  0.001365  1
  Th  Th9  1  0.667146  0.331245  0.001365  1
  Sn  Sn10  1  0.000260  0.386773  0.750000  1
  Sn  Sn11  1  0.386773  0.000260  0.750000  1
  Sn  Sn12  1  0.613447  0.999911  0.250000  1
  Sn  Sn13  1  0.386202  0.386202  0.250000  1
  Sn  Sn14  1  0.999911  0.613447  0.250000  1
  Ge  Ge15  1  0.999857  0.999857  0.999846  1
  Ge  Ge16  1  0.999857  0.999857  0.500154  1
  Bi  Bi17  1  0.612787  0.612787  0.750000  1
