# generated using pymatgen
data_HoEr4Bi3
_symmetry_space_group_name_H-M   'P 1'
_cell_length_a   8.20583300
_cell_length_b   9.48031400
_cell_length_c   11.96085400
_cell_angle_alpha   90.00000000
_cell_angle_beta   90.00000000
_cell_angle_gamma   90.00000000
_symmetry_Int_Tables_number   1
_chemical_formula_structural   HoEr4Bi3
_chemical_formula_sum   'Ho4 Er16 Bi12'
_cell_volume   930.48116269
_cell_formula_units_Z   4
loop_
 _symmetry_equiv_pos_site_id
 _symmetry_equiv_pos_as_xyz
  1  'x, y, z'
loop_
 _atom_site_type_symbol
 _atom_site_label
 _atom_site_symmetry_multiplicity
 _atom_site_fract_x
 _atom_site_fract_y
 _atom_site_fract_z
 _atom_site_occupancy
  Ho  Ho0  1  0.314411  0.250000  0.218090  1
  Ho  Ho1  1  0.814411  0.250000  0.281910  1
  Ho  Ho2  1  0.685589  0.750000  0.781910  1
  Ho  Ho3  1  0.185589  0.750000  0.718090  1
  Er  Er4  1  0.353715  0.750000  0.216446  1
  Er  Er5  1  0.853715  0.750000  0.283554  1
  Er  Er6  1  0.646285  0.250000  0.783554  1
  Er  Er7  1  0.146285  0.250000  0.716446  1
  Er  Er8  1  0.692099  0.564485  0.059077  1
  Er  Er9  1  0.192099  0.935515  0.440923  1
  Er  Er10  1  0.307901  0.064485  0.940923  1
  Er  Er11  1  0.807901  0.435515  0.559077  1
  Er  Er12  1  0.307901  0.435515  0.940923  1
  Er  Er13  1  0.807901  0.064485  0.559077  1
  Er  Er14  1  0.692099  0.935515  0.059077  1
  Er  Er15  1  0.192099  0.564485  0.440923  1
  Er  Er16  1  0.476758  0.250000  0.489095  1
  Er  Er17  1  0.976758  0.250000  0.010905  1
  Er  Er18  1  0.523242  0.750000  0.510905  1
  Er  Er19  1  0.023242  0.750000  0.989095  1
  Bi  Bi20  1  0.405242  0.750000  0.957683  1
  Bi  Bi21  1  0.905242  0.750000  0.542317  1
  Bi  Bi22  1  0.594758  0.250000  0.042317  1
  Bi  Bi23  1  0.094758  0.250000  0.457683  1
  Bi  Bi24  1  0.566003  0.996051  0.325776  1
  Bi  Bi25  1  0.066003  0.503949  0.174224  1
  Bi  Bi26  1  0.433997  0.496051  0.674224  1
  Bi  Bi27  1  0.933997  0.003949  0.825776  1
  Bi  Bi28  1  0.433997  0.003949  0.674224  1
  Bi  Bi29  1  0.933997  0.496051  0.825776  1
  Bi  Bi30  1  0.566003  0.503949  0.325776  1
  Bi  Bi31  1  0.066003  0.996051  0.174224  1
