# generated using pymatgen
data_TbHo3Cd3Co2
_symmetry_space_group_name_H-M   'P 1'
_cell_length_a   3.68034700
_cell_length_b   7.32748250
_cell_length_c   7.93561305
_cell_angle_alpha   71.41437313
_cell_angle_beta   90.00000000
_cell_angle_gamma   90.00000000
_symmetry_Int_Tables_number   1
_chemical_formula_structural   TbHo3Cd3Co2
_chemical_formula_sum   'Tb1 Ho3 Cd3 Co2'
_cell_volume   202.84435154
_cell_formula_units_Z   1
loop_
 _symmetry_equiv_pos_site_id
 _symmetry_equiv_pos_as_xyz
  1  'x, y, z'
loop_
 _atom_site_type_symbol
 _atom_site_label
 _atom_site_symmetry_multiplicity
 _atom_site_fract_x
 _atom_site_fract_y
 _atom_site_fract_z
 _atom_site_occupancy
  Tb  Tb0  1  0.500000  0.603642  0.189619  1
  Ho  Ho1  1  0.500000  0.094446  0.275861  1
  Ho  Ho2  1  0.500000  0.396920  0.811585  1
  Ho  Ho3  1  0.500000  0.905783  0.723485  1
  Cd  Cd4  1  0.000000  0.706471  0.503280  1
  Cd  Cd5  1  0.000000  0.000526  0.999492  1
  Cd  Cd6  1  0.000000  0.293196  0.498521  1
  Co  Co7  1  0.000000  0.649575  0.895965  1
  Co  Co8  1  0.000000  0.349441  0.102193  1
