# generated using pymatgen
data_Cs6CeLuF12
_symmetry_space_group_name_H-M   'P 1'
_cell_length_a   7.06774806
_cell_length_b   6.82380759
_cell_length_c   11.87201700
_cell_angle_alpha   55.29064382
_cell_angle_beta   90.14636578
_cell_angle_gamma   89.91618653
_symmetry_Int_Tables_number   1
_chemical_formula_structural   Cs6CeLuF12
_chemical_formula_sum   'Cs6 Ce1 Lu1 F12'
_cell_volume   470.68134857
_cell_formula_units_Z   1
loop_
 _symmetry_equiv_pos_site_id
 _symmetry_equiv_pos_as_xyz
  1  'x, y, z'
loop_
 _atom_site_type_symbol
 _atom_site_label
 _atom_site_symmetry_multiplicity
 _atom_site_fract_x
 _atom_site_fract_y
 _atom_site_fract_z
 _atom_site_occupancy
  Cs  Cs0  1  0.500000  0.500000  0.000000  1
  Cs  Cs1  1  0.000000  0.500000  0.500000  1
  Cs  Cs2  1  0.047340  0.726687  0.760266  1
  Cs  Cs3  1  0.952660  0.273313  0.239734  1
  Cs  Cs4  1  0.549831  0.260242  0.754433  1
  Cs  Cs5  1  0.450169  0.739758  0.245567  1
  Ce  Ce6  1  0.500000  0.000000  0.500000  1
  Lu  Lu7  1  0.000000  0.000000  0.000000  1
  F  F8  1  0.767825  0.767218  0.570065  1
  F  F9  1  0.232175  0.232782  0.429935  1
  F  F10  1  0.247719  0.216784  0.940818  1
  F  F11  1  0.752281  0.783216  0.059182  1
  F  F12  1  0.446872  0.887322  0.720117  1
  F  F13  1  0.553128  0.112678  0.279883  1
  F  F14  1  0.952733  0.106365  0.795011  1
  F  F15  1  0.047267  0.893635  0.204989  1
  F  F16  1  0.329560  0.675751  0.549140  1
  F  F17  1  0.670440  0.324249  0.450860  1
  F  F18  1  0.833439  0.295293  0.958263  1
  F  F19  1  0.166561  0.704707  0.041737  1
