# generated using pymatgen
data_Hf4CrRe7
_symmetry_space_group_name_H-M   'P 1'
_cell_length_a   5.29511200
_cell_length_b   5.22291014
_cell_length_c   8.59042600
_cell_angle_alpha   90.00000000
_cell_angle_beta   90.00000000
_cell_angle_gamma   120.45835986
_symmetry_Int_Tables_number   1
_chemical_formula_structural   Hf4CrRe7
_chemical_formula_sum   'Hf4 Cr1 Re7'
_cell_volume   204.78991138
_cell_formula_units_Z   1
loop_
 _symmetry_equiv_pos_site_id
 _symmetry_equiv_pos_as_xyz
  1  'x, y, z'
loop_
 _atom_site_type_symbol
 _atom_site_label
 _atom_site_symmetry_multiplicity
 _atom_site_fract_x
 _atom_site_fract_y
 _atom_site_fract_z
 _atom_site_occupancy
  Hf  Hf0  1  0.333004  0.666010  0.064559  1
  Hf  Hf1  1  0.668299  0.336597  0.561580  1
  Hf  Hf2  1  0.668299  0.336597  0.938420  1
  Hf  Hf3  1  0.333004  0.666010  0.435441  1
  Cr  Cr4  1  0.829472  0.658946  0.250000  1
  Re  Re5  1  0.997214  0.994426  0.005555  1
  Re  Re6  1  0.997214  0.994426  0.494445  1
  Re  Re7  1  0.171984  0.828415  0.750000  1
  Re  Re8  1  0.656431  0.828415  0.750000  1
  Re  Re9  1  0.347182  0.175463  0.250000  1
  Re  Re10  1  0.828279  0.175463  0.250000  1
  Re  Re11  1  0.169617  0.339232  0.750000  1
