# generated using pymatgen
data_Lu6Sc4Si5Bi
_symmetry_space_group_name_H-M   'P 1'
_cell_length_a   8.24919000
_cell_length_b   8.26563686
_cell_length_c   5.98123600
_cell_angle_alpha   90.00000000
_cell_angle_beta   90.00000000
_cell_angle_gamma   119.93420018
_symmetry_Int_Tables_number   1
_chemical_formula_structural   Lu6Sc4Si5Bi
_chemical_formula_sum   'Lu6 Sc4 Si5 Bi1'
_cell_volume   353.42459742
_cell_formula_units_Z   1
loop_
 _symmetry_equiv_pos_site_id
 _symmetry_equiv_pos_as_xyz
  1  'x, y, z'
loop_
 _atom_site_type_symbol
 _atom_site_label
 _atom_site_symmetry_multiplicity
 _atom_site_fract_x
 _atom_site_fract_y
 _atom_site_fract_z
 _atom_site_occupancy
  Lu  Lu0  1  0.768447  0.000000  0.750000  1
  Lu  Lu1  1  0.754199  0.755611  0.250000  1
  Lu  Lu2  1  0.998587  0.244389  0.250000  1
  Lu  Lu3  1  0.984228  0.744133  0.750000  1
  Lu  Lu4  1  0.240095  0.255867  0.750000  1
  Lu  Lu5  1  0.239471  0.000000  0.250000  1
  Sc  Sc6  1  0.677056  0.346514  0.005645  1
  Sc  Sc7  1  0.330541  0.653486  0.494355  1
  Sc  Sc8  1  0.330541  0.653486  0.005645  1
  Sc  Sc9  1  0.677056  0.346514  0.494355  1
  Si  Si10  1  0.396319  0.393715  0.250000  1
  Si  Si11  1  0.002603  0.606285  0.250000  1
  Si  Si12  1  0.998181  0.397480  0.750000  1
  Si  Si13  1  0.600701  0.602520  0.750000  1
  Si  Si14  1  0.604902  0.000000  0.250000  1
  Bi  Bi15  1  0.397073  0.000000  0.750000  1
