# generated using pymatgen
data_ErTh(SiNi4)2
_symmetry_space_group_name_H-M   'P 1'
_cell_length_a   3.98400600
_cell_length_b   5.10608200
_cell_length_c   8.18164600
_cell_angle_alpha   90.00000000
_cell_angle_beta   90.00000000
_cell_angle_gamma   90.00000000
_symmetry_Int_Tables_number   1
_chemical_formula_structural   ErTh(SiNi4)2
_chemical_formula_sum   'Er1 Th1 Si2 Ni8'
_cell_volume   166.43645365
_cell_formula_units_Z   1
loop_
 _symmetry_equiv_pos_site_id
 _symmetry_equiv_pos_as_xyz
  1  'x, y, z'
loop_
 _atom_site_type_symbol
 _atom_site_label
 _atom_site_symmetry_multiplicity
 _atom_site_fract_x
 _atom_site_fract_y
 _atom_site_fract_z
 _atom_site_occupancy
  Er  Er0  1  0.000000  0.500000  0.500000  1
  Th  Th1  1  0.000000  0.000000  0.000000  1
  Si  Si2  1  0.500000  0.000000  0.500000  1
  Si  Si3  1  0.500000  0.500000  0.000000  1
  Ni  Ni4  1  0.000000  0.000000  0.342840  1
  Ni  Ni5  1  0.000000  0.500000  0.839457  1
  Ni  Ni6  1  0.000000  0.500000  0.160543  1
  Ni  Ni7  1  0.000000  0.000000  0.657160  1
  Ni  Ni8  1  0.500000  0.250941  0.252481  1
  Ni  Ni9  1  0.500000  0.749059  0.747519  1
  Ni  Ni10  1  0.500000  0.749059  0.252481  1
  Ni  Ni11  1  0.500000  0.250941  0.747519  1
