# generated using pymatgen
data_Dy20Bi7Rh4Pb
_symmetry_space_group_name_H-M   'P 1'
_cell_length_a   8.01108148
_cell_length_b   9.00709450
_cell_length_c   12.43790443
_cell_angle_alpha   90.03827242
_cell_angle_beta   90.03946717
_cell_angle_gamma   89.99890359
_symmetry_Int_Tables_number   1
_chemical_formula_structural   Dy20Bi7Rh4Pb
_chemical_formula_sum   'Dy20 Bi7 Rh4 Pb1'
_cell_volume   897.47608258
_cell_formula_units_Z   1
loop_
 _symmetry_equiv_pos_site_id
 _symmetry_equiv_pos_as_xyz
  1  'x, y, z'
loop_
 _atom_site_type_symbol
 _atom_site_label
 _atom_site_symmetry_multiplicity
 _atom_site_fract_x
 _atom_site_fract_y
 _atom_site_fract_z
 _atom_site_occupancy
  Dy  Dy0  1  0.839155  0.748098  0.792364  1
  Dy  Dy1  1  0.159213  0.250140  0.206527  1
  Dy  Dy2  1  0.342456  0.251727  0.707970  1
  Dy  Dy3  1  0.658667  0.750349  0.293175  1
  Dy  Dy4  1  0.377921  0.748136  0.695150  1
  Dy  Dy5  1  0.624108  0.250128  0.305790  1
  Dy  Dy6  1  0.872367  0.251630  0.805583  1
  Dy  Dy7  1  0.124612  0.749885  0.194515  1
  Dy  Dy8  1  0.952140  0.750388  0.501368  1
  Dy  Dy9  1  0.049214  0.249762  0.498599  1
  Dy  Dy10  1  0.452965  0.252362  0.996960  1
  Dy  Dy11  1  0.549110  0.747787  0.000438  1
  Dy  Dy12  1  0.678499  0.042542  0.566013  1
  Dy  Dy13  1  0.322305  0.957444  0.434167  1
  Dy  Dy14  1  0.177295  0.958139  0.934061  1
  Dy  Dy15  1  0.322173  0.541773  0.433995  1
  Dy  Dy16  1  0.821850  0.041537  0.065793  1
  Dy  Dy17  1  0.676455  0.458262  0.568537  1
  Dy  Dy18  1  0.821584  0.457809  0.064636  1
  Dy  Dy19  1  0.179719  0.541583  0.933820  1
  Bi  Bi20  1  0.430162  0.508902  0.173628  1
  Bi  Bi21  1  0.069994  0.508671  0.672659  1
  Bi  Bi22  1  0.430326  0.991543  0.172348  1
  Bi  Bi23  1  0.930396  0.491236  0.327185  1
  Bi  Bi24  1  0.569142  0.008056  0.827125  1
  Bi  Bi25  1  0.930639  0.008934  0.326633  1
  Bi  Bi26  1  0.069357  0.991552  0.673752  1
  Rh  Rh27  1  0.572399  0.749994  0.510251  1
  Rh  Rh28  1  0.427765  0.249565  0.489549  1
  Rh  Rh29  1  0.070168  0.249676  0.989657  1
  Rh  Rh30  1  0.928359  0.750115  0.010462  1
  Pb  Pb31  1  0.569484  0.492276  0.827293  1
