# generated using pymatgen
data_Tb5ErU2(InPt2)4
_symmetry_space_group_name_H-M   'P 1'
_cell_length_a   7.82946986
_cell_length_b   7.77567952
_cell_length_c   7.35720300
_cell_angle_alpha   90.00000000
_cell_angle_beta   90.00000000
_cell_angle_gamma   90.01724400
_symmetry_Int_Tables_number   1
_chemical_formula_structural   Tb5ErU2(InPt2)4
_chemical_formula_sum   'Tb5 Er1 U2 In4 Pt8'
_cell_volume   447.90243998
_cell_formula_units_Z   1
loop_
 _symmetry_equiv_pos_site_id
 _symmetry_equiv_pos_as_xyz
  1  'x, y, z'
loop_
 _atom_site_type_symbol
 _atom_site_label
 _atom_site_symmetry_multiplicity
 _atom_site_fract_x
 _atom_site_fract_y
 _atom_site_fract_z
 _atom_site_occupancy
  Tb  Tb0  1  0.179883  0.175392  0.000000  1
  Tb  Tb1  1  0.831991  0.838955  0.500000  1
  Tb  Tb2  1  0.160822  0.165902  0.500000  1
  Tb  Tb3  1  0.332615  0.660314  0.000000  1
  Tb  Tb4  1  0.661983  0.333700  0.000000  1
  Er  Er5  1  0.679929  0.326555  0.500000  1
  U  U6  1  0.327191  0.674441  0.500000  1
  U  U7  1  0.826827  0.826125  0.000000  1
  In  In8  1  0.497884  0.002378  0.251012  1
  In  In9  1  0.996990  0.497789  0.749034  1
  In  In10  1  0.497884  0.002378  0.748988  1
  In  In11  1  0.996990  0.497789  0.250966  1
  Pt  Pt12  1  0.870633  0.122098  0.232797  1
  Pt  Pt13  1  0.130126  0.859167  0.245136  1
  Pt  Pt14  1  0.373108  0.378102  0.728362  1
  Pt  Pt15  1  0.630638  0.639774  0.744455  1
  Pt  Pt16  1  0.130126  0.859167  0.754864  1
  Pt  Pt17  1  0.870633  0.122098  0.767203  1
  Pt  Pt18  1  0.630638  0.639774  0.255545  1
  Pt  Pt19  1  0.373108  0.378102  0.271638  1
