# generated using pymatgen
data_Gd2CdSi2
_symmetry_space_group_name_H-M   'P 1'
_cell_length_a   7.23567000
_cell_length_b   7.23567000
_cell_length_c   4.27553200
_cell_angle_alpha   90.00000000
_cell_angle_beta   90.00000000
_cell_angle_gamma   90.00000000
_symmetry_Int_Tables_number   1
_chemical_formula_structural   Gd2CdSi2
_chemical_formula_sum   'Gd4 Cd2 Si4'
_cell_volume   223.84513731
_cell_formula_units_Z   2
loop_
 _symmetry_equiv_pos_site_id
 _symmetry_equiv_pos_as_xyz
  1  'x, y, z'
loop_
 _atom_site_type_symbol
 _atom_site_label
 _atom_site_symmetry_multiplicity
 _atom_site_fract_x
 _atom_site_fract_y
 _atom_site_fract_z
 _atom_site_occupancy
  Gd  Gd0  1  0.322584  0.177415  0.499999  1
  Gd  Gd1  1  0.822584  0.322584  0.499999  1
  Gd  Gd2  1  0.177415  0.677415  0.499999  1
  Gd  Gd3  1  0.677415  0.822584  0.499999  1
  Cd  Cd4  1  0.000000  0.000000  0.000000  1
  Cd  Cd5  1  0.500000  0.500000  0.000000  1
  Si  Si6  1  0.616691  0.116691  0.000000  1
  Si  Si7  1  0.116691  0.383309  0.000000  1
  Si  Si8  1  0.883308  0.616691  0.000000  1
  Si  Si9  1  0.383309  0.883308  0.000000  1
