# generated using pymatgen
data_Er4MnB12Ir
_symmetry_space_group_name_H-M   'P 1'
_cell_length_a   3.59054200
_cell_length_b   9.07534927
_cell_length_c   11.44143073
_cell_angle_alpha   90.10425854
_cell_angle_beta   90.00000000
_cell_angle_gamma   90.00000000
_symmetry_Int_Tables_number   1
_chemical_formula_structural   Er4MnB12Ir
_chemical_formula_sum   'Er8 Mn2 B24 Ir2'
_cell_volume   372.82323957
_cell_formula_units_Z   2
loop_
 _symmetry_equiv_pos_site_id
 _symmetry_equiv_pos_as_xyz
  1  'x, y, z'
loop_
 _atom_site_type_symbol
 _atom_site_label
 _atom_site_symmetry_multiplicity
 _atom_site_fract_x
 _atom_site_fract_y
 _atom_site_fract_z
 _atom_site_occupancy
  Er  Er0  1  0.500000  0.316784  0.409720  1
  Er  Er1  1  0.500000  0.683216  0.590280  1
  Er  Er2  1  0.500000  0.172251  0.918339  1
  Er  Er3  1  0.500000  0.827749  0.081661  1
  Er  Er4  1  0.500000  0.439259  0.125535  1
  Er  Er5  1  0.500000  0.560741  0.874465  1
  Er  Er6  1  0.500000  0.051433  0.629652  1
  Er  Er7  1  0.500000  0.948567  0.370348  1
  Mn  Mn8  1  0.500000  0.139384  0.180376  1
  Mn  Mn9  1  0.500000  0.860616  0.819624  1
  B  B10  1  0.000000  0.108734  0.470428  1
  B  B11  1  0.000000  0.891266  0.529572  1
  B  B12  1  0.000000  0.389850  0.969542  1
  B  B13  1  0.000000  0.610150  0.030458  1
  B  B14  1  0.000000  0.132509  0.313195  1
  B  B15  1  0.000000  0.867491  0.686805  1
  B  B16  1  0.000000  0.367719  0.816994  1
  B  B17  1  0.000000  0.632281  0.183006  1
  B  B18  1  0.000000  0.053926  0.067803  1
  B  B19  1  0.000000  0.946074  0.932197  1
  B  B20  1  0.000000  0.446385  0.566128  1
  B  B21  1  0.000000  0.553615  0.433872  1
  B  B22  1  0.000000  0.481748  0.286550  1
  B  B23  1  0.000000  0.518252  0.713450  1
  B  B24  1  0.000000  0.014182  0.788385  1
  B  B25  1  0.000000  0.985818  0.211615  1
  B  B26  1  0.000000  0.245621  0.081326  1
  B  B27  1  0.000000  0.754379  0.918674  1
  B  B28  1  0.000000  0.249408  0.578859  1
  B  B29  1  0.000000  0.750592  0.421141  1
  B  B30  1  0.000000  0.290484  0.232966  1
  B  B31  1  0.000000  0.709516  0.767034  1
  B  B32  1  0.000000  0.207225  0.734640  1
  B  B33  1  0.000000  0.792775  0.265360  1
  Ir  Ir34  1  0.500000  0.361702  0.678377  1
  Ir  Ir35  1  0.500000  0.638298  0.321623  1
