# generated using pymatgen
data_Ce2TcB8W
_symmetry_space_group_name_H-M   'P 1'
_cell_length_a   6.03420804
_cell_length_b   11.67932414
_cell_length_c   3.68624000
_cell_angle_alpha   90.00000000
_cell_angle_beta   90.00000000
_cell_angle_gamma   89.91041351
_symmetry_Int_Tables_number   1
_chemical_formula_structural   Ce2TcB8W
_chemical_formula_sum   'Ce4 Tc2 B16 W2'
_cell_volume   259.78918509
_cell_formula_units_Z   2
loop_
 _symmetry_equiv_pos_site_id
 _symmetry_equiv_pos_as_xyz
  1  'x, y, z'
loop_
 _atom_site_type_symbol
 _atom_site_label
 _atom_site_symmetry_multiplicity
 _atom_site_fract_x
 _atom_site_fract_y
 _atom_site_fract_z
 _atom_site_occupancy
  Ce  Ce0  1  0.626044  0.346013  0.000000  1
  Ce  Ce1  1  0.373956  0.653987  0.000000  1
  Ce  Ce2  1  0.126803  0.147241  0.000000  1
  Ce  Ce3  1  0.873197  0.852759  0.000000  1
  Tc  Tc4  1  0.636898  0.090550  0.000000  1
  Tc  Tc5  1  0.363102  0.909450  0.000000  1
  B  B6  1  0.785212  0.183808  0.500000  1
  B  B7  1  0.214788  0.816192  0.500000  1
  B  B8  1  0.286402  0.313539  0.500000  1
  B  B9  1  0.713598  0.686461  0.500000  1
  B  B10  1  0.861815  0.031505  0.500000  1
  B  B11  1  0.138185  0.968495  0.500000  1
  B  B12  1  0.364733  0.467895  0.500000  1
  B  B13  1  0.635267  0.532105  0.500000  1
  B  B14  1  0.886135  0.453306  0.500000  1
  B  B15  1  0.113865  0.546694  0.500000  1
  B  B16  1  0.388313  0.045797  0.500000  1
  B  B17  1  0.611687  0.954203  0.500000  1
  B  B18  1  0.975828  0.307624  0.500000  1
  B  B19  1  0.024172  0.692376  0.500000  1
  B  B20  1  0.475489  0.189717  0.500000  1
  B  B21  1  0.524511  0.810283  0.500000  1
  W  W22  1  0.130245  0.413552  0.000000  1
  W  W23  1  0.869755  0.586448  0.000000  1
