# generated using pymatgen
data_Ac3CeCdOs
_symmetry_space_group_name_H-M   'P 1'
_cell_length_a   10.37030065
_cell_length_b   10.37029967
_cell_length_c   10.37030100
_cell_angle_alpha   59.99999895
_cell_angle_beta   60.00000209
_cell_angle_gamma   59.99999825
_symmetry_Int_Tables_number   1
_chemical_formula_structural   Ac3CeCdOs
_chemical_formula_sum   'Ac12 Ce4 Cd4 Os4'
_cell_volume   788.60407299
_cell_formula_units_Z   4
loop_
 _symmetry_equiv_pos_site_id
 _symmetry_equiv_pos_as_xyz
  1  'x, y, z'
loop_
 _atom_site_type_symbol
 _atom_site_label
 _atom_site_symmetry_multiplicity
 _atom_site_fract_x
 _atom_site_fract_y
 _atom_site_fract_z
 _atom_site_occupancy
  Ac  Ac0  1  0.554032  0.554032  0.945968  1
  Ac  Ac1  1  0.945968  0.554032  0.945968  1
  Ac  Ac2  1  0.554032  0.945968  0.945968  1
  Ac  Ac3  1  0.945968  0.945968  0.554032  1
  Ac  Ac4  1  0.554032  0.945968  0.554032  1
  Ac  Ac5  1  0.945968  0.554032  0.554032  1
  Ac  Ac6  1  0.194488  0.194488  0.805512  1
  Ac  Ac7  1  0.805512  0.194488  0.805512  1
  Ac  Ac8  1  0.194487  0.805513  0.805512  1
  Ac  Ac9  1  0.805512  0.805513  0.194488  1
  Ac  Ac10  1  0.194487  0.805512  0.194487  1
  Ac  Ac11  1  0.805512  0.194488  0.194488  1
  Ce  Ce12  1  0.338327  0.338327  0.985020  1
  Ce  Ce13  1  0.338327  0.985020  0.338327  1
  Ce  Ce14  1  0.985020  0.338327  0.338327  1
  Ce  Ce15  1  0.338327  0.338327  0.338327  1
  Cd  Cd16  1  0.576795  0.576795  0.269616  1
  Cd  Cd17  1  0.576795  0.269616  0.576795  1
  Cd  Cd18  1  0.269616  0.576795  0.576795  1
  Cd  Cd19  1  0.576795  0.576795  0.576795  1
  Os  Os20  1  0.146692  0.146692  0.559925  1
  Os  Os21  1  0.146692  0.559925  0.146692  1
  Os  Os22  1  0.559925  0.146692  0.146692  1
  Os  Os23  1  0.146692  0.146692  0.146692  1
