# generated using pymatgen
data_Dy2ReB8W
_symmetry_space_group_name_H-M   'P 1'
_cell_length_a   3.62070700
_cell_length_b   6.00641946
_cell_length_c   11.62137890
_cell_angle_alpha   90.04497062
_cell_angle_beta   90.00000000
_cell_angle_gamma   90.00000000
_symmetry_Int_Tables_number   1
_chemical_formula_structural   Dy2ReB8W
_chemical_formula_sum   'Dy4 Re2 B16 W2'
_cell_volume   252.73568527
_cell_formula_units_Z   2
loop_
 _symmetry_equiv_pos_site_id
 _symmetry_equiv_pos_as_xyz
  1  'x, y, z'
loop_
 _atom_site_type_symbol
 _atom_site_label
 _atom_site_symmetry_multiplicity
 _atom_site_fract_x
 _atom_site_fract_y
 _atom_site_fract_z
 _atom_site_occupancy
  Dy  Dy0  1  0.000000  0.627704  0.350884  1
  Dy  Dy1  1  0.000000  0.372296  0.649116  1
  Dy  Dy2  1  0.000000  0.126751  0.150851  1
  Dy  Dy3  1  0.000000  0.873249  0.849149  1
  Re  Re4  1  0.000000  0.134188  0.413000  1
  Re  Re5  1  0.000000  0.865812  0.587000  1
  B  B6  1  0.500000  0.789465  0.186868  1
  B  B7  1  0.500000  0.210535  0.813132  1
  B  B8  1  0.500000  0.285145  0.315725  1
  B  B9  1  0.500000  0.714855  0.684275  1
  B  B10  1  0.500000  0.866902  0.032444  1
  B  B11  1  0.500000  0.133098  0.967556  1
  B  B12  1  0.500000  0.363090  0.469198  1
  B  B13  1  0.500000  0.636910  0.530802  1
  B  B14  1  0.500000  0.886840  0.452882  1
  B  B15  1  0.500000  0.113160  0.547118  1
  B  B16  1  0.500000  0.385210  0.047452  1
  B  B17  1  0.500000  0.614790  0.952548  1
  B  B18  1  0.500000  0.977100  0.308795  1
  B  B19  1  0.500000  0.022900  0.691205  1
  B  B20  1  0.500000  0.475813  0.194138  1
  B  B21  1  0.500000  0.524187  0.805862  1
  W  W22  1  0.000000  0.630248  0.085519  1
  W  W23  1  0.000000  0.369752  0.914481  1
