# generated using pymatgen
data_Be3TlVF9
_symmetry_space_group_name_H-M   'P 1'
_cell_length_a   6.83783900
_cell_length_b   6.83783851
_cell_length_c   9.94466000
_cell_angle_alpha   90.00000000
_cell_angle_beta   90.00000000
_cell_angle_gamma   119.99999755
_symmetry_Int_Tables_number   1
_chemical_formula_structural   Be3TlVF9
_chemical_formula_sum   'Be6 Tl2 V2 F18'
_cell_volume   402.67836119
_cell_formula_units_Z   2
loop_
 _symmetry_equiv_pos_site_id
 _symmetry_equiv_pos_as_xyz
  1  'x, y, z'
loop_
 _atom_site_type_symbol
 _atom_site_label
 _atom_site_symmetry_multiplicity
 _atom_site_fract_x
 _atom_site_fract_y
 _atom_site_fract_z
 _atom_site_occupancy
  Be  Be0  1  0.876936  0.271504  0.250000  1
  Be  Be1  1  0.876936  0.605432  0.750000  1
  Be  Be2  1  0.394568  0.271504  0.750000  1
  Be  Be3  1  0.728496  0.123064  0.750000  1
  Be  Be4  1  0.728496  0.605432  0.250000  1
  Be  Be5  1  0.394568  0.123064  0.250000  1
  Tl  Tl6  1  0.333333  0.666667  0.500000  1
  Tl  Tl7  1  0.333333  0.666667  0.000000  1
  V  V8  1  0.000000  0.000000  0.500000  1
  V  V9  1  0.000000  0.000000  0.000000  1
  F  F10  1  0.749543  0.008022  0.621561  1
  F  F11  1  0.258479  0.250457  0.621561  1
  F  F12  1  0.991978  0.741521  0.621561  1
  F  F13  1  0.991978  0.250457  0.378439  1
  F  F14  1  0.903811  0.517617  0.250000  1
  F  F15  1  0.613806  0.096189  0.250000  1
  F  F16  1  0.482383  0.386194  0.250000  1
  F  F17  1  0.482383  0.096189  0.750000  1
  F  F18  1  0.613806  0.517617  0.750000  1
  F  F19  1  0.903811  0.386194  0.750000  1
  F  F20  1  0.991978  0.250457  0.121561  1
  F  F21  1  0.258479  0.008022  0.378439  1
  F  F22  1  0.749543  0.741521  0.378439  1
  F  F23  1  0.749543  0.741521  0.121561  1
  F  F24  1  0.258479  0.008022  0.121561  1
  F  F25  1  0.749543  0.008022  0.878439  1
  F  F26  1  0.258479  0.250457  0.878439  1
  F  F27  1  0.991978  0.741521  0.878439  1
