# generated using pymatgen
data_Ho2ErLu(Co3Si5)2
_symmetry_space_group_name_H-M   'P 1'
_cell_length_a   7.81686031
_cell_length_b   7.81505210
_cell_length_c   5.47437331
_cell_angle_alpha   70.84621654
_cell_angle_beta   70.82958796
_cell_angle_gamma   93.54078413
_symmetry_Int_Tables_number   1
_chemical_formula_structural   Ho2ErLu(Co3Si5)2
_chemical_formula_sum   'Ho2 Er1 Lu1 Co6 Si10'
_cell_volume   292.95932627
_cell_formula_units_Z   1
loop_
 _symmetry_equiv_pos_site_id
 _symmetry_equiv_pos_as_xyz
  1  'x, y, z'
loop_
 _atom_site_type_symbol
 _atom_site_label
 _atom_site_symmetry_multiplicity
 _atom_site_fract_x
 _atom_site_fract_y
 _atom_site_fract_z
 _atom_site_occupancy
  Ho  Ho0  1  0.129730  0.403121  0.737448  1
  Ho  Ho1  1  0.596799  0.870273  0.762493  1
  Er  Er2  1  0.870019  0.596921  0.263493  1
  Lu  Lu3  1  0.403518  0.129789  0.235876  1
  Co  Co4  1  0.997226  0.003021  0.749989  1
  Co  Co5  1  0.539512  0.262371  0.626012  1
  Co  Co6  1  0.262846  0.540125  0.125741  1
  Co  Co7  1  0.459800  0.737841  0.374133  1
  Co  Co8  1  0.003853  0.996669  0.249872  1
  Co  Co9  1  0.736808  0.459742  0.874991  1
  Si  Si10  1  0.771412  0.227884  0.250178  1
  Si  Si11  1  0.227519  0.772993  0.749532  1
  Si  Si12  1  0.511000  0.487924  0.250373  1
  Si  Si13  1  0.488714  0.510879  0.750130  1
  Si  Si14  1  0.213597  0.787168  0.250132  1
  Si  Si15  1  0.786284  0.213530  0.749900  1
  Si  Si16  1  0.737555  0.934710  0.165723  1
  Si  Si17  1  0.934271  0.737186  0.666526  1
  Si  Si18  1  0.263102  0.065925  0.833295  1
  Si  Si19  1  0.066432  0.261929  0.334164  1
