# generated using pymatgen
data_KH5W
_symmetry_space_group_name_H-M   'P 1'
_cell_length_a   4.74266800
_cell_length_b   5.71416800
_cell_length_c   12.94452900
_cell_angle_alpha   90.00000000
_cell_angle_beta   90.00000000
_cell_angle_gamma   90.00000000
_symmetry_Int_Tables_number   1
_chemical_formula_structural   KH5W
_chemical_formula_sum   'K4 H20 W4'
_cell_volume   350.80193598
_cell_formula_units_Z   4
loop_
 _symmetry_equiv_pos_site_id
 _symmetry_equiv_pos_as_xyz
  1  'x, y, z'
loop_
 _atom_site_type_symbol
 _atom_site_label
 _atom_site_symmetry_multiplicity
 _atom_site_fract_x
 _atom_site_fract_y
 _atom_site_fract_z
 _atom_site_occupancy
  K  K0  1  0.269811  0.250024  0.657158  1
  K  K1  1  0.769811  0.249976  0.342842  1
  K  K2  1  0.230189  0.749976  0.157158  1
  K  K3  1  0.730189  0.750024  0.842842  1
  H  H4  1  0.509408  0.512694  0.487822  1
  H  H5  1  0.009408  0.987306  0.512178  1
  H  H6  1  0.990592  0.487306  0.987822  1
  H  H7  1  0.490592  0.012694  0.012178  1
  H  H8  1  0.224462  0.062597  0.847948  1
  H  H9  1  0.724462  0.437403  0.152052  1
  H  H10  1  0.275538  0.937403  0.347948  1
  H  H11  1  0.775538  0.562597  0.652052  1
  H  H12  1  0.224679  0.437588  0.847986  1
  H  H13  1  0.724679  0.062412  0.152014  1
  H  H14  1  0.275321  0.562412  0.347986  1
  H  H15  1  0.775321  0.937588  0.652014  1
  H  H16  1  0.621888  0.249978  0.905865  1
  H  H17  1  0.121888  0.250022  0.094135  1
  H  H18  1  0.878112  0.750022  0.405865  1
  H  H19  1  0.378112  0.749978  0.594135  1
  H  H20  1  0.990633  0.012711  0.987812  1
  H  H21  1  0.490633  0.487289  0.012188  1
  H  H22  1  0.509367  0.987289  0.487812  1
  H  H23  1  0.009367  0.512711  0.512188  1
  W  W24  1  0.234799  0.250032  0.956069  1
  W  W25  1  0.734799  0.249968  0.043931  1
  W  W26  1  0.265201  0.749968  0.456069  1
  W  W27  1  0.765201  0.750032  0.543931  1
