# generated using pymatgen
data_Sc4Be8(IrRu)5
_symmetry_space_group_name_H-M   'P 1'
_cell_length_a   3.18618500
_cell_length_b   8.54584900
_cell_length_c   10.32613523
_cell_angle_alpha   89.98648520
_cell_angle_beta   90.00000000
_cell_angle_gamma   90.00000000
_symmetry_Int_Tables_number   1
_chemical_formula_structural   Sc4Be8(IrRu)5
_chemical_formula_sum   'Sc4 Be8 Ir5 Ru5'
_cell_volume   281.16677522
_cell_formula_units_Z   1
loop_
 _symmetry_equiv_pos_site_id
 _symmetry_equiv_pos_as_xyz
  1  'x, y, z'
loop_
 _atom_site_type_symbol
 _atom_site_label
 _atom_site_symmetry_multiplicity
 _atom_site_fract_x
 _atom_site_fract_y
 _atom_site_fract_z
 _atom_site_occupancy
  Sc  Sc0  1  0.500000  0.842358  0.183948  1
  Sc  Sc1  1  0.500000  0.158248  0.814215  1
  Sc  Sc2  1  0.500000  0.657896  0.682451  1
  Sc  Sc3  1  0.500000  0.341060  0.319232  1
  Be  Be4  1  0.500000  0.965961  0.595522  1
  Be  Be5  1  0.500000  0.038517  0.405518  1
  Be  Be6  1  0.500000  0.846208  0.899594  1
  Be  Be7  1  0.500000  0.153399  0.099972  1
  Be  Be8  1  0.500000  0.653612  0.400485  1
  Be  Be9  1  0.500000  0.343188  0.598718  1
  Be  Be10  1  0.500000  0.463775  0.903206  1
  Be  Be11  1  0.500000  0.535698  0.097484  1
  Ir  Ir12  1  0.000000  0.659934  0.957261  1
  Ir  Ir13  1  0.000000  0.340298  0.044035  1
  Ir  Ir14  1  0.000000  0.840177  0.454580  1
  Ir  Ir15  1  0.000000  0.000236  0.999332  1
  Ir  Ir16  1  0.000000  0.500405  0.500441  1
  Ru  Ru17  1  0.000000  0.158907  0.544305  1
  Ru  Ru18  1  0.000000  0.403771  0.757195  1
  Ru  Ru19  1  0.000000  0.597152  0.243110  1
  Ru  Ru20  1  0.000000  0.902572  0.742055  1
  Ru  Ru21  1  0.000000  0.096629  0.257343  1
