# generated using pymatgen
data_Y5Tm3(CdCo)2
_symmetry_space_group_name_H-M   'P 1'
_cell_length_a   9.47858655
_cell_length_b   9.49020548
_cell_length_c   9.49020414
_cell_angle_alpha   59.91902919
_cell_angle_beta   60.04048254
_cell_angle_gamma   60.04048148
_symmetry_Int_Tables_number   1
_chemical_formula_structural   Y5Tm3(CdCo)2
_chemical_formula_sum   'Y10 Tm6 Cd4 Co4'
_cell_volume   603.64058328
_cell_formula_units_Z   2
loop_
 _symmetry_equiv_pos_site_id
 _symmetry_equiv_pos_as_xyz
  1  'x, y, z'
loop_
 _atom_site_type_symbol
 _atom_site_label
 _atom_site_symmetry_multiplicity
 _atom_site_fract_x
 _atom_site_fract_y
 _atom_site_fract_z
 _atom_site_occupancy
  Y  Y0  1  0.187480  0.812520  0.187480  1
  Y  Y1  1  0.812520  0.187480  0.812520  1
  Y  Y2  1  0.187480  0.187480  0.812520  1
  Y  Y3  1  0.812520  0.812520  0.187480  1
  Y  Y4  1  0.938731  0.561269  0.561269  1
  Y  Y5  1  0.561269  0.938731  0.938731  1
  Y  Y6  1  0.560139  0.939861  0.560139  1
  Y  Y7  1  0.939861  0.560139  0.939861  1
  Y  Y8  1  0.560139  0.560139  0.939861  1
  Y  Y9  1  0.939861  0.939861  0.560139  1
  Tm  Tm10  1  0.345150  0.345503  0.345503  1
  Tm  Tm11  1  0.345503  0.345150  0.963842  1
  Tm  Tm12  1  0.345503  0.963842  0.345150  1
  Tm  Tm13  1  0.963842  0.345503  0.345503  1
  Tm  Tm14  1  0.810985  0.189015  0.189015  1
  Tm  Tm15  1  0.189015  0.810985  0.810985  1
  Cd  Cd16  1  0.580304  0.580097  0.580097  1
  Cd  Cd17  1  0.580097  0.580304  0.259502  1
  Cd  Cd18  1  0.580097  0.259502  0.580304  1
  Cd  Cd19  1  0.259502  0.580097  0.580097  1
  Co  Co20  1  0.138570  0.143936  0.143936  1
  Co  Co21  1  0.143936  0.138570  0.573557  1
  Co  Co22  1  0.143936  0.573557  0.138570  1
  Co  Co23  1  0.573557  0.143936  0.143936  1
