# generated using pymatgen
data_Tb2EuPtO7
_symmetry_space_group_name_H-M   'P 1'
_cell_length_a   6.52547011
_cell_length_b   6.52546872
_cell_length_c   7.50640900
_cell_angle_alpha   90.00000000
_cell_angle_beta   90.00000000
_cell_angle_gamma   108.79403785
_symmetry_Int_Tables_number   1
_chemical_formula_structural   Tb2EuPtO7
_chemical_formula_sum   'Tb4 Eu2 Pt2 O14'
_cell_volume   302.59393768
_cell_formula_units_Z   2
loop_
 _symmetry_equiv_pos_site_id
 _symmetry_equiv_pos_as_xyz
  1  'x, y, z'
loop_
 _atom_site_type_symbol
 _atom_site_label
 _atom_site_symmetry_multiplicity
 _atom_site_fract_x
 _atom_site_fract_y
 _atom_site_fract_z
 _atom_site_occupancy
  Tb  Tb0  1  0.001012  0.467337  0.749880  1
  Tb  Tb1  1  0.998988  0.532663  0.249880  1
  Tb  Tb2  1  0.532663  0.998988  0.750120  1
  Tb  Tb3  1  0.467337  0.001012  0.250120  1
  Eu  Eu4  1  0.500303  0.500303  0.500000  1
  Eu  Eu5  1  0.499697  0.499697  0.000000  1
  Pt  Pt6  1  0.000102  0.000102  0.500000  1
  Pt  Pt7  1  0.999898  0.999898  0.000000  1
  O  O8  1  0.636383  0.363617  0.750000  1
  O  O9  1  0.363617  0.636383  0.250000  1
  O  O10  1  0.925111  0.074889  0.750000  1
  O  O11  1  0.074889  0.925111  0.250000  1
  O  O12  1  0.927392  0.676746  0.526569  1
  O  O13  1  0.072608  0.323254  0.026569  1
  O  O14  1  0.323254  0.072608  0.973431  1
  O  O15  1  0.676746  0.927392  0.473431  1
  O  O16  1  0.366137  0.633863  0.750000  1
  O  O17  1  0.633863  0.366137  0.250000  1
  O  O18  1  0.927840  0.677049  0.973200  1
  O  O19  1  0.072160  0.322951  0.473200  1
  O  O20  1  0.322951  0.072160  0.526800  1
  O  O21  1  0.677049  0.927840  0.026800  1
