# generated using pymatgen
data_NdYB6Os
_symmetry_space_group_name_H-M   'P 1'
_cell_length_a   3.70962200
_cell_length_b   9.26217800
_cell_length_c   11.68689400
_cell_angle_alpha   90.00000000
_cell_angle_beta   90.00000000
_cell_angle_gamma   90.00000000
_symmetry_Int_Tables_number   1
_chemical_formula_structural   NdYB6Os
_chemical_formula_sum   'Nd4 Y4 B24 Os4'
_cell_volume   401.55208613
_cell_formula_units_Z   4
loop_
 _symmetry_equiv_pos_site_id
 _symmetry_equiv_pos_as_xyz
  1  'x, y, z'
loop_
 _atom_site_type_symbol
 _atom_site_label
 _atom_site_symmetry_multiplicity
 _atom_site_fract_x
 _atom_site_fract_y
 _atom_site_fract_z
 _atom_site_occupancy
  Nd  Nd0  1  0.000000  0.323082  0.414141  1
  Nd  Nd1  1  0.000000  0.676918  0.585859  1
  Nd  Nd2  1  0.000000  0.823082  0.085859  1
  Nd  Nd3  1  0.000000  0.176918  0.914141  1
  Y  Y4  1  0.000000  0.944314  0.372547  1
  Y  Y5  1  0.000000  0.055686  0.627453  1
  Y  Y6  1  0.000000  0.444314  0.127453  1
  Y  Y7  1  0.000000  0.555686  0.872547  1
  B  B8  1  0.500000  0.556105  0.430387  1
  B  B9  1  0.500000  0.443895  0.569613  1
  B  B10  1  0.500000  0.056105  0.069613  1
  B  B11  1  0.500000  0.943895  0.930387  1
  B  B12  1  0.500000  0.748867  0.417588  1
  B  B13  1  0.500000  0.251133  0.582412  1
  B  B14  1  0.500000  0.248867  0.082412  1
  B  B15  1  0.500000  0.751133  0.917588  1
  B  B16  1  0.500000  0.790309  0.267135  1
  B  B17  1  0.500000  0.209691  0.732865  1
  B  B18  1  0.500000  0.290309  0.232865  1
  B  B19  1  0.500000  0.709691  0.767135  1
  B  B20  1  0.500000  0.631340  0.185655  1
  B  B21  1  0.500000  0.368660  0.814345  1
  B  B22  1  0.500000  0.131340  0.314345  1
  B  B23  1  0.500000  0.868660  0.685655  1
  B  B24  1  0.500000  0.986049  0.213929  1
  B  B25  1  0.500000  0.013951  0.786071  1
  B  B26  1  0.500000  0.486049  0.286071  1
  B  B27  1  0.500000  0.513951  0.713929  1
  B  B28  1  0.500000  0.603937  0.028540  1
  B  B29  1  0.500000  0.396063  0.971460  1
  B  B30  1  0.500000  0.103937  0.471460  1
  B  B31  1  0.500000  0.896063  0.528540  1
  Os  Os32  1  0.000000  0.639076  0.319919  1
  Os  Os33  1  0.000000  0.360924  0.680081  1
  Os  Os34  1  0.000000  0.139076  0.180081  1
  Os  Os35  1  0.000000  0.860924  0.819919  1
