# generated using pymatgen
data_Hf12Zn4NiPd7N4
_symmetry_space_group_name_H-M   'P 1'
_cell_length_a   8.51338912
_cell_length_b   8.51338932
_cell_length_c   8.51923700
_cell_angle_alpha   60.02270260
_cell_angle_beta   60.02270304
_cell_angle_gamma   59.99999626
_symmetry_Int_Tables_number   1
_chemical_formula_structural   Hf12Zn4NiPd7N4
_chemical_formula_sum   'Hf12 Zn4 Ni1 Pd7 N4'
_cell_volume   436.75673751
_cell_formula_units_Z   1
loop_
 _symmetry_equiv_pos_site_id
 _symmetry_equiv_pos_as_xyz
  1  'x, y, z'
loop_
 _atom_site_type_symbol
 _atom_site_label
 _atom_site_symmetry_multiplicity
 _atom_site_fract_x
 _atom_site_fract_y
 _atom_site_fract_z
 _atom_site_occupancy
  Hf  Hf0  1  0.811179  0.189550  0.188093  1
  Hf  Hf1  1  0.189550  0.811179  0.188093  1
  Hf  Hf2  1  0.811179  0.811179  0.188093  1
  Hf  Hf3  1  0.189195  0.810936  0.810674  1
  Hf  Hf4  1  0.810936  0.189195  0.810674  1
  Hf  Hf5  1  0.189195  0.189195  0.810674  1
  Hf  Hf6  1  0.438473  0.067188  0.055866  1
  Hf  Hf7  1  0.067188  0.438473  0.055866  1
  Hf  Hf8  1  0.438473  0.438473  0.055866  1
  Hf  Hf9  1  0.061556  0.439449  0.437438  1
  Hf  Hf10  1  0.439449  0.061556  0.437438  1
  Hf  Hf11  1  0.061556  0.061556  0.437438  1
  Zn  Zn12  1  0.625046  0.625046  0.124861  1
  Zn  Zn13  1  0.619074  0.619074  0.630915  1
  Zn  Zn14  1  0.130937  0.619074  0.630915  1
  Zn  Zn15  1  0.619074  0.130937  0.630915  1
  Ni  Ni16  1  0.409286  0.409286  0.772141  1
  Pd  Pd17  1  0.411874  0.411874  0.412578  1
  Pd  Pd18  1  0.763674  0.411874  0.412578  1
  Pd  Pd19  1  0.411874  0.763674  0.412578  1
  Pd  Pd20  1  0.837443  0.837443  0.487671  1
  Pd  Pd21  1  0.838357  0.838357  0.836798  1
  Pd  Pd22  1  0.486489  0.838357  0.836798  1
  Pd  Pd23  1  0.838357  0.486489  0.836798  1
  N  N24  1  0.125405  0.125405  0.623785  1
  N  N25  1  0.124737  0.124737  0.124819  1
  N  N26  1  0.625706  0.124737  0.124819  1
  N  N27  1  0.124737  0.625706  0.124819  1
