# generated using pymatgen
data_PuThB8
_symmetry_space_group_name_H-M   'P 1'
_cell_length_a   7.20278100
_cell_length_b   7.18991200
_cell_length_c   4.08005800
_cell_angle_alpha   90.00000000
_cell_angle_beta   90.00000000
_cell_angle_gamma   90.00000000
_symmetry_Int_Tables_number   1
_chemical_formula_structural   PuThB8
_chemical_formula_sum   'Pu2 Th2 B16'
_cell_volume   211.29543877
_cell_formula_units_Z   2
loop_
 _symmetry_equiv_pos_site_id
 _symmetry_equiv_pos_as_xyz
  1  'x, y, z'
loop_
 _atom_site_type_symbol
 _atom_site_label
 _atom_site_symmetry_multiplicity
 _atom_site_fract_x
 _atom_site_fract_y
 _atom_site_fract_z
 _atom_site_occupancy
  Pu  Pu0  1  0.313629  0.186478  0.000000  1
  Pu  Pu1  1  0.813629  0.313522  0.000000  1
  Th  Th2  1  0.185278  0.684919  0.000000  1
  Th  Th3  1  0.685278  0.815081  0.000000  1
  B  B4  1  0.324403  0.456799  0.500000  1
  B  B5  1  0.676235  0.534493  0.500000  1
  B  B6  1  0.539642  0.319605  0.500000  1
  B  B7  1  0.461557  0.671269  0.500000  1
  B  B8  1  0.000648  0.006170  0.201102  1
  B  B9  1  0.500648  0.493830  0.798898  1
  B  B10  1  0.000648  0.006170  0.798898  1
  B  B11  1  0.500648  0.493830  0.201102  1
  B  B12  1  0.587332  0.086600  0.500000  1
  B  B13  1  0.087332  0.413400  0.500000  1
  B  B14  1  0.910627  0.589389  0.500000  1
  B  B15  1  0.410627  0.910611  0.500000  1
  B  B16  1  0.039642  0.180395  0.500000  1
  B  B17  1  0.176235  0.965507  0.500000  1
  B  B18  1  0.824403  0.043201  0.500000  1
  B  B19  1  0.961557  0.828731  0.500000  1
