# generated using pymatgen
data_Y3Er3TcIr
_symmetry_space_group_name_H-M   'P 1'
_cell_length_a   6.33078708
_cell_length_b   7.34537400
_cell_length_c   9.14281899
_cell_angle_alpha   90.00000000
_cell_angle_beta   90.56505211
_cell_angle_gamma   90.00000000
_symmetry_Int_Tables_number   1
_chemical_formula_structural   Y3Er3TcIr
_chemical_formula_sum   'Y6 Er6 Tc2 Ir2'
_cell_volume   425.13868257
_cell_formula_units_Z   2
loop_
 _symmetry_equiv_pos_site_id
 _symmetry_equiv_pos_as_xyz
  1  'x, y, z'
loop_
 _atom_site_type_symbol
 _atom_site_label
 _atom_site_symmetry_multiplicity
 _atom_site_fract_x
 _atom_site_fract_y
 _atom_site_fract_z
 _atom_site_occupancy
  Y  Y0  1  0.329670  0.677115  0.065033  1
  Y  Y1  1  0.170330  0.177115  0.434967  1
  Y  Y2  1  0.874045  0.538212  0.250230  1
  Y  Y3  1  0.625955  0.038212  0.249770  1
  Y  Y4  1  0.132082  0.460606  0.750083  1
  Y  Y5  1  0.367918  0.960606  0.749917  1
  Er  Er6  1  0.669254  0.324329  0.561462  1
  Er  Er7  1  0.830746  0.824329  0.938538  1
  Er  Er8  1  0.667707  0.324003  0.937819  1
  Er  Er9  1  0.832293  0.824003  0.562181  1
  Er  Er10  1  0.330966  0.675738  0.435011  1
  Er  Er11  1  0.169034  0.175738  0.064989  1
  Tc  Tc12  1  0.037259  0.886085  0.249937  1
  Tc  Tc13  1  0.462741  0.386085  0.250063  1
  Ir  Ir14  1  0.951985  0.113912  0.752446  1
  Ir  Ir15  1  0.548015  0.613912  0.747554  1
