# generated using pymatgen
data_Y9Tm(BiPb3)2
_symmetry_space_group_name_H-M   'P 1'
_cell_length_a   8.30936000
_cell_length_b   8.31506200
_cell_length_c   15.66377300
_cell_angle_alpha   90.00081309
_cell_angle_beta   90.00000000
_cell_angle_gamma   90.00000000
_symmetry_Int_Tables_number   1
_chemical_formula_structural   Y9Tm(BiPb3)2
_chemical_formula_sum   'Y18 Tm2 Bi4 Pb12'
_cell_volume   1082.25461777
_cell_formula_units_Z   2
loop_
 _symmetry_equiv_pos_site_id
 _symmetry_equiv_pos_as_xyz
  1  'x, y, z'
loop_
 _atom_site_type_symbol
 _atom_site_label
 _atom_site_symmetry_multiplicity
 _atom_site_fract_x
 _atom_site_fract_y
 _atom_site_fract_z
 _atom_site_occupancy
  Y  Y0  1  0.384959  0.842159  0.878337  1
  Y  Y1  1  0.884970  0.657830  0.621676  1
  Y  Y2  1  0.614825  0.157849  0.377931  1
  Y  Y3  1  0.114855  0.342128  0.122064  1
  Y  Y4  1  0.619681  0.159454  0.121200  1
  Y  Y5  1  0.119683  0.340537  0.378787  1
  Y  Y6  1  0.380270  0.840648  0.620810  1
  Y  Y7  1  0.880249  0.659335  0.879205  1
  Y  Y8  1  0.558698  0.332449  0.892676  1
  Y  Y9  1  0.058693  0.167565  0.607316  1
  Y  Y10  1  0.441276  0.667717  0.392453  1
  Y  Y11  1  0.941262  0.832285  0.107556  1
  Y  Y12  1  0.457053  0.668740  0.104923  1
  Y  Y13  1  0.957081  0.831269  0.395079  1
  Y  Y14  1  0.543119  0.331284  0.604707  1
  Y  Y15  1  0.043126  0.168723  0.895302  1
  Y  Y16  1  0.216419  0.501128  0.747929  1
  Y  Y17  1  0.716422  0.998894  0.752100  1
  Tm  Tm18  1  0.783159  0.498675  0.247679  1
  Tm  Tm19  1  0.283162  0.001336  0.252298  1
  Bi  Bi20  1  0.271009  0.021416  0.046565  1
  Bi  Bi21  1  0.771022  0.478587  0.453422  1
  Bi  Bi22  1  0.729148  0.978498  0.545787  1
  Bi  Bi23  1  0.229158  0.521508  0.954228  1
  Pb  Pb24  1  0.723003  0.972835  0.956253  1
  Pb  Pb25  1  0.222989  0.527199  0.543721  1
  Pb  Pb26  1  0.277250  0.026894  0.455320  1
  Pb  Pb27  1  0.777195  0.472989  0.044671  1
  Pb  Pb28  1  0.578304  0.629810  0.748712  1
  Pb  Pb29  1  0.078309  0.870154  0.751306  1
  Pb  Pb30  1  0.422578  0.369777  0.248669  1
  Pb  Pb31  1  0.922564  0.130273  0.251291  1
  Pb  Pb32  1  0.359081  0.150792  0.751304  1
  Pb  Pb33  1  0.859097  0.349210  0.748714  1
  Pb  Pb34  1  0.640132  0.848118  0.251365  1
  Pb  Pb35  1  0.140193  0.651934  0.248644  1
