# generated using pymatgen
data_La2Pr6Sc12Si15Ge
_symmetry_space_group_name_H-M   'P 1'
_cell_length_a   7.28566664
_cell_length_b   7.56462724
_cell_length_c   14.29634605
_cell_angle_alpha   90.00515000
_cell_angle_beta   89.86290310
_cell_angle_gamma   90.04051138
_symmetry_Int_Tables_number   1
_chemical_formula_structural   La2Pr6Sc12Si15Ge
_chemical_formula_sum   'La2 Pr6 Sc12 Si15 Ge1'
_cell_volume   787.91710168
_cell_formula_units_Z   1
loop_
 _symmetry_equiv_pos_site_id
 _symmetry_equiv_pos_as_xyz
  1  'x, y, z'
loop_
 _atom_site_type_symbol
 _atom_site_label
 _atom_site_symmetry_multiplicity
 _atom_site_fract_x
 _atom_site_fract_y
 _atom_site_fract_z
 _atom_site_occupancy
  La  La0  1  0.011286  0.170221  0.402396  1
  La  La1  1  0.512100  0.328479  0.401972  1
  Pr  Pr2  1  0.487724  0.672098  0.901837  1
  Pr  Pr3  1  0.490725  0.673328  0.599413  1
  Pr  Pr4  1  0.988033  0.828590  0.598996  1
  Pr  Pr5  1  0.987358  0.828059  0.901954  1
  Pr  Pr6  1  0.511978  0.328030  0.097535  1
  Pr  Pr7  1  0.012395  0.172349  0.097417  1
  Sc  Sc8  1  0.333187  0.172885  0.627017  1
  Sc  Sc9  1  0.668207  0.824789  0.373918  1
  Sc  Sc10  1  0.659504  0.002160  0.750386  1
  Sc  Sc11  1  0.167973  0.676271  0.373919  1
  Sc  Sc12  1  0.830552  0.323563  0.874761  1
  Sc  Sc13  1  0.829850  0.325243  0.625989  1
  Sc  Sc14  1  0.840619  0.503195  0.249121  1
  Sc  Sc15  1  0.340801  0.996628  0.249082  1
  Sc  Sc16  1  0.330409  0.175877  0.874736  1
  Sc  Sc17  1  0.169224  0.676105  0.124151  1
  Sc  Sc18  1  0.669439  0.823641  0.124086  1
  Sc  Sc19  1  0.159497  0.497874  0.751835  1
  Si  Si20  1  0.288132  0.883367  0.750543  1
  Si  Si21  1  0.464395  0.627285  0.248997  1
  Si  Si22  1  0.034843  0.125934  0.750330  1
  Si  Si23  1  0.534992  0.374440  0.750576  1
  Si  Si24  1  0.964844  0.873203  0.248810  1
  Si  Si25  1  0.711252  0.114905  0.248511  1
  Si  Si26  1  0.848344  0.536643  0.039502  1
  Si  Si27  1  0.348516  0.963177  0.039443  1
  Si  Si28  1  0.151451  0.463247  0.959943  1
  Si  Si29  1  0.651572  0.036453  0.540652  1
  Si  Si30  1  0.348865  0.960790  0.461163  1
  Si  Si31  1  0.844385  0.540490  0.459944  1
  Si  Si32  1  0.789067  0.615865  0.750406  1
  Si  Si33  1  0.210792  0.385201  0.248855  1
  Si  Si34  1  0.651151  0.037028  0.960016  1
  Ge  Ge35  1  0.156536  0.462588  0.541784  1
