# generated using pymatgen
data_Cs2Rb2PaTe6Rh
_symmetry_space_group_name_H-M   'P 1'
_cell_length_a   15.09677600
_cell_length_b   6.90041396
_cell_length_c   10.04159052
_cell_angle_alpha   70.52634866
_cell_angle_beta   90.00000000
_cell_angle_gamma   90.00000000
_symmetry_Int_Tables_number   1
_chemical_formula_structural   Cs2Rb2PaTe6Rh
_chemical_formula_sum   'Cs4 Rb4 Pa2 Te12 Rh2'
_cell_volume   986.23199581
_cell_formula_units_Z   2
loop_
 _symmetry_equiv_pos_site_id
 _symmetry_equiv_pos_as_xyz
  1  'x, y, z'
loop_
 _atom_site_type_symbol
 _atom_site_label
 _atom_site_symmetry_multiplicity
 _atom_site_fract_x
 _atom_site_fract_y
 _atom_site_fract_z
 _atom_site_occupancy
  Cs  Cs0  1  0.951963  0.673045  0.663882  1
  Cs  Cs1  1  0.451963  0.826955  0.336118  1
  Cs  Cs2  1  0.049475  0.333531  0.333194  1
  Cs  Cs3  1  0.549475  0.166469  0.666806  1
  Rb  Rb4  1  0.869090  0.076982  0.898231  1
  Rb  Rb5  1  0.369090  0.423018  0.101769  1
  Rb  Rb6  1  0.130148  0.925803  0.104275  1
  Rb  Rb7  1  0.630148  0.574197  0.895725  1
  Pa  Pa8  1  0.749545  0.639705  0.288765  1
  Pa  Pa9  1  0.249545  0.860295  0.711235  1
  Te  Te10  1  0.902231  0.923371  0.276182  1
  Te  Te11  1  0.402231  0.576629  0.723818  1
  Te  Te12  1  0.096475  0.132788  0.724171  1
  Te  Te13  1  0.596475  0.367212  0.275829  1
  Te  Te14  1  0.816458  0.256476  0.506773  1
  Te  Te15  1  0.316458  0.243524  0.493227  1
  Te  Te16  1  0.184862  0.685366  0.493724  1
  Te  Te17  1  0.684862  0.814634  0.506276  1
  Te  Te18  1  0.836773  0.466737  0.082237  1
  Te  Te19  1  0.336773  0.033263  0.917763  1
  Te  Te20  1  0.162640  0.483666  0.915029  1
  Te  Te21  1  0.662640  0.016334  0.084971  1
  Rh  Rh22  1  0.250342  0.355766  0.713284  1
  Rh  Rh23  1  0.750342  0.144234  0.286716  1
