# generated using pymatgen
data_Pr8Si15Ag
_symmetry_space_group_name_H-M   'P 1'
_cell_length_a   8.30091100
_cell_length_b   8.30091192
_cell_length_c   8.50818100
_cell_angle_alpha   90.00000000
_cell_angle_beta   90.00000000
_cell_angle_gamma   120.00000828
_symmetry_Int_Tables_number   1
_chemical_formula_structural   Pr8Si15Ag
_chemical_formula_sum   'Pr8 Si15 Ag1'
_cell_volume   507.71369610
_cell_formula_units_Z   1
loop_
 _symmetry_equiv_pos_site_id
 _symmetry_equiv_pos_as_xyz
  1  'x, y, z'
loop_
 _atom_site_type_symbol
 _atom_site_label
 _atom_site_symmetry_multiplicity
 _atom_site_fract_x
 _atom_site_fract_y
 _atom_site_fract_z
 _atom_site_occupancy
  Pr  Pr0  1  0.496595  0.503405  0.743498  1
  Pr  Pr1  1  0.496740  0.503260  0.256489  1
  Pr  Pr2  1  0.006810  0.503405  0.743498  1
  Pr  Pr3  1  0.006521  0.503260  0.256489  1
  Pr  Pr4  1  0.496595  0.993190  0.743498  1
  Pr  Pr5  1  0.496740  0.993479  0.256489  1
  Pr  Pr6  1  0.000000  0.000000  0.747996  1
  Pr  Pr7  1  0.000000  0.000000  0.252078  1
  Si  Si8  1  0.836810  0.163190  0.000101  1
  Si  Si9  1  0.165804  0.834196  0.999966  1
  Si  Si10  1  0.326381  0.163190  0.000101  1
  Si  Si11  1  0.166509  0.833491  0.499859  1
  Si  Si12  1  0.668390  0.834196  0.999966  1
  Si  Si13  1  0.833386  0.166614  0.500184  1
  Si  Si14  1  0.836810  0.673619  0.000101  1
  Si  Si15  1  0.666981  0.833491  0.499859  1
  Si  Si16  1  0.165804  0.331610  0.999966  1
  Si  Si17  1  0.333229  0.166614  0.500184  1
  Si  Si18  1  0.166509  0.333019  0.499859  1
  Si  Si19  1  0.833386  0.666771  0.500184  1
  Si  Si20  1  0.333333  0.666667  0.000152  1
  Si  Si21  1  0.333333  0.666667  0.499840  1
  Si  Si22  1  0.666667  0.333333  0.500137  1
  Ag  Ag23  1  0.666667  0.333333  0.999506  1
