# generated using pymatgen
data_Y2Co5(NiAs)7
_symmetry_space_group_name_H-M   'P 1'
_cell_length_a   3.77416700
_cell_length_b   9.39863209
_cell_length_c   9.38649655
_cell_angle_alpha   120.02314751
_cell_angle_beta   90.00000000
_cell_angle_gamma   90.00000000
_symmetry_Int_Tables_number   1
_chemical_formula_structural   Y2Co5(NiAs)7
_chemical_formula_sum   'Y2 Co5 Ni7 As7'
_cell_volume   288.28269474
_cell_formula_units_Z   1
loop_
 _symmetry_equiv_pos_site_id
 _symmetry_equiv_pos_as_xyz
  1  'x, y, z'
loop_
 _atom_site_type_symbol
 _atom_site_label
 _atom_site_symmetry_multiplicity
 _atom_site_fract_x
 _atom_site_fract_y
 _atom_site_fract_z
 _atom_site_occupancy
  Y  Y0  1  0.000000  0.665989  0.333378  1
  Y  Y1  1  0.500000  0.334378  0.667355  1
  Co  Co2  1  0.000000  0.877062  0.155145  1
  Co  Co3  1  0.000000  0.276535  0.122422  1
  Co  Co4  1  0.000000  0.846204  0.723190  1
  Co  Co5  1  0.500000  0.429916  0.048981  1
  Co  Co6  1  0.500000  0.619222  0.569825  1
  Ni  Ni7  1  0.000000  0.563191  0.939664  1
  Ni  Ni8  1  0.000000  0.377883  0.436140  1
  Ni  Ni9  1  0.000000  0.059700  0.622162  1
  Ni  Ni10  1  0.500000  0.786051  0.904712  1
  Ni  Ni11  1  0.500000  0.120790  0.215054  1
  Ni  Ni12  1  0.500000  0.094374  0.881658  1
  Ni  Ni13  1  0.500000  0.949543  0.381615  1
  As  As14  1  0.000000  0.999617  0.000678  1
  As  As15  1  0.500000  0.706304  0.110784  1
  As  As16  1  0.500000  0.405224  0.290725  1
  As  As17  1  0.500000  0.885169  0.597464  1
  As  As18  1  0.000000  0.594534  0.707480  1
  As  As19  1  0.000000  0.116162  0.404873  1
  As  As20  1  0.000000  0.292152  0.886694  1
