# generated using pymatgen
data_Ce4PdRh3Pb2
_symmetry_space_group_name_H-M   'P 1'
_cell_length_a   7.83805075
_cell_length_b   7.83805075
_cell_length_c   3.72272900
_cell_angle_alpha   90.00000000
_cell_angle_beta   90.00000000
_cell_angle_gamma   89.64437023
_symmetry_Int_Tables_number   1
_chemical_formula_structural   Ce4PdRh3Pb2
_chemical_formula_sum   'Ce4 Pd1 Rh3 Pb2'
_cell_volume   228.70159762
_cell_formula_units_Z   1
loop_
 _symmetry_equiv_pos_site_id
 _symmetry_equiv_pos_as_xyz
  1  'x, y, z'
loop_
 _atom_site_type_symbol
 _atom_site_label
 _atom_site_symmetry_multiplicity
 _atom_site_fract_x
 _atom_site_fract_y
 _atom_site_fract_z
 _atom_site_occupancy
  Ce  Ce0  1  0.663284  0.163284  0.500000  1
  Ce  Ce1  1  0.181026  0.327859  0.500000  1
  Ce  Ce2  1  0.827859  0.681026  0.500000  1
  Ce  Ce3  1  0.323885  0.823885  0.500000  1
  Pd  Pd4  1  0.871818  0.371818  0.000000  1
  Rh  Rh5  1  0.367912  0.132347  0.000000  1
  Rh  Rh6  1  0.131014  0.631014  0.000000  1
  Rh  Rh7  1  0.632347  0.867912  0.000000  1
  Pb  Pb8  1  0.000048  0.000807  0.000000  1
  Pb  Pb9  1  0.500807  0.500048  0.000000  1
