# generated using pymatgen
data_Ca5Np5O18
_symmetry_space_group_name_H-M   'P 1'
_cell_length_a   6.86453713
_cell_length_b   7.48007515
_cell_length_c   8.45726715
_cell_angle_alpha   99.01674087
_cell_angle_beta   98.35429489
_cell_angle_gamma   107.62944588
_symmetry_Int_Tables_number   1
_chemical_formula_structural   Ca5Np5O18
_chemical_formula_sum   'Ca5 Np5 O18'
_cell_volume   400.08541426
_cell_formula_units_Z   1
loop_
 _symmetry_equiv_pos_site_id
 _symmetry_equiv_pos_as_xyz
  1  'x, y, z'
loop_
 _atom_site_type_symbol
 _atom_site_label
 _atom_site_symmetry_multiplicity
 _atom_site_fract_x
 _atom_site_fract_y
 _atom_site_fract_z
 _atom_site_occupancy
  Ca  Ca0  1  0.798742  0.104510  0.577517  1
  Ca  Ca1  1  0.593470  0.696234  0.196873  1
  Ca  Ca2  1  0.406530  0.303766  0.803127  1
  Ca  Ca3  1  0.201258  0.895490  0.422483  1
  Ca  Ca4  1  0.000000  0.500000  0.000000  1
  Np  Np5  1  0.000000  0.000000  0.000000  1
  Np  Np6  1  0.787603  0.577339  0.587615  1
  Np  Np7  1  0.625544  0.203023  0.192791  1
  Np  Np8  1  0.374456  0.796977  0.807209  1
  Np  Np9  1  0.212397  0.422661  0.412385  1
  O  O10  1  0.820363  0.792954  0.469277  1
  O  O11  1  0.009856  0.244783  0.165712  1
  O  O12  1  0.674305  0.413432  0.065687  1
  O  O13  1  0.456992  0.999861  0.680554  1
  O  O14  1  0.863620  0.342488  0.419926  1
  O  O15  1  0.504927  0.403119  0.344656  1
  O  O16  1  0.251881  0.621156  0.279303  1
  O  O17  1  0.990324  0.838062  0.163584  1
  O  O18  1  0.663212  0.931944  0.998740  1
  O  O19  1  0.336788  0.068056  0.001260  1
  O  O20  1  0.009676  0.161938  0.836416  1
  O  O21  1  0.748119  0.378844  0.720697  1
  O  O22  1  0.495073  0.596881  0.655344  1
  O  O23  1  0.136380  0.657512  0.580074  1
  O  O24  1  0.543008  0.000139  0.319446  1
  O  O25  1  0.325695  0.586568  0.934313  1
  O  O26  1  0.990144  0.755217  0.834288  1
  O  O27  1  0.179637  0.207046  0.530723  1
