# generated using pymatgen
data_ErSn5BiRu4
_symmetry_space_group_name_H-M   'P 1'
_cell_length_a   6.98659839
_cell_length_b   7.00495284
_cell_length_c   6.98660069
_cell_angle_alpha   120.70153863
_cell_angle_beta   120.61566873
_cell_angle_gamma   88.93965315
_symmetry_Int_Tables_number   1
_chemical_formula_structural   ErSn5BiRu4
_chemical_formula_sum   'Er1 Sn5 Bi1 Ru4'
_cell_volume   239.16530305
_cell_formula_units_Z   1
loop_
 _symmetry_equiv_pos_site_id
 _symmetry_equiv_pos_as_xyz
  1  'x, y, z'
loop_
 _atom_site_type_symbol
 _atom_site_label
 _atom_site_symmetry_multiplicity
 _atom_site_fract_x
 _atom_site_fract_y
 _atom_site_fract_z
 _atom_site_occupancy
  Er  Er0  1  0.993044  0.998641  0.000000  1
  Sn  Sn1  1  0.118656  0.469499  0.000000  1
  Sn  Sn2  1  0.882702  0.878551  0.349697  1
  Sn  Sn3  1  0.533006  0.528854  0.650303  1
  Sn  Sn4  1  0.003144  0.503172  0.502418  1
  Sn  Sn5  1  0.500727  0.000754  0.497582  1
  Bi  Bi6  1  0.464030  0.120286  0.000000  1
  Ru  Ru7  1  0.405152  0.747584  0.000000  1
  Ru  Ru8  1  0.752251  0.404137  0.000000  1
  Ru  Ru9  1  0.245873  0.246491  0.644459  1
  Ru  Ru10  1  0.601414  0.602031  0.355541  1
