# generated using pymatgen
data_La4YRu2
_symmetry_space_group_name_H-M   'P 1'
_cell_length_a   6.68996037
_cell_length_b   7.28420403
_cell_length_c   9.07939244
_cell_angle_alpha   94.24984302
_cell_angle_beta   111.61787805
_cell_angle_gamma   90.00000225
_symmetry_Int_Tables_number   1
_chemical_formula_structural   La4YRu2
_chemical_formula_sum   'La8 Y2 Ru4'
_cell_volume   410.01820280
_cell_formula_units_Z   2
loop_
 _symmetry_equiv_pos_site_id
 _symmetry_equiv_pos_as_xyz
  1  'x, y, z'
loop_
 _atom_site_type_symbol
 _atom_site_label
 _atom_site_symmetry_multiplicity
 _atom_site_fract_x
 _atom_site_fract_y
 _atom_site_fract_z
 _atom_site_occupancy
  La  La0  1  0.979830  0.906088  0.182428  1
  La  La1  1  0.797401  0.593912  0.817572  1
  La  La2  1  0.020170  0.093912  0.817572  1
  La  La3  1  0.202599  0.406088  0.182428  1
  La  La4  1  0.634770  0.817147  0.424300  1
  La  La5  1  0.210470  0.682853  0.575700  1
  La  La6  1  0.365230  0.182853  0.575700  1
  La  La7  1  0.789530  0.317147  0.424300  1
  Y  Y8  1  0.431559  0.750000  0.000000  1
  Y  Y9  1  0.568441  0.250000  0.000000  1
  Ru  Ru10  1  0.824960  0.579652  0.221143  1
  Ru  Ru11  1  0.603817  0.920348  0.778857  1
  Ru  Ru12  1  0.175040  0.420348  0.778857  1
  Ru  Ru13  1  0.396183  0.079652  0.221143  1
