# generated using pymatgen
data_Er12Th4MnCd4Ir3
_symmetry_space_group_name_H-M   'P 1'
_cell_length_a   9.67046300
_cell_length_b   9.67046378
_cell_length_c   9.67046424
_cell_angle_alpha   59.89369316
_cell_angle_beta   59.89369188
_cell_angle_gamma   59.89369598
_symmetry_Int_Tables_number   1
_chemical_formula_structural   Er12Th4MnCd4Ir3
_chemical_formula_sum   'Er12 Th4 Mn1 Cd4 Ir3'
_cell_volume   637.93757424
_cell_formula_units_Z   1
loop_
 _symmetry_equiv_pos_site_id
 _symmetry_equiv_pos_as_xyz
  1  'x, y, z'
loop_
 _atom_site_type_symbol
 _atom_site_label
 _atom_site_symmetry_multiplicity
 _atom_site_fract_x
 _atom_site_fract_y
 _atom_site_fract_z
 _atom_site_occupancy
  Er  Er0  1  0.067854  0.437146  0.437146  1
  Er  Er1  1  0.438439  0.061036  0.061036  1
  Er  Er2  1  0.437146  0.067854  0.437146  1
  Er  Er3  1  0.061036  0.438439  0.061036  1
  Er  Er4  1  0.437146  0.437146  0.067854  1
  Er  Er5  1  0.061036  0.061036  0.438439  1
  Er  Er6  1  0.185638  0.814259  0.814259  1
  Er  Er7  1  0.812220  0.185258  0.185258  1
  Er  Er8  1  0.814259  0.185638  0.814259  1
  Er  Er9  1  0.185258  0.812220  0.185258  1
  Er  Er10  1  0.814259  0.814259  0.185638  1
  Er  Er11  1  0.185258  0.185258  0.812220  1
  Th  Th12  1  0.600644  0.600644  0.600644  1
  Th  Th13  1  0.593380  0.593380  0.206887  1
  Th  Th14  1  0.593380  0.206887  0.593380  1
  Th  Th15  1  0.206887  0.593380  0.593380  1
  Mn  Mn16  1  0.395441  0.395441  0.395441  1
  Cd  Cd17  1  0.831852  0.831852  0.831852  1
  Cd  Cd18  1  0.833008  0.833008  0.500979  1
  Cd  Cd19  1  0.833008  0.500979  0.833008  1
  Cd  Cd20  1  0.500979  0.833008  0.833008  1
  Ir  Ir21  1  0.393682  0.393682  0.824506  1
  Ir  Ir22  1  0.393682  0.824506  0.393682  1
  Ir  Ir23  1  0.824506  0.393682  0.393682  1
