# generated using pymatgen
data_TbTm3(IrO4)4
_symmetry_space_group_name_H-M   'P 1'
_cell_length_a   5.31726795
_cell_length_b   7.60054587
_cell_length_c   7.36067664
_cell_angle_alpha   80.94332328
_cell_angle_beta   90.78038494
_cell_angle_gamma   93.06200848
_symmetry_Int_Tables_number   1
_chemical_formula_structural   TbTm3(IrO4)4
_chemical_formula_sum   'Tb1 Tm3 Ir4 O16'
_cell_volume   293.34331159
_cell_formula_units_Z   1
loop_
 _symmetry_equiv_pos_site_id
 _symmetry_equiv_pos_as_xyz
  1  'x, y, z'
loop_
 _atom_site_type_symbol
 _atom_site_label
 _atom_site_symmetry_multiplicity
 _atom_site_fract_x
 _atom_site_fract_y
 _atom_site_fract_z
 _atom_site_occupancy
  Tb  Tb0  1  0.737762  0.372309  0.387454  1
  Tm  Tm1  1  0.263475  0.626368  0.614219  1
  Tm  Tm2  1  0.202382  0.665084  0.107166  1
  Tm  Tm3  1  0.799680  0.336799  0.892479  1
  Ir  Ir4  1  0.760900  0.838896  0.796884  1
  Ir  Ir5  1  0.717954  0.836666  0.301247  1
  Ir  Ir6  1  0.281737  0.162900  0.700125  1
  Ir  Ir7  1  0.238594  0.160258  0.202252  1
  O  O8  1  0.081070  0.945099  0.687610  1
  O  O9  1  0.400311  0.936486  0.191597  1
  O  O10  1  0.603926  0.826119  0.553810  1
  O  O11  1  0.865800  0.829804  0.056195  1
  O  O12  1  0.454010  0.699881  0.875763  1
  O  O13  1  0.955995  0.612203  0.826292  1
  O  O14  1  0.988150  0.670669  0.383656  1
  O  O15  1  0.494430  0.607770  0.322414  1
  O  O16  1  0.501126  0.394086  0.681139  1
  O  O17  1  0.017620  0.333255  0.620400  1
  O  O18  1  0.047190  0.389370  0.168348  1
  O  O19  1  0.543395  0.299209  0.120202  1
  O  O20  1  0.131751  0.166111  0.944477  1
  O  O21  1  0.391511  0.171557  0.446787  1
  O  O22  1  0.602229  0.064303  0.807199  1
  O  O23  1  0.919002  0.054797  0.312285  1
