# generated using pymatgen
data_Ho2MgZrRh2
_symmetry_space_group_name_H-M   'P 1'
_cell_length_a   4.48305600
_cell_length_b   6.97046985
_cell_length_c   8.32470890
_cell_angle_alpha   85.98437638
_cell_angle_beta   90.00000000
_cell_angle_gamma   90.00000000
_symmetry_Int_Tables_number   1
_chemical_formula_structural   Ho2MgZrRh2
_chemical_formula_sum   'Ho4 Mg2 Zr2 Rh4'
_cell_volume   259.50024075
_cell_formula_units_Z   2
loop_
 _symmetry_equiv_pos_site_id
 _symmetry_equiv_pos_as_xyz
  1  'x, y, z'
loop_
 _atom_site_type_symbol
 _atom_site_label
 _atom_site_symmetry_multiplicity
 _atom_site_fract_x
 _atom_site_fract_y
 _atom_site_fract_z
 _atom_site_occupancy
  Ho  Ho0  1  0.250000  0.521894  0.165020  1
  Ho  Ho1  1  0.750000  0.478106  0.834980  1
  Ho  Ho2  1  0.750000  0.973552  0.688321  1
  Ho  Ho3  1  0.250000  0.026448  0.311679  1
  Mg  Mg4  1  0.750000  0.852511  0.071756  1
  Mg  Mg5  1  0.250000  0.147489  0.928244  1
  Zr  Zr6  1  0.250000  0.635090  0.575244  1
  Zr  Zr7  1  0.750000  0.364910  0.424756  1
  Rh  Rh8  1  0.250000  0.757798  0.877867  1
  Rh  Rh9  1  0.750000  0.242202  0.122133  1
  Rh  Rh10  1  0.750000  0.743618  0.411942  1
  Rh  Rh11  1  0.250000  0.256382  0.588058  1
