# generated using pymatgen
data_Hf18Ta2Si15As
_symmetry_space_group_name_H-M   'P 1'
_cell_length_a   7.03689158
_cell_length_b   7.02918151
_cell_length_c   12.83722652
_cell_angle_alpha   89.98497373
_cell_angle_beta   89.80367169
_cell_angle_gamma   89.88347085
_symmetry_Int_Tables_number   1
_chemical_formula_structural   Hf18Ta2Si15As
_chemical_formula_sum   'Hf18 Ta2 Si15 As1'
_cell_volume   634.97022441
_cell_formula_units_Z   1
loop_
 _symmetry_equiv_pos_site_id
 _symmetry_equiv_pos_as_xyz
  1  'x, y, z'
loop_
 _atom_site_type_symbol
 _atom_site_label
 _atom_site_symmetry_multiplicity
 _atom_site_fract_x
 _atom_site_fract_y
 _atom_site_fract_z
 _atom_site_occupancy
  Hf  Hf0  1  0.824357  0.824840  0.500113  1
  Hf  Hf1  1  0.177165  0.175659  0.999808  1
  Hf  Hf2  1  0.497736  0.152027  0.532481  1
  Hf  Hf3  1  0.499840  0.844646  0.031216  1
  Hf  Hf4  1  0.650673  0.999267  0.284473  1
  Hf  Hf5  1  0.345511  0.995892  0.780513  1
  Hf  Hf6  1  0.848147  0.505719  0.967059  1
  Hf  Hf7  1  0.153649  0.497317  0.467554  1
  Hf  Hf8  1  0.000964  0.652088  0.717855  1
  Hf  Hf9  1  0.004520  0.352174  0.220366  1
  Hf  Hf10  1  0.498067  0.354745  0.125886  1
  Hf  Hf11  1  0.501577  0.644800  0.626996  1
  Hf  Hf12  1  0.850874  0.002593  0.875785  1
  Hf  Hf13  1  0.147661  0.998722  0.375994  1
  Hf  Hf14  1  0.645796  0.501278  0.373087  1
  Hf  Hf15  1  0.353926  0.500100  0.872625  1
  Hf  Hf16  1  0.003692  0.850482  0.125084  1
  Hf  Hf17  1  0.998398  0.146869  0.624116  1
  Ta  Ta18  1  0.676142  0.324401  0.749997  1
  Ta  Ta19  1  0.324964  0.674931  0.250140  1
  Si  Si20  1  0.203430  0.853209  0.572491  1
  Si  Si21  1  0.646614  0.702992  0.822050  1
  Si  Si22  1  0.355285  0.296953  0.322819  1
  Si  Si23  1  0.853332  0.203664  0.427697  1
  Si  Si24  1  0.144654  0.797293  0.927239  1
  Si  Si25  1  0.702198  0.647113  0.177506  1
  Si  Si26  1  0.296856  0.353138  0.677011  1
  Si  Si27  1  0.541957  0.197588  0.930313  1
  Si  Si28  1  0.449115  0.799234  0.435935  1
  Si  Si29  1  0.696943  0.953948  0.685910  1
  Si  Si30  1  0.303552  0.045938  0.186105  1
  Si  Si31  1  0.800915  0.450010  0.564703  1
  Si  Si32  1  0.200189  0.550143  0.064421  1
  Si  Si33  1  0.953615  0.698549  0.315010  1
  Si  Si34  1  0.046114  0.302589  0.813686  1
  As  As35  1  0.801577  0.149085  0.075961  1
