# generated using pymatgen
data_Tb2YbSc7(Si5Ir2)4
_symmetry_space_group_name_H-M   'P 1'
_cell_length_a   12.47995249
_cell_length_b   12.47995300
_cell_length_c   4.14207800
_cell_angle_alpha   90.00000000
_cell_angle_beta   90.00000000
_cell_angle_gamma   90.14935533
_symmetry_Int_Tables_number   1
_chemical_formula_structural   Tb2YbSc7(Si5Ir2)4
_chemical_formula_sum   'Tb2 Yb1 Sc7 Si20 Ir8'
_cell_volume   645.12322805
_cell_formula_units_Z   1
loop_
 _symmetry_equiv_pos_site_id
 _symmetry_equiv_pos_as_xyz
  1  'x, y, z'
loop_
 _atom_site_type_symbol
 _atom_site_label
 _atom_site_symmetry_multiplicity
 _atom_site_fract_x
 _atom_site_fract_y
 _atom_site_fract_z
 _atom_site_occupancy
  Tb  Tb0  1  0.116060  0.615810  0.500000  1
  Tb  Tb1  1  0.884190  0.383940  0.500000  1
  Yb  Yb2  1  0.615415  0.884585  0.500000  1
  Sc  Sc3  1  0.383488  0.116512  0.500000  1
  Sc  Sc4  1  0.673610  0.174010  0.500000  1
  Sc  Sc5  1  0.325990  0.826390  0.500000  1
  Sc  Sc6  1  0.174568  0.325432  0.500000  1
  Sc  Sc7  1  0.826688  0.673312  0.500000  1
  Sc  Sc8  1  0.000421  0.000035  0.000000  1
  Sc  Sc9  1  0.499965  0.499579  0.000000  1
  Si  Si10  1  0.566233  0.067724  0.000000  1
  Si  Si11  1  0.432276  0.933767  0.000000  1
  Si  Si12  1  0.068001  0.431999  0.000000  1
  Si  Si13  1  0.932311  0.567689  0.000000  1
  Si  Si14  1  0.201114  0.165201  0.000000  1
  Si  Si15  1  0.800093  0.834704  0.000000  1
  Si  Si16  1  0.165876  0.801482  0.000000  1
  Si  Si17  1  0.698518  0.334124  0.000000  1
  Si  Si18  1  0.834477  0.200038  0.000000  1
  Si  Si19  1  0.299962  0.665523  0.000000  1
  Si  Si20  1  0.665296  0.699907  0.000000  1
  Si  Si21  1  0.334799  0.298886  0.000000  1
  Si  Si22  1  0.007647  0.150270  0.500000  1
  Si  Si23  1  0.992524  0.849372  0.500000  1
  Si  Si24  1  0.152216  0.993935  0.500000  1
  Si  Si25  1  0.506065  0.347784  0.500000  1
  Si  Si26  1  0.849151  0.007728  0.500000  1
  Si  Si27  1  0.492272  0.650849  0.500000  1
  Si  Si28  1  0.650628  0.507476  0.500000  1
  Si  Si29  1  0.349730  0.492353  0.500000  1
  Ir  Ir30  1  0.021586  0.243422  0.000000  1
  Ir  Ir31  1  0.979637  0.756342  0.000000  1
  Ir  Ir32  1  0.246222  0.981328  0.000000  1
  Ir  Ir33  1  0.518672  0.253778  0.000000  1
  Ir  Ir34  1  0.755538  0.021471  0.000000  1
  Ir  Ir35  1  0.478529  0.744462  0.000000  1
  Ir  Ir36  1  0.743658  0.520363  0.000000  1
  Ir  Ir37  1  0.256578  0.478414  0.000000  1
