# generated using pymatgen
data_DyLu3Co2(Si2Ru)2
_symmetry_space_group_name_H-M   'P 1'
_cell_length_a   4.19850300
_cell_length_b   7.01986681
_cell_length_c   6.81234829
_cell_angle_alpha   89.88671713
_cell_angle_beta   90.00000000
_cell_angle_gamma   90.00000000
_symmetry_Int_Tables_number   1
_chemical_formula_structural   DyLu3Co2(Si2Ru)2
_chemical_formula_sum   'Dy1 Lu3 Co2 Si4 Ru2'
_cell_volume   200.77948462
_cell_formula_units_Z   1
loop_
 _symmetry_equiv_pos_site_id
 _symmetry_equiv_pos_as_xyz
  1  'x, y, z'
loop_
 _atom_site_type_symbol
 _atom_site_label
 _atom_site_symmetry_multiplicity
 _atom_site_fract_x
 _atom_site_fract_y
 _atom_site_fract_z
 _atom_site_occupancy
  Dy  Dy0  1  0.250000  0.679957  0.989166  1
  Lu  Lu1  1  0.750000  0.195763  0.510308  1
  Lu  Lu2  1  0.250000  0.805195  0.490619  1
  Lu  Lu3  1  0.750000  0.313201  0.013345  1
  Co  Co4  1  0.250000  0.436101  0.649211  1
  Co  Co5  1  0.750000  0.562250  0.348658  1
  Si  Si6  1  0.750000  0.892713  0.204272  1
  Si  Si7  1  0.250000  0.112060  0.795549  1
  Si  Si8  1  0.750000  0.602283  0.692149  1
  Si  Si9  1  0.250000  0.395364  0.308248  1
  Ru  Ru10  1  0.250000  0.069889  0.156429  1
  Ru  Ru11  1  0.750000  0.935225  0.842045  1
