# generated using pymatgen
data_Er7Tm3(InBi2)2
_symmetry_space_group_name_H-M   'P 1'
_cell_length_a   6.46121414
_cell_length_b   9.02874364
_cell_length_c   8.99724487
_cell_angle_alpha   120.11403971
_cell_angle_beta   89.97884910
_cell_angle_gamma   90.00185222
_symmetry_Int_Tables_number   1
_chemical_formula_structural   Er7Tm3(InBi2)2
_chemical_formula_sum   'Er7 Tm3 In2 Bi4'
_cell_volume   454.02668507
_cell_formula_units_Z   1
loop_
 _symmetry_equiv_pos_site_id
 _symmetry_equiv_pos_as_xyz
  1  'x, y, z'
loop_
 _atom_site_type_symbol
 _atom_site_label
 _atom_site_symmetry_multiplicity
 _atom_site_fract_x
 _atom_site_fract_y
 _atom_site_fract_z
 _atom_site_occupancy
  Er  Er0  1  0.496916  0.331394  0.660081  1
  Er  Er1  1  0.749997  0.235793  0.999981  1
  Er  Er2  1  0.750047  0.765433  0.763358  1
  Er  Er3  1  0.750099  0.002036  0.236594  1
  Er  Er4  1  0.249987  0.767538  0.000017  1
  Er  Er5  1  0.249924  0.233394  0.242373  1
  Er  Er6  1  0.249944  0.990929  0.757524  1
  Tm  Tm7  1  0.496495  0.671538  0.340225  1
  Tm  Tm8  1  0.003436  0.671507  0.340162  1
  Tm  Tm9  1  0.003375  0.331292  0.659780  1
  In  In10  1  0.249721  0.604312  0.606012  1
  In  In11  1  0.249793  0.997859  0.393728  1
  Bi  Bi12  1  0.750103  0.606391  0.000184  1
  Bi  Bi13  1  0.750129  0.396942  0.393380  1
  Bi  Bi14  1  0.750187  0.003147  0.606431  1
  Bi  Bi15  1  0.249844  0.390497  0.000170  1
