# generated using pymatgen
data_Ca8Mn2CoN8
_symmetry_space_group_name_H-M   'P 1'
_cell_length_a   9.25297054
_cell_length_b   4.99691855
_cell_length_c   7.14021750
_cell_angle_alpha   90.00001188
_cell_angle_beta   74.98921018
_cell_angle_gamma   74.33471107
_symmetry_Int_Tables_number   1
_chemical_formula_structural   Ca8Mn2CoN8
_chemical_formula_sum   'Ca8 Mn2 Co1 N8'
_cell_volume   306.15858463
_cell_formula_units_Z   1
loop_
 _symmetry_equiv_pos_site_id
 _symmetry_equiv_pos_as_xyz
  1  'x, y, z'
loop_
 _atom_site_type_symbol
 _atom_site_label
 _atom_site_symmetry_multiplicity
 _atom_site_fract_x
 _atom_site_fract_y
 _atom_site_fract_z
 _atom_site_occupancy
  Ca  Ca0  1  0.055411  0.972295  0.743075  1
  Ca  Ca1  1  0.944589  0.027705  0.256925  1
  Ca  Ca2  1  0.671553  0.664223  0.469101  1
  Ca  Ca3  1  0.328447  0.335777  0.530899  1
  Ca  Ca4  1  0.810895  0.594553  0.963524  1
  Ca  Ca5  1  0.189105  0.405447  0.036476  1
  Ca  Ca6  1  0.400421  0.799790  0.192788  1
  Ca  Ca7  1  0.599579  0.200210  0.807212  1
  Mn  Mn8  1  0.375897  0.812051  0.791806  1
  Mn  Mn9  1  0.624103  0.187949  0.208194  1
  Co  Co10  1  0.000000  0.500000  0.500000  1
  N  N11  1  0.209744  0.895127  0.996511  1
  N  N12  1  0.790256  0.104873  0.003489  1
  N  N13  1  0.350960  0.824520  0.561086  1
  N  N14  1  0.649040  0.175480  0.438914  1
  N  N15  1  0.563037  0.718481  0.825348  1
  N  N16  1  0.436963  0.281519  0.174652  1
  N  N17  1  0.946428  0.526785  0.275511  1
  N  N18  1  0.053572  0.473215  0.724489  1
