# generated using pymatgen
data_Dy5Ho12(ErBi4)3
_symmetry_space_group_name_H-M   'P 1'
_cell_length_a   8.23081602
_cell_length_b   9.50508417
_cell_length_c   12.00594301
_cell_angle_alpha   89.99066386
_cell_angle_beta   90.03054736
_cell_angle_gamma   90.00523965
_symmetry_Int_Tables_number   1
_chemical_formula_structural   Dy5Ho12(ErBi4)3
_chemical_formula_sum   'Dy5 Ho12 Er3 Bi12'
_cell_volume   939.27998673
_cell_formula_units_Z   1
loop_
 _symmetry_equiv_pos_site_id
 _symmetry_equiv_pos_as_xyz
  1  'x, y, z'
loop_
 _atom_site_type_symbol
 _atom_site_label
 _atom_site_symmetry_multiplicity
 _atom_site_fract_x
 _atom_site_fract_y
 _atom_site_fract_z
 _atom_site_occupancy
  Dy  Dy0  1  0.192128  0.563729  0.440963  1
  Dy  Dy1  1  0.312909  0.250022  0.218331  1
  Dy  Dy2  1  0.813115  0.250022  0.281560  1
  Dy  Dy3  1  0.687059  0.750059  0.781719  1
  Dy  Dy4  1  0.187192  0.750157  0.718491  1
  Ho  Ho5  1  0.353234  0.750262  0.216337  1
  Ho  Ho6  1  0.852616  0.750213  0.283428  1
  Ho  Ho7  1  0.647144  0.250099  0.783643  1
  Ho  Ho8  1  0.147200  0.250245  0.716489  1
  Ho  Ho9  1  0.692346  0.564554  0.058981  1
  Ho  Ho10  1  0.192344  0.935216  0.440867  1
  Ho  Ho11  1  0.307556  0.064528  0.941054  1
  Ho  Ho12  1  0.807933  0.435439  0.558988  1
  Ho  Ho13  1  0.307680  0.435459  0.940977  1
  Ho  Ho14  1  0.807376  0.064387  0.559205  1
  Ho  Ho15  1  0.692396  0.935497  0.058955  1
  Ho  Ho16  1  0.475644  0.250069  0.488253  1
  Er  Er17  1  0.975718  0.250111  0.011622  1
  Er  Er18  1  0.524512  0.750058  0.511755  1
  Er  Er19  1  0.024338  0.750021  0.988292  1
  Bi  Bi20  1  0.405817  0.749982  0.957822  1
  Bi  Bi21  1  0.905701  0.750219  0.542269  1
  Bi  Bi22  1  0.594200  0.250022  0.042129  1
  Bi  Bi23  1  0.093575  0.248829  0.458051  1
  Bi  Bi24  1  0.565672  0.995225  0.325948  1
  Bi  Bi25  1  0.065469  0.504873  0.173757  1
  Bi  Bi26  1  0.434439  0.495460  0.674124  1
  Bi  Bi27  1  0.934421  0.004897  0.826132  1
  Bi  Bi28  1  0.434451  0.004736  0.674051  1
  Bi  Bi29  1  0.934322  0.495311  0.826133  1
  Bi  Bi30  1  0.565943  0.505016  0.325886  1
  Bi  Bi31  1  0.065554  0.995281  0.173788  1
