# generated using pymatgen
data_BaP4Pt12Pb
_symmetry_space_group_name_H-M   'P 1'
_cell_length_a   8.59502121
_cell_length_b   8.63341400
_cell_length_c   8.61298620
_cell_angle_alpha   90.00000000
_cell_angle_beta   90.11330642
_cell_angle_gamma   90.00000000
_symmetry_Int_Tables_number   1
_chemical_formula_structural   BaP4Pt12Pb
_chemical_formula_sum   'Ba2 P8 Pt24 Pb2'
_cell_volume   639.12002072
_cell_formula_units_Z   2
loop_
 _symmetry_equiv_pos_site_id
 _symmetry_equiv_pos_as_xyz
  1  'x, y, z'
loop_
 _atom_site_type_symbol
 _atom_site_label
 _atom_site_symmetry_multiplicity
 _atom_site_fract_x
 _atom_site_fract_y
 _atom_site_fract_z
 _atom_site_occupancy
  Ba  Ba0  1  0.500000  0.500000  0.000000  1
  Ba  Ba1  1  0.500000  0.000000  0.500000  1
  P  P2  1  0.805516  0.308755  0.194564  1
  P  P3  1  0.194484  0.808755  0.305436  1
  P  P4  1  0.693979  0.697153  0.693130  1
  P  P5  1  0.306021  0.197153  0.806870  1
  P  P6  1  0.194484  0.691245  0.805436  1
  P  P7  1  0.805516  0.191245  0.694564  1
  P  P8  1  0.306021  0.302847  0.306870  1
  P  P9  1  0.693979  0.802847  0.193130  1
  Pt  Pt10  1  0.424365  0.842662  0.156035  1
  Pt  Pt11  1  0.575635  0.342662  0.343965  1
  Pt  Pt12  1  0.081067  0.156287  0.656631  1
  Pt  Pt13  1  0.918933  0.656287  0.843369  1
  Pt  Pt14  1  0.150514  0.423639  0.838659  1
  Pt  Pt15  1  0.336696  0.579859  0.346567  1
  Pt  Pt16  1  0.663304  0.079859  0.153433  1
  Pt  Pt17  1  0.849486  0.923639  0.661341  1
  Pt  Pt18  1  0.847274  0.163374  0.422065  1
  Pt  Pt19  1  0.337806  0.349127  0.578394  1
  Pt  Pt20  1  0.152726  0.663374  0.077935  1
  Pt  Pt21  1  0.662194  0.849127  0.921606  1
  Pt  Pt22  1  0.575635  0.157338  0.843965  1
  Pt  Pt23  1  0.424365  0.657338  0.656035  1
  Pt  Pt24  1  0.918933  0.843713  0.343369  1
  Pt  Pt25  1  0.081067  0.343713  0.156631  1
  Pt  Pt26  1  0.849486  0.576361  0.161341  1
  Pt  Pt27  1  0.663304  0.420141  0.653433  1
  Pt  Pt28  1  0.336696  0.920141  0.846567  1
  Pt  Pt29  1  0.150514  0.076361  0.338659  1
  Pt  Pt30  1  0.152726  0.836626  0.577935  1
  Pt  Pt31  1  0.662194  0.650873  0.421606  1
  Pt  Pt32  1  0.847274  0.336626  0.922065  1
  Pt  Pt33  1  0.337806  0.150873  0.078394  1
  Pb  Pb34  1  0.000000  0.500000  0.500000  1
  Pb  Pb35  1  0.000000  0.000000  0.000000  1
