# generated using pymatgen
data_CeGd7Dy2(SiB4)4
_symmetry_space_group_name_H-M   'P 1'
_cell_length_a   7.27023956
_cell_length_b   7.27023956
_cell_length_c   8.21716408
_cell_angle_alpha   89.98848183
_cell_angle_beta   89.98848183
_cell_angle_gamma   90.04356485
_symmetry_Int_Tables_number   1
_chemical_formula_structural   CeGd7Dy2(SiB4)4
_chemical_formula_sum   'Ce1 Gd7 Dy2 Si4 B16'
_cell_volume   434.32943122
_cell_formula_units_Z   1
loop_
 _symmetry_equiv_pos_site_id
 _symmetry_equiv_pos_as_xyz
  1  'x, y, z'
loop_
 _atom_site_type_symbol
 _atom_site_label
 _atom_site_symmetry_multiplicity
 _atom_site_fract_x
 _atom_site_fract_y
 _atom_site_fract_z
 _atom_site_occupancy
  Ce  Ce0  1  0.681952  0.181952  0.229204  1
  Gd  Gd1  1  0.318748  0.818748  0.776332  1
  Gd  Gd2  1  0.319444  0.819444  0.224084  1
  Gd  Gd3  1  0.819192  0.680684  0.223855  1
  Gd  Gd4  1  0.819699  0.680830  0.776111  1
  Gd  Gd5  1  0.680764  0.180764  0.775584  1
  Gd  Gd6  1  0.180830  0.319699  0.776111  1
  Gd  Gd7  1  0.180684  0.319192  0.223855  1
  Dy  Dy8  1  0.000835  0.999083  0.500549  1
  Dy  Dy9  1  0.499083  0.500835  0.500549  1
  Si  Si10  1  0.114902  0.614902  0.500779  1
  Si  Si11  1  0.885619  0.385619  0.499550  1
  Si  Si12  1  0.385537  0.114318  0.499162  1
  Si  Si13  1  0.614318  0.885537  0.499162  1
  B  B14  1  0.172566  0.039096  0.999446  1
  B  B15  1  0.827636  0.960854  0.999818  1
  B  B16  1  0.960452  0.171916  0.999558  1
  B  B17  1  0.327436  0.539787  0.999493  1
  B  B18  1  0.039787  0.827436  0.999493  1
  B  B19  1  0.671916  0.460452  0.999558  1
  B  B20  1  0.539096  0.672566  0.999446  1
  B  B21  1  0.460854  0.327636  0.999818  1
  B  B22  1  0.090458  0.590458  0.999663  1
  B  B23  1  0.909296  0.409296  0.000969  1
  B  B24  1  0.409583  0.090177  0.999881  1
  B  B25  1  0.590177  0.909583  0.999881  1
  B  B26  1  0.999293  0.999803  0.158819  1
  B  B27  1  0.000318  0.999723  0.840224  1
  B  B28  1  0.499723  0.500318  0.840224  1
  B  B29  1  0.499803  0.499293  0.158819  1
