# generated using pymatgen
data_Np3USb5
_symmetry_space_group_name_H-M   'P 1'
_cell_length_a   9.51695000
_cell_length_b   9.51409012
_cell_length_c   6.07215400
_cell_angle_alpha   90.00000000
_cell_angle_beta   90.00000000
_cell_angle_gamma   120.00994406
_symmetry_Int_Tables_number   1
_chemical_formula_structural   Np3USb5
_chemical_formula_sum   'Np6 U2 Sb10'
_cell_volume   476.09643718
_cell_formula_units_Z   2
loop_
 _symmetry_equiv_pos_site_id
 _symmetry_equiv_pos_as_xyz
  1  'x, y, z'
loop_
 _atom_site_type_symbol
 _atom_site_label
 _atom_site_symmetry_multiplicity
 _atom_site_fract_x
 _atom_site_fract_y
 _atom_site_fract_z
 _atom_site_occupancy
  Np  Np0  1  0.616162  0.000000  0.250000  1
  Np  Np1  1  0.386819  0.000000  0.750000  1
  Np  Np2  1  0.385846  0.387113  0.250000  1
  Np  Np3  1  0.998733  0.612887  0.250000  1
  Np  Np4  1  0.997857  0.382936  0.750000  1
  Np  Np5  1  0.614922  0.617064  0.750000  1
  U  U6  1  0.000842  0.000000  0.996161  1
  U  U7  1  0.000842  0.000000  0.503839  1
  Sb  Sb8  1  0.665472  0.333480  0.499722  1
  Sb  Sb9  1  0.331989  0.666520  0.000278  1
  Sb  Sb10  1  0.719984  0.000000  0.750000  1
  Sb  Sb11  1  0.721474  0.721253  0.250000  1
  Sb  Sb12  1  0.331989  0.666520  0.499722  1
  Sb  Sb13  1  0.665472  0.333480  0.000278  1
  Sb  Sb14  1  0.280052  0.000000  0.250000  1
  Sb  Sb15  1  0.281359  0.281396  0.750000  1
  Sb  Sb16  1  0.999962  0.718604  0.750000  1
  Sb  Sb17  1  0.000221  0.278747  0.250000  1
