# generated using pymatgen
data_RbTb2DySe5
_symmetry_space_group_name_H-M   'P 1'
_cell_length_a   4.16134700
_cell_length_b   12.35254900
_cell_length_c   22.24907100
_cell_angle_alpha   90.00000000
_cell_angle_beta   90.00000000
_cell_angle_gamma   90.00000000
_symmetry_Int_Tables_number   1
_chemical_formula_structural   RbTb2DySe5
_chemical_formula_sum   'Rb4 Tb8 Dy4 Se20'
_cell_volume   1143.67439699
_cell_formula_units_Z   4
loop_
 _symmetry_equiv_pos_site_id
 _symmetry_equiv_pos_as_xyz
  1  'x, y, z'
loop_
 _atom_site_type_symbol
 _atom_site_label
 _atom_site_symmetry_multiplicity
 _atom_site_fract_x
 _atom_site_fract_y
 _atom_site_fract_z
 _atom_site_occupancy
  Rb  Rb0  1  0.250000  0.845625  0.097757  1
  Rb  Rb1  1  0.750000  0.154375  0.902243  1
  Rb  Rb2  1  0.750000  0.345625  0.402243  1
  Rb  Rb3  1  0.250000  0.654375  0.597757  1
  Tb  Tb4  1  0.750000  0.803587  0.828616  1
  Tb  Tb5  1  0.250000  0.196413  0.171384  1
  Tb  Tb6  1  0.250000  0.303587  0.671384  1
  Tb  Tb7  1  0.750000  0.696413  0.328616  1
  Tb  Tb8  1  0.250000  0.960172  0.698660  1
  Tb  Tb9  1  0.750000  0.039828  0.301340  1
  Tb  Tb10  1  0.750000  0.460172  0.801340  1
  Tb  Tb11  1  0.250000  0.539828  0.198660  1
  Dy  Dy12  1  0.750000  0.388665  0.052578  1
  Dy  Dy13  1  0.250000  0.611335  0.947422  1
  Dy  Dy14  1  0.250000  0.888665  0.447422  1
  Dy  Dy15  1  0.750000  0.111335  0.552578  1
  Se  Se16  1  0.250000  0.948657  0.569541  1
  Se  Se17  1  0.750000  0.051343  0.430459  1
  Se  Se18  1  0.750000  0.448657  0.930459  1
  Se  Se19  1  0.250000  0.551343  0.069541  1
  Se  Se20  1  0.750000  0.769266  0.956016  1
  Se  Se21  1  0.250000  0.230734  0.043984  1
  Se  Se22  1  0.250000  0.269266  0.543984  1
  Se  Se23  1  0.750000  0.730734  0.456016  1
  Se  Se24  1  0.250000  0.958799  0.827480  1
  Se  Se25  1  0.750000  0.041201  0.172520  1
  Se  Se26  1  0.750000  0.458799  0.672520  1
  Se  Se27  1  0.250000  0.541201  0.327480  1
  Se  Se28  1  0.750000  0.130875  0.683133  1
  Se  Se29  1  0.250000  0.869125  0.316867  1
  Se  Se30  1  0.250000  0.630875  0.816867  1
  Se  Se31  1  0.750000  0.369125  0.183133  1
  Se  Se32  1  0.750000  0.693630  0.199679  1
  Se  Se33  1  0.250000  0.306370  0.800321  1
  Se  Se34  1  0.250000  0.193630  0.300321  1
  Se  Se35  1  0.750000  0.806370  0.699679  1
