# generated using pymatgen
data_Yb3Sn(Rh2O7)2
_symmetry_space_group_name_H-M   'P 1'
_cell_length_a   7.10549621
_cell_length_b   7.20687458
_cell_length_c   7.20687400
_cell_angle_alpha   119.99998817
_cell_angle_beta   90.00000000
_cell_angle_gamma   120.47309315
_symmetry_Int_Tables_number   1
_chemical_formula_structural   Yb3Sn(Rh2O7)2
_chemical_formula_sum   'Yb3 Sn1 Rh4 O14'
_cell_volume   259.07799976
_cell_formula_units_Z   1
loop_
 _symmetry_equiv_pos_site_id
 _symmetry_equiv_pos_as_xyz
  1  'x, y, z'
loop_
 _atom_site_type_symbol
 _atom_site_label
 _atom_site_symmetry_multiplicity
 _atom_site_fract_x
 _atom_site_fract_y
 _atom_site_fract_z
 _atom_site_occupancy
  Yb  Yb0  1  0.000000  0.000000  0.000000  1
  Yb  Yb1  1  0.000000  0.500000  0.000000  1
  Yb  Yb2  1  0.000000  0.500000  0.499999  1
  Sn  Sn3  1  0.500000  0.000000  0.000000  1
  Rh  Rh4  1  0.500001  0.500000  0.000000  1
  Rh  Rh5  1  0.000000  0.000000  0.499999  1
  Rh  Rh6  1  0.500002  0.500001  0.500001  1
  Rh  Rh7  1  0.500000  0.000000  0.500001  1
  O  O8  1  0.843378  0.228920  0.114459  1
  O  O9  1  0.436973  0.767434  0.169539  1
  O  O10  1  0.436974  0.339080  0.169539  1
  O  O11  1  0.832669  0.749031  0.165393  1
  O  O12  1  0.167332  0.832722  0.416362  1
  O  O13  1  0.167333  0.250969  0.416362  1
  O  O14  1  0.563026  0.232567  0.402107  1
  O  O15  1  0.832668  0.167277  0.583639  1
  O  O16  1  0.436974  0.767434  0.597894  1
  O  O17  1  0.832669  0.749030  0.583639  1
  O  O18  1  0.563027  0.660919  0.830460  1
  O  O19  1  0.167332  0.250969  0.834608  1
  O  O20  1  0.563026  0.232566  0.830461  1
  O  O21  1  0.156622  0.771080  0.885539  1
