# generated using pymatgen
data_Ta4Ti4Co8Si13As
_symmetry_space_group_name_H-M   'P 1'
_cell_length_a   9.20442560
_cell_length_b   9.20431636
_cell_length_c   9.22548238
_cell_angle_alpha   94.20919696
_cell_angle_beta   94.20583615
_cell_angle_gamma   148.53593740
_symmetry_Int_Tables_number   1
_chemical_formula_structural   Ta4Ti4Co8Si13As
_chemical_formula_sum   'Ta4 Ti4 Co8 Si13 As1'
_cell_volume   392.74022968
_cell_formula_units_Z   1
loop_
 _symmetry_equiv_pos_site_id
 _symmetry_equiv_pos_as_xyz
  1  'x, y, z'
loop_
 _atom_site_type_symbol
 _atom_site_label
 _atom_site_symmetry_multiplicity
 _atom_site_fract_x
 _atom_site_fract_y
 _atom_site_fract_z
 _atom_site_occupancy
  Ta  Ta0  1  0.132183  0.132213  0.264363  1
  Ta  Ta1  1  0.868038  0.868099  0.736154  1
  Ta  Ta2  1  0.866708  0.133062  0.999764  1
  Ta  Ta3  1  0.133092  0.866742  0.999842  1
  Ti  Ti4  1  0.498743  0.691369  0.190165  1
  Ti  Ti5  1  0.502841  0.308270  0.811085  1
  Ti  Ti6  1  0.308229  0.502765  0.810968  1
  Ti  Ti7  1  0.691370  0.498734  0.190128  1
  Co  Co8  1  0.399399  0.899384  0.798927  1
  Co  Co9  1  0.100748  0.600729  0.201535  1
  Co  Co10  1  0.099031  0.897320  0.498686  1
  Co  Co11  1  0.399557  0.601186  0.498699  1
  Co  Co12  1  0.601359  0.399676  0.498675  1
  Co  Co13  1  0.897519  0.099156  0.498691  1
  Co  Co14  1  0.899558  0.399550  0.798934  1
  Co  Co15  1  0.600763  0.100747  0.201524  1
  Si  Si16  1  0.703381  0.703370  0.406655  1
  Si  Si17  1  0.706993  0.293501  0.000518  1
  Si  Si18  1  0.293497  0.707008  0.000498  1
  Si  Si19  1  0.999495  0.296337  0.295893  1
  Si  Si20  1  0.000292  0.702904  0.703172  1
  Si  Si21  1  0.702879  0.000285  0.703124  1
  Si  Si22  1  0.296377  0.999513  0.295896  1
  Si  Si23  1  0.499796  0.905591  0.405323  1
  Si  Si24  1  0.500569  0.093712  0.594322  1
  Si  Si25  1  0.093706  0.500598  0.594339  1
  Si  Si26  1  0.905546  0.499779  0.405343  1
  Si  Si27  1  0.747876  0.747881  0.000243  1
  Si  Si28  1  0.252352  0.252357  0.000237  1
  As  As29  1  0.298101  0.298159  0.596295  1
