# generated using pymatgen
data_CaHo5ErCo6Sn23
_symmetry_space_group_name_H-M   'P 1'
_cell_length_a   9.71766900
_cell_length_b   9.71759858
_cell_length_c   9.95573900
_cell_angle_alpha   89.99785296
_cell_angle_beta   90.00148530
_cell_angle_gamma   120.00036245
_symmetry_Int_Tables_number   1
_chemical_formula_structural   CaHo5ErCo6Sn23
_chemical_formula_sum   'Ca1 Ho5 Er1 Co6 Sn23'
_cell_volume   814.18595299
_cell_formula_units_Z   1
loop_
 _symmetry_equiv_pos_site_id
 _symmetry_equiv_pos_as_xyz
  1  'x, y, z'
loop_
 _atom_site_type_symbol
 _atom_site_label
 _atom_site_symmetry_multiplicity
 _atom_site_fract_x
 _atom_site_fract_y
 _atom_site_fract_z
 _atom_site_occupancy
  Ca  Ca0  1  0.999996  0.999999  0.999991  1
  Ho  Ho1  1  0.520808  0.041690  0.693666  1
  Ho  Ho2  1  0.958309  0.479183  0.693663  1
  Ho  Ho3  1  0.041694  0.520808  0.306341  1
  Ho  Ho4  1  0.479200  0.958312  0.306339  1
  Ho  Ho5  1  0.479164  0.520846  0.306377  1
  Er  Er6  1  0.520732  0.479210  0.693674  1
  Co  Co7  1  0.168670  0.831326  0.801401  1
  Co  Co8  1  0.168810  0.337441  0.801364  1
  Co  Co9  1  0.662556  0.831186  0.801362  1
  Co  Co10  1  0.337398  0.168686  0.198603  1
  Co  Co11  1  0.831319  0.662605  0.198604  1
  Co  Co12  1  0.831321  0.168685  0.198580  1
  Sn  Sn13  1  0.666673  0.333331  0.183413  1
  Sn  Sn14  1  0.666570  0.333434  0.880645  1
  Sn  Sn15  1  0.333336  0.666663  0.119234  1
  Sn  Sn16  1  0.346150  0.346149  0.999948  1
  Sn  Sn17  1  0.999988  0.653800  0.999979  1
  Sn  Sn18  1  0.653796  0.999963  0.999992  1
  Sn  Sn19  1  0.653852  0.653856  0.999947  1
  Sn  Sn20  1  0.333356  0.666648  0.816571  1
  Sn  Sn21  1  0.437315  0.218717  0.451997  1
  Sn  Sn22  1  0.218678  0.781320  0.548090  1
  Sn  Sn23  1  0.218802  0.437324  0.548165  1
  Sn  Sn24  1  0.562682  0.781198  0.548170  1
  Sn  Sn25  1  0.117491  0.882518  0.274008  1
  Sn  Sn26  1  0.781286  0.562682  0.452004  1
  Sn  Sn27  1  0.781327  0.218677  0.451930  1
  Sn  Sn28  1  0.346195  0.000017  0.999981  1
  Sn  Sn29  1  0.117557  0.235074  0.274052  1
  Sn  Sn30  1  0.764917  0.882449  0.274055  1
  Sn  Sn31  1  0.235186  0.117691  0.725930  1
  Sn  Sn32  1  0.882311  0.764826  0.725932  1
  Sn  Sn33  1  0.882514  0.117485  0.726000  1
  Sn  Sn34  1  0.000005  0.999994  0.500001  1
  Sn  Sn35  1  0.000036  0.346209  0.999991  1
