# generated using pymatgen
data_Th4Fe4HgI
_symmetry_space_group_name_H-M   'P 1'
_cell_length_a   3.99423900
_cell_length_b   3.99423973
_cell_length_c   17.66873200
_cell_angle_alpha   90.00000000
_cell_angle_beta   90.00000000
_cell_angle_gamma   120.00000221
_symmetry_Int_Tables_number   1
_chemical_formula_structural   Th4Fe4HgI
_chemical_formula_sum   'Th4 Fe4 Hg1 I1'
_cell_volume   244.12046061
_cell_formula_units_Z   1
loop_
 _symmetry_equiv_pos_site_id
 _symmetry_equiv_pos_as_xyz
  1  'x, y, z'
loop_
 _atom_site_type_symbol
 _atom_site_label
 _atom_site_symmetry_multiplicity
 _atom_site_fract_x
 _atom_site_fract_y
 _atom_site_fract_z
 _atom_site_occupancy
  Th  Th0  1  0.000000  0.000000  0.111903  1
  Th  Th1  1  0.000000  0.000000  0.598984  1
  Th  Th2  1  0.000000  0.000000  0.901016  1
  Th  Th3  1  0.000000  0.000000  0.388097  1
  Fe  Fe4  1  0.666667  0.333333  0.004558  1
  Fe  Fe5  1  0.333333  0.666667  0.495902  1
  Fe  Fe6  1  0.333333  0.666667  0.004098  1
  Fe  Fe7  1  0.666667  0.333333  0.495442  1
  Hg  Hg8  1  0.666667  0.333333  0.250000  1
  I  I9  1  0.333333  0.666667  0.750000  1
