# generated using pymatgen
data_CrMoCl10
_symmetry_space_group_name_H-M   'P 1'
_cell_length_a   6.71646133
_cell_length_b   7.19047413
_cell_length_c   11.26609269
_cell_angle_alpha   99.21556838
_cell_angle_beta   91.92385024
_cell_angle_gamma   113.69487285
_symmetry_Int_Tables_number   1
_chemical_formula_structural   CrMoCl10
_chemical_formula_sum   'Cr1 Mo1 Cl10'
_cell_volume   488.89752315
_cell_formula_units_Z   1
loop_
 _symmetry_equiv_pos_site_id
 _symmetry_equiv_pos_as_xyz
  1  'x, y, z'
loop_
 _atom_site_type_symbol
 _atom_site_label
 _atom_site_symmetry_multiplicity
 _atom_site_fract_x
 _atom_site_fract_y
 _atom_site_fract_z
 _atom_site_occupancy
  Cr  Cr0  1  0.137599  0.790415  0.790836  1
  Mo  Mo1  1  0.901826  0.292967  0.292493  1
  Cl  Cl2  1  0.176393  0.599056  0.393785  1
  Cl  Cl3  1  0.102949  0.115518  0.343063  1
  Cl  Cl4  1  0.733103  0.241526  0.467510  1
  Cl  Cl5  1  0.427529  0.065644  0.822549  1
  Cl  Cl6  1  0.919348  0.807082  0.657663  1
  Cl  Cl7  1  0.630440  0.987359  0.187451  1
  Cl  Cl8  1  0.067267  0.340595  0.116260  1
  Cl  Cl9  1  0.213275  0.535477  0.728860  1
  Cl  Cl10  1  0.700100  0.472529  0.246387  1
  Cl  Cl11  1  0.990171  0.751830  0.953144  1
