# generated using pymatgen
data_Lu8Al2IrRh
_symmetry_space_group_name_H-M   'P 1'
_cell_length_a   9.33848168
_cell_length_b   9.33848194
_cell_length_c   9.36091800
_cell_angle_alpha   59.92049280
_cell_angle_beta   59.92049186
_cell_angle_gamma   59.83617353
_symmetry_Int_Tables_number   1
_chemical_formula_structural   Lu8Al2IrRh
_chemical_formula_sum   'Lu16 Al4 Ir2 Rh2'
_cell_volume   575.82926332
_cell_formula_units_Z   2
loop_
 _symmetry_equiv_pos_site_id
 _symmetry_equiv_pos_as_xyz
  1  'x, y, z'
loop_
 _atom_site_type_symbol
 _atom_site_label
 _atom_site_symmetry_multiplicity
 _atom_site_fract_x
 _atom_site_fract_y
 _atom_site_fract_z
 _atom_site_occupancy
  Lu  Lu0  1  0.603193  0.603193  0.603299  1
  Lu  Lu1  1  0.603193  0.603193  0.190317  1
  Lu  Lu2  1  0.602731  0.191234  0.603018  1
  Lu  Lu3  1  0.191234  0.602731  0.603018  1
  Lu  Lu4  1  0.055494  0.444441  0.445234  1
  Lu  Lu5  1  0.444441  0.055494  0.054831  1
  Lu  Lu6  1  0.444441  0.055494  0.445234  1
  Lu  Lu7  1  0.055494  0.444441  0.054831  1
  Lu  Lu8  1  0.444979  0.444979  0.055021  1
  Lu  Lu9  1  0.055158  0.055158  0.444842  1
  Lu  Lu10  1  0.187462  0.811051  0.813755  1
  Lu  Lu11  1  0.811051  0.187462  0.187733  1
  Lu  Lu12  1  0.811051  0.187462  0.813755  1
  Lu  Lu13  1  0.187462  0.811051  0.187733  1
  Lu  Lu14  1  0.812975  0.812975  0.187025  1
  Lu  Lu15  1  0.188087  0.188087  0.811913  1
  Al  Al16  1  0.828811  0.828811  0.828861  1
  Al  Al17  1  0.828811  0.828811  0.513517  1
  Al  Al18  1  0.828877  0.513223  0.828950  1
  Al  Al19  1  0.513223  0.828877  0.828950  1
  Ir  Ir20  1  0.392656  0.392656  0.391400  1
  Ir  Ir21  1  0.392656  0.392656  0.823287  1
  Rh  Rh22  1  0.392466  0.824054  0.391739  1
  Rh  Rh23  1  0.824054  0.392466  0.391739  1
