# generated using pymatgen
data_Dy4Lu6HgSb5
_symmetry_space_group_name_H-M   'P 1'
_cell_length_a   6.29929600
_cell_length_b   8.88211046
_cell_length_c   8.86109700
_cell_angle_alpha   120.07849311
_cell_angle_beta   90.00001819
_cell_angle_gamma   89.99997153
_symmetry_Int_Tables_number   1
_chemical_formula_structural   Dy4Lu6HgSb5
_chemical_formula_sum   'Dy4 Lu6 Hg1 Sb5'
_cell_volume   429.02466420
_cell_formula_units_Z   1
loop_
 _symmetry_equiv_pos_site_id
 _symmetry_equiv_pos_as_xyz
  1  'x, y, z'
loop_
 _atom_site_type_symbol
 _atom_site_label
 _atom_site_symmetry_multiplicity
 _atom_site_fract_x
 _atom_site_fract_y
 _atom_site_fract_z
 _atom_site_occupancy
  Dy  Dy0  1  0.750001  0.753379  0.762452  1
  Dy  Dy1  1  0.750001  0.990927  0.237548  1
  Dy  Dy2  1  0.250001  0.244727  0.241595  1
  Dy  Dy3  1  0.250001  0.003132  0.758405  1
  Lu  Lu4  1  0.498839  0.337807  0.671277  1
  Lu  Lu5  1  0.498839  0.666531  0.328723  1
  Lu  Lu6  1  0.001160  0.666532  0.328723  1
  Lu  Lu7  1  0.001160  0.337808  0.671277  1
  Lu  Lu8  1  0.750001  0.247095  0.000000  1
  Lu  Lu9  1  0.249999  0.754449  0.000000  1
  Hg  Hg10  1  0.749999  0.601218  0.000000  1
  Sb  Sb11  1  0.750001  0.389198  0.388637  1
  Sb  Sb12  1  0.750001  0.000561  0.611363  1
  Sb  Sb13  1  0.250000  0.394755  0.000000  1
  Sb  Sb14  1  0.250000  0.610607  0.609337  1
  Sb  Sb15  1  0.250000  0.001271  0.390663  1
