# generated using pymatgen
data_Y4MnGa(Co2B)6
_symmetry_space_group_name_H-M   'P 1'
_cell_length_a   5.10882563
_cell_length_b   5.11779991
_cell_length_c   12.55155095
_cell_angle_alpha   90.01673269
_cell_angle_beta   89.95609257
_cell_angle_gamma   119.97859660
_symmetry_Int_Tables_number   1
_chemical_formula_structural   Y4MnGa(Co2B)6
_chemical_formula_sum   'Y4 Mn1 Ga1 Co12 B6'
_cell_volume   284.26664486
_cell_formula_units_Z   1
loop_
 _symmetry_equiv_pos_site_id
 _symmetry_equiv_pos_as_xyz
  1  'x, y, z'
loop_
 _atom_site_type_symbol
 _atom_site_label
 _atom_site_symmetry_multiplicity
 _atom_site_fract_x
 _atom_site_fract_y
 _atom_site_fract_z
 _atom_site_occupancy
  Y  Y0  1  0.000010  0.000031  0.999934  1
  Y  Y1  1  0.000001  0.000001  0.499980  1
  Y  Y2  1  0.999981  0.000007  0.260065  1
  Y  Y3  1  0.000009  0.999996  0.740160  1
  Mn  Mn4  1  0.666747  0.333469  0.999777  1
  Ga  Ga5  1  0.333306  0.666621  0.999830  1
  Co  Co6  1  0.500319  0.000662  0.159359  1
  Co  Co7  1  0.500331  0.499672  0.159359  1
  Co  Co8  1  0.999311  0.499668  0.159350  1
  Co  Co9  1  0.500305  0.000624  0.840569  1
  Co  Co10  1  0.500311  0.499668  0.840580  1
  Co  Co11  1  0.999300  0.499646  0.840599  1
  Co  Co12  1  0.500141  0.000293  0.385559  1
  Co  Co13  1  0.500141  0.499854  0.385572  1
  Co  Co14  1  0.999691  0.499849  0.385565  1
  Co  Co15  1  0.500147  0.000296  0.614499  1
  Co  Co16  1  0.500149  0.499844  0.614491  1
  Co  Co17  1  0.999692  0.499843  0.614483  1
  B  B18  1  0.333355  0.666706  0.499983  1
  B  B19  1  0.666619  0.333271  0.499987  1
  B  B20  1  0.333354  0.666718  0.269520  1
  B  B21  1  0.666593  0.333282  0.268769  1
  B  B22  1  0.666630  0.333280  0.731383  1
  B  B23  1  0.333356  0.666698  0.730629  1
