# generated using pymatgen
data_Ba6Lu3Fe(WO9)2
_symmetry_space_group_name_H-M   'P 1'
_cell_length_a   5.95241894
_cell_length_b   8.41907558
_cell_length_c   10.31783488
_cell_angle_alpha   65.92159047
_cell_angle_beta   73.23464261
_cell_angle_gamma   89.99999936
_symmetry_Int_Tables_number   1
_chemical_formula_structural   Ba6Lu3Fe(WO9)2
_chemical_formula_sum   'Ba6 Lu3 Fe1 W2 O18'
_cell_volume   447.89487308
_cell_formula_units_Z   1
loop_
 _symmetry_equiv_pos_site_id
 _symmetry_equiv_pos_as_xyz
  1  'x, y, z'
loop_
 _atom_site_type_symbol
 _atom_site_label
 _atom_site_symmetry_multiplicity
 _atom_site_fract_x
 _atom_site_fract_y
 _atom_site_fract_z
 _atom_site_occupancy
  Ba  Ba0  1  0.500000  0.269862  0.000000  1
  Ba  Ba1  1  0.841769  0.580749  0.316461  1
  Ba  Ba2  1  0.158231  0.897211  0.683539  1
  Ba  Ba3  1  0.500000  0.730138  0.000000  1
  Ba  Ba4  1  0.841769  0.102789  0.316461  1
  Ba  Ba5  1  0.158231  0.419251  0.683539  1
  Lu  Lu6  1  0.000000  0.000000  0.000000  1
  Lu  Lu7  1  0.333334  0.333334  0.333333  1
  Lu  Lu8  1  0.666666  0.666666  0.666667  1
  Fe  Fe9  1  0.000000  0.500000  0.000000  1
  W  W10  1  0.333298  0.833298  0.333403  1
  W  W11  1  0.666702  0.166702  0.666596  1
  O  O12  1  0.000000  0.254564  0.000000  1
  O  O13  1  0.331497  0.597731  0.337004  1
  O  O14  1  0.668503  0.934737  0.662996  1
  O  O15  1  0.161140  0.416188  0.167623  1
  O  O16  1  0.491076  0.756653  0.486692  1
  O  O17  1  0.821796  0.088828  0.822342  1
  O  O18  1  0.328761  0.583812  0.832377  1
  O  O19  1  0.644139  0.911172  0.177658  1
  O  O20  1  0.977770  0.243347  0.513308  1
  O  O21  1  0.000000  0.745436  0.000000  1
  O  O22  1  0.331497  0.065263  0.337004  1
  O  O23  1  0.668503  0.402269  0.662996  1
  O  O24  1  0.838860  0.583812  0.832377  1
  O  O25  1  0.178204  0.911172  0.177658  1
  O  O26  1  0.508924  0.243347  0.513308  1
  O  O27  1  0.671239  0.416188  0.167623  1
  O  O28  1  0.022230  0.756653  0.486692  1
  O  O29  1  0.355861  0.088828  0.822342  1
