# generated using pymatgen
data_LiErMg(P3Pd10)2
_symmetry_space_group_name_H-M   'P 1'
_cell_length_a   8.59932533
_cell_length_b   8.59932479
_cell_length_c   8.59932500
_cell_angle_alpha   59.99999533
_cell_angle_beta   59.99999743
_cell_angle_gamma   59.99999841
_symmetry_Int_Tables_number   1
_chemical_formula_structural   LiErMg(P3Pd10)2
_chemical_formula_sum   'Li1 Er1 Mg1 P6 Pd20'
_cell_volume   449.65359265
_cell_formula_units_Z   1
loop_
 _symmetry_equiv_pos_site_id
 _symmetry_equiv_pos_as_xyz
  1  'x, y, z'
loop_
 _atom_site_type_symbol
 _atom_site_label
 _atom_site_symmetry_multiplicity
 _atom_site_fract_x
 _atom_site_fract_y
 _atom_site_fract_z
 _atom_site_occupancy
  Li  Li0  1  0.000000  0.000000  0.000000  1
  Er  Er1  1  0.250000  0.250000  0.250000  1
  Mg  Mg2  1  0.750000  0.750000  0.750000  1
  P  P3  1  0.737590  0.262410  0.262410  1
  P  P4  1  0.737590  0.737590  0.262410  1
  P  P5  1  0.737590  0.262410  0.737590  1
  P  P6  1  0.262410  0.737590  0.262410  1
  P  P7  1  0.262410  0.737590  0.737590  1
  P  P8  1  0.262410  0.262410  0.737590  1
  Pd  Pd9  1  0.342658  0.001480  0.001480  1
  Pd  Pd10  1  0.001480  0.654383  0.342658  1
  Pd  Pd11  1  0.342658  0.001480  0.654383  1
  Pd  Pd12  1  0.001480  0.654383  0.001480  1
  Pd  Pd13  1  0.654383  0.342658  0.001480  1
  Pd  Pd14  1  0.617861  0.617861  0.146416  1
  Pd  Pd15  1  0.385297  0.844110  0.385297  1
  Pd  Pd16  1  0.146416  0.617861  0.617861  1
  Pd  Pd17  1  0.654383  0.001480  0.342658  1
  Pd  Pd18  1  0.001480  0.342658  0.654383  1
  Pd  Pd19  1  0.654383  0.001480  0.001480  1
  Pd  Pd20  1  0.001480  0.001480  0.342658  1
  Pd  Pd21  1  0.617861  0.146416  0.617861  1
  Pd  Pd22  1  0.342658  0.654383  0.001480  1
  Pd  Pd23  1  0.385297  0.385297  0.385297  1
  Pd  Pd24  1  0.617861  0.617861  0.617861  1
  Pd  Pd25  1  0.385297  0.385297  0.844110  1
  Pd  Pd26  1  0.001480  0.001480  0.654383  1
  Pd  Pd27  1  0.844110  0.385297  0.385297  1
  Pd  Pd28  1  0.001480  0.342658  0.001480  1
