# generated using pymatgen
data_Dy3Ho3Mn2(Co4P3)4
_symmetry_space_group_name_H-M   'P 1'
_cell_length_a   3.68560000
_cell_length_b   10.53818300
_cell_length_c   12.19948900
_cell_angle_alpha   89.99734351
_cell_angle_beta   90.00000000
_cell_angle_gamma   90.00000000
_symmetry_Int_Tables_number   1
_chemical_formula_structural   Dy3Ho3Mn2(Co4P3)4
_chemical_formula_sum   'Dy3 Ho3 Mn2 Co16 P12'
_cell_volume   473.82238538
_cell_formula_units_Z   1
loop_
 _symmetry_equiv_pos_site_id
 _symmetry_equiv_pos_as_xyz
  1  'x, y, z'
loop_
 _atom_site_type_symbol
 _atom_site_label
 _atom_site_symmetry_multiplicity
 _atom_site_fract_x
 _atom_site_fract_y
 _atom_site_fract_z
 _atom_site_occupancy
  Dy  Dy0  1  0.000000  0.500019  0.522853  1
  Dy  Dy1  1  0.500000  0.999999  0.477135  1
  Dy  Dy2  1  0.000000  0.317884  0.794884  1
  Ho  Ho3  1  0.500000  0.817883  0.205110  1
  Ho  Ho4  1  0.500000  0.182114  0.205069  1
  Ho  Ho5  1  0.000000  0.682219  0.794889  1
  Mn  Mn6  1  0.500000  0.500052  0.158773  1
  Mn  Mn7  1  0.000000  0.999919  0.841348  1
  Co  Co8  1  0.500000  0.500293  0.702837  1
  Co  Co9  1  0.000000  0.999958  0.297034  1
  Co  Co10  1  0.000000  0.500168  0.986262  1
  Co  Co11  1  0.500000  0.999858  0.014051  1
  Co  Co12  1  0.500000  0.333081  0.993937  1
  Co  Co13  1  0.500000  0.667086  0.993784  1
  Co  Co14  1  0.000000  0.166759  0.006475  1
  Co  Co15  1  0.000000  0.833087  0.006333  1
  Co  Co16  1  0.500000  0.296615  0.430154  1
  Co  Co17  1  0.500000  0.703399  0.430282  1
  Co  Co18  1  0.000000  0.203329  0.569444  1
  Co  Co19  1  0.000000  0.796617  0.569653  1
  Co  Co20  1  0.500000  0.879394  0.709363  1
  Co  Co21  1  0.500000  0.120287  0.709189  1
  Co  Co22  1  0.000000  0.620531  0.290631  1
  Co  Co23  1  0.000000  0.379469  0.290584  1
  P  P24  1  0.500000  0.500316  0.882733  1
  P  P25  1  0.000000  0.999935  0.117425  1
  P  P26  1  0.500000  0.500000  0.344955  1
  P  P27  1  0.000000  0.000003  0.654967  1
  P  P28  1  0.500000  0.311076  0.615959  1
  P  P29  1  0.500000  0.688965  0.616318  1
  P  P30  1  0.000000  0.188852  0.383592  1
  P  P31  1  0.000000  0.811108  0.383673  1
  P  P32  1  0.500000  0.847484  0.892666  1
  P  P33  1  0.500000  0.152178  0.892891  1
  P  P34  1  0.000000  0.652607  0.107414  1
  P  P35  1  0.000000  0.347454  0.107335  1
