# generated using pymatgen
data_La4YIr3
_symmetry_space_group_name_H-M   'P 1'
_cell_length_a   11.40449600
_cell_length_b   11.40449600
_cell_length_c   6.55063800
_cell_angle_alpha   90.00000000
_cell_angle_beta   90.00000000
_cell_angle_gamma   90.00000000
_symmetry_Int_Tables_number   1
_chemical_formula_structural   La4YIr3
_chemical_formula_sum   'La16 Y4 Ir12'
_cell_volume   851.99254494
_cell_formula_units_Z   4
loop_
 _symmetry_equiv_pos_site_id
 _symmetry_equiv_pos_as_xyz
  1  'x, y, z'
loop_
 _atom_site_type_symbol
 _atom_site_label
 _atom_site_symmetry_multiplicity
 _atom_site_fract_x
 _atom_site_fract_y
 _atom_site_fract_z
 _atom_site_occupancy
  La  La0  1  0.288195  0.088456  0.384478  1
  La  La1  1  0.288195  0.911544  0.884478  1
  La  La2  1  0.711805  0.088456  0.884478  1
  La  La3  1  0.711805  0.911544  0.384478  1
  La  La4  1  0.588456  0.788195  0.884478  1
  La  La5  1  0.588456  0.211805  0.384478  1
  La  La6  1  0.411544  0.788195  0.384478  1
  La  La7  1  0.411544  0.211805  0.884478  1
  La  La8  1  0.211805  0.411544  0.615522  1
  La  La9  1  0.211805  0.588456  0.115522  1
  La  La10  1  0.788195  0.411544  0.115522  1
  La  La11  1  0.788195  0.588456  0.615522  1
  La  La12  1  0.911544  0.711805  0.115522  1
  La  La13  1  0.911544  0.288195  0.615522  1
  La  La14  1  0.088456  0.711805  0.615522  1
  La  La15  1  0.088456  0.288195  0.115522  1
  Y  Y16  1  0.000000  0.000000  0.500000  1
  Y  Y17  1  0.000000  0.000000  0.000000  1
  Y  Y18  1  0.500000  0.500000  0.000000  1
  Y  Y19  1  0.500000  0.500000  0.500000  1
  Ir  Ir20  1  0.850107  0.149893  0.250000  1
  Ir  Ir21  1  0.850107  0.850107  0.750000  1
  Ir  Ir22  1  0.149893  0.149893  0.750000  1
  Ir  Ir23  1  0.149893  0.850107  0.250000  1
  Ir  Ir24  1  0.649893  0.350107  0.750000  1
  Ir  Ir25  1  0.649893  0.649893  0.250000  1
  Ir  Ir26  1  0.350107  0.350107  0.250000  1
  Ir  Ir27  1  0.350107  0.649893  0.750000  1
  Ir  Ir28  1  0.500000  0.000000  0.118661  1
  Ir  Ir29  1  0.500000  0.000000  0.618661  1
  Ir  Ir30  1  0.000000  0.500000  0.881339  1
  Ir  Ir31  1  0.000000  0.500000  0.381339  1
