# generated using pymatgen
data_NaY(Se2O5)2
_symmetry_space_group_name_H-M   'P 1'
_cell_length_a   6.48904500
_cell_length_b   6.99742900
_cell_length_c   10.87372400
_cell_angle_alpha   90.00000000
_cell_angle_beta   90.00000000
_cell_angle_gamma   90.00000000
_symmetry_Int_Tables_number   1
_chemical_formula_structural   NaY(Se2O5)2
_chemical_formula_sum   'Na2 Y2 Se8 O20'
_cell_volume   493.73918050
_cell_formula_units_Z   2
loop_
 _symmetry_equiv_pos_site_id
 _symmetry_equiv_pos_as_xyz
  1  'x, y, z'
loop_
 _atom_site_type_symbol
 _atom_site_label
 _atom_site_symmetry_multiplicity
 _atom_site_fract_x
 _atom_site_fract_y
 _atom_site_fract_z
 _atom_site_occupancy
  Na  Na0  1  0.500000  0.500000  0.286236  1
  Na  Na1  1  0.500000  0.000000  0.786236  1
  Y  Y2  1  0.000000  0.500000  0.393057  1
  Y  Y3  1  0.000000  0.000000  0.893057  1
  Se  Se4  1  0.703960  0.373286  0.005148  1
  Se  Se5  1  0.296039  0.626713  0.005148  1
  Se  Se6  1  0.218559  0.123412  0.186617  1
  Se  Se7  1  0.781442  0.876587  0.186617  1
  Se  Se8  1  0.703960  0.126714  0.505148  1
  Se  Se9  1  0.296039  0.873286  0.505148  1
  Se  Se10  1  0.218559  0.376588  0.686617  1
  Se  Se11  1  0.781442  0.623411  0.686617  1
  O  O12  1  0.107237  0.185836  0.051386  1
  O  O13  1  0.892763  0.814164  0.051386  1
  O  O14  1  0.576847  0.284742  0.126169  1
  O  O15  1  0.423153  0.715257  0.126169  1
  O  O16  1  0.196785  0.331581  0.265777  1
  O  O17  1  0.803215  0.668418  0.265777  1
  O  O18  1  0.000000  0.000000  0.265363  1
  O  O19  1  0.718441  0.316419  0.406386  1
  O  O20  1  0.281559  0.683582  0.406386  1
  O  O21  1  0.500000  0.000000  0.415698  1
  O  O22  1  0.107237  0.314164  0.551386  1
  O  O23  1  0.892763  0.685835  0.551386  1
  O  O24  1  0.576847  0.215257  0.626170  1
  O  O25  1  0.423153  0.784742  0.626170  1
  O  O26  1  0.196785  0.168419  0.765776  1
  O  O27  1  0.803215  0.831580  0.765776  1
  O  O28  1  0.000000  0.500000  0.765363  1
  O  O29  1  0.718441  0.183581  0.906386  1
  O  O30  1  0.281559  0.816418  0.906386  1
  O  O31  1  0.500000  0.500000  0.915698  1
