# generated using pymatgen
data_Pt(S2Cl3)2
_symmetry_space_group_name_H-M   'P 1'
_cell_length_a   7.15385711
_cell_length_b   7.17953760
_cell_length_c   7.93071150
_cell_angle_alpha   63.18704379
_cell_angle_beta   63.62811287
_cell_angle_gamma   62.03101065
_symmetry_Int_Tables_number   1
_chemical_formula_structural   Pt(S2Cl3)2
_chemical_formula_sum   'Pt1 S4 Cl6'
_cell_volume   306.77419691
_cell_formula_units_Z   1
loop_
 _symmetry_equiv_pos_site_id
 _symmetry_equiv_pos_as_xyz
  1  'x, y, z'
loop_
 _atom_site_type_symbol
 _atom_site_label
 _atom_site_symmetry_multiplicity
 _atom_site_fract_x
 _atom_site_fract_y
 _atom_site_fract_z
 _atom_site_occupancy
  Pt  Pt0  1  0.000000  0.000000  0.000000  1
  S  S1  1  0.553410  0.671950  0.316736  1
  S  S2  1  0.274613  0.588762  0.495072  1
  S  S3  1  0.725387  0.411238  0.504928  1
  S  S4  1  0.446592  0.328049  0.683265  1
  Cl  Cl5  1  0.039603  0.624142  0.173225  1
  Cl  Cl6  1  0.153620  0.012896  0.199928  1
  Cl  Cl7  1  0.644912  0.108231  0.218383  1
  Cl  Cl8  1  0.355087  0.891769  0.781618  1
  Cl  Cl9  1  0.846380  0.987103  0.800073  1
  Cl  Cl10  1  0.960398  0.375859  0.826774  1
