# generated using pymatgen
data_Tm3Lu2Os2C7
_symmetry_space_group_name_H-M   'P 1'
_cell_length_a   8.02587257
_cell_length_b   8.04476204
_cell_length_c   3.45678900
_cell_angle_alpha   90.00000000
_cell_angle_beta   90.00000000
_cell_angle_gamma   121.34403648
_symmetry_Int_Tables_number   1
_chemical_formula_structural   Tm3Lu2Os2C7
_chemical_formula_sum   'Tm3 Lu2 Os2 C7'
_cell_volume   190.61907241
_cell_formula_units_Z   1
loop_
 _symmetry_equiv_pos_site_id
 _symmetry_equiv_pos_as_xyz
  1  'x, y, z'
loop_
 _atom_site_type_symbol
 _atom_site_label
 _atom_site_symmetry_multiplicity
 _atom_site_fract_x
 _atom_site_fract_y
 _atom_site_fract_z
 _atom_site_occupancy
  Tm  Tm0  1  0.337206  0.078250  0.500000  1
  Tm  Tm1  1  0.662794  0.921750  0.500000  1
  Tm  Tm2  1  0.500000  0.500000  0.000000  1
  Lu  Lu3  1  0.078814  0.340550  0.500000  1
  Lu  Lu4  1  0.921186  0.659450  0.500000  1
  Os  Os5  1  0.285391  0.714534  0.000000  1
  Os  Os6  1  0.714609  0.285466  0.000000  1
  C  C7  1  0.171055  0.174471  0.000000  1
  C  C8  1  0.828945  0.825529  0.000000  1
  C  C9  1  0.000000  0.000000  0.000000  1
  C  C10  1  0.369987  0.629391  0.500000  1
  C  C11  1  0.630013  0.370609  0.500000  1
  C  C12  1  0.500000  0.000000  0.000000  1
  C  C13  1  0.000000  0.500000  0.000000  1
