# generated using pymatgen
data_Tb7Y17Ru14
_symmetry_space_group_name_H-M   'P 1'
_cell_length_a   11.40434927
_cell_length_b   8.43947220
_cell_length_c   11.28164069
_cell_angle_alpha   56.33463986
_cell_angle_beta   89.94964746
_cell_angle_gamma   89.92515723
_symmetry_Int_Tables_number   1
_chemical_formula_structural   Tb7Y17Ru14
_chemical_formula_sum   'Tb7 Y17 Ru14'
_cell_volume   903.71617383
_cell_formula_units_Z   1
loop_
 _symmetry_equiv_pos_site_id
 _symmetry_equiv_pos_as_xyz
  1  'x, y, z'
loop_
 _atom_site_type_symbol
 _atom_site_label
 _atom_site_symmetry_multiplicity
 _atom_site_fract_x
 _atom_site_fract_y
 _atom_site_fract_z
 _atom_site_occupancy
  Tb  Tb0  1  0.800956  0.756913  0.824234  1
  Tb  Tb1  1  0.699137  0.757003  0.324141  1
  Tb  Tb2  1  0.199058  0.242782  0.175841  1
  Tb  Tb3  1  0.926356  0.280968  0.293580  1
  Tb  Tb4  1  0.426316  0.718644  0.206749  1
  Tb  Tb5  1  0.073865  0.719509  0.706267  1
  Tb  Tb6  1  0.573451  0.280957  0.793553  1
  Y  Y7  1  0.705614  0.240606  0.532336  1
  Y  Y8  1  0.206026  0.759413  0.967466  1
  Y  Y9  1  0.844743  0.506938  0.655708  1
  Y  Y10  1  0.345077  0.492539  0.844494  1
  Y  Y11  1  0.154714  0.493084  0.344222  1
  Y  Y12  1  0.654996  0.506794  0.155902  1
  Y  Y13  1  0.006295  0.853499  0.359445  1
  Y  Y14  1  0.506374  0.146904  0.140278  1
  Y  Y15  1  0.993538  0.147251  0.640156  1
  Y  Y16  1  0.493782  0.852874  0.859983  1
  Y  Y17  1  0.794127  0.240812  0.032493  1
  Y  Y18  1  0.294208  0.758837  0.467912  1
  Y  Y19  1  0.931177  0.777897  0.088624  1
  Y  Y20  1  0.430880  0.221928  0.411033  1
  Y  Y21  1  0.068766  0.222650  0.910837  1
  Y  Y22  1  0.568911  0.777821  0.588925  1
  Y  Y23  1  0.300977  0.242922  0.675524  1
  Ru  Ru24  1  0.500412  0.500132  0.499772  1
  Ru  Ru25  1  0.000107  0.500057  0.000002  1
  Ru  Ru26  1  0.648693  0.925334  0.032880  1
  Ru  Ru27  1  0.149104  0.075336  0.467329  1
  Ru  Ru28  1  0.351399  0.074341  0.968299  1
  Ru  Ru29  1  0.851434  0.924952  0.532996  1
  Ru  Ru30  1  0.398197  0.485493  0.102501  1
  Ru  Ru31  1  0.897978  0.514826  0.397186  1
  Ru  Ru32  1  0.601918  0.514512  0.897478  1
  Ru  Ru33  1  0.101016  0.486344  0.601899  1
  Ru  Ru34  1  0.816682  0.095926  0.850006  1
  Ru  Ru35  1  0.317338  0.903374  0.650196  1
  Ru  Ru36  1  0.182825  0.903992  0.149904  1
  Ru  Ru37  1  0.683556  0.095836  0.349848  1
