# generated using pymatgen
data_Nd20Ir8Ru3Pt
_symmetry_space_group_name_H-M   'P 1'
_cell_length_a   11.24232114
_cell_length_b   11.24482386
_cell_length_c   6.62449488
_cell_angle_alpha   89.96237226
_cell_angle_beta   89.95432707
_cell_angle_gamma   89.94595591
_symmetry_Int_Tables_number   1
_chemical_formula_structural   Nd20Ir8Ru3Pt
_chemical_formula_sum   'Nd20 Ir8 Ru3 Pt1'
_cell_volume   837.45405185
_cell_formula_units_Z   1
loop_
 _symmetry_equiv_pos_site_id
 _symmetry_equiv_pos_as_xyz
  1  'x, y, z'
loop_
 _atom_site_type_symbol
 _atom_site_label
 _atom_site_symmetry_multiplicity
 _atom_site_fract_x
 _atom_site_fract_y
 _atom_site_fract_z
 _atom_site_occupancy
  Nd  Nd0  1  0.088913  0.291454  0.117630  1
  Nd  Nd1  1  0.791860  0.410468  0.117530  1
  Nd  Nd2  1  0.208272  0.585911  0.117309  1
  Nd  Nd3  1  0.908411  0.706972  0.116684  1
  Nd  Nd4  1  0.415592  0.793518  0.385120  1
  Nd  Nd5  1  0.587806  0.206470  0.384724  1
  Nd  Nd6  1  0.294688  0.089616  0.385579  1
  Nd  Nd7  1  0.706791  0.912770  0.384732  1
  Nd  Nd8  1  0.412092  0.206620  0.884705  1
  Nd  Nd9  1  0.705870  0.088199  0.884020  1
  Nd  Nd10  1  0.295916  0.913264  0.879812  1
  Nd  Nd11  1  0.588152  0.793540  0.884804  1
  Nd  Nd12  1  0.088331  0.705631  0.619277  1
  Nd  Nd13  1  0.910281  0.292819  0.615573  1
  Nd  Nd14  1  0.207786  0.410371  0.614342  1
  Nd  Nd15  1  0.792089  0.589318  0.614389  1
  Nd  Nd16  1  0.998526  0.001329  0.997303  1
  Nd  Nd17  1  0.500151  0.499844  0.997427  1
  Nd  Nd18  1  0.500105  0.499869  0.498446  1
  Nd  Nd19  1  0.998631  0.001605  0.498490  1
  Ir  Ir20  1  0.346657  0.347209  0.249518  1
  Ir  Ir21  1  0.653216  0.652911  0.249265  1
  Ir  Ir22  1  0.847043  0.153283  0.249432  1
  Ir  Ir23  1  0.345820  0.653045  0.749762  1
  Ir  Ir24  1  0.151879  0.152570  0.749647  1
  Ir  Ir25  1  0.848491  0.847041  0.749674  1
  Ir  Ir26  1  0.653488  0.347534  0.749702  1
  Ir  Ir27  1  0.000237  0.500513  0.879460  1
  Ru  Ru28  1  0.000224  0.500716  0.380210  1
  Ru  Ru29  1  0.499452  0.999788  0.123126  1
  Ru  Ru30  1  0.499458  0.999749  0.622968  1
  Pt  Pt31  1  0.153774  0.846051  0.249338  1
