# generated using pymatgen
data_Y6Ga2Tc14O
_symmetry_space_group_name_H-M   'P 1'
_cell_length_a   8.05321214
_cell_length_b   8.08010475
_cell_length_c   8.05220600
_cell_angle_alpha   109.07949338
_cell_angle_beta   108.94291753
_cell_angle_gamma   110.46661642
_symmetry_Int_Tables_number   1
_chemical_formula_structural   Y6Ga2Tc14O
_chemical_formula_sum   'Y6 Ga2 Tc14 O1'
_cell_volume   402.90600323
_cell_formula_units_Z   1
loop_
 _symmetry_equiv_pos_site_id
 _symmetry_equiv_pos_as_xyz
  1  'x, y, z'
loop_
 _atom_site_type_symbol
 _atom_site_label
 _atom_site_symmetry_multiplicity
 _atom_site_fract_x
 _atom_site_fract_y
 _atom_site_fract_z
 _atom_site_occupancy
  Y  Y0  1  0.266405  0.003586  0.262708  1
  Y  Y1  1  0.001026  0.259859  0.259713  1
  Y  Y2  1  0.003697  0.740878  0.737292  1
  Y  Y3  1  0.271946  0.269854  0.000000  1
  Y  Y4  1  0.735719  0.734180  0.000000  1
  Y  Y5  1  0.741313  0.000148  0.740287  1
  Ga  Ga6  1  0.344737  0.999421  0.653101  1
  Ga  Ga7  1  0.691637  0.346319  0.346899  1
  Tc  Tc8  1  0.998670  0.998809  0.490722  1
  Tc  Tc9  1  0.515739  0.998040  0.000000  1
  Tc  Tc10  1  0.000926  0.499221  0.000000  1
  Tc  Tc11  1  0.507948  0.508087  0.509278  1
  Tc  Tc12  1  0.991046  0.339356  0.656385  1
  Tc  Tc13  1  0.651333  0.657171  0.318861  1
  Tc  Tc14  1  0.338684  0.654570  0.000000  1
  Tc  Tc15  1  0.334662  0.682971  0.343615  1
  Tc  Tc16  1  0.655395  0.320479  0.661117  1
  Tc  Tc17  1  0.332472  0.338310  0.681139  1
  Tc  Tc18  1  0.309289  0.655237  0.657643  1
  Tc  Tc19  1  0.656389  0.335475  0.000000  1
  Tc  Tc20  1  0.994278  0.659363  0.338883  1
  Tc  Tc21  1  0.651646  0.997594  0.342357  1
  O  O22  1  0.005047  0.001072  0.000000  1
