# generated using pymatgen
data_CaNd9InSi5
_symmetry_space_group_name_H-M   'P 1'
_cell_length_a   9.12121342
_cell_length_b   9.12121326
_cell_length_c   9.12121285
_cell_angle_alpha   129.30337490
_cell_angle_beta   129.30337358
_cell_angle_gamma   74.52291690
_symmetry_Int_Tables_number   1
_chemical_formula_structural   CaNd9InSi5
_chemical_formula_sum   'Ca1 Nd9 In1 Si5'
_cell_volume   442.78922835
_cell_formula_units_Z   1
loop_
 _symmetry_equiv_pos_site_id
 _symmetry_equiv_pos_as_xyz
  1  'x, y, z'
loop_
 _atom_site_type_symbol
 _atom_site_label
 _atom_site_symmetry_multiplicity
 _atom_site_fract_x
 _atom_site_fract_y
 _atom_site_fract_z
 _atom_site_occupancy
  Ca  Ca0  1  0.488168  0.488168  0.000000  1
  Nd  Nd1  1  0.543083  0.024522  0.851584  1
  Nd  Nd2  1  0.172937  0.691498  0.148416  1
  Nd  Nd3  1  0.024522  0.172937  0.481439  1
  Nd  Nd4  1  0.691498  0.543083  0.518561  1
  Nd  Nd5  1  0.476092  0.955364  0.147813  1
  Nd  Nd6  1  0.807552  0.328280  0.852187  1
  Nd  Nd7  1  0.955364  0.807552  0.479272  1
  Nd  Nd8  1  0.328280  0.476092  0.520728  1
  Nd  Nd9  1  0.015874  0.015874  0.000000  1
  In  In10  1  0.248069  0.248069  0.000000  1
  Si  Si11  1  0.751324  0.751324  0.000000  1
  Si  Si12  1  0.885461  0.383343  0.270186  1
  Si  Si13  1  0.113157  0.615275  0.729814  1
  Si  Si14  1  0.383343  0.113157  0.497882  1
  Si  Si15  1  0.615275  0.885461  0.502118  1
