# generated using pymatgen
data_Sm5Y3(SiBr6)2
_symmetry_space_group_name_H-M   'P 1'
_cell_length_a   4.12244700
_cell_length_b   13.46026916
_cell_length_c   14.21987040
_cell_angle_alpha   90.27299849
_cell_angle_beta   90.00000000
_cell_angle_gamma   90.00000000
_symmetry_Int_Tables_number   1
_chemical_formula_structural   Sm5Y3(SiBr6)2
_chemical_formula_sum   'Sm5 Y3 Si2 Br12'
_cell_volume   789.04093273
_cell_formula_units_Z   1
loop_
 _symmetry_equiv_pos_site_id
 _symmetry_equiv_pos_as_xyz
  1  'x, y, z'
loop_
 _atom_site_type_symbol
 _atom_site_label
 _atom_site_symmetry_multiplicity
 _atom_site_fract_x
 _atom_site_fract_y
 _atom_site_fract_z
 _atom_site_occupancy
  Sm  Sm0  1  0.500000  0.118086  0.341129  1
  Sm  Sm1  1  0.000000  0.119748  0.580225  1
  Sm  Sm2  1  0.000000  0.879980  0.420168  1
  Sm  Sm3  1  0.000000  0.619949  0.920194  1
  Sm  Sm4  1  0.000000  0.381024  0.079011  1
  Y  Y5  1  0.500000  0.882076  0.658742  1
  Y  Y6  1  0.500000  0.617700  0.158147  1
  Y  Y7  1  0.500000  0.382518  0.841649  1
  Si  Si8  1  0.500000  0.998928  0.501526  1
  Si  Si9  1  0.500000  0.500574  0.999582  1
  Br  Br10  1  0.500000  0.243156  0.162310  1
  Br  Br11  1  0.500000  0.758115  0.834774  1
  Br  Br12  1  0.500000  0.741030  0.334517  1
  Br  Br13  1  0.500000  0.258500  0.666177  1
  Br  Br14  1  0.000000  0.256775  0.412263  1
  Br  Br15  1  0.000000  0.746342  0.591648  1
  Br  Br16  1  0.000000  0.753237  0.091857  1
  Br  Br17  1  0.000000  0.246828  0.907849  1
  Br  Br18  1  0.000000  0.000617  0.241719  1
  Br  Br19  1  0.000000  0.994715  0.756774  1
  Br  Br20  1  0.000000  0.505695  0.256063  1
  Br  Br21  1  0.000000  0.494407  0.743674  1
