# generated using pymatgen
data_NdAg3(Ru2O7)2
_symmetry_space_group_name_H-M   'P 1'
_cell_length_a   7.22096377
_cell_length_b   7.22096373
_cell_length_c   7.28933156
_cell_angle_alpha   60.30977753
_cell_angle_beta   60.30977671
_cell_angle_gamma   59.99999647
_symmetry_Int_Tables_number   1
_chemical_formula_structural   NdAg3(Ru2O7)2
_chemical_formula_sum   'Nd1 Ag3 Ru4 O14'
_cell_volume   270.01054351
_cell_formula_units_Z   1
loop_
 _symmetry_equiv_pos_site_id
 _symmetry_equiv_pos_as_xyz
  1  'x, y, z'
loop_
 _atom_site_type_symbol
 _atom_site_label
 _atom_site_symmetry_multiplicity
 _atom_site_fract_x
 _atom_site_fract_y
 _atom_site_fract_z
 _atom_site_occupancy
  Nd  Nd0  1  0.125000  0.125000  0.625000  1
  Ag  Ag1  1  0.625000  0.125000  0.125000  1
  Ag  Ag2  1  0.125000  0.625000  0.125000  1
  Ag  Ag3  1  0.125000  0.125000  0.125000  1
  Ru  Ru4  1  0.125000  0.625000  0.625000  1
  Ru  Ru5  1  0.625000  0.125000  0.625000  1
  Ru  Ru6  1  0.625000  0.625000  0.125000  1
  Ru  Ru7  1  0.625000  0.625000  0.625000  1
  O  O8  1  0.690455  0.690455  0.311002  1
  O  O9  1  0.302819  0.302819  0.692529  1
  O  O10  1  0.701832  0.302819  0.692529  1
  O  O11  1  0.308087  0.690455  0.311002  1
  O  O12  1  0.302819  0.701832  0.692529  1
  O  O13  1  0.690455  0.308087  0.311002  1
  O  O14  1  0.559545  0.559545  0.938998  1
  O  O15  1  0.947181  0.947181  0.557471  1
  O  O16  1  0.548168  0.947181  0.557471  1
  O  O17  1  0.941913  0.559545  0.938998  1
  O  O18  1  0.947181  0.548168  0.557471  1
  O  O19  1  0.559545  0.941913  0.938998  1
  O  O20  1  0.257783  0.257783  0.226651  1
  O  O21  1  0.992217  0.992217  0.023349  1
