# generated using pymatgen
data_Er10Al2ZnRu
_symmetry_space_group_name_H-M   'P 1'
_cell_length_a   9.37976907
_cell_length_b   9.37976889
_cell_length_c   9.59568300
_cell_angle_alpha   90.00000000
_cell_angle_beta   90.00000000
_cell_angle_gamma   119.92377692
_symmetry_Int_Tables_number   1
_chemical_formula_structural   Er10Al2ZnRu
_chemical_formula_sum   'Er20 Al4 Zn2 Ru2'
_cell_volume   731.68451927
_cell_formula_units_Z   2
loop_
 _symmetry_equiv_pos_site_id
 _symmetry_equiv_pos_as_xyz
  1  'x, y, z'
loop_
 _atom_site_type_symbol
 _atom_site_label
 _atom_site_symmetry_multiplicity
 _atom_site_fract_x
 _atom_site_fract_y
 _atom_site_fract_z
 _atom_site_occupancy
  Er  Er0  1  0.996794  0.003206  0.509576  1
  Er  Er1  1  0.996794  0.003206  0.990424  1
  Er  Er2  1  0.206179  0.793821  0.441224  1
  Er  Er3  1  0.207666  0.413928  0.438745  1
  Er  Er4  1  0.586072  0.792334  0.438745  1
  Er  Er5  1  0.791589  0.208411  0.557099  1
  Er  Er6  1  0.794404  0.585895  0.558627  1
  Er  Er7  1  0.414105  0.205596  0.558627  1
  Er  Er8  1  0.791589  0.208411  0.942901  1
  Er  Er9  1  0.794404  0.585895  0.941373  1
  Er  Er10  1  0.414105  0.205596  0.941373  1
  Er  Er11  1  0.206179  0.793821  0.058776  1
  Er  Er12  1  0.207666  0.413928  0.061255  1
  Er  Er13  1  0.586072  0.792334  0.061255  1
  Er  Er14  1  0.540295  0.459705  0.250000  1
  Er  Er15  1  0.539305  0.078560  0.250000  1
  Er  Er16  1  0.921440  0.460695  0.250000  1
  Er  Er17  1  0.461386  0.538614  0.750000  1
  Er  Er18  1  0.463805  0.917827  0.750000  1
  Er  Er19  1  0.082173  0.536195  0.750000  1
  Al  Al20  1  0.891046  0.108954  0.250000  1
  Al  Al21  1  0.893125  0.784768  0.250000  1
  Al  Al22  1  0.215232  0.106875  0.250000  1
  Al  Al23  1  0.113253  0.886747  0.750000  1
  Zn  Zn24  1  0.114496  0.227533  0.750000  1
  Zn  Zn25  1  0.772467  0.885504  0.750000  1
  Ru  Ru26  1  0.333164  0.666836  0.250000  1
  Ru  Ru27  1  0.665193  0.334807  0.750000  1
