# generated using pymatgen
data_SmCo3Ni2P3
_symmetry_space_group_name_H-M   'P 1'
_cell_length_a   3.70953900
_cell_length_b   10.33829600
_cell_length_c   11.86551100
_cell_angle_alpha   90.00000000
_cell_angle_beta   90.00000000
_cell_angle_gamma   90.00000000
_symmetry_Int_Tables_number   1
_chemical_formula_structural   SmCo3Ni2P3
_chemical_formula_sum   'Sm4 Co12 Ni8 P12'
_cell_volume   455.04605133
_cell_formula_units_Z   4
loop_
 _symmetry_equiv_pos_site_id
 _symmetry_equiv_pos_as_xyz
  1  'x, y, z'
loop_
 _atom_site_type_symbol
 _atom_site_label
 _atom_site_symmetry_multiplicity
 _atom_site_fract_x
 _atom_site_fract_y
 _atom_site_fract_z
 _atom_site_occupancy
  Sm  Sm0  1  0.250000  0.582782  0.702416  1
  Sm  Sm1  1  0.250000  0.917218  0.202416  1
  Sm  Sm2  1  0.750000  0.417218  0.297584  1
  Sm  Sm3  1  0.750000  0.082782  0.797584  1
  Co  Co4  1  0.250000  0.221130  0.175878  1
  Co  Co5  1  0.250000  0.278870  0.675878  1
  Co  Co6  1  0.750000  0.778870  0.824122  1
  Co  Co7  1  0.750000  0.721130  0.324122  1
  Co  Co8  1  0.250000  0.881586  0.696924  1
  Co  Co9  1  0.250000  0.618414  0.196924  1
  Co  Co10  1  0.750000  0.118414  0.303076  1
  Co  Co11  1  0.750000  0.381586  0.803076  1
  Co  Co12  1  0.250000  0.468468  0.933034  1
  Co  Co13  1  0.250000  0.031532  0.433034  1
  Co  Co14  1  0.750000  0.531532  0.066966  1
  Co  Co15  1  0.750000  0.968468  0.566966  1
  Ni  Ni16  1  0.250000  0.711923  0.989201  1
  Ni  Ni17  1  0.250000  0.788077  0.489201  1
  Ni  Ni18  1  0.750000  0.288077  0.010799  1
  Ni  Ni19  1  0.750000  0.211923  0.510799  1
  Ni  Ni20  1  0.250000  0.407820  0.486979  1
  Ni  Ni21  1  0.250000  0.092180  0.986979  1
  Ni  Ni22  1  0.750000  0.592180  0.513021  1
  Ni  Ni23  1  0.750000  0.907820  0.013021  1
  P  P24  1  0.250000  0.419270  0.111495  1
  P  P25  1  0.250000  0.080730  0.611495  1
  P  P26  1  0.750000  0.580730  0.888505  1
  P  P27  1  0.750000  0.919270  0.388505  1
  P  P28  1  0.250000  0.275410  0.865901  1
  P  P29  1  0.250000  0.224590  0.365901  1
  P  P30  1  0.750000  0.724590  0.134099  1
  P  P31  1  0.750000  0.775410  0.634099  1
  P  P32  1  0.250000  0.607206  0.388343  1
  P  P33  1  0.250000  0.892794  0.888343  1
  P  P34  1  0.750000  0.392794  0.611657  1
  P  P35  1  0.750000  0.107206  0.111657  1
