# generated using pymatgen
data_Tb8Dy10Sc2Si15Ru
_symmetry_space_group_name_H-M   'P 1'
_cell_length_a   7.28210061
_cell_length_b   7.77155549
_cell_length_c   14.52174300
_cell_angle_alpha   90.00000000
_cell_angle_beta   90.00000000
_cell_angle_gamma   90.07501911
_symmetry_Int_Tables_number   1
_chemical_formula_structural   Tb8Dy10Sc2Si15Ru
_chemical_formula_sum   'Tb8 Dy10 Sc2 Si15 Ru1'
_cell_volume   821.83191227
_cell_formula_units_Z   1
loop_
 _symmetry_equiv_pos_site_id
 _symmetry_equiv_pos_as_xyz
  1  'x, y, z'
loop_
 _atom_site_type_symbol
 _atom_site_label
 _atom_site_symmetry_multiplicity
 _atom_site_fract_x
 _atom_site_fract_y
 _atom_site_fract_z
 _atom_site_occupancy
  Tb  Tb0  1  0.018508  0.184509  0.098329  1
  Tb  Tb1  1  0.984717  0.823970  0.908395  1
  Tb  Tb2  1  0.482338  0.682919  0.906804  1
  Tb  Tb3  1  0.984717  0.823970  0.591605  1
  Tb  Tb4  1  0.518223  0.317376  0.097899  1
  Tb  Tb5  1  0.018508  0.184509  0.401671  1
  Tb  Tb6  1  0.518223  0.317376  0.402101  1
  Tb  Tb7  1  0.482338  0.682919  0.593196  1
  Dy  Dy8  1  0.153564  0.519152  0.750000  1
  Dy  Dy9  1  0.668834  0.986675  0.750000  1
  Dy  Dy10  1  0.311039  0.173725  0.626792  1
  Dy  Dy11  1  0.678044  0.823145  0.372557  1
  Dy  Dy12  1  0.176934  0.679967  0.371887  1
  Dy  Dy13  1  0.678044  0.823145  0.127443  1
  Dy  Dy14  1  0.832446  0.316899  0.624624  1
  Dy  Dy15  1  0.311039  0.173725  0.873208  1
  Dy  Dy16  1  0.832446  0.316899  0.875376  1
  Dy  Dy17  1  0.176934  0.679967  0.128113  1
  Sc  Sc18  1  0.841600  0.480803  0.250000  1
  Sc  Sc19  1  0.343022  0.020843  0.250000  1
  Si  Si20  1  0.980272  0.910561  0.250000  1
  Si  Si21  1  0.481777  0.592635  0.250000  1
  Si  Si22  1  0.526717  0.396578  0.750000  1
  Si  Si23  1  0.276110  0.866478  0.750000  1
  Si  Si24  1  0.718180  0.136154  0.250000  1
  Si  Si25  1  0.220481  0.364742  0.250000  1
  Si  Si26  1  0.765131  0.622914  0.750000  1
  Si  Si27  1  0.156245  0.472724  0.535275  1
  Si  Si28  1  0.847553  0.529757  0.458560  1
  Si  Si29  1  0.346323  0.971303  0.458409  1
  Si  Si30  1  0.847553  0.529757  0.041440  1
  Si  Si31  1  0.649128  0.031113  0.535902  1
  Si  Si32  1  0.156245  0.472724  0.964725  1
  Si  Si33  1  0.649128  0.031113  0.964098  1
  Si  Si34  1  0.346323  0.971303  0.041591  1
  Ru  Ru35  1  0.021315  0.087650  0.750000  1
