# generated using pymatgen
data_Gd7RuI12
_symmetry_space_group_name_H-M   'P 1'
_cell_length_a   9.82167567
_cell_length_b   9.82167516
_cell_length_c   9.82167600
_cell_angle_alpha   106.83976291
_cell_angle_beta   106.83976811
_cell_angle_gamma   106.83976829
_symmetry_Int_Tables_number   1
_chemical_formula_structural   Gd7RuI12
_chemical_formula_sum   'Gd7 Ru1 I12'
_cell_volume   792.46987983
_cell_formula_units_Z   1
loop_
 _symmetry_equiv_pos_site_id
 _symmetry_equiv_pos_as_xyz
  1  'x, y, z'
loop_
 _atom_site_type_symbol
 _atom_site_label
 _atom_site_symmetry_multiplicity
 _atom_site_fract_x
 _atom_site_fract_y
 _atom_site_fract_z
 _atom_site_occupancy
  Gd  Gd0  1  0.097456  0.025184  0.299719  1
  Gd  Gd1  1  0.299719  0.097456  0.025184  1
  Gd  Gd2  1  0.025184  0.299719  0.097456  1
  Gd  Gd3  1  0.902544  0.974816  0.700281  1
  Gd  Gd4  1  0.700281  0.902544  0.974816  1
  Gd  Gd5  1  0.974816  0.700281  0.902544  1
  Gd  Gd6  1  0.500000  0.500000  0.500000  1
  Ru  Ru7  1  0.000000  0.000000  0.000000  1
  I  I8  1  0.070569  0.677648  0.226824  1
  I  I9  1  0.226824  0.070569  0.677648  1
  I  I10  1  0.677648  0.226824  0.070569  1
  I  I11  1  0.929431  0.322352  0.773176  1
  I  I12  1  0.773176  0.929431  0.322352  1
  I  I13  1  0.322352  0.773176  0.929431  1
  I  I14  1  0.466734  0.158351  0.387034  1
  I  I15  1  0.387034  0.466734  0.158351  1
  I  I16  1  0.158351  0.387034  0.466734  1
  I  I17  1  0.533266  0.841649  0.612966  1
  I  I18  1  0.612966  0.533266  0.841649  1
  I  I19  1  0.841649  0.612966  0.533266  1
