# generated using pymatgen
data_Sr21Al8BiPb6
_symmetry_space_group_name_H-M   'P 1'
_cell_length_a   12.29708698
_cell_length_b   12.29708738
_cell_length_c   12.29708600
_cell_angle_alpha   60.00000372
_cell_angle_beta   60.00000264
_cell_angle_gamma   59.99999974
_symmetry_Int_Tables_number   1
_chemical_formula_structural   Sr21Al8BiPb6
_chemical_formula_sum   'Sr21 Al8 Bi1 Pb6'
_cell_volume   1314.89700614
_cell_formula_units_Z   1
loop_
 _symmetry_equiv_pos_site_id
 _symmetry_equiv_pos_as_xyz
  1  'x, y, z'
loop_
 _atom_site_type_symbol
 _atom_site_label
 _atom_site_symmetry_multiplicity
 _atom_site_fract_x
 _atom_site_fract_y
 _atom_site_fract_z
 _atom_site_occupancy
  Sr  Sr0  1  0.870165  0.870165  0.389502  1
  Sr  Sr1  1  0.610498  0.129835  0.129835  1
  Sr  Sr2  1  0.870165  0.389502  0.870165  1
  Sr  Sr3  1  0.129835  0.129835  0.129835  1
  Sr  Sr4  1  0.389502  0.870165  0.870165  1
  Sr  Sr5  1  0.870165  0.870165  0.870165  1
  Sr  Sr6  1  0.178425  0.821575  0.500000  1
  Sr  Sr7  1  0.821575  0.500000  0.500000  1
  Sr  Sr8  1  0.129835  0.129835  0.610498  1
  Sr  Sr9  1  0.821575  0.178425  0.500000  1
  Sr  Sr10  1  0.178425  0.500000  0.500000  1
  Sr  Sr11  1  0.129835  0.610498  0.129835  1
  Sr  Sr12  1  0.500000  0.500000  0.178425  1
  Sr  Sr13  1  0.500000  0.178425  0.821575  1
  Sr  Sr14  1  0.500000  0.821575  0.178425  1
  Sr  Sr15  1  0.500000  0.500000  0.821575  1
  Sr  Sr16  1  0.500000  0.178425  0.500000  1
  Sr  Sr17  1  0.178425  0.500000  0.821575  1
  Sr  Sr18  1  0.000000  0.000000  0.000000  1
  Sr  Sr19  1  0.500000  0.821575  0.500000  1
  Sr  Sr20  1  0.821575  0.500000  0.178425  1
  Al  Al21  1  0.694344  0.916970  0.694344  1
  Al  Al22  1  0.694344  0.694344  0.916970  1
  Al  Al23  1  0.694344  0.694344  0.694344  1
  Al  Al24  1  0.305656  0.083030  0.305656  1
  Al  Al25  1  0.916970  0.694344  0.694344  1
  Al  Al26  1  0.305656  0.305656  0.083030  1
  Al  Al27  1  0.083030  0.305656  0.305656  1
  Al  Al28  1  0.305656  0.305656  0.305656  1
  Bi  Bi29  1  0.500000  0.500000  0.500000  1
  Pb  Pb30  1  0.787229  0.212771  0.787229  1
  Pb  Pb31  1  0.787229  0.212771  0.212771  1
  Pb  Pb32  1  0.212771  0.787229  0.212771  1
  Pb  Pb33  1  0.212771  0.787229  0.787229  1
  Pb  Pb34  1  0.787229  0.787229  0.212771  1
  Pb  Pb35  1  0.212771  0.212771  0.787229  1
