# generated using pymatgen
data_Y4Lu4In3Fe
_symmetry_space_group_name_H-M   'P 1'
_cell_length_a   10.20730100
_cell_length_b   10.20730078
_cell_length_c   7.12957800
_cell_angle_alpha   90.00000000
_cell_angle_beta   90.00000000
_cell_angle_gamma   119.99999749
_symmetry_Int_Tables_number   1
_chemical_formula_structural   Y4Lu4In3Fe
_chemical_formula_sum   'Y8 Lu8 In6 Fe2'
_cell_volume   643.30407338
_cell_formula_units_Z   2
loop_
 _symmetry_equiv_pos_site_id
 _symmetry_equiv_pos_as_xyz
  1  'x, y, z'
loop_
 _atom_site_type_symbol
 _atom_site_label
 _atom_site_symmetry_multiplicity
 _atom_site_fract_x
 _atom_site_fract_y
 _atom_site_fract_z
 _atom_site_occupancy
  Y  Y0  1  0.535298  0.070597  0.785860  1
  Y  Y1  1  0.929403  0.464702  0.785860  1
  Y  Y2  1  0.535298  0.464702  0.785860  1
  Y  Y3  1  0.464702  0.929403  0.285860  1
  Y  Y4  1  0.070597  0.535298  0.285860  1
  Y  Y5  1  0.464702  0.535298  0.285860  1
  Y  Y6  1  0.000000  0.000000  0.773054  1
  Y  Y7  1  0.000000  0.000000  0.273054  1
  Lu  Lu8  1  0.820129  0.640259  0.489357  1
  Lu  Lu9  1  0.359741  0.179871  0.489357  1
  Lu  Lu10  1  0.820129  0.179871  0.489357  1
  Lu  Lu11  1  0.179871  0.359741  0.989357  1
  Lu  Lu12  1  0.640259  0.820129  0.989357  1
  Lu  Lu13  1  0.179871  0.820129  0.989357  1
  Lu  Lu14  1  0.666667  0.333333  0.181557  1
  Lu  Lu15  1  0.333333  0.666667  0.681557  1
  In  In16  1  0.836049  0.672100  0.041744  1
  In  In17  1  0.327900  0.163951  0.041744  1
  In  In18  1  0.836049  0.163951  0.041744  1
  In  In19  1  0.163951  0.327900  0.541744  1
  In  In20  1  0.672100  0.836049  0.541744  1
  In  In21  1  0.163951  0.836049  0.541744  1
  Fe  Fe22  1  0.666667  0.333333  0.557544  1
  Fe  Fe23  1  0.333333  0.666667  0.057544  1
