# generated using pymatgen
data_Er4Tm4Tc(B8Os)3
_symmetry_space_group_name_H-M   'P 1'
_cell_length_a   3.62840200
_cell_length_b   9.07950929
_cell_length_c   11.45805301
_cell_angle_alpha   89.95293801
_cell_angle_beta   90.00000000
_cell_angle_gamma   90.00000000
_symmetry_Int_Tables_number   1
_chemical_formula_structural   Er4Tm4Tc(B8Os)3
_chemical_formula_sum   'Er4 Tm4 Tc1 B24 Os3'
_cell_volume   377.47522738
_cell_formula_units_Z   1
loop_
 _symmetry_equiv_pos_site_id
 _symmetry_equiv_pos_as_xyz
  1  'x, y, z'
loop_
 _atom_site_type_symbol
 _atom_site_label
 _atom_site_symmetry_multiplicity
 _atom_site_fract_x
 _atom_site_fract_y
 _atom_site_fract_z
 _atom_site_occupancy
  Er  Er0  1  0.000000  0.323623  0.412990  1
  Er  Er1  1  0.000000  0.677483  0.583731  1
  Er  Er2  1  0.000000  0.820015  0.088200  1
  Er  Er3  1  0.000000  0.178018  0.914796  1
  Tm  Tm4  1  0.000000  0.942925  0.372777  1
  Tm  Tm5  1  0.000000  0.056633  0.627285  1
  Tm  Tm6  1  0.000000  0.444774  0.127951  1
  Tm  Tm7  1  0.000000  0.556440  0.872471  1
  Tc  Tc8  1  0.000000  0.637745  0.321063  1
  B  B9  1  0.500000  0.552818  0.433311  1
  B  B10  1  0.500000  0.446617  0.566978  1
  B  B11  1  0.500000  0.053485  0.066779  1
  B  B12  1  0.500000  0.946485  0.933421  1
  B  B13  1  0.500000  0.748656  0.419763  1
  B  B14  1  0.500000  0.251477  0.580108  1
  B  B15  1  0.500000  0.248888  0.080062  1
  B  B16  1  0.500000  0.751182  0.919907  1
  B  B17  1  0.500000  0.791934  0.266097  1
  B  B18  1  0.500000  0.208383  0.733843  1
  B  B19  1  0.500000  0.291582  0.233351  1
  B  B20  1  0.500000  0.708765  0.766071  1
  B  B21  1  0.500000  0.631233  0.185333  1
  B  B22  1  0.500000  0.368590  0.815107  1
  B  B23  1  0.500000  0.131203  0.314508  1
  B  B24  1  0.500000  0.869035  0.685027  1
  B  B25  1  0.500000  0.982150  0.212904  1
  B  B26  1  0.500000  0.017789  0.787333  1
  B  B27  1  0.500000  0.481716  0.287071  1
  B  B28  1  0.500000  0.517560  0.712994  1
  B  B29  1  0.500000  0.606128  0.028986  1
  B  B30  1  0.500000  0.393719  0.970411  1
  B  B31  1  0.500000  0.106546  0.470615  1
  B  B32  1  0.500000  0.894429  0.529723  1
  Os  Os33  1  0.000000  0.361890  0.679534  1
  Os  Os34  1  0.000000  0.137568  0.178294  1
  Os  Os35  1  0.000000  0.862515  0.821206  1
