# generated using pymatgen
data_LaY(NbS2)8
_symmetry_space_group_name_H-M   'P 1'
_cell_length_a   6.66387700
_cell_length_b   6.66387745
_cell_length_c   14.19268800
_cell_angle_alpha   90.00000000
_cell_angle_beta   90.00000000
_cell_angle_gamma   120.00000273
_symmetry_Int_Tables_number   1
_chemical_formula_structural   LaY(NbS2)8
_chemical_formula_sum   'La1 Y1 Nb8 S16'
_cell_volume   545.81975419
_cell_formula_units_Z   1
loop_
 _symmetry_equiv_pos_site_id
 _symmetry_equiv_pos_as_xyz
  1  'x, y, z'
loop_
 _atom_site_type_symbol
 _atom_site_label
 _atom_site_symmetry_multiplicity
 _atom_site_fract_x
 _atom_site_fract_y
 _atom_site_fract_z
 _atom_site_occupancy
  La  La0  1  0.000000  0.000000  0.000000  1
  Y  Y1  1  0.000000  0.000000  0.500000  1
  Nb  Nb2  1  0.000000  0.000000  0.257179  1
  Nb  Nb3  1  0.000000  0.000000  0.742821  1
  Nb  Nb4  1  0.505137  0.010277  0.257397  1
  Nb  Nb5  1  0.989723  0.494863  0.257397  1
  Nb  Nb6  1  0.505137  0.494863  0.257397  1
  Nb  Nb7  1  0.494863  0.989723  0.742603  1
  Nb  Nb8  1  0.010277  0.505137  0.742603  1
  Nb  Nb9  1  0.494863  0.505137  0.742603  1
  S  S10  1  0.333333  0.666667  0.857277  1
  S  S11  1  0.666667  0.333333  0.142723  1
  S  S12  1  0.666667  0.333333  0.371038  1
  S  S13  1  0.333333  0.666667  0.628962  1
  S  S14  1  0.169368  0.830632  0.368263  1
  S  S15  1  0.169368  0.338734  0.368263  1
  S  S16  1  0.661266  0.830632  0.368263  1
  S  S17  1  0.830632  0.169368  0.631737  1
  S  S18  1  0.830632  0.661266  0.631737  1
  S  S19  1  0.338734  0.169368  0.631737  1
  S  S20  1  0.831027  0.168973  0.853265  1
  S  S21  1  0.831027  0.662055  0.853265  1
  S  S22  1  0.337945  0.168973  0.853265  1
  S  S23  1  0.168973  0.831027  0.146735  1
  S  S24  1  0.168973  0.337945  0.146735  1
  S  S25  1  0.662055  0.831027  0.146735  1
