# generated using pymatgen
data_Dy4Ho(GeB4)2
_symmetry_space_group_name_H-M   'P 1'
_cell_length_a   7.25363100
_cell_length_b   7.25363100
_cell_length_c   8.13837400
_cell_angle_alpha   90.00000000
_cell_angle_beta   90.00000000
_cell_angle_gamma   90.00000000
_symmetry_Int_Tables_number   1
_chemical_formula_structural   Dy4Ho(GeB4)2
_chemical_formula_sum   'Dy8 Ho2 Ge4 B16'
_cell_volume   428.20187199
_cell_formula_units_Z   2
loop_
 _symmetry_equiv_pos_site_id
 _symmetry_equiv_pos_as_xyz
  1  'x, y, z'
loop_
 _atom_site_type_symbol
 _atom_site_label
 _atom_site_symmetry_multiplicity
 _atom_site_fract_x
 _atom_site_fract_y
 _atom_site_fract_z
 _atom_site_occupancy
  Dy  Dy0  1  0.680370  0.180370  0.221023  1
  Dy  Dy1  1  0.319630  0.819630  0.778977  1
  Dy  Dy2  1  0.319630  0.819630  0.221023  1
  Dy  Dy3  1  0.819630  0.680370  0.221023  1
  Dy  Dy4  1  0.819630  0.680370  0.778977  1
  Dy  Dy5  1  0.680370  0.180370  0.778977  1
  Dy  Dy6  1  0.180370  0.319630  0.778977  1
  Dy  Dy7  1  0.180370  0.319630  0.221023  1
  Ho  Ho8  1  0.000000  0.000000  0.500000  1
  Ho  Ho9  1  0.500000  0.500000  0.500000  1
  Ge  Ge10  1  0.120374  0.620374  0.500000  1
  Ge  Ge11  1  0.879626  0.379626  0.500000  1
  Ge  Ge12  1  0.379626  0.120374  0.500000  1
  Ge  Ge13  1  0.620374  0.879626  0.500000  1
  B  B14  1  0.171974  0.039319  0.000000  1
  B  B15  1  0.828026  0.960681  0.000000  1
  B  B16  1  0.960681  0.171974  0.000000  1
  B  B17  1  0.328026  0.539319  0.000000  1
  B  B18  1  0.039319  0.828026  0.000000  1
  B  B19  1  0.671974  0.460681  0.000000  1
  B  B20  1  0.539319  0.671974  0.000000  1
  B  B21  1  0.460681  0.328026  0.000000  1
  B  B22  1  0.090300  0.590300  0.000000  1
  B  B23  1  0.909700  0.409700  0.000000  1
  B  B24  1  0.409700  0.090300  0.000000  1
  B  B25  1  0.590300  0.909700  0.000000  1
  B  B26  1  0.000000  0.000000  0.162261  1
  B  B27  1  0.000000  0.000000  0.837739  1
  B  B28  1  0.500000  0.500000  0.837739  1
  B  B29  1  0.500000  0.500000  0.162261  1
