# generated using pymatgen
data_Pr7Th(Si3Ir)4
_symmetry_space_group_name_H-M   'P 1'
_cell_length_a   8.25874068
_cell_length_b   8.25874165
_cell_length_c   8.53598600
_cell_angle_alpha   90.00000000
_cell_angle_beta   90.00000000
_cell_angle_gamma   119.60758144
_symmetry_Int_Tables_number   1
_chemical_formula_structural   Pr7Th(Si3Ir)4
_chemical_formula_sum   'Pr7 Th1 Si12 Ir4'
_cell_volume   506.19261839
_cell_formula_units_Z   1
loop_
 _symmetry_equiv_pos_site_id
 _symmetry_equiv_pos_as_xyz
  1  'x, y, z'
loop_
 _atom_site_type_symbol
 _atom_site_label
 _atom_site_symmetry_multiplicity
 _atom_site_fract_x
 _atom_site_fract_y
 _atom_site_fract_z
 _atom_site_occupancy
  Pr  Pr0  1  0.500395  0.499605  0.250000  1
  Pr  Pr1  1  0.000864  0.500495  0.750000  1
  Pr  Pr2  1  0.999171  0.499494  0.250000  1
  Pr  Pr3  1  0.499505  0.999136  0.750000  1
  Pr  Pr4  1  0.500506  0.000829  0.250000  1
  Pr  Pr5  1  0.999999  0.000001  0.750000  1
  Pr  Pr6  1  0.999968  0.000032  0.250000  1
  Th  Th7  1  0.499786  0.500214  0.750000  1
  Si  Si8  1  0.832403  0.167597  0.999897  1
  Si  Si9  1  0.167582  0.832418  0.999489  1
  Si  Si10  1  0.332147  0.165412  0.999560  1
  Si  Si11  1  0.167582  0.832418  0.500511  1
  Si  Si12  1  0.667828  0.834568  0.998879  1
  Si  Si13  1  0.832403  0.167597  0.500103  1
  Si  Si14  1  0.834588  0.667853  0.999560  1
  Si  Si15  1  0.667828  0.834568  0.501121  1
  Si  Si16  1  0.165432  0.332172  0.998879  1
  Si  Si17  1  0.332147  0.165412  0.500440  1
  Si  Si18  1  0.165432  0.332172  0.501121  1
  Si  Si19  1  0.834588  0.667853  0.500440  1
  Ir  Ir20  1  0.664090  0.335910  0.994536  1
  Ir  Ir21  1  0.335833  0.664167  0.997478  1
  Ir  Ir22  1  0.335833  0.664167  0.502522  1
  Ir  Ir23  1  0.664090  0.335910  0.505464  1
