# generated using pymatgen
data_Lu4Ga4Ge2Ir7
_symmetry_space_group_name_H-M   'P 1'
_cell_length_a   7.22348929
_cell_length_b   7.22348830
_cell_length_c   7.22591717
_cell_angle_alpha   109.49060221
_cell_angle_beta   109.49059795
_cell_angle_gamma   109.41884235
_symmetry_Int_Tables_number   1
_chemical_formula_structural   Lu4Ga4Ge2Ir7
_chemical_formula_sum   'Lu4 Ga4 Ge2 Ir7'
_cell_volume   290.29389361
_cell_formula_units_Z   1
loop_
 _symmetry_equiv_pos_site_id
 _symmetry_equiv_pos_as_xyz
  1  'x, y, z'
loop_
 _atom_site_type_symbol
 _atom_site_label
 _atom_site_symmetry_multiplicity
 _atom_site_fract_x
 _atom_site_fract_y
 _atom_site_fract_z
 _atom_site_occupancy
  Lu  Lu0  1  0.001035  0.001035  0.512648  1
  Lu  Lu1  1  0.001088  0.501088  0.002176  1
  Lu  Lu2  1  0.501088  0.001088  0.002176  1
  Lu  Lu3  1  0.511613  0.511613  0.512648  1
  Ga  Ga4  1  0.690166  0.690166  0.006981  1
  Ga  Ga5  1  0.305319  0.003809  0.309128  1
  Ga  Ga6  1  0.003809  0.305319  0.309128  1
  Ga  Ga7  1  0.316815  0.316815  0.006981  1
  Ge  Ge8  1  0.679227  0.003163  0.682390  1
  Ge  Ge9  1  0.003163  0.679227  0.682390  1
  Ir  Ir10  1  0.748931  0.248931  0.497862  1
  Ir  Ir11  1  0.752603  0.498580  0.251183  1
  Ir  Ir12  1  0.498799  0.251493  0.750292  1
  Ir  Ir13  1  0.251493  0.498799  0.750292  1
  Ir  Ir14  1  0.248931  0.748931  0.497862  1
  Ir  Ir15  1  0.498580  0.752603  0.251183  1
  Ir  Ir16  1  0.987341  0.987341  0.974681  1
