# generated using pymatgen
data_DyEr4(In2Au)2
_symmetry_space_group_name_H-M   'P 1'
_cell_length_a   3.64985500
_cell_length_b   8.18426300
_cell_length_c   18.34907500
_cell_angle_alpha   90.00000000
_cell_angle_beta   90.00000000
_cell_angle_gamma   90.00000000
_symmetry_Int_Tables_number   1
_chemical_formula_structural   DyEr4(In2Au)2
_chemical_formula_sum   'Dy2 Er8 In8 Au4'
_cell_volume   548.11206778
_cell_formula_units_Z   2
loop_
 _symmetry_equiv_pos_site_id
 _symmetry_equiv_pos_as_xyz
  1  'x, y, z'
loop_
 _atom_site_type_symbol
 _atom_site_label
 _atom_site_symmetry_multiplicity
 _atom_site_fract_x
 _atom_site_fract_y
 _atom_site_fract_z
 _atom_site_occupancy
  Dy  Dy0  1  0.000000  0.000000  0.000000  1
  Dy  Dy1  1  0.000000  0.500000  0.500000  1
  Er  Er2  1  0.000000  0.120868  0.419825  1
  Er  Er3  1  0.000000  0.879132  0.580175  1
  Er  Er4  1  0.000000  0.379132  0.919825  1
  Er  Er5  1  0.000000  0.620868  0.080175  1
  Er  Er6  1  0.000000  0.239288  0.216538  1
  Er  Er7  1  0.000000  0.760712  0.783462  1
  Er  Er8  1  0.000000  0.260712  0.716538  1
  Er  Er9  1  0.000000  0.739288  0.283462  1
  In  In10  1  0.500000  0.420364  0.352639  1
  In  In11  1  0.500000  0.579636  0.647361  1
  In  In12  1  0.500000  0.079636  0.852639  1
  In  In13  1  0.500000  0.920364  0.147361  1
  In  In14  1  0.500000  0.293209  0.065610  1
  In  In15  1  0.500000  0.706791  0.934390  1
  In  In16  1  0.500000  0.206791  0.565610  1
  In  In17  1  0.500000  0.793209  0.434390  1
  Au  Au18  1  0.500000  0.029619  0.303274  1
  Au  Au19  1  0.500000  0.970381  0.696726  1
  Au  Au20  1  0.500000  0.470381  0.803274  1
  Au  Au21  1  0.500000  0.529619  0.196726  1
