# generated using pymatgen
data_Sr8Tb7Yb5Si16
_symmetry_space_group_name_H-M   'P 1'
_cell_length_a   8.06004304
_cell_length_b   8.05621125
_cell_length_c   14.76210200
_cell_angle_alpha   89.84566940
_cell_angle_beta   89.99444106
_cell_angle_gamma   89.99594541
_symmetry_Int_Tables_number   1
_chemical_formula_structural   Sr8Tb7Yb5Si16
_chemical_formula_sum   'Sr8 Tb7 Yb5 Si16'
_cell_volume   958.55012797
_cell_formula_units_Z   1
loop_
 _symmetry_equiv_pos_site_id
 _symmetry_equiv_pos_as_xyz
  1  'x, y, z'
loop_
 _atom_site_type_symbol
 _atom_site_label
 _atom_site_symmetry_multiplicity
 _atom_site_fract_x
 _atom_site_fract_y
 _atom_site_fract_z
 _atom_site_occupancy
  Sr  Sr0  1  0.991248  0.638579  0.040202  1
  Sr  Sr1  1  0.010832  0.362607  0.540788  1
  Sr  Sr2  1  0.639716  0.990735  0.959709  1
  Sr  Sr3  1  0.139588  0.510058  0.789794  1
  Sr  Sr4  1  0.860238  0.489134  0.290459  1
  Sr  Sr5  1  0.508433  0.141277  0.209393  1
  Sr  Sr6  1  0.491045  0.861240  0.709851  1
  Sr  Sr7  1  0.360002  0.009895  0.459786  1
  Tb  Tb8  1  0.865009  0.004438  0.373985  1
  Tb  Tb9  1  0.996142  0.134030  0.124857  1
  Tb  Tb10  1  0.003945  0.864258  0.626815  1
  Tb  Tb11  1  0.635430  0.504839  0.876005  1
  Tb  Tb12  1  0.496242  0.366631  0.624221  1
  Tb  Tb13  1  0.505976  0.636234  0.123662  1
  Tb  Tb14  1  0.135262  0.994905  0.873634  1
  Yb  Yb15  1  0.361896  0.491761  0.376651  1
  Yb  Yb16  1  0.681341  0.683442  0.498779  1
  Yb  Yb17  1  0.814899  0.184574  0.750022  1
  Yb  Yb18  1  0.187839  0.810733  0.251200  1
  Yb  Yb19  1  0.315324  0.315735  0.999602  1
  Si  Si20  1  0.072793  0.722809  0.446840  1
  Si  Si21  1  0.921677  0.281518  0.943457  1
  Si  Si22  1  0.720518  0.076404  0.557588  1
  Si  Si23  1  0.215101  0.419342  0.190955  1
  Si  Si24  1  0.780450  0.578044  0.694893  1
  Si  Si25  1  0.422674  0.218853  0.805858  1
  Si  Si26  1  0.580450  0.786230  0.303871  1
  Si  Si27  1  0.282034  0.922047  0.055186  1
  Si  Si28  1  0.854343  0.787626  0.809075  1
  Si  Si29  1  0.143665  0.206979  0.305182  1
  Si  Si30  1  0.788861  0.856218  0.189883  1
  Si  Si31  1  0.285630  0.649385  0.561417  1
  Si  Si32  1  0.711390  0.354432  0.057469  1
  Si  Si33  1  0.652989  0.285961  0.444882  1
  Si  Si34  1  0.355078  0.712088  0.941623  1
  Si  Si35  1  0.211942  0.146959  0.692405  1
