# generated using pymatgen
data_YHo2CdAg3Ge2
_symmetry_space_group_name_H-M   'P 1'
_cell_length_a   7.32339200
_cell_length_b   7.32339206
_cell_length_c   4.19176300
_cell_angle_alpha   90.00000000
_cell_angle_beta   90.00000000
_cell_angle_gamma   120.03022668
_symmetry_Int_Tables_number   1
_chemical_formula_structural   YHo2CdAg3Ge2
_chemical_formula_sum   'Y1 Ho2 Cd1 Ag3 Ge2'
_cell_volume   194.63438084
_cell_formula_units_Z   1
loop_
 _symmetry_equiv_pos_site_id
 _symmetry_equiv_pos_as_xyz
  1  'x, y, z'
loop_
 _atom_site_type_symbol
 _atom_site_label
 _atom_site_symmetry_multiplicity
 _atom_site_fract_x
 _atom_site_fract_y
 _atom_site_fract_z
 _atom_site_occupancy
  Y  Y0  1  0.424021  0.424021  0.000000  1
  Ho  Ho1  1  0.575899  0.000251  0.000000  1
  Ho  Ho2  1  0.000251  0.575899  0.000000  1
  Cd  Cd3  1  0.999175  0.999175  0.000000  1
  Ag  Ag4  1  0.259401  0.999611  0.500000  1
  Ag  Ag5  1  0.999611  0.259401  0.500000  1
  Ag  Ag6  1  0.741026  0.741026  0.500000  1
  Ge  Ge7  1  0.333085  0.667531  0.500000  1
  Ge  Ge8  1  0.667531  0.333085  0.500000  1
