# generated using pymatgen
data_BiPt2Pb7
_symmetry_space_group_name_H-M   'P 1'
_cell_length_a   6.78843645
_cell_length_b   6.78843645
_cell_length_c   6.20248975
_cell_angle_alpha   90.36888553
_cell_angle_beta   89.63111447
_cell_angle_gamma   91.05629033
_symmetry_Int_Tables_number   1
_chemical_formula_structural   BiPt2Pb7
_chemical_formula_sum   'Bi1 Pt2 Pb7'
_cell_volume   285.76832246
_cell_formula_units_Z   1
loop_
 _symmetry_equiv_pos_site_id
 _symmetry_equiv_pos_as_xyz
  1  'x, y, z'
loop_
 _atom_site_type_symbol
 _atom_site_label
 _atom_site_symmetry_multiplicity
 _atom_site_fract_x
 _atom_site_fract_y
 _atom_site_fract_z
 _atom_site_occupancy
  Bi  Bi0  1  0.326596  0.173404  0.248180  1
  Pt  Pt1  1  0.002088  0.001046  0.002558  1
  Pt  Pt2  1  0.498954  0.497912  0.002558  1
  Pb  Pb3  1  0.826554  0.326862  0.252738  1
  Pb  Pb4  1  0.173138  0.673446  0.252738  1
  Pb  Pb5  1  0.672251  0.827749  0.254242  1
  Pb  Pb6  1  0.677338  0.173290  0.746106  1
  Pb  Pb7  1  0.173342  0.326658  0.745659  1
  Pb  Pb8  1  0.823028  0.676972  0.749116  1
  Pb  Pb9  1  0.326710  0.822662  0.746106  1
