# generated using pymatgen
data_Er6TmLu3In8(CuPt)2
_symmetry_space_group_name_H-M   'P 1'
_cell_length_a   3.60202200
_cell_length_b   8.03564209
_cell_length_c   17.96739405
_cell_angle_alpha   90.03069783
_cell_angle_beta   90.00000000
_cell_angle_gamma   90.00000000
_symmetry_Int_Tables_number   1
_chemical_formula_structural   Er6TmLu3In8(CuPt)2
_chemical_formula_sum   'Er6 Tm1 Lu3 In8 Cu2 Pt2'
_cell_volume   520.05823327
_cell_formula_units_Z   1
loop_
 _symmetry_equiv_pos_site_id
 _symmetry_equiv_pos_as_xyz
  1  'x, y, z'
loop_
 _atom_site_type_symbol
 _atom_site_label
 _atom_site_symmetry_multiplicity
 _atom_site_fract_x
 _atom_site_fract_y
 _atom_site_fract_z
 _atom_site_occupancy
  Er  Er0  1  0.000000  0.246228  0.219647  1
  Er  Er1  1  0.000000  0.753862  0.780411  1
  Er  Er2  1  0.000000  0.259868  0.720140  1
  Er  Er3  1  0.000000  0.740280  0.279901  1
  Er  Er4  1  0.000000  0.000082  0.999907  1
  Er  Er5  1  0.000000  0.500033  0.500067  1
  Tm  Tm6  1  0.000000  0.616712  0.084186  1
  Lu  Lu7  1  0.000000  0.116990  0.414980  1
  Lu  Lu8  1  0.000000  0.883007  0.585013  1
  Lu  Lu9  1  0.000000  0.383302  0.915410  1
  In  In10  1  0.500000  0.419042  0.352757  1
  In  In11  1  0.500000  0.580964  0.647649  1
  In  In12  1  0.500000  0.075187  0.849454  1
  In  In13  1  0.500000  0.925259  0.150239  1
  In  In14  1  0.500000  0.292157  0.065196  1
  In  In15  1  0.500000  0.707164  0.934049  1
  In  In16  1  0.500000  0.205227  0.567117  1
  In  In17  1  0.500000  0.794852  0.433022  1
  Cu  Cu18  1  0.500000  0.027776  0.303176  1
  Cu  Cu19  1  0.500000  0.972610  0.697044  1
  Pt  Pt20  1  0.500000  0.471727  0.803667  1
  Pt  Pt21  1  0.500000  0.527671  0.196967  1
