# generated using pymatgen
data_UPa(Co3Sn)2
_symmetry_space_group_name_H-M   'P 1'
_cell_length_a   5.19441400
_cell_length_b   7.25278600
_cell_length_c   8.23983600
_cell_angle_alpha   90.00000000
_cell_angle_beta   90.00000000
_cell_angle_gamma   90.00000000
_symmetry_Int_Tables_number   1
_chemical_formula_structural   UPa(Co3Sn)2
_chemical_formula_sum   'U2 Pa2 Co12 Sn4'
_cell_volume   310.42736012
_cell_formula_units_Z   2
loop_
 _symmetry_equiv_pos_site_id
 _symmetry_equiv_pos_as_xyz
  1  'x, y, z'
loop_
 _atom_site_type_symbol
 _atom_site_label
 _atom_site_symmetry_multiplicity
 _atom_site_fract_x
 _atom_site_fract_y
 _atom_site_fract_z
 _atom_site_occupancy
  U  U0  1  0.250000  0.118708  0.168949  1
  U  U1  1  0.250000  0.618708  0.331051  1
  Pa  Pa2  1  0.750000  0.884107  0.831480  1
  Pa  Pa3  1  0.750000  0.384107  0.668520  1
  Co  Co4  1  0.750000  0.553127  0.413107  1
  Co  Co5  1  0.750000  0.053127  0.086893  1
  Co  Co6  1  0.250000  0.448912  0.571819  1
  Co  Co7  1  0.250000  0.948912  0.928181  1
  Co  Co8  1  0.999224  0.249934  0.372841  1
  Co  Co9  1  0.500776  0.749934  0.127159  1
  Co  Co10  1  0.495468  0.747210  0.617067  1
  Co  Co11  1  0.004532  0.247210  0.882933  1
  Co  Co12  1  0.004532  0.747210  0.617067  1
  Co  Co13  1  0.495468  0.247210  0.882933  1
  Co  Co14  1  0.500776  0.249934  0.372841  1
  Co  Co15  1  0.999224  0.749934  0.127159  1
  Sn  Sn16  1  0.750000  0.926580  0.386559  1
  Sn  Sn17  1  0.750000  0.426580  0.113441  1
  Sn  Sn18  1  0.250000  0.074279  0.618347  1
  Sn  Sn19  1  0.250000  0.574279  0.881653  1
