# generated using pymatgen
data_Dy4Y2MgCo17P12
_symmetry_space_group_name_H-M   'P 1'
_cell_length_a   3.71565600
_cell_length_b   10.56889800
_cell_length_c   12.24149400
_cell_angle_alpha   90.00000000
_cell_angle_beta   90.00000000
_cell_angle_gamma   90.00000000
_symmetry_Int_Tables_number   1
_chemical_formula_structural   Dy4Y2MgCo17P12
_chemical_formula_sum   'Dy4 Y2 Mg1 Co17 P12'
_cell_volume   480.72823459
_cell_formula_units_Z   1
loop_
 _symmetry_equiv_pos_site_id
 _symmetry_equiv_pos_as_xyz
  1  'x, y, z'
loop_
 _atom_site_type_symbol
 _atom_site_label
 _atom_site_symmetry_multiplicity
 _atom_site_fract_x
 _atom_site_fract_y
 _atom_site_fract_z
 _atom_site_occupancy
  Dy  Dy0  1  0.500000  0.821486  0.207252  1
  Dy  Dy1  1  0.500000  0.178514  0.207252  1
  Dy  Dy2  1  0.000000  0.682920  0.794517  1
  Dy  Dy3  1  0.000000  0.317080  0.794517  1
  Y  Y4  1  0.000000  0.500000  0.525035  1
  Y  Y5  1  0.500000  0.000000  0.478797  1
  Mg  Mg6  1  0.500000  0.500000  0.153085  1
  Co  Co7  1  0.000000  0.000000  0.839384  1
  Co  Co8  1  0.500000  0.500000  0.704176  1
  Co  Co9  1  0.000000  0.000000  0.296200  1
  Co  Co10  1  0.000000  0.500000  0.985712  1
  Co  Co11  1  0.500000  0.000000  0.012472  1
  Co  Co12  1  0.500000  0.329208  0.992793  1
  Co  Co13  1  0.500000  0.670792  0.992793  1
  Co  Co14  1  0.000000  0.163048  0.001919  1
  Co  Co15  1  0.000000  0.836952  0.001919  1
  Co  Co16  1  0.500000  0.295740  0.432753  1
  Co  Co17  1  0.500000  0.704260  0.432753  1
  Co  Co18  1  0.000000  0.202136  0.570531  1
  Co  Co19  1  0.000000  0.797864  0.570531  1
  Co  Co20  1  0.500000  0.880218  0.709038  1
  Co  Co21  1  0.500000  0.119782  0.709038  1
  Co  Co22  1  0.000000  0.622749  0.293091  1
  Co  Co23  1  0.000000  0.377251  0.293091  1
  P  P24  1  0.500000  0.500000  0.883045  1
  P  P25  1  0.000000  0.000000  0.116499  1
  P  P26  1  0.500000  0.500000  0.353391  1
  P  P27  1  0.000000  0.000000  0.656055  1
  P  P28  1  0.500000  0.309124  0.617171  1
  P  P29  1  0.500000  0.690876  0.617171  1
  P  P30  1  0.000000  0.189540  0.385716  1
  P  P31  1  0.000000  0.810460  0.385716  1
  P  P32  1  0.500000  0.849681  0.890455  1
  P  P33  1  0.500000  0.150319  0.890455  1
  P  P34  1  0.000000  0.662894  0.102839  1
  P  P35  1  0.000000  0.337106  0.102839  1
