# generated using pymatgen
data_Nd3In3GePd2
_symmetry_space_group_name_H-M   'P 1'
_cell_length_a   7.64334800
_cell_length_b   7.64334753
_cell_length_c   4.25220500
_cell_angle_alpha   90.00000000
_cell_angle_beta   90.00000000
_cell_angle_gamma   120.00000202
_symmetry_Int_Tables_number   1
_chemical_formula_structural   Nd3In3GePd2
_chemical_formula_sum   'Nd3 In3 Ge1 Pd2'
_cell_volume   215.13548847
_cell_formula_units_Z   1
loop_
 _symmetry_equiv_pos_site_id
 _symmetry_equiv_pos_as_xyz
  1  'x, y, z'
loop_
 _atom_site_type_symbol
 _atom_site_label
 _atom_site_symmetry_multiplicity
 _atom_site_fract_x
 _atom_site_fract_y
 _atom_site_fract_z
 _atom_site_occupancy
  Nd  Nd0  1  0.997292  0.587708  0.000000  1
  Nd  Nd1  1  0.412292  0.409585  0.000000  1
  Nd  Nd2  1  0.590415  0.002708  0.000000  1
  In  In3  1  0.758192  0.745078  0.500000  1
  In  In4  1  0.986887  0.241808  0.500000  1
  In  In5  1  0.254922  0.013113  0.500000  1
  Ge  Ge6  1  0.333333  0.666667  0.500000  1
  Pd  Pd7  1  0.000000  0.000000  0.000000  1
  Pd  Pd8  1  0.666667  0.333333  0.500000  1
