# generated using pymatgen
data_CdNi3(BrO3)8
_symmetry_space_group_name_H-M   'P 1'
_cell_length_a   5.75342327
_cell_length_b   10.54704239
_cell_length_c   10.59597592
_cell_angle_alpha   119.12159811
_cell_angle_beta   90.11875520
_cell_angle_gamma   89.00753706
_symmetry_Int_Tables_number   1
_chemical_formula_structural   CdNi3(BrO3)8
_chemical_formula_sum   'Cd1 Ni3 Br8 O24'
_cell_volume   561.60167598
_cell_formula_units_Z   1
loop_
 _symmetry_equiv_pos_site_id
 _symmetry_equiv_pos_as_xyz
  1  'x, y, z'
loop_
 _atom_site_type_symbol
 _atom_site_label
 _atom_site_symmetry_multiplicity
 _atom_site_fract_x
 _atom_site_fract_y
 _atom_site_fract_z
 _atom_site_occupancy
  Cd  Cd0  1  0.132553  0.767146  0.506578  1
  Ni  Ni1  1  0.642937  0.235995  0.493045  1
  Ni  Ni2  1  0.139784  0.261306  0.005631  1
  Ni  Ni3  1  0.640814  0.739565  0.991951  1
  Br  Br4  1  0.267820  0.407889  0.343230  1
  Br  Br5  1  0.749840  0.576415  0.651245  1
  Br  Br6  1  0.262433  0.917677  0.859072  1
  Br  Br7  1  0.767008  0.084774  0.151960  1
  Br  Br8  1  0.777295  0.102751  0.703312  1
  Br  Br9  1  0.299748  0.921577  0.305473  1
  Br  Br10  1  0.286746  0.415492  0.813580  1
  Br  Br11  1  0.783629  0.582008  0.176011  1
  O  O12  1  0.429566  0.893893  0.977534  1
  O  O13  1  0.935971  0.116556  0.040337  1
  O  O14  1  0.376817  0.800210  0.695493  1
  O  O15  1  0.875217  0.192561  0.319982  1
  O  O16  1  0.366855  0.290073  0.174447  1
  O  O17  1  0.857179  0.693384  0.816647  1
  O  O18  1  0.934389  0.238902  0.832648  1
  O  O19  1  0.440904  0.775079  0.171807  1
  O  O20  1  0.903610  0.947233  0.680524  1
  O  O21  1  0.442062  0.071628  0.332104  1
  O  O22  1  0.349871  0.080677  0.881391  1
  O  O23  1  0.860547  0.915766  0.114039  1
  O  O24  1  0.428172  0.275143  0.672980  1
  O  O25  1  0.912506  0.727923  0.310650  1
  O  O26  1  0.355866  0.390471  0.956255  1
  O  O27  1  0.849410  0.596747  0.027532  1
  O  O28  1  0.423487  0.568932  0.844513  1
  O  O29  1  0.938564  0.435432  0.157000  1
  O  O30  1  0.369791  0.568742  0.370058  1
  O  O31  1  0.846482  0.411486  0.624221  1
  O  O32  1  0.434106  0.379046  0.458706  1
  O  O33  1  0.918196  0.600844  0.535523  1
  O  O34  1  0.846464  0.106780  0.549373  1
  O  O35  1  0.362961  0.909900  0.455152  1
