# generated using pymatgen
data_InFeNi(Sb6Os)2
_symmetry_space_group_name_H-M   'P 1'
_cell_length_a   8.13202864
_cell_length_b   8.07459076
_cell_length_c   8.10761554
_cell_angle_alpha   109.36479990
_cell_angle_beta   109.59852996
_cell_angle_gamma   109.59148475
_symmetry_Int_Tables_number   1
_chemical_formula_structural   InFeNi(Sb6Os)2
_chemical_formula_sum   'In1 Fe1 Ni1 Sb12 Os2'
_cell_volume   409.10055048
_cell_formula_units_Z   1
loop_
 _symmetry_equiv_pos_site_id
 _symmetry_equiv_pos_as_xyz
  1  'x, y, z'
loop_
 _atom_site_type_symbol
 _atom_site_label
 _atom_site_symmetry_multiplicity
 _atom_site_fract_x
 _atom_site_fract_y
 _atom_site_fract_z
 _atom_site_occupancy
  In  In0  1  0.000000  0.000000  0.000000  1
  Fe  Fe1  1  0.000000  0.000000  0.500000  1
  Ni  Ni2  1  0.500000  0.000000  0.000000  1
  Sb  Sb3  1  0.844925  0.669213  0.505733  1
  Sb  Sb4  1  0.155075  0.330787  0.494267  1
  Sb  Sb5  1  0.158387  0.663295  0.817154  1
  Sb  Sb6  1  0.841613  0.336705  0.182846  1
  Sb  Sb7  1  0.660921  0.503884  0.843248  1
  Sb  Sb8  1  0.339079  0.496116  0.156752  1
  Sb  Sb9  1  0.668469  0.824002  0.162021  1
  Sb  Sb10  1  0.331531  0.175998  0.837979  1
  Sb  Sb11  1  0.504417  0.846460  0.663271  1
  Sb  Sb12  1  0.495583  0.153540  0.336729  1
  Sb  Sb13  1  0.175357  0.845513  0.340330  1
  Sb  Sb14  1  0.824643  0.154487  0.659670  1
  Os  Os15  1  0.500000  0.500000  0.500000  1
  Os  Os16  1  0.000000  0.500000  0.000000  1
