# generated using pymatgen
data_MgAl8Si10(NiO12)3
_symmetry_space_group_name_H-M   'P 1'
_cell_length_a   9.91192314
_cell_length_b   9.91192220
_cell_length_c   9.45052013
_cell_angle_alpha   89.97571726
_cell_angle_beta   89.97572108
_cell_angle_gamma   120.64457851
_symmetry_Int_Tables_number   1
_chemical_formula_structural   MgAl8Si10(NiO12)3
_chemical_formula_sum   'Mg1 Al8 Si10 Ni3 O36'
_cell_volume   798.81159599
_cell_formula_units_Z   1
loop_
 _symmetry_equiv_pos_site_id
 _symmetry_equiv_pos_as_xyz
  1  'x, y, z'
loop_
 _atom_site_type_symbol
 _atom_site_label
 _atom_site_symmetry_multiplicity
 _atom_site_fract_x
 _atom_site_fract_y
 _atom_site_fract_z
 _atom_site_occupancy
  Mg  Mg0  1  0.337430  0.662570  0.500000  1
  Al  Al1  1  0.743252  0.640544  0.249836  1
  Al  Al2  1  0.257093  0.359323  0.250207  1
  Al  Al3  1  0.640677  0.742907  0.749793  1
  Al  Al4  1  0.359456  0.256748  0.750164  1
  Al  Al5  1  0.000107  0.500144  0.999981  1
  Al  Al6  1  0.499856  0.999893  0.000019  1
  Al  Al7  1  0.999223  0.499739  0.499953  1
  Al  Al8  1  0.500261  0.000777  0.500047  1
  Si  Si9  1  0.499920  0.500080  0.000000  1
  Si  Si10  1  0.500491  0.499509  0.500000  1
  Si  Si11  1  0.372704  0.103236  0.249874  1
  Si  Si12  1  0.626990  0.896858  0.250161  1
  Si  Si13  1  0.103142  0.373010  0.749839  1
  Si  Si14  1  0.896764  0.627296  0.750126  1
  Si  Si15  1  0.114872  0.730170  0.249886  1
  Si  Si16  1  0.885023  0.269643  0.249968  1
  Si  Si17  1  0.730357  0.114977  0.750032  1
  Si  Si18  1  0.269830  0.885128  0.750114  1
  Ni  Ni19  1  0.337301  0.662699  0.000000  1
  Ni  Ni20  1  0.662686  0.337314  0.000000  1
  Ni  Ni21  1  0.662748  0.337252  0.500000  1
  O  O22  1  0.937935  0.693885  0.249278  1
  O  O23  1  0.062460  0.307467  0.250449  1
  O  O24  1  0.692533  0.937540  0.749551  1
  O  O25  1  0.306115  0.062065  0.750722  1
  O  O26  1  0.349394  0.855629  0.892038  1
  O  O27  1  0.650568  0.144138  0.891977  1
  O  O28  1  0.855862  0.349432  0.108023  1
  O  O29  1  0.144371  0.650606  0.107962  1
  O  O30  1  0.650924  0.144480  0.608036  1
  O  O31  1  0.350132  0.856212  0.608607  1
  O  O32  1  0.143788  0.649868  0.391393  1
  O  O33  1  0.855520  0.349076  0.391964  1
  O  O34  1  0.244517  0.915760  0.250394  1
  O  O35  1  0.756262  0.084063  0.249582  1
  O  O36  1  0.915937  0.243738  0.750418  1
  O  O37  1  0.084240  0.755483  0.749606  1
  O  O38  1  0.136936  0.483431  0.892048  1
  O  O39  1  0.863192  0.516759  0.892288  1
  O  O40  1  0.483241  0.136808  0.107712  1
  O  O41  1  0.516569  0.863064  0.107952  1
  O  O42  1  0.862915  0.516902  0.607943  1
  O  O43  1  0.136566  0.483833  0.608060  1
  O  O44  1  0.516167  0.863434  0.391940  1
  O  O45  1  0.483098  0.137085  0.392057  1
  O  O46  1  0.291538  0.206018  0.249300  1
  O  O47  1  0.706911  0.792838  0.250677  1
  O  O48  1  0.207162  0.293089  0.749323  1
  O  O49  1  0.793982  0.708462  0.750700  1
  O  O50  1  0.478794  0.353610  0.901305  1
  O  O51  1  0.520993  0.646544  0.901160  1
  O  O52  1  0.353456  0.479007  0.098840  1
  O  O53  1  0.646390  0.521206  0.098695  1
  O  O54  1  0.521395  0.645691  0.598847  1
  O  O55  1  0.478973  0.352899  0.598785  1
  O  O56  1  0.647101  0.521027  0.401215  1
  O  O57  1  0.354309  0.478605  0.401153  1
