# generated using pymatgen
data_Nd16Y4Sn9Bi7
_symmetry_space_group_name_H-M   'P 1'
_cell_length_a   8.38582694
_cell_length_b   8.41149397
_cell_length_c   16.08753006
_cell_angle_alpha   90.05756763
_cell_angle_beta   89.60533554
_cell_angle_gamma   89.90834938
_symmetry_Int_Tables_number   1
_chemical_formula_structural   Nd16Y4Sn9Bi7
_chemical_formula_sum   'Nd16 Y4 Sn9 Bi7'
_cell_volume   1134.74250298
_cell_formula_units_Z   1
loop_
 _symmetry_equiv_pos_site_id
 _symmetry_equiv_pos_as_xyz
  1  'x, y, z'
loop_
 _atom_site_type_symbol
 _atom_site_label
 _atom_site_symmetry_multiplicity
 _atom_site_fract_x
 _atom_site_fract_y
 _atom_site_fract_z
 _atom_site_occupancy
  Nd  Nd0  1  0.394542  0.838109  0.879495  1
  Nd  Nd1  1  0.898058  0.663759  0.619637  1
  Nd  Nd2  1  0.601728  0.162521  0.379821  1
  Nd  Nd3  1  0.101862  0.338094  0.119543  1
  Nd  Nd4  1  0.606772  0.166589  0.119771  1
  Nd  Nd5  1  0.101882  0.336283  0.380032  1
  Nd  Nd6  1  0.397086  0.838269  0.620840  1
  Nd  Nd7  1  0.892419  0.660661  0.881758  1
  Nd  Nd8  1  0.562535  0.332143  0.891376  1
  Nd  Nd9  1  0.063836  0.169971  0.612575  1
  Nd  Nd10  1  0.436854  0.669295  0.387939  1
  Nd  Nd11  1  0.940198  0.823249  0.110046  1
  Nd  Nd12  1  0.447080  0.667574  0.108844  1
  Nd  Nd13  1  0.936596  0.829556  0.387407  1
  Nd  Nd14  1  0.563962  0.330898  0.612080  1
  Nd  Nd15  1  0.055233  0.174316  0.890996  1
  Y  Y16  1  0.228458  0.499062  0.750709  1
  Y  Y17  1  0.728604  0.003356  0.750781  1
  Y  Y18  1  0.771911  0.500745  0.246212  1
  Y  Y19  1  0.271516  0.996857  0.248722  1
  Sn  Sn20  1  0.767509  0.481155  0.047077  1
  Sn  Sn21  1  0.595247  0.629217  0.749887  1
  Sn  Sn22  1  0.093611  0.872328  0.751073  1
  Sn  Sn23  1  0.403771  0.371178  0.250247  1
  Sn  Sn24  1  0.904916  0.126915  0.249945  1
  Sn  Sn25  1  0.365123  0.143350  0.751462  1
  Sn  Sn26  1  0.865236  0.360205  0.750325  1
  Sn  Sn27  1  0.634981  0.859013  0.249467  1
  Sn  Sn28  1  0.136921  0.639740  0.249512  1
  Bi  Bi29  1  0.265064  0.015215  0.047259  1
  Bi  Bi30  1  0.762807  0.487215  0.451253  1
  Bi  Bi31  1  0.737103  0.988007  0.548111  1
  Bi  Bi32  1  0.233939  0.517811  0.952842  1
  Bi  Bi33  1  0.732484  0.982738  0.952970  1
  Bi  Bi34  1  0.237901  0.512928  0.548206  1
  Bi  Bi35  1  0.262255  0.011677  0.451777  1
