# generated using pymatgen
data_Tb2MnCo3(PIr)6
_symmetry_space_group_name_H-M   'P 1'
_cell_length_a   3.87671800
_cell_length_b   10.60984200
_cell_length_c   12.33592700
_cell_angle_alpha   90.00000000
_cell_angle_beta   90.00000000
_cell_angle_gamma   90.00000000
_symmetry_Int_Tables_number   1
_chemical_formula_structural   Tb2MnCo3(PIr)6
_chemical_formula_sum   'Tb4 Mn2 Co6 P12 Ir12'
_cell_volume   507.39352171
_cell_formula_units_Z   2
loop_
 _symmetry_equiv_pos_site_id
 _symmetry_equiv_pos_as_xyz
  1  'x, y, z'
loop_
 _atom_site_type_symbol
 _atom_site_label
 _atom_site_symmetry_multiplicity
 _atom_site_fract_x
 _atom_site_fract_y
 _atom_site_fract_z
 _atom_site_occupancy
  Tb  Tb0  1  0.250000  0.577771  0.709627  1
  Tb  Tb1  1  0.250000  0.922229  0.209627  1
  Tb  Tb2  1  0.750000  0.411322  0.290140  1
  Tb  Tb3  1  0.750000  0.088678  0.790140  1
  Mn  Mn4  1  0.750000  0.283650  0.016538  1
  Mn  Mn5  1  0.750000  0.216350  0.516538  1
  Co  Co6  1  0.750000  0.120198  0.306893  1
  Co  Co7  1  0.750000  0.379802  0.806893  1
  Co  Co8  1  0.250000  0.465474  0.934478  1
  Co  Co9  1  0.250000  0.034526  0.434478  1
  Co  Co10  1  0.750000  0.536350  0.063203  1
  Co  Co11  1  0.750000  0.963650  0.563203  1
  P  P12  1  0.250000  0.420561  0.104886  1
  P  P13  1  0.250000  0.079439  0.604886  1
  P  P14  1  0.750000  0.564269  0.887354  1
  P  P15  1  0.750000  0.935731  0.387354  1
  P  P16  1  0.250000  0.276068  0.869901  1
  P  P17  1  0.250000  0.223932  0.369901  1
  P  P18  1  0.750000  0.729573  0.128903  1
  P  P19  1  0.750000  0.770427  0.628903  1
  P  P20  1  0.250000  0.593551  0.386687  1
  P  P21  1  0.250000  0.906449  0.886687  1
  P  P22  1  0.750000  0.396097  0.619090  1
  P  P23  1  0.750000  0.103903  0.119090  1
  Ir  Ir24  1  0.250000  0.718480  0.983756  1
  Ir  Ir25  1  0.250000  0.781520  0.483756  1
  Ir  Ir26  1  0.250000  0.402700  0.478228  1
  Ir  Ir27  1  0.250000  0.097300  0.978228  1
  Ir  Ir28  1  0.750000  0.590675  0.520818  1
  Ir  Ir29  1  0.750000  0.909325  0.020818  1
  Ir  Ir30  1  0.250000  0.223687  0.179578  1
  Ir  Ir31  1  0.250000  0.276313  0.679578  1
  Ir  Ir32  1  0.750000  0.766606  0.821403  1
  Ir  Ir33  1  0.750000  0.733394  0.321403  1
  Ir  Ir34  1  0.250000  0.887872  0.698514  1
  Ir  Ir35  1  0.250000  0.612128  0.198514  1
