# generated using pymatgen
data_La3Th(SiTc2)8
_symmetry_space_group_name_H-M   'P 1'
_cell_length_a   4.18888700
_cell_length_b   7.25126701
_cell_length_c   15.70296201
_cell_angle_alpha   89.99476869
_cell_angle_beta   90.00000000
_cell_angle_gamma   90.00000000
_symmetry_Int_Tables_number   1
_chemical_formula_structural   La3Th(SiTc2)8
_chemical_formula_sum   'La3 Th1 Si8 Tc16'
_cell_volume   476.97335670
_cell_formula_units_Z   1
loop_
 _symmetry_equiv_pos_site_id
 _symmetry_equiv_pos_as_xyz
  1  'x, y, z'
loop_
 _atom_site_type_symbol
 _atom_site_label
 _atom_site_symmetry_multiplicity
 _atom_site_fract_x
 _atom_site_fract_y
 _atom_site_fract_z
 _atom_site_occupancy
  La  La0  1  0.000000  0.587413  0.116706  1
  La  La1  1  0.000000  0.411735  0.883216  1
  La  La2  1  0.500000  0.086716  0.382918  1
  Th  Th3  1  0.500000  0.910408  0.616339  1
  Si  Si4  1  0.000000  0.821475  0.473423  1
  Si  Si5  1  0.000000  0.176032  0.526700  1
  Si  Si6  1  0.500000  0.320282  0.027491  1
  Si  Si7  1  0.500000  0.679946  0.972477  1
  Si  Si8  1  0.000000  0.308835  0.275251  1
  Si  Si9  1  0.000000  0.691202  0.726273  1
  Si  Si10  1  0.500000  0.807306  0.225678  1
  Si  Si11  1  0.500000  0.194143  0.772706  1
  Tc  Tc12  1  0.000000  0.134597  0.052859  1
  Tc  Tc13  1  0.000000  0.865520  0.946098  1
  Tc  Tc14  1  0.500000  0.636810  0.449611  1
  Tc  Tc15  1  0.500000  0.359485  0.553230  1
  Tc  Tc16  1  0.000000  0.734687  0.319711  1
  Tc  Tc17  1  0.000000  0.262024  0.679443  1
  Tc  Tc18  1  0.500000  0.234184  0.181666  1
  Tc  Tc19  1  0.500000  0.767605  0.818179  1
  Tc  Tc20  1  0.000000  0.436434  0.421671  1
  Tc  Tc21  1  0.000000  0.566652  0.580514  1
  Tc  Tc22  1  0.500000  0.938031  0.079224  1
  Tc  Tc23  1  0.500000  0.063156  0.919621  1
  Tc  Tc24  1  0.000000  0.004347  0.206761  1
  Tc  Tc25  1  0.000000  0.996807  0.792316  1
  Tc  Tc26  1  0.500000  0.504084  0.294369  1
  Tc  Tc27  1  0.500000  0.500087  0.705550  1
