# generated using pymatgen
data_BaNa2Sr3(ReN4)2
_symmetry_space_group_name_H-M   'P 1'
_cell_length_a   6.05321000
_cell_length_b   6.25824082
_cell_length_c   7.53688163
_cell_angle_alpha   79.28522692
_cell_angle_beta   90.00000000
_cell_angle_gamma   90.00000000
_symmetry_Int_Tables_number   1
_chemical_formula_structural   BaNa2Sr3(ReN4)2
_chemical_formula_sum   'Ba1 Na2 Sr3 Re2 N8'
_cell_volume   280.53751707
_cell_formula_units_Z   1
loop_
 _symmetry_equiv_pos_site_id
 _symmetry_equiv_pos_as_xyz
  1  'x, y, z'
loop_
 _atom_site_type_symbol
 _atom_site_label
 _atom_site_symmetry_multiplicity
 _atom_site_fract_x
 _atom_site_fract_y
 _atom_site_fract_z
 _atom_site_occupancy
  Ba  Ba0  1  0.250000  0.271966  0.029091  1
  Na  Na1  1  0.750000  0.258360  0.303711  1
  Na  Na2  1  0.250000  0.741946  0.695234  1
  Sr  Sr3  1  0.750000  0.741198  0.977171  1
  Sr  Sr4  1  0.750000  0.723185  0.476159  1
  Sr  Sr5  1  0.250000  0.275372  0.525587  1
  Re  Re6  1  0.250000  0.730449  0.219952  1
  Re  Re7  1  0.750000  0.267341  0.779167  1
  N  N8  1  0.510834  0.450334  0.728429  1
  N  N9  1  0.007257  0.550950  0.266845  1
  N  N10  1  0.492743  0.550950  0.266845  1
  N  N11  1  0.989166  0.450334  0.728429  1
  N  N12  1  0.750000  0.051615  0.641637  1
  N  N13  1  0.250000  0.941052  0.362664  1
  N  N14  1  0.750000  0.141673  0.017886  1
  N  N15  1  0.250000  0.853274  0.981195  1
