# generated using pymatgen
data_Mn3Al12Si8Ru
_symmetry_space_group_name_H-M   'P 1'
_cell_length_a   6.17499403
_cell_length_b   6.18313600
_cell_length_c   9.44696033
_cell_angle_alpha   90.00000000
_cell_angle_beta   90.06012881
_cell_angle_gamma   90.00000000
_symmetry_Int_Tables_number   1
_chemical_formula_structural   Mn3Al12Si8Ru
_chemical_formula_sum   'Mn3 Al12 Si8 Ru1'
_cell_volume   360.69256783
_cell_formula_units_Z   1
loop_
 _symmetry_equiv_pos_site_id
 _symmetry_equiv_pos_as_xyz
  1  'x, y, z'
loop_
 _atom_site_type_symbol
 _atom_site_label
 _atom_site_symmetry_multiplicity
 _atom_site_fract_x
 _atom_site_fract_y
 _atom_site_fract_z
 _atom_site_occupancy
  Mn  Mn0  1  0.500000  0.480448  0.750000  1
  Mn  Mn1  1  0.000000  0.980602  0.750000  1
  Mn  Mn2  1  0.500000  0.518294  0.250000  1
  Al  Al3  1  0.997427  0.000542  0.995406  1
  Al  Al4  1  0.500322  0.500838  0.998656  1
  Al  Al5  1  0.002573  0.000542  0.504594  1
  Al  Al6  1  0.499678  0.500838  0.501344  1
  Al  Al7  1  0.138222  0.628742  0.865596  1
  Al  Al8  1  0.632629  0.868435  0.132826  1
  Al  Al9  1  0.861778  0.628742  0.634404  1
  Al  Al10  1  0.367371  0.868435  0.367174  1
  Al  Al11  1  0.860541  0.378342  0.133443  1
  Al  Al12  1  0.363147  0.128485  0.865621  1
  Al  Al13  1  0.139459  0.378342  0.366557  1
  Al  Al14  1  0.636853  0.128485  0.634379  1
  Si  Si15  1  0.168050  0.669518  0.156557  1
  Si  Si16  1  0.663312  0.822384  0.837984  1
  Si  Si17  1  0.831950  0.669518  0.343443  1
  Si  Si18  1  0.336688  0.822384  0.662016  1
  Si  Si19  1  0.836230  0.323660  0.837629  1
  Si  Si20  1  0.345937  0.180280  0.158459  1
  Si  Si21  1  0.163770  0.323660  0.662371  1
  Si  Si22  1  0.654063  0.180280  0.341541  1
  Ru  Ru23  1  0.000000  0.018202  0.250000  1
