# generated using pymatgen
data_Yb(BIr)4
_symmetry_space_group_name_H-M   'P 1'
_cell_length_a   7.59653800
_cell_length_b   7.59653800
_cell_length_c   4.01441700
_cell_angle_alpha   90.00000000
_cell_angle_beta   90.00000000
_cell_angle_gamma   90.00000000
_symmetry_Int_Tables_number   1
_chemical_formula_structural   Yb(BIr)4
_chemical_formula_sum   'Yb2 B8 Ir8'
_cell_volume   231.66152578
_cell_formula_units_Z   2
loop_
 _symmetry_equiv_pos_site_id
 _symmetry_equiv_pos_as_xyz
  1  'x, y, z'
loop_
 _atom_site_type_symbol
 _atom_site_label
 _atom_site_symmetry_multiplicity
 _atom_site_fract_x
 _atom_site_fract_y
 _atom_site_fract_z
 _atom_site_occupancy
  Yb  Yb0  1  0.500000  0.500000  0.000000  1
  Yb  Yb1  1  0.000000  0.000000  0.500000  1
  B  B2  1  0.657053  0.778834  0.611341  1
  B  B3  1  0.157053  0.278834  0.888659  1
  B  B4  1  0.278834  0.842947  0.111341  1
  B  B5  1  0.721166  0.157053  0.111341  1
  B  B6  1  0.342947  0.221166  0.611341  1
  B  B7  1  0.842947  0.721166  0.888659  1
  B  B8  1  0.221166  0.657053  0.388659  1
  B  B9  1  0.778834  0.342947  0.388659  1
  Ir  Ir10  1  0.346529  0.113365  0.110506  1
  Ir  Ir11  1  0.653471  0.886635  0.110506  1
  Ir  Ir12  1  0.613365  0.153471  0.610506  1
  Ir  Ir13  1  0.113365  0.653471  0.889494  1
  Ir  Ir14  1  0.153471  0.386635  0.389494  1
  Ir  Ir15  1  0.846529  0.613365  0.389494  1
  Ir  Ir16  1  0.886635  0.346529  0.889494  1
  Ir  Ir17  1  0.386635  0.846529  0.610506  1
