# generated using pymatgen
data_Dy2Th9In9Ru4
_symmetry_space_group_name_H-M   'P 1'
_cell_length_a   3.85309600
_cell_length_b   13.34200638
_cell_length_c   13.34440509
_cell_angle_alpha   113.49409997
_cell_angle_beta   90.00000000
_cell_angle_gamma   90.00000000
_symmetry_Int_Tables_number   1
_chemical_formula_structural   Dy2Th9In9Ru4
_chemical_formula_sum   'Dy2 Th9 In9 Ru4'
_cell_volume   629.14017618
_cell_formula_units_Z   1
loop_
 _symmetry_equiv_pos_site_id
 _symmetry_equiv_pos_as_xyz
  1  'x, y, z'
loop_
 _atom_site_type_symbol
 _atom_site_label
 _atom_site_symmetry_multiplicity
 _atom_site_fract_x
 _atom_site_fract_y
 _atom_site_fract_z
 _atom_site_occupancy
  Dy  Dy0  1  0.000000  0.310822  0.310812  1
  Dy  Dy1  1  0.000000  0.000996  0.000982  1
  Th  Th2  1  0.000000  0.920852  0.583731  1
  Th  Th3  1  0.000000  0.080308  0.416232  1
  Th  Th4  1  0.000000  0.583762  0.920899  1
  Th  Th5  1  0.000000  0.416301  0.080369  1
  Th  Th6  1  0.000000  0.156869  0.839884  1
  Th  Th7  1  0.000000  0.839907  0.156853  1
  Th  Th8  1  0.000000  0.373399  0.624621  1
  Th  Th9  1  0.000000  0.624614  0.373429  1
  Th  Th10  1  0.000000  0.685180  0.685181  1
  In  In11  1  0.500000  0.156933  0.634590  1
  In  In12  1  0.500000  0.843546  0.364861  1
  In  In13  1  0.500000  0.634704  0.157054  1
  In  In14  1  0.500000  0.364874  0.843581  1
  In  In15  1  0.500000  0.925568  0.788499  1
  In  In16  1  0.500000  0.078577  0.214939  1
  In  In17  1  0.500000  0.788509  0.925570  1
  In  In18  1  0.500000  0.214927  0.078503  1
  In  In19  1  0.500000  0.490187  0.490204  1
  Ru  Ru20  1  0.500000  0.751982  0.544984  1
  Ru  Ru21  1  0.500000  0.247977  0.464185  1
  Ru  Ru22  1  0.500000  0.544939  0.752005  1
  Ru  Ru23  1  0.500000  0.464268  0.248031  1
