# generated using pymatgen
data_TmHf2(NbRe12)2
_symmetry_space_group_name_H-M   'P 1'
_cell_length_a   8.47491877
_cell_length_b   8.47491918
_cell_length_c   8.46798843
_cell_angle_alpha   109.47292802
_cell_angle_beta   109.47292901
_cell_angle_gamma   109.50095004
_symmetry_Int_Tables_number   1
_chemical_formula_structural   TmHf2(NbRe12)2
_chemical_formula_sum   'Tm1 Hf2 Nb2 Re24'
_cell_volume   468.00626996
_cell_formula_units_Z   1
loop_
 _symmetry_equiv_pos_site_id
 _symmetry_equiv_pos_as_xyz
  1  'x, y, z'
loop_
 _atom_site_type_symbol
 _atom_site_label
 _atom_site_symmetry_multiplicity
 _atom_site_fract_x
 _atom_site_fract_y
 _atom_site_fract_z
 _atom_site_occupancy
  Tm  Tm0  1  0.999207  0.999207  0.000000  1
  Hf  Hf1  1  0.000140  0.000140  0.628818  1
  Hf  Hf2  1  0.371322  0.371322  0.371182  1
  Nb  Nb3  1  0.628637  0.000236  0.000000  1
  Nb  Nb4  1  0.000236  0.628637  0.000000  1
  Re  Re5  1  0.398779  0.681540  0.000000  1
  Re  Re6  1  0.717126  0.318966  0.318457  1
  Re  Re7  1  0.398669  0.000508  0.681543  1
  Re  Re8  1  0.681540  0.398779  0.000000  1
  Re  Re9  1  0.000508  0.398669  0.681543  1
  Re  Re10  1  0.318966  0.717126  0.318457  1
  Re  Re11  1  0.323375  0.323375  0.718772  1
  Re  Re12  1  0.000823  0.677337  0.396237  1
  Re  Re13  1  0.677337  0.000823  0.396237  1
  Re  Re14  1  0.604603  0.604603  0.281228  1
  Re  Re15  1  0.281100  0.604586  0.603763  1
  Re  Re16  1  0.604586  0.281100  0.603763  1
  Re  Re17  1  0.377113  0.193995  0.000000  1
  Re  Re18  1  0.181623  0.803962  0.804893  1
  Re  Re19  1  0.376730  0.999069  0.195107  1
  Re  Re20  1  0.193995  0.377113  0.000000  1
  Re  Re21  1  0.999069  0.376730  0.195107  1
  Re  Re22  1  0.803962  0.181623  0.804893  1
  Re  Re23  1  0.803663  0.803663  0.180649  1
  Re  Re24  1  0.999226  0.194156  0.376443  1
  Re  Re25  1  0.194156  0.999226  0.376443  1
  Re  Re26  1  0.623014  0.623014  0.819351  1
  Re  Re27  1  0.817713  0.622783  0.623557  1
  Re  Re28  1  0.622783  0.817713  0.623557  1
