# generated using pymatgen
data_Dy8Nb11Si16W
_symmetry_space_group_name_H-M   'P 1'
_cell_length_a   7.05849765
_cell_length_b   7.05849857
_cell_length_c   13.05894674
_cell_angle_alpha   90.01468355
_cell_angle_beta   89.98531415
_cell_angle_gamma   89.99736775
_symmetry_Int_Tables_number   1
_chemical_formula_structural   Dy8Nb11Si16W
_chemical_formula_sum   'Dy8 Nb11 Si16 W1'
_cell_volume   650.62796678
_cell_formula_units_Z   1
loop_
 _symmetry_equiv_pos_site_id
 _symmetry_equiv_pos_as_xyz
  1  'x, y, z'
loop_
 _atom_site_type_symbol
 _atom_site_label
 _atom_site_symmetry_multiplicity
 _atom_site_fract_x
 _atom_site_fract_y
 _atom_site_fract_z
 _atom_site_occupancy
  Dy  Dy0  1  0.997787  0.657249  0.032348  1
  Dy  Dy1  1  0.002411  0.341938  0.532373  1
  Dy  Dy2  1  0.657249  0.997787  0.967652  1
  Dy  Dy3  1  0.158365  0.502047  0.783048  1
  Dy  Dy4  1  0.842321  0.497354  0.281964  1
  Dy  Dy5  1  0.502047  0.158365  0.216952  1
  Dy  Dy6  1  0.497354  0.842321  0.718036  1
  Dy  Dy7  1  0.341938  0.002411  0.467627  1
  Nb  Nb8  1  0.347137  0.506527  0.375486  1
  Nb  Nb9  1  0.847228  0.993011  0.374172  1
  Nb  Nb10  1  0.006790  0.152760  0.125458  1
  Nb  Nb11  1  0.993011  0.847228  0.625828  1
  Nb  Nb12  1  0.506527  0.347137  0.624514  1
  Nb  Nb13  1  0.152760  0.006790  0.874542  1
  Nb  Nb14  1  0.671900  0.671900  0.500000  1
  Nb  Nb15  1  0.828291  0.172569  0.750731  1
  Nb  Nb16  1  0.172569  0.828291  0.249269  1
  Nb  Nb17  1  0.492757  0.652897  0.123709  1
  Nb  Nb18  1  0.652897  0.492757  0.876291  1
  Si  Si19  1  0.046403  0.706712  0.436463  1
  Si  Si20  1  0.955862  0.293310  0.937027  1
  Si  Si21  1  0.706712  0.046403  0.563537  1
  Si  Si22  1  0.208117  0.452011  0.184804  1
  Si  Si23  1  0.793359  0.546451  0.686622  1
  Si  Si24  1  0.452011  0.208117  0.815196  1
  Si  Si25  1  0.546451  0.793359  0.313378  1
  Si  Si26  1  0.293310  0.955862  0.062973  1
  Si  Si27  1  0.795982  0.866740  0.182538  1
  Si  Si28  1  0.296299  0.633887  0.567346  1
  Si  Si29  1  0.701284  0.366023  0.066924  1
  Si  Si30  1  0.633887  0.296299  0.432654  1
  Si  Si31  1  0.366023  0.701284  0.933076  1
  Si  Si32  1  0.133907  0.204032  0.317106  1
  Si  Si33  1  0.204032  0.133907  0.682894  1
  Si  Si34  1  0.866740  0.795982  0.817462  1
  W  W35  1  0.328280  0.328280  0.000000  1
