# generated using pymatgen
data_Mg2Si2IrPd
_symmetry_space_group_name_H-M   'P 1'
_cell_length_a   6.57833200
_cell_length_b   4.07682000
_cell_length_c   7.18493100
_cell_angle_alpha   90.00000000
_cell_angle_beta   90.00000000
_cell_angle_gamma   90.00000000
_symmetry_Int_Tables_number   1
_chemical_formula_structural   Mg2Si2IrPd
_chemical_formula_sum   'Mg4 Si4 Ir2 Pd2'
_cell_volume   192.69033272
_cell_formula_units_Z   2
loop_
 _symmetry_equiv_pos_site_id
 _symmetry_equiv_pos_as_xyz
  1  'x, y, z'
loop_
 _atom_site_type_symbol
 _atom_site_label
 _atom_site_symmetry_multiplicity
 _atom_site_fract_x
 _atom_site_fract_y
 _atom_site_fract_z
 _atom_site_occupancy
  Mg  Mg0  1  0.507495  0.249999  0.178893  1
  Mg  Mg1  1  0.007494  0.249999  0.321108  1
  Mg  Mg2  1  0.989031  0.750000  0.677526  1
  Mg  Mg3  1  0.489031  0.750000  0.822475  1
  Si  Si4  1  0.205423  0.750000  0.134825  1
  Si  Si5  1  0.705423  0.750000  0.365175  1
  Si  Si6  1  0.288672  0.249999  0.614357  1
  Si  Si7  1  0.788671  0.249999  0.885643  1
  Ir  Ir8  1  0.846343  0.750000  0.055677  1
  Ir  Ir9  1  0.346343  0.750000  0.444323  1
  Pd  Pd10  1  0.663037  0.249999  0.558054  1
  Pd  Pd11  1  0.163036  0.249999  0.941946  1
