# generated using pymatgen
data_Lu6TiMn5O18
_symmetry_space_group_name_H-M   'P 1'
_cell_length_a   6.09521751
_cell_length_b   6.08932498
_cell_length_c   11.57180554
_cell_angle_alpha   90.23025177
_cell_angle_beta   89.53993795
_cell_angle_gamma   120.03201581
_symmetry_Int_Tables_number   1
_chemical_formula_structural   Lu6TiMn5O18
_chemical_formula_sum   'Lu6 Ti1 Mn5 O18'
_cell_volume   371.82271598
_cell_formula_units_Z   1
loop_
 _symmetry_equiv_pos_site_id
 _symmetry_equiv_pos_as_xyz
  1  'x, y, z'
loop_
 _atom_site_type_symbol
 _atom_site_label
 _atom_site_symmetry_multiplicity
 _atom_site_fract_x
 _atom_site_fract_y
 _atom_site_fract_z
 _atom_site_occupancy
  Lu  Lu0  1  0.666341  0.335574  0.229160  1
  Lu  Lu1  1  0.333667  0.666623  0.734851  1
  Lu  Lu2  1  0.667046  0.333377  0.734851  1
  Lu  Lu3  1  0.330766  0.664426  0.229160  1
  Lu  Lu4  1  0.001684  0.000000  0.776999  1
  Lu  Lu5  1  0.000189  0.000000  0.273048  1
  Ti  Ti6  1  0.665713  0.000000  0.500783  1
  Mn  Mn7  1  0.666860  0.667374  0.000740  1
  Mn  Mn8  1  0.999486  0.332626  0.000740  1
  Mn  Mn9  1  0.999953  0.666596  0.500107  1
  Mn  Mn10  1  0.333357  0.333404  0.500107  1
  Mn  Mn11  1  0.333261  0.000000  0.001021  1
  O  O12  1  0.667042  0.333742  0.024238  1
  O  O13  1  0.357174  0.690663  0.522492  1
  O  O14  1  0.666512  0.309337  0.522492  1
  O  O15  1  0.333299  0.666258  0.024238  1
  O  O16  1  0.000510  0.000000  0.972786  1
  O  O17  1  0.975737  0.000000  0.474264  1
  O  O18  1  0.361577  0.000000  0.835868  1
  O  O19  1  0.358501  0.358134  0.331240  1
  O  O20  1  0.000367  0.641866  0.331240  1
  O  O21  1  0.999945  0.361651  0.836272  1
  O  O22  1  0.638294  0.638349  0.836272  1
  O  O23  1  0.635498  0.000000  0.334063  1
  O  O24  1  0.305777  0.000000  0.165892  1
  O  O25  1  0.309169  0.309541  0.669502  1
  O  O26  1  0.999627  0.690459  0.669502  1
  O  O27  1  0.999138  0.303852  0.165903  1
  O  O28  1  0.695286  0.696148  0.165903  1
  O  O29  1  0.698221  0.000000  0.670262  1
