# generated using pymatgen
data_LaHo2CuRh8
_symmetry_space_group_name_H-M   'P 1'
_cell_length_a   5.33351500
_cell_length_b   5.33351433
_cell_length_c   17.24631500
_cell_angle_alpha   90.00000000
_cell_angle_beta   90.00000000
_cell_angle_gamma   119.99999793
_symmetry_Int_Tables_number   1
_chemical_formula_structural   LaHo2CuRh8
_chemical_formula_sum   'La2 Ho4 Cu2 Rh16'
_cell_volume   424.86792163
_cell_formula_units_Z   2
loop_
 _symmetry_equiv_pos_site_id
 _symmetry_equiv_pos_as_xyz
  1  'x, y, z'
loop_
 _atom_site_type_symbol
 _atom_site_label
 _atom_site_symmetry_multiplicity
 _atom_site_fract_x
 _atom_site_fract_y
 _atom_site_fract_z
 _atom_site_occupancy
  La  La0  1  0.333333  0.666667  0.750000  1
  La  La1  1  0.666667  0.333333  0.250000  1
  Ho  Ho2  1  0.333333  0.666667  0.539447  1
  Ho  Ho3  1  0.666667  0.333333  0.039447  1
  Ho  Ho4  1  0.666667  0.333333  0.460553  1
  Ho  Ho5  1  0.333333  0.666667  0.960553  1
  Cu  Cu6  1  0.000000  0.000000  0.250000  1
  Cu  Cu7  1  0.000000  0.000000  0.750000  1
  Rh  Rh8  1  0.167973  0.335946  0.124257  1
  Rh  Rh9  1  0.832027  0.664054  0.624257  1
  Rh  Rh10  1  0.664054  0.832027  0.124257  1
  Rh  Rh11  1  0.167973  0.832027  0.124257  1
  Rh  Rh12  1  0.832027  0.167973  0.624257  1
  Rh  Rh13  1  0.335946  0.167973  0.624257  1
  Rh  Rh14  1  0.832027  0.664054  0.875743  1
  Rh  Rh15  1  0.832027  0.167973  0.875743  1
  Rh  Rh16  1  0.335946  0.167973  0.875743  1
  Rh  Rh17  1  0.664054  0.832027  0.375743  1
  Rh  Rh18  1  0.167973  0.832027  0.375743  1
  Rh  Rh19  1  0.167973  0.335946  0.375743  1
  Rh  Rh20  1  0.333333  0.666667  0.250000  1
  Rh  Rh21  1  0.666667  0.333333  0.750000  1
  Rh  Rh22  1  0.000000  0.000000  0.000000  1
  Rh  Rh23  1  0.000000  0.000000  0.500000  1
