# generated using pymatgen
data_Y5P12Ir(RuRh)9
_symmetry_space_group_name_H-M   'P 1'
_cell_length_a   12.61890300
_cell_length_b   12.61890399
_cell_length_c   3.95275400
_cell_angle_alpha   90.00000000
_cell_angle_beta   90.00000000
_cell_angle_gamma   119.99999478
_symmetry_Int_Tables_number   1
_chemical_formula_structural   Y5P12Ir(RuRh)9
_chemical_formula_sum   'Y5 P12 Ir1 Ru9 Rh9'
_cell_volume   545.09685900
_cell_formula_units_Z   1
loop_
 _symmetry_equiv_pos_site_id
 _symmetry_equiv_pos_as_xyz
  1  'x, y, z'
loop_
 _atom_site_type_symbol
 _atom_site_label
 _atom_site_symmetry_multiplicity
 _atom_site_fract_x
 _atom_site_fract_y
 _atom_site_fract_z
 _atom_site_occupancy
  Y  Y0  1  0.000000  0.185012  0.500000  1
  Y  Y1  1  0.814988  0.814988  0.500000  1
  Y  Y2  1  0.185012  0.000000  0.500000  1
  Y  Y3  1  0.666667  0.333333  0.000000  1
  Y  Y4  1  0.333333  0.666667  0.000000  1
  P  P5  1  0.000000  0.816978  0.000000  1
  P  P6  1  0.183022  0.183022  0.000000  1
  P  P7  1  0.816978  0.000000  0.000000  1
  P  P8  1  0.688799  0.172103  0.500000  1
  P  P9  1  0.827897  0.516697  0.500000  1
  P  P10  1  0.483303  0.311201  0.500000  1
  P  P11  1  0.172103  0.688799  0.500000  1
  P  P12  1  0.516697  0.827897  0.500000  1
  P  P13  1  0.311201  0.483303  0.500000  1
  P  P14  1  0.000000  0.369477  0.000000  1
  P  P15  1  0.630523  0.630523  0.000000  1
  P  P16  1  0.369477  0.000000  0.000000  1
  Ir  Ir17  1  0.000000  0.000000  0.000000  1
  Ru  Ru18  1  0.000000  0.714089  0.500000  1
  Ru  Ru19  1  0.285911  0.285911  0.500000  1
  Ru  Ru20  1  0.714089  0.000000  0.500000  1
  Ru  Ru21  1  0.872869  0.361383  0.500000  1
  Ru  Ru22  1  0.638617  0.511485  0.500000  1
  Ru  Ru23  1  0.488515  0.127131  0.500000  1
  Ru  Ru24  1  0.361383  0.872869  0.500000  1
  Ru  Ru25  1  0.511485  0.638617  0.500000  1
  Ru  Ru26  1  0.127131  0.488515  0.500000  1
  Rh  Rh27  1  0.000000  0.550267  0.000000  1
  Rh  Rh28  1  0.449733  0.449733  0.000000  1
  Rh  Rh29  1  0.550267  0.000000  0.000000  1
  Rh  Rh30  1  0.807181  0.182740  0.000000  1
  Rh  Rh31  1  0.817260  0.624442  0.000000  1
  Rh  Rh32  1  0.375558  0.192819  0.000000  1
  Rh  Rh33  1  0.182740  0.807181  0.000000  1
  Rh  Rh34  1  0.624442  0.817260  0.000000  1
  Rh  Rh35  1  0.192819  0.375558  0.000000  1
