# generated using pymatgen
data_Tb7LuHf12Si15Ir
_symmetry_space_group_name_H-M   'P 1'
_cell_length_a   7.29182485
_cell_length_b   7.29450396
_cell_length_c   13.41986743
_cell_angle_alpha   89.90667901
_cell_angle_beta   89.97030591
_cell_angle_gamma   90.03326924
_symmetry_Int_Tables_number   1
_chemical_formula_structural   Tb7LuHf12Si15Ir
_chemical_formula_sum   'Tb7 Lu1 Hf12 Si15 Ir1'
_cell_volume   713.80487665
_cell_formula_units_Z   1
loop_
 _symmetry_equiv_pos_site_id
 _symmetry_equiv_pos_as_xyz
  1  'x, y, z'
loop_
 _atom_site_type_symbol
 _atom_site_label
 _atom_site_symmetry_multiplicity
 _atom_site_fract_x
 _atom_site_fract_y
 _atom_site_fract_z
 _atom_site_occupancy
  Tb  Tb0  1  0.004475  0.655581  0.714696  1
  Tb  Tb1  1  0.157053  0.493962  0.463277  1
  Tb  Tb2  1  0.504219  0.842741  0.034518  1
  Tb  Tb3  1  0.844550  0.503066  0.965503  1
  Tb  Tb4  1  0.495933  0.157189  0.535462  1
  Tb  Tb5  1  0.343608  0.996755  0.785196  1
  Tb  Tb6  1  0.657791  0.001046  0.284330  1
  Lu  Lu7  1  0.998421  0.348075  0.214259  1
  Hf  Hf8  1  0.174908  0.175419  0.998913  1
  Hf  Hf9  1  0.827136  0.825561  0.500032  1
  Hf  Hf10  1  0.324300  0.667394  0.252588  1
  Hf  Hf11  1  0.674434  0.325506  0.750394  1
  Hf  Hf12  1  0.153150  0.005647  0.372896  1
  Hf  Hf13  1  0.850769  0.004250  0.875205  1
  Hf  Hf14  1  0.503930  0.650141  0.625505  1
  Hf  Hf15  1  0.351164  0.495991  0.873996  1
  Hf  Hf16  1  0.494561  0.346863  0.126750  1
  Hf  Hf17  1  0.646141  0.501247  0.378255  1
  Hf  Hf18  1  0.997298  0.148388  0.626257  1
  Hf  Hf19  1  0.000289  0.849110  0.124316  1
  Si  Si20  1  0.638287  0.705410  0.818443  1
  Si  Si21  1  0.204832  0.862037  0.566438  1
  Si  Si22  1  0.137945  0.794944  0.933069  1
  Si  Si23  1  0.798006  0.138795  0.067476  1
  Si  Si24  1  0.860398  0.199924  0.435461  1
  Si  Si25  1  0.295726  0.362189  0.683389  1
  Si  Si26  1  0.704957  0.637740  0.182805  1
  Si  Si27  1  0.289919  0.046017  0.183458  1
  Si  Si28  1  0.705748  0.951083  0.685856  1
  Si  Si29  1  0.451764  0.797570  0.437959  1
  Si  Si30  1  0.204433  0.549259  0.062125  1
  Si  Si31  1  0.548575  0.204928  0.935316  1
  Si  Si32  1  0.795173  0.451068  0.566271  1
  Si  Si33  1  0.047893  0.295773  0.814613  1
  Si  Si34  1  0.949522  0.707555  0.313251  1
  Ir  Ir35  1  0.362691  0.301775  0.311725  1
