# generated using pymatgen
data_Ta16GaCo7N4
_symmetry_space_group_name_H-M   'P 1'
_cell_length_a   8.22817849
_cell_length_b   8.22060770
_cell_length_c   8.22060700
_cell_angle_alpha   59.99999879
_cell_angle_beta   60.03043096
_cell_angle_gamma   60.03043763
_symmetry_Int_Tables_number   1
_chemical_formula_structural   Ta16GaCo7N4
_chemical_formula_sum   'Ta16 Ga1 Co7 N4'
_cell_volume   393.36538512
_cell_formula_units_Z   1
loop_
 _symmetry_equiv_pos_site_id
 _symmetry_equiv_pos_as_xyz
  1  'x, y, z'
loop_
 _atom_site_type_symbol
 _atom_site_label
 _atom_site_symmetry_multiplicity
 _atom_site_fract_x
 _atom_site_fract_y
 _atom_site_fract_z
 _atom_site_occupancy
  Ta  Ta0  1  0.128556  0.623815  0.623815  1
  Ta  Ta1  1  0.619226  0.116533  0.632120  1
  Ta  Ta2  1  0.619226  0.632120  0.116533  1
  Ta  Ta3  1  0.619226  0.632120  0.632120  1
  Ta  Ta4  1  0.812999  0.811488  0.187757  1
  Ta  Ta5  1  0.183282  0.186089  0.815314  1
  Ta  Ta6  1  0.812999  0.187757  0.811488  1
  Ta  Ta7  1  0.183282  0.815314  0.186089  1
  Ta  Ta8  1  0.183282  0.815314  0.815314  1
  Ta  Ta9  1  0.812999  0.187757  0.187757  1
  Ta  Ta10  1  0.434983  0.434915  0.065051  1
  Ta  Ta11  1  0.066048  0.058063  0.437945  1
  Ta  Ta12  1  0.434983  0.065051  0.434915  1
  Ta  Ta13  1  0.066048  0.437945  0.058063  1
  Ta  Ta14  1  0.066048  0.437945  0.437945  1
  Ta  Ta15  1  0.434983  0.065051  0.065051  1
  Ga  Ga16  1  0.758406  0.413865  0.413865  1
  Co  Co17  1  0.420598  0.750775  0.414314  1
  Co  Co18  1  0.420598  0.414314  0.750775  1
  Co  Co19  1  0.420598  0.414314  0.414314  1
  Co  Co20  1  0.495280  0.834906  0.834906  1
  Co  Co21  1  0.834413  0.500266  0.832660  1
  Co  Co22  1  0.834413  0.832660  0.500266  1
  Co  Co23  1  0.834413  0.832660  0.832660  1
  N  N24  1  0.626125  0.124625  0.124625  1
  N  N25  1  0.125662  0.623416  0.125461  1
  N  N26  1  0.125662  0.125461  0.623416  1
  N  N27  1  0.125662  0.125461  0.125461  1
