# generated using pymatgen
data_Rb2B2Se3O10
_symmetry_space_group_name_H-M   'P 1'
_cell_length_a   4.79700500
_cell_length_b   14.58849700
_cell_length_c   16.11141300
_cell_angle_alpha   90.00000000
_cell_angle_beta   90.00000000
_cell_angle_gamma   90.00000000
_symmetry_Int_Tables_number   1
_chemical_formula_structural   Rb2B2Se3O10
_chemical_formula_sum   'Rb8 B8 Se12 O40'
_cell_volume   1127.49429234
_cell_formula_units_Z   4
loop_
 _symmetry_equiv_pos_site_id
 _symmetry_equiv_pos_as_xyz
  1  'x, y, z'
loop_
 _atom_site_type_symbol
 _atom_site_label
 _atom_site_symmetry_multiplicity
 _atom_site_fract_x
 _atom_site_fract_y
 _atom_site_fract_z
 _atom_site_occupancy
  Rb  Rb0  1  0.239754  0.135339  0.451749  1
  Rb  Rb1  1  0.260246  0.635339  0.048251  1
  Rb  Rb2  1  0.760246  0.864661  0.951749  1
  Rb  Rb3  1  0.739754  0.364661  0.548251  1
  Rb  Rb4  1  0.760246  0.864661  0.548251  1
  Rb  Rb5  1  0.739754  0.364661  0.951749  1
  Rb  Rb6  1  0.239754  0.135339  0.048251  1
  Rb  Rb7  1  0.260246  0.635339  0.451749  1
  B  B8  1  0.736798  0.989954  0.330129  1
  B  B9  1  0.763202  0.489954  0.169871  1
  B  B10  1  0.263202  0.010046  0.830129  1
  B  B11  1  0.236798  0.510046  0.669871  1
  B  B12  1  0.263202  0.010046  0.669871  1
  B  B13  1  0.236798  0.510046  0.830129  1
  B  B14  1  0.736798  0.989954  0.169871  1
  B  B15  1  0.763202  0.489954  0.330129  1
  Se  Se16  1  0.232549  0.886910  0.356472  1
  Se  Se17  1  0.267451  0.386910  0.143528  1
  Se  Se18  1  0.767451  0.113090  0.856472  1
  Se  Se19  1  0.732549  0.613090  0.643528  1
  Se  Se20  1  0.767451  0.113090  0.643528  1
  Se  Se21  1  0.732549  0.613090  0.856472  1
  Se  Se22  1  0.232549  0.886910  0.143528  1
  Se  Se23  1  0.267451  0.386910  0.356472  1
  Se  Se24  1  0.761159  0.167344  0.250000  1
  Se  Se25  1  0.738841  0.667344  0.250000  1
  Se  Se26  1  0.238841  0.832656  0.750000  1
  Se  Se27  1  0.261159  0.332656  0.750000  1
  O  O28  1  0.299057  0.825685  0.441231  1
  O  O29  1  0.200943  0.325685  0.058769  1
  O  O30  1  0.700943  0.174315  0.941231  1
  O  O31  1  0.799057  0.674315  0.558769  1
  O  O32  1  0.700943  0.174315  0.558769  1
  O  O33  1  0.799057  0.674315  0.941231  1
  O  O34  1  0.299057  0.825685  0.058769  1
  O  O35  1  0.200943  0.325685  0.441231  1
  O  O36  1  0.925112  0.943141  0.391540  1
  O  O37  1  0.574888  0.443141  0.108460  1
  O  O38  1  0.074888  0.056859  0.891540  1
  O  O39  1  0.425112  0.556859  0.608460  1
  O  O40  1  0.074888  0.056859  0.608460  1
  O  O41  1  0.425112  0.556859  0.891540  1
  O  O42  1  0.925112  0.943141  0.108460  1
  O  O43  1  0.574888  0.443141  0.391540  1
  O  O44  1  0.451271  0.985028  0.367689  1
  O  O45  1  0.048729  0.485028  0.132311  1
  O  O46  1  0.548729  0.014972  0.867689  1
  O  O47  1  0.951271  0.514972  0.632311  1
  O  O48  1  0.548729  0.014972  0.632311  1
  O  O49  1  0.951271  0.514972  0.867689  1
  O  O50  1  0.451271  0.985028  0.132311  1
  O  O51  1  0.048729  0.485028  0.367689  1
  O  O52  1  0.810517  0.090089  0.334658  1
  O  O53  1  0.689483  0.590089  0.165342  1
  O  O54  1  0.189483  0.909911  0.834658  1
  O  O55  1  0.310517  0.409911  0.665342  1
  O  O56  1  0.189483  0.909911  0.665342  1
  O  O57  1  0.310517  0.409911  0.834658  1
  O  O58  1  0.810517  0.090089  0.165342  1
  O  O59  1  0.689483  0.590089  0.334658  1
  O  O60  1  0.423709  0.192938  0.250000  1
  O  O61  1  0.076291  0.692938  0.250000  1
  O  O62  1  0.576291  0.807062  0.750000  1
  O  O63  1  0.923709  0.307062  0.750000  1
  O  O64  1  0.762992  0.948657  0.250000  1
  O  O65  1  0.737008  0.448657  0.250000  1
  O  O66  1  0.237008  0.051343  0.750000  1
  O  O67  1  0.262992  0.551343  0.750000  1
