# generated using pymatgen
data_CaCe(Co3Si2)2
_symmetry_space_group_name_H-M   'P 1'
_cell_length_a   6.30029880
_cell_length_b   6.30029984
_cell_length_c   6.30029871
_cell_angle_alpha   130.17830661
_cell_angle_beta   114.37397687
_cell_angle_gamma   86.68305979
_symmetry_Int_Tables_number   1
_chemical_formula_structural   CaCe(Co3Si2)2
_chemical_formula_sum   'Ca1 Ce1 Co6 Si4'
_cell_volume   166.05691497
_cell_formula_units_Z   1
loop_
 _symmetry_equiv_pos_site_id
 _symmetry_equiv_pos_as_xyz
  1  'x, y, z'
loop_
 _atom_site_type_symbol
 _atom_site_label
 _atom_site_symmetry_multiplicity
 _atom_site_fract_x
 _atom_site_fract_y
 _atom_site_fract_z
 _atom_site_occupancy
  Ca  Ca0  1  0.750000  0.034162  0.284162  1
  Ce  Ce1  1  0.250000  0.956898  0.706898  1
  Co  Co2  1  0.783105  0.503095  0.284239  1
  Co  Co3  1  0.010040  0.504731  0.014771  1
  Co  Co4  1  0.716895  0.001134  0.719990  1
  Co  Co5  1  0.218856  0.503095  0.719990  1
  Co  Co6  1  0.281144  0.001134  0.284239  1
  Co  Co7  1  0.489960  0.504731  0.494690  1
  Si  Si8  1  0.586865  0.385429  0.798565  1
  Si  Si9  1  0.073655  0.270601  0.196946  1
  Si  Si10  1  0.426345  0.623290  0.196946  1
  Si  Si11  1  0.913135  0.711701  0.798565  1
