# generated using pymatgen
data_Ac2Dy2As7Ir8
_symmetry_space_group_name_H-M   'P 1'
_cell_length_a   4.13328300
_cell_length_b   13.35725712
_cell_length_c   13.68161829
_cell_angle_alpha   81.89036913
_cell_angle_beta   90.00000000
_cell_angle_gamma   90.00000000
_symmetry_Int_Tables_number   1
_chemical_formula_structural   Ac2Dy2As7Ir8
_chemical_formula_sum   'Ac4 Dy4 As14 Ir16'
_cell_volume   747.79933460
_cell_formula_units_Z   2
loop_
 _symmetry_equiv_pos_site_id
 _symmetry_equiv_pos_as_xyz
  1  'x, y, z'
loop_
 _atom_site_type_symbol
 _atom_site_label
 _atom_site_symmetry_multiplicity
 _atom_site_fract_x
 _atom_site_fract_y
 _atom_site_fract_z
 _atom_site_occupancy
  Ac  Ac0  1  0.250000  0.104234  0.788040  1
  Ac  Ac1  1  0.750000  0.895766  0.211960  1
  Ac  Ac2  1  0.250000  0.286049  0.105039  1
  Ac  Ac3  1  0.750000  0.713951  0.894961  1
  Dy  Dy4  1  0.250000  0.520328  0.295288  1
  Dy  Dy5  1  0.750000  0.479672  0.704712  1
  Dy  Dy6  1  0.250000  0.206613  0.442831  1
  Dy  Dy7  1  0.750000  0.793387  0.557169  1
  As  As8  1  0.250000  0.056975  0.100509  1
  As  As9  1  0.750000  0.943025  0.899491  1
  As  As10  1  0.250000  0.319367  0.683554  1
  As  As11  1  0.750000  0.680633  0.316446  1
  As  As12  1  0.250000  0.606453  0.568450  1
  As  As13  1  0.750000  0.393547  0.431550  1
  As  As14  1  0.250000  0.843691  0.714514  1
  As  As15  1  0.750000  0.156309  0.285486  1
  As  As16  1  0.750000  0.257124  0.915510  1
  As  As17  1  0.250000  0.742876  0.084490  1
  As  As18  1  0.750000  0.096556  0.584851  1
  As  As19  1  0.250000  0.903444  0.415149  1
  As  As20  1  0.750000  0.472726  0.130306  1
  As  As21  1  0.250000  0.527274  0.869694  1
  Ir  Ir22  1  0.250000  0.989268  0.572858  1
  Ir  Ir23  1  0.750000  0.010732  0.427142  1
  Ir  Ir24  1  0.250000  0.661484  0.729399  1
  Ir  Ir25  1  0.750000  0.338516  0.270601  1
  Ir  Ir26  1  0.250000  0.551198  0.049706  1
  Ir  Ir27  1  0.750000  0.448802  0.950294  1
  Ir  Ir28  1  0.250000  0.058987  0.281725  1
  Ir  Ir29  1  0.750000  0.941013  0.718275  1
  Ir  Ir30  1  0.250000  0.426047  0.520913  1
  Ir  Ir31  1  0.750000  0.573953  0.479087  1
  Ir  Ir32  1  0.250000  0.919016  0.998278  1
  Ir  Ir33  1  0.750000  0.080984  0.001722  1
  Ir  Ir34  1  0.250000  0.721054  0.405445  1
  Ir  Ir35  1  0.750000  0.278946  0.594555  1
  Ir  Ir36  1  0.250000  0.346854  0.856165  1
  Ir  Ir37  1  0.750000  0.653146  0.143835  1
