# generated using pymatgen
data_Zr2U5PaIr8
_symmetry_space_group_name_H-M   'P 1'
_cell_length_a   10.55799570
_cell_length_b   5.56875276
_cell_length_c   5.57623939
_cell_angle_alpha   81.30312437
_cell_angle_beta   90.36579189
_cell_angle_gamma   90.18248124
_symmetry_Int_Tables_number   1
_chemical_formula_structural   Zr2U5PaIr8
_chemical_formula_sum   'Zr2 U5 Pa1 Ir8'
_cell_volume   324.07721068
_cell_formula_units_Z   1
loop_
 _symmetry_equiv_pos_site_id
 _symmetry_equiv_pos_as_xyz
  1  'x, y, z'
loop_
 _atom_site_type_symbol
 _atom_site_label
 _atom_site_symmetry_multiplicity
 _atom_site_fract_x
 _atom_site_fract_y
 _atom_site_fract_z
 _atom_site_occupancy
  Zr  Zr0  1  0.000640  0.901545  0.148806  1
  Zr  Zr1  1  0.500178  0.661765  0.399513  1
  U  U2  1  0.989611  0.333239  0.594244  1
  U  U3  1  0.216427  0.392949  0.126736  1
  U  U4  1  0.718656  0.607460  0.878024  1
  U  U5  1  0.217321  0.852892  0.631539  1
  U  U6  1  0.721110  0.154924  0.374925  1
  Pa  Pa7  1  0.494903  0.097311  0.847666  1
  Ir  Ir8  1  0.762408  0.105878  0.881228  1
  Ir  Ir9  1  0.262356  0.889797  0.128194  1
  Ir  Ir10  1  0.762122  0.652394  0.370198  1
  Ir  Ir11  1  0.257350  0.354803  0.628763  1
  Ir  Ir12  1  0.957069  0.408915  0.085869  1
  Ir  Ir13  1  0.456571  0.589394  0.907768  1
  Ir  Ir14  1  0.959728  0.826943  0.659774  1
  Ir  Ir15  1  0.459554  0.169789  0.336753  1
