# generated using pymatgen
data_La17(LuIr4)3
_symmetry_space_group_name_H-M   'P 1'
_cell_length_a   11.36991500
_cell_length_b   11.36991500
_cell_length_c   6.55075000
_cell_angle_alpha   90.00000000
_cell_angle_beta   90.00000000
_cell_angle_gamma   90.00000000
_symmetry_Int_Tables_number   1
_chemical_formula_structural   La17(LuIr4)3
_chemical_formula_sum   'La17 Lu3 Ir12'
_cell_volume   846.84799078
_cell_formula_units_Z   1
loop_
 _symmetry_equiv_pos_site_id
 _symmetry_equiv_pos_as_xyz
  1  'x, y, z'
loop_
 _atom_site_type_symbol
 _atom_site_label
 _atom_site_symmetry_multiplicity
 _atom_site_fract_x
 _atom_site_fract_y
 _atom_site_fract_z
 _atom_site_occupancy
  La  La0  1  0.290107  0.087678  0.387958  1
  La  La1  1  0.288818  0.910843  0.890033  1
  La  La2  1  0.711182  0.089157  0.890033  1
  La  La3  1  0.709893  0.912322  0.387958  1
  La  La4  1  0.589014  0.786263  0.889755  1
  La  La5  1  0.587582  0.214370  0.389750  1
  La  La6  1  0.412418  0.785630  0.389750  1
  La  La7  1  0.410986  0.213737  0.889755  1
  La  La8  1  0.214370  0.412418  0.610250  1
  La  La9  1  0.213737  0.589014  0.110245  1
  La  La10  1  0.786263  0.410986  0.110245  1
  La  La11  1  0.785630  0.587582  0.610250  1
  La  La12  1  0.910843  0.711182  0.109967  1
  La  La13  1  0.912322  0.290107  0.612042  1
  La  La14  1  0.087678  0.709893  0.612042  1
  La  La15  1  0.089157  0.288818  0.109967  1
  La  La16  1  0.000000  0.000000  0.500000  1
  Lu  Lu17  1  0.000000  0.000000  0.000000  1
  Lu  Lu18  1  0.500000  0.500000  0.000000  1
  Lu  Lu19  1  0.500000  0.500000  0.500000  1
  Ir  Ir20  1  0.850680  0.151246  0.242472  1
  Ir  Ir21  1  0.848754  0.850680  0.757528  1
  Ir  Ir22  1  0.151246  0.149320  0.757528  1
  Ir  Ir23  1  0.149320  0.848754  0.242472  1
  Ir  Ir24  1  0.645779  0.355005  0.749171  1
  Ir  Ir25  1  0.644995  0.645779  0.250829  1
  Ir  Ir26  1  0.355005  0.354221  0.250829  1
  Ir  Ir27  1  0.354221  0.644995  0.749171  1
  Ir  Ir28  1  0.500000  0.000000  0.122372  1
  Ir  Ir29  1  0.500000  0.000000  0.621320  1
  Ir  Ir30  1  0.000000  0.500000  0.877628  1
  Ir  Ir31  1  0.000000  0.500000  0.378680  1
