# generated using pymatgen
data_Tm4Al18Cu2Os3Rh
_symmetry_space_group_name_H-M   'P 1'
_cell_length_a   7.52052316
_cell_length_b   7.51572911
_cell_length_c   9.40464730
_cell_angle_alpha   90.07826079
_cell_angle_beta   90.05895586
_cell_angle_gamma   119.06401618
_symmetry_Int_Tables_number   1
_chemical_formula_structural   Tm4Al18Cu2Os3Rh
_chemical_formula_sum   'Tm4 Al18 Cu2 Os3 Rh1'
_cell_volume   464.63337221
_cell_formula_units_Z   1
loop_
 _symmetry_equiv_pos_site_id
 _symmetry_equiv_pos_as_xyz
  1  'x, y, z'
loop_
 _atom_site_type_symbol
 _atom_site_label
 _atom_site_symmetry_multiplicity
 _atom_site_fract_x
 _atom_site_fract_y
 _atom_site_fract_z
 _atom_site_occupancy
  Tm  Tm0  1  0.994066  0.676470  0.248330  1
  Tm  Tm1  1  0.005641  0.322453  0.751192  1
  Tm  Tm2  1  0.678010  0.994684  0.248824  1
  Tm  Tm3  1  0.323427  0.005432  0.751686  1
  Al  Al4  1  0.130048  0.132182  0.250335  1
  Al  Al5  1  0.868231  0.870239  0.749728  1
  Al  Al6  1  0.996951  0.331979  0.075122  1
  Al  Al7  1  0.995544  0.661172  0.923621  1
  Al  Al8  1  0.997236  0.663957  0.576577  1
  Al  Al9  1  0.335909  0.002679  0.423473  1
  Al  Al10  1  0.997003  0.334225  0.424700  1
  Al  Al11  1  0.666023  0.003097  0.575438  1
  Al  Al12  1  0.668140  0.003035  0.924783  1
  Al  Al13  1  0.338776  0.004290  0.076305  1
  Al  Al14  1  0.331659  0.330110  0.551225  1
  Al  Al15  1  0.669695  0.668454  0.449002  1
  Al  Al16  1  0.671526  0.666394  0.048244  1
  Al  Al17  1  0.333594  0.328286  0.951610  1
  Al  Al18  1  0.342323  0.554235  0.249897  1
  Al  Al19  1  0.656379  0.445556  0.750176  1
  Al  Al20  1  0.554050  0.343702  0.249795  1
  Al  Al21  1  0.446641  0.657597  0.750187  1
  Cu  Cu22  1  0.326996  0.671606  0.998860  1
  Cu  Cu23  1  0.326765  0.673338  0.500839  1
  Os  Os24  1  0.672267  0.327713  0.000082  1
  Os  Os25  1  0.001645  0.998467  0.000113  1
  Os  Os26  1  0.000159  0.999946  0.499998  1
  Rh  Rh27  1  0.671297  0.328705  0.499856  1
