# generated using pymatgen
data_Zr6Sc8Al8Rh7
_symmetry_space_group_name_H-M   'P 1'
_cell_length_a   9.09579428
_cell_length_b   9.09579408
_cell_length_c   9.09579400
_cell_angle_alpha   60.00000030
_cell_angle_beta   60.00000103
_cell_angle_gamma   60.00000416
_symmetry_Int_Tables_number   1
_chemical_formula_structural   Zr6Sc8Al8Rh7
_chemical_formula_sum   'Zr6 Sc8 Al8 Rh7'
_cell_volume   532.11669574
_cell_formula_units_Z   1
loop_
 _symmetry_equiv_pos_site_id
 _symmetry_equiv_pos_as_xyz
  1  'x, y, z'
loop_
 _atom_site_type_symbol
 _atom_site_label
 _atom_site_symmetry_multiplicity
 _atom_site_fract_x
 _atom_site_fract_y
 _atom_site_fract_z
 _atom_site_occupancy
  Zr  Zr0  1  0.677670  0.677670  0.322330  1
  Zr  Zr1  1  0.322330  0.677670  0.322330  1
  Zr  Zr2  1  0.677670  0.322330  0.322330  1
  Zr  Zr3  1  0.322330  0.322330  0.677670  1
  Zr  Zr4  1  0.677670  0.322330  0.677670  1
  Zr  Zr5  1  0.322330  0.677670  0.677670  1
  Sc  Sc6  1  0.877400  0.877400  0.367799  1
  Sc  Sc7  1  0.877400  0.367799  0.877400  1
  Sc  Sc8  1  0.367799  0.877400  0.877400  1
  Sc  Sc9  1  0.877400  0.877400  0.877400  1
  Sc  Sc10  1  0.122600  0.122600  0.632201  1
  Sc  Sc11  1  0.122600  0.632201  0.122600  1
  Sc  Sc12  1  0.632201  0.122600  0.122600  1
  Sc  Sc13  1  0.122600  0.122600  0.122600  1
  Al  Al14  1  0.662318  0.662318  0.013045  1
  Al  Al15  1  0.662318  0.013045  0.662318  1
  Al  Al16  1  0.013045  0.662318  0.662318  1
  Al  Al17  1  0.662318  0.662318  0.662318  1
  Al  Al18  1  0.337682  0.337682  0.986955  1
  Al  Al19  1  0.337682  0.986955  0.337682  1
  Al  Al20  1  0.986955  0.337682  0.337682  1
  Al  Al21  1  0.337682  0.337682  0.337682  1
  Rh  Rh22  1  0.000000  0.000000  0.000000  1
  Rh  Rh23  1  0.000000  0.000000  0.500000  1
  Rh  Rh24  1  0.500000  0.000000  0.500000  1
  Rh  Rh25  1  0.000000  0.500000  0.500000  1
  Rh  Rh26  1  0.500000  0.500000  0.000000  1
  Rh  Rh27  1  0.000000  0.500000  0.000000  1
  Rh  Rh28  1  0.500000  0.000000  0.000000  1
