# generated using pymatgen
data_Ho16CdHg3(RuRh)2
_symmetry_space_group_name_H-M   'P 1'
_cell_length_a   9.55126427
_cell_length_b   9.54120714
_cell_length_c   9.54390151
_cell_angle_alpha   59.93665191
_cell_angle_beta   59.97447554
_cell_angle_gamma   59.96512797
_symmetry_Int_Tables_number   1
_chemical_formula_structural   Ho16CdHg3(RuRh)2
_chemical_formula_sum   'Ho16 Cd1 Hg3 Ru2 Rh2'
_cell_volume   614.42458810
_cell_formula_units_Z   1
loop_
 _symmetry_equiv_pos_site_id
 _symmetry_equiv_pos_as_xyz
  1  'x, y, z'
loop_
 _atom_site_type_symbol
 _atom_site_label
 _atom_site_symmetry_multiplicity
 _atom_site_fract_x
 _atom_site_fract_y
 _atom_site_fract_z
 _atom_site_occupancy
  Ho  Ho0  1  0.939260  0.936422  0.561846  1
  Ho  Ho1  1  0.561799  0.562608  0.936144  1
  Ho  Ho2  1  0.686824  0.691922  0.311193  1
  Ho  Ho3  1  0.149915  0.552760  0.147410  1
  Ho  Ho4  1  0.686297  0.312348  0.690908  1
  Ho  Ho5  1  0.152008  0.149225  0.150100  1
  Ho  Ho6  1  0.548667  0.149225  0.150100  1
  Ho  Ho7  1  0.688899  0.311360  0.310841  1
  Ho  Ho8  1  0.151409  0.147807  0.549375  1
  Ho  Ho9  1  0.310063  0.691922  0.311193  1
  Ho  Ho10  1  0.310741  0.689394  0.689124  1
  Ho  Ho11  1  0.936665  0.564203  0.562467  1
  Ho  Ho12  1  0.939448  0.562608  0.936144  1
  Ho  Ho13  1  0.562471  0.936422  0.561846  1
  Ho  Ho14  1  0.560944  0.939311  0.938802  1
  Ho  Ho15  1  0.310445  0.312348  0.690908  1
  Cd  Cd16  1  0.919965  0.240008  0.920063  1
  Hg  Hg17  1  0.914784  0.916476  0.253955  1
  Hg  Hg18  1  0.254121  0.916426  0.914618  1
  Hg  Hg19  1  0.914835  0.916426  0.914618  1
  Ru  Ru20  1  0.358305  0.357999  0.925391  1
  Ru  Ru21  1  0.358538  0.925394  0.357528  1
  Rh  Rh22  1  0.924990  0.358695  0.357711  1
  Rh  Rh23  1  0.358604  0.358695  0.357711  1
