# generated using pymatgen
data_TbFe2Co2ReP3
_symmetry_space_group_name_H-M   'P 1'
_cell_length_a   3.72766900
_cell_length_b   10.30611100
_cell_length_c   11.89402500
_cell_angle_alpha   90.00000000
_cell_angle_beta   90.00000000
_cell_angle_gamma   90.00000000
_symmetry_Int_Tables_number   1
_chemical_formula_structural   TbFe2Co2ReP3
_chemical_formula_sum   'Tb4 Fe8 Co8 Re4 P12'
_cell_volume   456.94192260
_cell_formula_units_Z   4
loop_
 _symmetry_equiv_pos_site_id
 _symmetry_equiv_pos_as_xyz
  1  'x, y, z'
loop_
 _atom_site_type_symbol
 _atom_site_label
 _atom_site_symmetry_multiplicity
 _atom_site_fract_x
 _atom_site_fract_y
 _atom_site_fract_z
 _atom_site_occupancy
  Tb  Tb0  1  0.250000  0.581543  0.705495  1
  Tb  Tb1  1  0.250000  0.918457  0.205495  1
  Tb  Tb2  1  0.750000  0.418457  0.294505  1
  Tb  Tb3  1  0.750000  0.081543  0.794505  1
  Fe  Fe4  1  0.250000  0.881795  0.700569  1
  Fe  Fe5  1  0.250000  0.618205  0.200569  1
  Fe  Fe6  1  0.750000  0.118205  0.299431  1
  Fe  Fe7  1  0.750000  0.381795  0.799431  1
  Fe  Fe8  1  0.250000  0.463531  0.935440  1
  Fe  Fe9  1  0.250000  0.036469  0.435440  1
  Fe  Fe10  1  0.750000  0.536469  0.064560  1
  Fe  Fe11  1  0.750000  0.963531  0.564560  1
  Co  Co12  1  0.250000  0.405312  0.487734  1
  Co  Co13  1  0.250000  0.094688  0.987734  1
  Co  Co14  1  0.750000  0.594688  0.512266  1
  Co  Co15  1  0.750000  0.905312  0.012266  1
  Co  Co16  1  0.250000  0.223828  0.174213  1
  Co  Co17  1  0.250000  0.276172  0.674213  1
  Co  Co18  1  0.750000  0.776172  0.825787  1
  Co  Co19  1  0.750000  0.723828  0.325787  1
  Re  Re20  1  0.250000  0.706552  0.988551  1
  Re  Re21  1  0.250000  0.793448  0.488551  1
  Re  Re22  1  0.750000  0.293448  0.011449  1
  Re  Re23  1  0.750000  0.206552  0.511449  1
  P  P24  1  0.250000  0.423878  0.114307  1
  P  P25  1  0.250000  0.076122  0.614307  1
  P  P26  1  0.750000  0.576122  0.885693  1
  P  P27  1  0.750000  0.923878  0.385693  1
  P  P28  1  0.250000  0.271097  0.863017  1
  P  P29  1  0.250000  0.228903  0.363017  1
  P  P30  1  0.750000  0.728903  0.136983  1
  P  P31  1  0.750000  0.771097  0.636983  1
  P  P32  1  0.250000  0.597689  0.390423  1
  P  P33  1  0.250000  0.902311  0.890423  1
  P  P34  1  0.750000  0.402311  0.609577  1
  P  P35  1  0.750000  0.097689  0.109577  1
