# generated using pymatgen
data_YbEr2Zr(Ga3Rh)6
_symmetry_space_group_name_H-M   'P 1'
_cell_length_a   7.52496914
_cell_length_b   7.51518735
_cell_length_c   9.49732200
_cell_angle_alpha   90.00000000
_cell_angle_beta   90.00000000
_cell_angle_gamma   119.69601669
_symmetry_Int_Tables_number   1
_chemical_formula_structural   YbEr2Zr(Ga3Rh)6
_chemical_formula_sum   'Yb1 Er2 Zr1 Ga18 Rh6'
_cell_volume   466.55032860
_cell_formula_units_Z   1
loop_
 _symmetry_equiv_pos_site_id
 _symmetry_equiv_pos_as_xyz
  1  'x, y, z'
loop_
 _atom_site_type_symbol
 _atom_site_label
 _atom_site_symmetry_multiplicity
 _atom_site_fract_x
 _atom_site_fract_y
 _atom_site_fract_z
 _atom_site_occupancy
  Yb  Yb0  1  0.003395  0.330209  0.750000  1
  Er  Er1  1  0.670944  0.999992  0.250000  1
  Er  Er2  1  0.331306  0.003248  0.750000  1
  Zr  Zr3  1  0.997749  0.668286  0.250000  1
  Ga  Ga4  1  0.122901  0.122159  0.250000  1
  Ga  Ga5  1  0.875043  0.873402  0.750000  1
  Ga  Ga6  1  0.000857  0.338605  0.081897  1
  Ga  Ga7  1  0.999100  0.663504  0.923305  1
  Ga  Ga8  1  0.999100  0.663504  0.576695  1
  Ga  Ga9  1  0.331626  0.997105  0.415967  1
  Ga  Ga10  1  0.000857  0.338605  0.418103  1
  Ga  Ga11  1  0.666004  0.999758  0.580403  1
  Ga  Ga12  1  0.666004  0.999758  0.919597  1
  Ga  Ga13  1  0.331626  0.997105  0.084033  1
  Ga  Ga14  1  0.331644  0.333006  0.562213  1
  Ga  Ga15  1  0.670841  0.668568  0.429069  1
  Ga  Ga16  1  0.670841  0.668568  0.070931  1
  Ga  Ga17  1  0.331644  0.333006  0.937787  1
  Ga  Ga18  1  0.336418  0.549551  0.250000  1
  Ga  Ga19  1  0.661119  0.450987  0.750000  1
  Ga  Ga20  1  0.551847  0.340133  0.250000  1
  Ga  Ga21  1  0.450525  0.661076  0.750000  1
  Rh  Rh22  1  0.670981  0.328023  0.002226  1
  Rh  Rh23  1  0.329261  0.673378  0.002242  1
  Rh  Rh24  1  0.329261  0.673378  0.497758  1
  Rh  Rh25  1  0.670981  0.328023  0.497774  1
  Rh  Rh26  1  0.999063  0.998528  0.001822  1
  Rh  Rh27  1  0.999063  0.998528  0.498178  1
