# generated using pymatgen
data_Hf11Th8NbGe16
_symmetry_space_group_name_H-M   'P 1'
_cell_length_a   7.36257063
_cell_length_b   7.46508765
_cell_length_c   14.11933700
_cell_angle_alpha   90.00000000
_cell_angle_beta   90.00000000
_cell_angle_gamma   89.95244961
_symmetry_Int_Tables_number   1
_chemical_formula_structural   Hf11Th8NbGe16
_chemical_formula_sum   'Hf11 Th8 Nb1 Ge16'
_cell_volume   776.03005181
_cell_formula_units_Z   1
loop_
 _symmetry_equiv_pos_site_id
 _symmetry_equiv_pos_as_xyz
  1  'x, y, z'
loop_
 _atom_site_type_symbol
 _atom_site_label
 _atom_site_symmetry_multiplicity
 _atom_site_fract_x
 _atom_site_fract_y
 _atom_site_fract_z
 _atom_site_occupancy
  Hf  Hf0  1  0.669199  0.000035  0.750000  1
  Hf  Hf1  1  0.169541  0.499697  0.750000  1
  Hf  Hf2  1  0.329927  0.999394  0.250000  1
  Hf  Hf3  1  0.837084  0.332807  0.624697  1
  Hf  Hf4  1  0.337836  0.167138  0.875135  1
  Hf  Hf5  1  0.159046  0.665873  0.125354  1
  Hf  Hf6  1  0.664798  0.831116  0.374843  1
  Hf  Hf7  1  0.159046  0.665873  0.374646  1
  Hf  Hf8  1  0.664798  0.831116  0.125157  1
  Hf  Hf9  1  0.837084  0.332807  0.875303  1
  Hf  Hf10  1  0.337836  0.167138  0.624865  1
  Th  Th11  1  0.498293  0.329823  0.096388  1
  Th  Th12  1  0.996005  0.173459  0.403663  1
  Th  Th13  1  0.503151  0.671386  0.595208  1
  Th  Th14  1  0.002889  0.827947  0.904827  1
  Th  Th15  1  0.503151  0.671386  0.904792  1
  Th  Th16  1  0.002889  0.827947  0.595173  1
  Th  Th17  1  0.498293  0.329823  0.403612  1
  Th  Th18  1  0.996005  0.173459  0.096337  1
  Nb  Nb19  1  0.831888  0.502220  0.250000  1
  Ge  Ge20  1  0.807420  0.633341  0.750000  1
  Ge  Ge21  1  0.307533  0.866733  0.750000  1
  Ge  Ge22  1  0.192132  0.367892  0.250000  1
  Ge  Ge23  1  0.692769  0.132852  0.250000  1
  Ge  Ge24  1  0.539091  0.366235  0.750000  1
  Ge  Ge25  1  0.038941  0.133470  0.750000  1
  Ge  Ge26  1  0.462457  0.632425  0.250000  1
  Ge  Ge27  1  0.959927  0.866205  0.250000  1
  Ge  Ge28  1  0.675026  0.042795  0.544680  1
  Ge  Ge29  1  0.174846  0.457470  0.954992  1
  Ge  Ge30  1  0.325329  0.957009  0.045351  1
  Ge  Ge31  1  0.825285  0.542925  0.454755  1
  Ge  Ge32  1  0.325329  0.957009  0.454649  1
  Ge  Ge33  1  0.825285  0.542925  0.045245  1
  Ge  Ge34  1  0.675026  0.042795  0.955320  1
  Ge  Ge35  1  0.174846  0.457470  0.545008  1
