# generated using pymatgen
data_Eu3Tl5Br12
_symmetry_space_group_name_H-M   'P 1'
_cell_length_a   13.85373300
_cell_length_b   13.85373250
_cell_length_c   4.50492600
_cell_angle_alpha   90.00000000
_cell_angle_beta   90.00000000
_cell_angle_gamma   119.99999404
_symmetry_Int_Tables_number   1
_chemical_formula_structural   Eu3Tl5Br12
_chemical_formula_sum   'Eu3 Tl5 Br12'
_cell_volume   748.77602462
_cell_formula_units_Z   1
loop_
 _symmetry_equiv_pos_site_id
 _symmetry_equiv_pos_as_xyz
  1  'x, y, z'
loop_
 _atom_site_type_symbol
 _atom_site_label
 _atom_site_symmetry_multiplicity
 _atom_site_fract_x
 _atom_site_fract_y
 _atom_site_fract_z
 _atom_site_occupancy
  Eu  Eu0  1  0.325901  0.000000  0.000000  1
  Eu  Eu1  1  0.000000  0.325901  0.000000  1
  Eu  Eu2  1  0.674099  0.674099  0.000000  1
  Tl  Tl3  1  0.712536  0.000000  0.500000  1
  Tl  Tl4  1  0.287464  0.287464  0.500000  1
  Tl  Tl5  1  0.000000  0.712536  0.500000  1
  Tl  Tl6  1  0.666667  0.333333  0.500000  1
  Tl  Tl7  1  0.333333  0.666667  0.500000  1
  Br  Br8  1  0.181138  0.000000  0.500000  1
  Br  Br9  1  0.246789  0.446916  0.000000  1
  Br  Br10  1  0.553084  0.799872  0.000000  1
  Br  Br11  1  0.000000  0.181138  0.500000  1
  Br  Br12  1  0.818862  0.818862  0.500000  1
  Br  Br13  1  0.000000  0.466785  0.500000  1
  Br  Br14  1  0.466785  0.000000  0.500000  1
  Br  Br15  1  0.533215  0.533215  0.500000  1
  Br  Br16  1  0.753211  0.200128  0.000000  1
  Br  Br17  1  0.446916  0.246789  0.000000  1
  Br  Br18  1  0.799872  0.553084  0.000000  1
  Br  Br19  1  0.200128  0.753211  0.000000  1
