# generated using pymatgen
data_Sm5HoCo6(NiP)12
_symmetry_space_group_name_H-M   'P 1'
_cell_length_a   3.80237700
_cell_length_b   10.53582106
_cell_length_c   12.37267207
_cell_angle_alpha   89.98762051
_cell_angle_beta   90.00000000
_cell_angle_gamma   90.00000000
_symmetry_Int_Tables_number   1
_chemical_formula_structural   Sm5HoCo6(NiP)12
_chemical_formula_sum   'Sm5 Ho1 Co6 Ni12 P12'
_cell_volume   495.66362948
_cell_formula_units_Z   1
loop_
 _symmetry_equiv_pos_site_id
 _symmetry_equiv_pos_as_xyz
  1  'x, y, z'
loop_
 _atom_site_type_symbol
 _atom_site_label
 _atom_site_symmetry_multiplicity
 _atom_site_fract_x
 _atom_site_fract_y
 _atom_site_fract_z
 _atom_site_occupancy
  Sm  Sm0  1  0.000000  0.499583  0.519559  1
  Sm  Sm1  1  0.500000  0.000196  0.481379  1
  Sm  Sm2  1  0.500000  0.813886  0.205373  1
  Sm  Sm3  1  0.500000  0.186209  0.205930  1
  Sm  Sm4  1  0.000000  0.685530  0.794057  1
  Ho  Ho5  1  0.000000  0.313848  0.794375  1
  Co  Co6  1  0.000000  0.498997  0.982857  1
  Co  Co7  1  0.500000  0.000974  0.015190  1
  Co  Co8  1  0.500000  0.334424  0.994138  1
  Co  Co9  1  0.500000  0.664665  0.994792  1
  Co  Co10  1  0.000000  0.166320  0.003444  1
  Co  Co11  1  0.000000  0.834735  0.004361  1
  Ni  Ni12  1  0.500000  0.300063  0.429443  1
  Ni  Ni13  1  0.500000  0.699623  0.428509  1
  Ni  Ni14  1  0.000000  0.200143  0.573122  1
  Ni  Ni15  1  0.000000  0.800063  0.571677  1
  Ni  Ni16  1  0.500000  0.881071  0.713839  1
  Ni  Ni17  1  0.500000  0.121655  0.715194  1
  Ni  Ni18  1  0.000000  0.619347  0.286102  1
  Ni  Ni19  1  0.000000  0.380582  0.286264  1
  Ni  Ni20  1  0.500000  0.499778  0.156696  1
  Ni  Ni21  1  0.000000  0.000432  0.843052  1
  Ni  Ni22  1  0.500000  0.498255  0.703920  1
  Ni  Ni23  1  0.000000  0.000151  0.296790  1
  P  P24  1  0.500000  0.311176  0.617281  1
  P  P25  1  0.500000  0.688217  0.614818  1
  P  P26  1  0.000000  0.189061  0.385928  1
  P  P27  1  0.000000  0.811242  0.385337  1
  P  P28  1  0.500000  0.498232  0.881509  1
  P  P29  1  0.000000  0.000523  0.116787  1
  P  P30  1  0.500000  0.846752  0.899338  1
  P  P31  1  0.500000  0.154992  0.897841  1
  P  P32  1  0.000000  0.652654  0.100093  1
  P  P33  1  0.000000  0.346916  0.100698  1
  P  P34  1  0.500000  0.499880  0.340132  1
  P  P35  1  0.000000  0.999823  0.660177  1
