# generated using pymatgen
data_HoSi2(AsRh3)2
_symmetry_space_group_name_H-M   'P 1'
_cell_length_a   7.16712800
_cell_length_b   7.16163680
_cell_length_c   3.78794900
_cell_angle_alpha   90.00000000
_cell_angle_beta   90.00000000
_cell_angle_gamma   120.02535794
_symmetry_Int_Tables_number   1
_chemical_formula_structural   HoSi2(AsRh3)2
_chemical_formula_sum   'Ho1 Si2 As2 Rh6'
_cell_volume   168.33761847
_cell_formula_units_Z   1
loop_
 _symmetry_equiv_pos_site_id
 _symmetry_equiv_pos_as_xyz
  1  'x, y, z'
loop_
 _atom_site_type_symbol
 _atom_site_label
 _atom_site_symmetry_multiplicity
 _atom_site_fract_x
 _atom_site_fract_y
 _atom_site_fract_z
 _atom_site_occupancy
  Ho  Ho0  1  0.994895  0.989789  0.000000  1
  Si  Si1  1  0.804044  0.608085  0.500000  1
  Si  Si2  1  0.334096  0.668193  0.000000  1
  As  As3  1  0.382185  0.193073  0.500000  1
  As  As4  1  0.810889  0.193073  0.500000  1
  Rh  Rh5  1  0.531525  0.063050  0.000000  1
  Rh  Rh6  1  0.604332  0.797166  0.500000  1
  Rh  Rh7  1  0.203501  0.407001  0.500000  1
  Rh  Rh8  1  0.541966  0.475035  0.000000  1
  Rh  Rh9  1  0.192834  0.797166  0.500000  1
  Rh  Rh10  1  0.933068  0.475035  0.000000  1
