# generated using pymatgen
data_TiMo(IrRh2)2
_symmetry_space_group_name_H-M   'P 1'
_cell_length_a   5.50896301
_cell_length_b   5.50896336
_cell_length_c   4.41871200
_cell_angle_alpha   90.00000000
_cell_angle_beta   90.00000000
_cell_angle_gamma   119.99256802
_symmetry_Int_Tables_number   1
_chemical_formula_structural   TiMo(IrRh2)2
_chemical_formula_sum   'Ti1 Mo1 Ir2 Rh4'
_cell_volume   116.14448368
_cell_formula_units_Z   1
loop_
 _symmetry_equiv_pos_site_id
 _symmetry_equiv_pos_as_xyz
  1  'x, y, z'
loop_
 _atom_site_type_symbol
 _atom_site_label
 _atom_site_symmetry_multiplicity
 _atom_site_fract_x
 _atom_site_fract_y
 _atom_site_fract_z
 _atom_site_occupancy
  Ti  Ti0  1  0.334019  0.665981  0.250000  1
  Mo  Mo1  1  0.666361  0.333639  0.750000  1
  Ir  Ir2  1  0.834000  0.667573  0.250000  1
  Ir  Ir3  1  0.332427  0.166000  0.250000  1
  Rh  Rh4  1  0.165441  0.834559  0.750000  1
  Rh  Rh5  1  0.668899  0.835007  0.750000  1
  Rh  Rh6  1  0.833860  0.166140  0.250000  1
  Rh  Rh7  1  0.164993  0.331101  0.750000  1
