# generated using pymatgen
data_Ca2PPd6
_symmetry_space_group_name_H-M   'P 1'
_cell_length_a   6.11202172
_cell_length_b   6.11202201
_cell_length_c   6.11202200
_cell_angle_alpha   60.00000006
_cell_angle_beta   59.99999850
_cell_angle_gamma   59.99999744
_symmetry_Int_Tables_number   1
_chemical_formula_structural   Ca2PPd6
_chemical_formula_sum   'Ca2 P1 Pd6'
_cell_volume   161.45061235
_cell_formula_units_Z   1
loop_
 _symmetry_equiv_pos_site_id
 _symmetry_equiv_pos_as_xyz
  1  'x, y, z'
loop_
 _atom_site_type_symbol
 _atom_site_label
 _atom_site_symmetry_multiplicity
 _atom_site_fract_x
 _atom_site_fract_y
 _atom_site_fract_z
 _atom_site_occupancy
  Ca  Ca0  1  0.250000  0.250000  0.250000  1
  Ca  Ca1  1  0.750000  0.750000  0.750000  1
  P  P2  1  0.500000  0.500000  0.500000  1
  Pd  Pd3  1  0.766874  0.233126  0.233126  1
  Pd  Pd4  1  0.233126  0.766874  0.233126  1
  Pd  Pd5  1  0.766874  0.766874  0.233126  1
  Pd  Pd6  1  0.233126  0.233126  0.766874  1
  Pd  Pd7  1  0.766874  0.233126  0.766874  1
  Pd  Pd8  1  0.233126  0.766874  0.766874  1
