# generated using pymatgen
data_Pr4B20PtRh
_symmetry_space_group_name_H-M   'P 1'
_cell_length_a   4.23631500
_cell_length_b   5.76731403
_cell_length_c   11.51206081
_cell_angle_alpha   90.21316056
_cell_angle_beta   90.00000000
_cell_angle_gamma   90.00000000
_symmetry_Int_Tables_number   1
_chemical_formula_structural   Pr4B20PtRh
_chemical_formula_sum   'Pr4 B20 Pt1 Rh1'
_cell_volume   281.26255299
_cell_formula_units_Z   1
loop_
 _symmetry_equiv_pos_site_id
 _symmetry_equiv_pos_as_xyz
  1  'x, y, z'
loop_
 _atom_site_type_symbol
 _atom_site_label
 _atom_site_symmetry_multiplicity
 _atom_site_fract_x
 _atom_site_fract_y
 _atom_site_fract_z
 _atom_site_occupancy
  Pr  Pr0  1  0.500000  0.203311  0.366268  1
  Pr  Pr1  1  0.500000  0.796689  0.633732  1
  Pr  Pr2  1  0.500000  0.303280  0.860442  1
  Pr  Pr3  1  0.500000  0.696720  0.139558  1
  B  B4  1  0.000000  0.383643  0.044281  1
  B  B5  1  0.000000  0.616357  0.955719  1
  B  B6  1  0.000000  0.118534  0.543559  1
  B  B7  1  0.000000  0.881466  0.456441  1
  B  B8  1  0.000000  0.362581  0.197350  1
  B  B9  1  0.000000  0.637419  0.802650  1
  B  B10  1  0.000000  0.138598  0.696868  1
  B  B11  1  0.000000  0.861402  0.303132  1
  B  B12  1  0.000000  0.056824  0.194296  1
  B  B13  1  0.000000  0.943176  0.805704  1
  B  B14  1  0.000000  0.443957  0.692391  1
  B  B15  1  0.000000  0.556043  0.307609  1
  B  B16  1  0.301071  0.219078  0.120210  1
  B  B17  1  0.698929  0.780922  0.879790  1
  B  B18  1  0.301071  0.780922  0.879790  1
  B  B19  1  0.700078  0.282083  0.617801  1
  B  B20  1  0.698929  0.219078  0.120210  1
  B  B21  1  0.299922  0.717917  0.382199  1
  B  B22  1  0.700078  0.717917  0.382199  1
  B  B23  1  0.299922  0.282083  0.617801  1
  Pt  Pt24  1  0.000000  0.000000  0.000000  1
  Rh  Rh25  1  0.000000  0.500000  0.500000  1
