# generated using pymatgen
data_Ba2Sr2Tc2O9
_symmetry_space_group_name_H-M   'P 1'
_cell_length_a   6.02514100
_cell_length_b   6.02514147
_cell_length_c   15.01913800
_cell_angle_alpha   90.00000000
_cell_angle_beta   90.00000000
_cell_angle_gamma   119.99999192
_symmetry_Int_Tables_number   1
_chemical_formula_structural   Ba2Sr2Tc2O9
_chemical_formula_sum   'Ba4 Sr4 Tc4 O18'
_cell_volume   472.18277277
_cell_formula_units_Z   2
loop_
 _symmetry_equiv_pos_site_id
 _symmetry_equiv_pos_as_xyz
  1  'x, y, z'
loop_
 _atom_site_type_symbol
 _atom_site_label
 _atom_site_symmetry_multiplicity
 _atom_site_fract_x
 _atom_site_fract_y
 _atom_site_fract_z
 _atom_site_occupancy
  Ba  Ba0  1  0.000000  0.000000  0.752108  1
  Ba  Ba1  1  0.000000  0.000000  0.252108  1
  Ba  Ba2  1  0.333333  0.666667  0.399891  1
  Ba  Ba3  1  0.666667  0.333333  0.899891  1
  Sr  Sr4  1  0.666667  0.333333  0.629317  1
  Sr  Sr5  1  0.333333  0.666667  0.129317  1
  Sr  Sr6  1  0.000000  0.000000  0.501855  1
  Sr  Sr7  1  0.000000  0.000000  0.001855  1
  Tc  Tc8  1  0.666667  0.333333  0.331894  1
  Tc  Tc9  1  0.333333  0.666667  0.831894  1
  Tc  Tc10  1  0.333333  0.666667  0.662853  1
  Tc  Tc11  1  0.666667  0.333333  0.162853  1
  O  O12  1  0.541481  0.981972  0.747652  1
  O  O13  1  0.018028  0.559509  0.747652  1
  O  O14  1  0.440491  0.458519  0.747652  1
  O  O15  1  0.458519  0.018028  0.247652  1
  O  O16  1  0.981972  0.440491  0.247652  1
  O  O17  1  0.559509  0.541481  0.247652  1
  O  O18  1  0.104907  0.369466  0.595108  1
  O  O19  1  0.630534  0.735441  0.595108  1
  O  O20  1  0.264559  0.895093  0.595108  1
  O  O21  1  0.895093  0.630534  0.095108  1
  O  O22  1  0.369466  0.264559  0.095108  1
  O  O23  1  0.735441  0.104907  0.095108  1
  O  O24  1  0.865721  0.640374  0.397933  1
  O  O25  1  0.359626  0.225346  0.397933  1
  O  O26  1  0.774654  0.134279  0.397933  1
  O  O27  1  0.134279  0.359626  0.897933  1
  O  O28  1  0.640374  0.774654  0.897933  1
  O  O29  1  0.225346  0.865721  0.897933  1
