# generated using pymatgen
data_Pr4Gd2TaNbO14
_symmetry_space_group_name_H-M   'P 1'
_cell_length_a   6.67394322
_cell_length_b   6.67394161
_cell_length_c   7.73469721
_cell_angle_alpha   90.02165178
_cell_angle_beta   89.97834794
_cell_angle_gamma   109.02683145
_symmetry_Int_Tables_number   1
_chemical_formula_structural   Pr4Gd2TaNbO14
_chemical_formula_sum   'Pr4 Gd2 Ta1 Nb1 O14'
_cell_volume   325.69280411
_cell_formula_units_Z   1
loop_
 _symmetry_equiv_pos_site_id
 _symmetry_equiv_pos_as_xyz
  1  'x, y, z'
loop_
 _atom_site_type_symbol
 _atom_site_label
 _atom_site_symmetry_multiplicity
 _atom_site_fract_x
 _atom_site_fract_y
 _atom_site_fract_z
 _atom_site_occupancy
  Pr  Pr0  1  0.473579  0.473579  0.500000  1
  Pr  Pr1  1  0.472000  0.472000  0.000000  1
  Pr  Pr2  1  0.536699  0.995446  0.749592  1
  Pr  Pr3  1  0.995446  0.536699  0.250408  1
  Gd  Gd4  1  0.467464  0.997053  0.250868  1
  Gd  Gd5  1  0.997053  0.467464  0.749132  1
  Ta  Ta6  1  0.998082  0.998082  0.500000  1
  Nb  Nb7  1  0.997721  0.997721  0.000000  1
  O  O8  1  0.694770  0.945132  0.461323  1
  O  O9  1  0.945132  0.694770  0.538677  1
  O  O10  1  0.694088  0.944895  0.038377  1
  O  O11  1  0.944895  0.694088  0.961623  1
  O  O12  1  0.320260  0.075526  0.524536  1
  O  O13  1  0.075526  0.320260  0.475464  1
  O  O14  1  0.322512  0.076398  0.977116  1
  O  O15  1  0.076398  0.322512  0.022884  1
  O  O16  1  0.359237  0.624127  0.749725  1
  O  O17  1  0.624127  0.359237  0.250275  1
  O  O18  1  0.641651  0.364187  0.749815  1
  O  O19  1  0.364187  0.641651  0.250185  1
  O  O20  1  0.940118  0.059057  0.748496  1
  O  O21  1  0.059057  0.940118  0.251504  1
