# generated using pymatgen
data_TbTm(Lu4Bi3)2
_symmetry_space_group_name_H-M   'P 1'
_cell_length_a   8.16751900
_cell_length_b   9.39274300
_cell_length_c   11.85051900
_cell_angle_alpha   90.00000000
_cell_angle_beta   90.00000000
_cell_angle_gamma   90.00000000
_symmetry_Int_Tables_number   1
_chemical_formula_structural   TbTm(Lu4Bi3)2
_chemical_formula_sum   'Tb2 Tm2 Lu16 Bi12'
_cell_volume   909.11738723
_cell_formula_units_Z   2
loop_
 _symmetry_equiv_pos_site_id
 _symmetry_equiv_pos_as_xyz
  1  'x, y, z'
loop_
 _atom_site_type_symbol
 _atom_site_label
 _atom_site_symmetry_multiplicity
 _atom_site_fract_x
 _atom_site_fract_y
 _atom_site_fract_z
 _atom_site_occupancy
  Tb  Tb0  1  0.686845  0.750000  0.781893  1
  Tb  Tb1  1  0.186845  0.750000  0.718107  1
  Tm  Tm2  1  0.312631  0.250000  0.217555  1
  Tm  Tm3  1  0.812631  0.250000  0.282445  1
  Lu  Lu4  1  0.352503  0.750000  0.218349  1
  Lu  Lu5  1  0.852503  0.750000  0.281651  1
  Lu  Lu6  1  0.647499  0.250000  0.781632  1
  Lu  Lu7  1  0.147499  0.250000  0.718368  1
  Lu  Lu8  1  0.693058  0.567238  0.060164  1
  Lu  Lu9  1  0.193058  0.932762  0.439836  1
  Lu  Lu10  1  0.307059  0.067188  0.940048  1
  Lu  Lu11  1  0.807059  0.432812  0.559952  1
  Lu  Lu12  1  0.307059  0.432812  0.940048  1
  Lu  Lu13  1  0.807059  0.067188  0.559952  1
  Lu  Lu14  1  0.693058  0.932762  0.060164  1
  Lu  Lu15  1  0.193058  0.567238  0.439836  1
  Lu  Lu16  1  0.476469  0.250000  0.488709  1
  Lu  Lu17  1  0.976469  0.250000  0.011291  1
  Lu  Lu18  1  0.523587  0.750000  0.510797  1
  Lu  Lu19  1  0.023587  0.750000  0.989203  1
  Bi  Bi20  1  0.403755  0.750000  0.959915  1
  Bi  Bi21  1  0.903755  0.750000  0.540085  1
  Bi  Bi22  1  0.595963  0.250000  0.041036  1
  Bi  Bi23  1  0.095963  0.250000  0.458964  1
  Bi  Bi24  1  0.565977  0.994883  0.325726  1
  Bi  Bi25  1  0.065977  0.505117  0.174274  1
  Bi  Bi26  1  0.434280  0.493857  0.673946  1
  Bi  Bi27  1  0.934280  0.006143  0.826054  1
  Bi  Bi28  1  0.434280  0.006143  0.673946  1
  Bi  Bi29  1  0.934280  0.493857  0.826054  1
  Bi  Bi30  1  0.565977  0.505117  0.325726  1
  Bi  Bi31  1  0.065977  0.994883  0.174274  1
