# generated using pymatgen
data_SmY3(Lu4Bi3)4
_symmetry_space_group_name_H-M   'P 1'
_cell_length_a   8.18215538
_cell_length_b   9.39306700
_cell_length_c   11.87420300
_cell_angle_alpha   90.00000000
_cell_angle_beta   89.95628321
_cell_angle_gamma   90.00000000
_symmetry_Int_Tables_number   1
_chemical_formula_structural   SmY3(Lu4Bi3)4
_chemical_formula_sum   'Sm1 Y3 Lu16 Bi12'
_cell_volume   912.59794324
_cell_formula_units_Z   1
loop_
 _symmetry_equiv_pos_site_id
 _symmetry_equiv_pos_as_xyz
  1  'x, y, z'
loop_
 _atom_site_type_symbol
 _atom_site_label
 _atom_site_symmetry_multiplicity
 _atom_site_fract_x
 _atom_site_fract_y
 _atom_site_fract_z
 _atom_site_occupancy
  Sm  Sm0  1  0.313851  0.250000  0.217953  1
  Y  Y1  1  0.813642  0.250000  0.282285  1
  Y  Y2  1  0.686628  0.750000  0.782749  1
  Y  Y3  1  0.186813  0.750000  0.717328  1
  Lu  Lu4  1  0.352259  0.750000  0.218387  1
  Lu  Lu5  1  0.852287  0.750000  0.281836  1
  Lu  Lu6  1  0.647773  0.250000  0.781242  1
  Lu  Lu7  1  0.147445  0.250000  0.718530  1
  Lu  Lu8  1  0.691920  0.567391  0.060241  1
  Lu  Lu9  1  0.192485  0.932439  0.439778  1
  Lu  Lu10  1  0.307924  0.067451  0.939643  1
  Lu  Lu11  1  0.807281  0.432666  0.560423  1
  Lu  Lu12  1  0.307924  0.432549  0.939643  1
  Lu  Lu13  1  0.807281  0.067334  0.560423  1
  Lu  Lu14  1  0.691920  0.932609  0.060241  1
  Lu  Lu15  1  0.192485  0.567561  0.439778  1
  Lu  Lu16  1  0.476827  0.250000  0.489545  1
  Lu  Lu17  1  0.977474  0.250000  0.010165  1
  Lu  Lu18  1  0.523039  0.750000  0.510731  1
  Lu  Lu19  1  0.022838  0.750000  0.989271  1
  Bi  Bi20  1  0.402848  0.750000  0.959417  1
  Bi  Bi21  1  0.903220  0.750000  0.540779  1
  Bi  Bi22  1  0.598975  0.250000  0.039106  1
  Bi  Bi23  1  0.095663  0.250000  0.460230  1
  Bi  Bi24  1  0.567171  0.993234  0.326730  1
  Bi  Bi25  1  0.063583  0.506843  0.173803  1
  Bi  Bi26  1  0.434254  0.494263  0.673848  1
  Bi  Bi27  1  0.934590  0.005460  0.825762  1
  Bi  Bi28  1  0.434254  0.005737  0.673848  1
  Bi  Bi29  1  0.934590  0.494540  0.825762  1
  Bi  Bi30  1  0.567171  0.506766  0.326730  1
  Bi  Bi31  1  0.063583  0.993157  0.173803  1
