# generated using pymatgen
data_DyTm5Al14(Si5Ru4)2
_symmetry_space_group_name_H-M   'P 1'
_cell_length_a   8.64302701
_cell_length_b   8.65068163
_cell_length_c   9.29861800
_cell_angle_alpha   90.00000000
_cell_angle_beta   90.00000000
_cell_angle_gamma   119.96798128
_symmetry_Int_Tables_number   1
_chemical_formula_structural   DyTm5Al14(Si5Ru4)2
_chemical_formula_sum   'Dy1 Tm5 Al14 Si10 Ru8'
_cell_volume   602.28946726
_cell_formula_units_Z   1
loop_
 _symmetry_equiv_pos_site_id
 _symmetry_equiv_pos_as_xyz
  1  'x, y, z'
loop_
 _atom_site_type_symbol
 _atom_site_label
 _atom_site_symmetry_multiplicity
 _atom_site_fract_x
 _atom_site_fract_y
 _atom_site_fract_z
 _atom_site_occupancy
  Dy  Dy0  1  0.809973  0.191881  0.750000  1
  Tm  Tm1  1  0.191275  0.804395  0.250000  1
  Tm  Tm2  1  0.386285  0.194025  0.750000  1
  Tm  Tm3  1  0.612965  0.804336  0.250000  1
  Tm  Tm4  1  0.806163  0.612388  0.750000  1
  Tm  Tm5  1  0.194402  0.388970  0.250000  1
  Al  Al6  1  0.835260  0.163378  0.418504  1
  Al  Al7  1  0.164660  0.834859  0.580998  1
  Al  Al8  1  0.327376  0.163064  0.418851  1
  Al  Al9  1  0.164660  0.834859  0.919002  1
  Al  Al10  1  0.668491  0.833629  0.580474  1
  Al  Al11  1  0.835260  0.163378  0.081496  1
  Al  Al12  1  0.836081  0.672239  0.418715  1
  Al  Al13  1  0.668491  0.833629  0.919526  1
  Al  Al14  1  0.166535  0.332254  0.579624  1
  Al  Al15  1  0.327376  0.163064  0.081149  1
  Al  Al16  1  0.166535  0.332254  0.920376  1
  Al  Al17  1  0.836081  0.672239  0.081285  1
  Al  Al18  1  0.563869  0.128430  0.250000  1
  Al  Al19  1  0.000441  0.000546  0.250000  1
  Si  Si20  1  0.665484  0.331212  0.959063  1
  Si  Si21  1  0.334035  0.668514  0.042776  1
  Si  Si22  1  0.334035  0.668514  0.457224  1
  Si  Si23  1  0.665484  0.331212  0.540937  1
  Si  Si24  1  0.439012  0.562351  0.750000  1
  Si  Si25  1  0.564020  0.438655  0.250000  1
  Si  Si26  1  0.125606  0.564437  0.750000  1
  Si  Si27  1  0.874922  0.439104  0.250000  1
  Si  Si28  1  0.435844  0.873857  0.750000  1
  Si  Si29  1  0.002480  0.996070  0.750000  1
  Ru  Ru30  1  0.500081  0.500645  0.999147  1
  Ru  Ru31  1  0.001145  0.501685  0.999381  1
  Ru  Ru32  1  0.500081  0.500645  0.500853  1
  Ru  Ru33  1  0.498357  0.998141  0.993809  1
  Ru  Ru34  1  0.001145  0.501685  0.500619  1
  Ru  Ru35  1  0.498357  0.998141  0.506191  1
  Ru  Ru36  1  0.998863  0.000658  0.992761  1
  Ru  Ru37  1  0.998863  0.000658  0.507239  1
