# generated using pymatgen
data_TbNd4ErCoBr10
_symmetry_space_group_name_H-M   'P 1'
_cell_length_a   7.47620547
_cell_length_b   9.36182384
_cell_length_c   9.51245308
_cell_angle_alpha   108.57251287
_cell_angle_beta   95.85353420
_cell_angle_gamma   105.21905569
_symmetry_Int_Tables_number   1
_chemical_formula_structural   TbNd4ErCoBr10
_chemical_formula_sum   'Tb1 Nd4 Er1 Co1 Br10'
_cell_volume   596.31027033
_cell_formula_units_Z   1
loop_
 _symmetry_equiv_pos_site_id
 _symmetry_equiv_pos_as_xyz
  1  'x, y, z'
loop_
 _atom_site_type_symbol
 _atom_site_label
 _atom_site_symmetry_multiplicity
 _atom_site_fract_x
 _atom_site_fract_y
 _atom_site_fract_z
 _atom_site_occupancy
  Tb  Tb0  1  0.645861  0.870043  0.326999  1
  Nd  Nd1  1  0.030788  0.713375  0.409159  1
  Nd  Nd2  1  0.971175  0.287309  0.592264  1
  Nd  Nd3  1  0.873023  0.953130  0.747261  1
  Nd  Nd4  1  0.129936  0.048685  0.254045  1
  Er  Er5  1  0.349671  0.127372  0.670059  1
  Co  Co6  1  0.999752  0.000028  0.499675  1
  Br  Br7  1  0.450928  0.828756  0.582070  1
  Br  Br8  1  0.548650  0.176017  0.423343  1
  Br  Br9  1  0.913762  0.630597  0.672779  1
  Br  Br10  1  0.086519  0.369926  0.328022  1
  Br  Br11  1  0.258212  0.086143  0.944231  1
  Br  Br12  1  0.746738  0.915985  0.053493  1
  Br  Br13  1  0.359295  0.440259  0.769469  1
  Br  Br14  1  0.644077  0.554936  0.231245  1
  Br  Br15  1  0.760626  0.249129  0.839717  1
  Br  Br16  1  0.230988  0.748311  0.156169  1
