# generated using pymatgen
data_Tb12Pr4Cd4TcPt3
_symmetry_space_group_name_H-M   'P 1'
_cell_length_a   9.84663493
_cell_length_b   9.84108010
_cell_length_c   9.84108027
_cell_angle_alpha   59.52228663
_cell_angle_beta   59.47702206
_cell_angle_gamma   59.47702298
_symmetry_Int_Tables_number   1
_chemical_formula_structural   Tb12Pr4Cd4TcPt3
_chemical_formula_sum   'Tb12 Pr4 Cd4 Tc1 Pt3'
_cell_volume   666.51867365
_cell_formula_units_Z   1
loop_
 _symmetry_equiv_pos_site_id
 _symmetry_equiv_pos_as_xyz
  1  'x, y, z'
loop_
 _atom_site_type_symbol
 _atom_site_label
 _atom_site_symmetry_multiplicity
 _atom_site_fract_x
 _atom_site_fract_y
 _atom_site_fract_z
 _atom_site_occupancy
  Tb  Tb0  1  0.352210  0.351148  0.351148  1
  Tb  Tb1  1  0.348634  0.349931  0.953333  1
  Tb  Tb2  1  0.348634  0.953333  0.349931  1
  Tb  Tb3  1  0.951531  0.348390  0.348390  1
  Tb  Tb4  1  0.818002  0.185932  0.185932  1
  Tb  Tb5  1  0.186919  0.811045  0.811045  1
  Tb  Tb6  1  0.187647  0.816300  0.187182  1
  Tb  Tb7  1  0.809916  0.186423  0.809802  1
  Tb  Tb8  1  0.187647  0.187182  0.816300  1
  Tb  Tb9  1  0.809916  0.809802  0.186423  1
  Tb  Tb10  1  0.940346  0.558409  0.558409  1
  Tb  Tb11  1  0.547860  0.944977  0.944977  1
  Pr  Pr12  1  0.564844  0.935319  0.565296  1
  Pr  Pr13  1  0.938281  0.557930  0.936479  1
  Pr  Pr14  1  0.564844  0.565296  0.935319  1
  Pr  Pr15  1  0.938281  0.936479  0.557930  1
  Cd  Cd16  1  0.582586  0.577820  0.577820  1
  Cd  Cd17  1  0.578168  0.582051  0.258156  1
  Cd  Cd18  1  0.578168  0.258156  0.582051  1
  Cd  Cd19  1  0.259290  0.578296  0.578296  1
  Tc  Tc20  1  0.147932  0.140772  0.140772  1
  Pt  Pt21  1  0.142264  0.147655  0.573854  1
  Pt  Pt22  1  0.142264  0.573854  0.147655  1
  Pt  Pt23  1  0.573814  0.143498  0.143498  1
