# generated using pymatgen
data_Tb4Lu4B24MoRh3
_symmetry_space_group_name_H-M   'P 1'
_cell_length_a   3.64107900
_cell_length_b   9.12616284
_cell_length_c   11.51532185
_cell_angle_alpha   90.21311919
_cell_angle_beta   90.00000000
_cell_angle_gamma   90.00000000
_symmetry_Int_Tables_number   1
_chemical_formula_structural   Tb4Lu4B24MoRh3
_chemical_formula_sum   'Tb4 Lu4 B24 Mo1 Rh3'
_cell_volume   382.64090219
_cell_formula_units_Z   1
loop_
 _symmetry_equiv_pos_site_id
 _symmetry_equiv_pos_as_xyz
  1  'x, y, z'
loop_
 _atom_site_type_symbol
 _atom_site_label
 _atom_site_symmetry_multiplicity
 _atom_site_fract_x
 _atom_site_fract_y
 _atom_site_fract_z
 _atom_site_occupancy
  Tb  Tb0  1  0.500000  0.319500  0.411614  1
  Tb  Tb1  1  0.500000  0.677440  0.584813  1
  Tb  Tb2  1  0.500000  0.178595  0.916759  1
  Tb  Tb3  1  0.500000  0.823268  0.086447  1
  Lu  Lu4  1  0.500000  0.444716  0.126067  1
  Lu  Lu5  1  0.500000  0.556631  0.871890  1
  Lu  Lu6  1  0.500000  0.055780  0.628711  1
  Lu  Lu7  1  0.500000  0.945586  0.373614  1
  B  B8  1  0.000000  0.103094  0.474009  1
  B  B9  1  0.000000  0.896147  0.529094  1
  B  B10  1  0.000000  0.398906  0.970546  1
  B  B11  1  0.000000  0.604295  0.027248  1
  B  B12  1  0.000000  0.131186  0.317774  1
  B  B13  1  0.000000  0.867705  0.683022  1
  B  B14  1  0.000000  0.369351  0.816922  1
  B  B15  1  0.000000  0.631779  0.183125  1
  B  B16  1  0.000000  0.052489  0.065267  1
  B  B17  1  0.000000  0.945266  0.932663  1
  B  B18  1  0.000000  0.444246  0.566231  1
  B  B19  1  0.000000  0.554209  0.433284  1
  B  B20  1  0.000000  0.483817  0.286550  1
  B  B21  1  0.000000  0.516764  0.713120  1
  B  B22  1  0.000000  0.016475  0.786381  1
  B  B23  1  0.000000  0.980220  0.214806  1
  B  B24  1  0.000000  0.252937  0.079391  1
  B  B25  1  0.000000  0.749547  0.918694  1
  B  B26  1  0.000000  0.248546  0.580423  1
  B  B27  1  0.000000  0.750692  0.419936  1
  B  B28  1  0.000000  0.296100  0.235859  1
  B  B29  1  0.000000  0.705597  0.763814  1
  B  B30  1  0.000000  0.207296  0.736118  1
  B  B31  1  0.000000  0.792641  0.265917  1
  Mo  Mo32  1  0.500000  0.139296  0.180123  1
  Rh  Rh33  1  0.500000  0.859691  0.819372  1
  Rh  Rh34  1  0.500000  0.360082  0.680540  1
  Rh  Rh35  1  0.500000  0.640112  0.319853  1
