# generated using pymatgen
data_Sc3Sn3PdRu5
_symmetry_space_group_name_H-M   'P 1'
_cell_length_a   4.53340300
_cell_length_b   6.46519100
_cell_length_c   13.51679800
_cell_angle_alpha   90.00013293
_cell_angle_beta   89.99992417
_cell_angle_gamma   89.99981389
_symmetry_Int_Tables_number   1
_chemical_formula_structural   Sc3Sn3PdRu5
_chemical_formula_sum   'Sc6 Sn6 Pd2 Ru10'
_cell_volume   396.16810761
_cell_formula_units_Z   2
loop_
 _symmetry_equiv_pos_site_id
 _symmetry_equiv_pos_as_xyz
  1  'x, y, z'
loop_
 _atom_site_type_symbol
 _atom_site_label
 _atom_site_symmetry_multiplicity
 _atom_site_fract_x
 _atom_site_fract_y
 _atom_site_fract_z
 _atom_site_occupancy
  Sc  Sc0  1  0.000020  0.499993  0.004983  1
  Sc  Sc1  1  0.500100  0.000004  0.167596  1
  Sc  Sc2  1  0.000130  0.499971  0.333327  1
  Sc  Sc3  1  0.499996  0.000009  0.499112  1
  Sc  Sc4  1  0.999897  0.499990  0.661726  1
  Sc  Sc5  1  0.499844  0.000020  0.833371  1
  Sn  Sn6  1  0.000013  0.999995  0.005804  1
  Sn  Sn7  1  0.500098  0.500006  0.167013  1
  Sn  Sn8  1  0.000081  0.999998  0.333356  1
  Sn  Sn9  1  0.499999  0.500005  0.499658  1
  Sn  Sn10  1  0.999935  0.999996  0.660839  1
  Sn  Sn11  1  0.499872  0.500005  0.833241  1
  Pd  Pd12  1  0.999882  0.247243  0.833336  1
  Pd  Pd13  1  0.999880  0.752759  0.833336  1
  Ru  Ru14  1  0.500006  0.249986  0.996653  1
  Ru  Ru15  1  0.500016  0.750015  0.996645  1
  Ru  Ru16  1  0.000149  0.252203  0.166309  1
  Ru  Ru17  1  0.000091  0.747800  0.166305  1
  Ru  Ru18  1  0.500056  0.248922  0.333354  1
  Ru  Ru19  1  0.500132  0.751078  0.333347  1
  Ru  Ru20  1  0.000029  0.252234  0.500350  1
  Ru  Ru21  1  0.999980  0.747763  0.500350  1
  Ru  Ru22  1  0.499893  0.249972  0.669994  1
  Ru  Ru23  1  0.499906  0.750034  0.669993  1
