# generated using pymatgen
data_CeDy4Y3(ReB6)4
_symmetry_space_group_name_H-M   'P 1'
_cell_length_a   3.70232000
_cell_length_b   9.19913377
_cell_length_c   11.58920109
_cell_angle_alpha   90.05921190
_cell_angle_beta   90.00000000
_cell_angle_gamma   90.00000000
_symmetry_Int_Tables_number   1
_chemical_formula_structural   CeDy4Y3(ReB6)4
_chemical_formula_sum   'Ce1 Dy4 Y3 Re4 B24'
_cell_volume   394.70638726
_cell_formula_units_Z   1
loop_
 _symmetry_equiv_pos_site_id
 _symmetry_equiv_pos_as_xyz
  1  'x, y, z'
loop_
 _atom_site_type_symbol
 _atom_site_label
 _atom_site_symmetry_multiplicity
 _atom_site_fract_x
 _atom_site_fract_y
 _atom_site_fract_z
 _atom_site_occupancy
  Ce  Ce0  1  0.000000  0.323123  0.414112  1
  Dy  Dy1  1  0.000000  0.942172  0.369855  1
  Dy  Dy2  1  0.000000  0.056988  0.630416  1
  Dy  Dy3  1  0.000000  0.442788  0.129184  1
  Dy  Dy4  1  0.000000  0.557542  0.870200  1
  Y  Y5  1  0.000000  0.677473  0.586619  1
  Y  Y6  1  0.000000  0.823195  0.085455  1
  Y  Y7  1  0.000000  0.176385  0.914080  1
  Re  Re8  1  0.000000  0.637400  0.321161  1
  Re  Re9  1  0.000000  0.362131  0.678669  1
  Re  Re10  1  0.000000  0.138712  0.179691  1
  Re  Re11  1  0.000000  0.861866  0.820891  1
  B  B12  1  0.500000  0.553452  0.432102  1
  B  B13  1  0.500000  0.446236  0.567817  1
  B  B14  1  0.500000  0.053124  0.067061  1
  B  B15  1  0.500000  0.946886  0.932846  1
  B  B16  1  0.500000  0.748887  0.418004  1
  B  B17  1  0.500000  0.251678  0.582712  1
  B  B18  1  0.500000  0.248237  0.081282  1
  B  B19  1  0.500000  0.751381  0.918184  1
  B  B20  1  0.500000  0.791205  0.265543  1
  B  B21  1  0.500000  0.208933  0.734964  1
  B  B22  1  0.500000  0.290627  0.233898  1
  B  B23  1  0.500000  0.708672  0.765684  1
  B  B24  1  0.500000  0.630958  0.185378  1
  B  B25  1  0.500000  0.369923  0.814267  1
  B  B26  1  0.500000  0.130476  0.313611  1
  B  B27  1  0.500000  0.869449  0.686203  1
  B  B28  1  0.500000  0.982289  0.211627  1
  B  B29  1  0.500000  0.017568  0.788282  1
  B  B30  1  0.500000  0.483412  0.287464  1
  B  B31  1  0.500000  0.517904  0.712678  1
  B  B32  1  0.500000  0.601065  0.028002  1
  B  B33  1  0.500000  0.399323  0.971477  1
  B  B34  1  0.500000  0.099955  0.472053  1
  B  B35  1  0.500000  0.898586  0.528525  1
