# generated using pymatgen
data_ZrI5
_symmetry_space_group_name_H-M   'P 1'
_cell_length_a   9.34845983
_cell_length_b   8.18086475
_cell_length_c   10.82529242
_cell_angle_alpha   93.40657531
_cell_angle_beta   101.06839896
_cell_angle_gamma   119.03204393
_symmetry_Int_Tables_number   1
_chemical_formula_structural   ZrI5
_chemical_formula_sum   'Zr2 I10'
_cell_volume   699.08734371
_cell_formula_units_Z   2
loop_
 _symmetry_equiv_pos_site_id
 _symmetry_equiv_pos_as_xyz
  1  'x, y, z'
loop_
 _atom_site_type_symbol
 _atom_site_label
 _atom_site_symmetry_multiplicity
 _atom_site_fract_x
 _atom_site_fract_y
 _atom_site_fract_z
 _atom_site_occupancy
  Zr  Zr0  1  0.139431  0.195341  0.197784  1
  Zr  Zr1  1  0.860569  0.804659  0.802216  1
  I  I2  1  0.950753  0.409345  0.105770  1
  I  I3  1  0.805762  0.832929  0.055200  1
  I  I4  1  0.257577  0.983183  0.314225  1
  I  I5  1  0.742423  0.016817  0.685775  1
  I  I6  1  0.194238  0.167071  0.944800  1
  I  I7  1  0.049247  0.590655  0.894230  1
  I  I8  1  0.428032  0.542180  0.277975  1
  I  I9  1  0.941852  0.208420  0.362268  1
  I  I10  1  0.571968  0.457820  0.722025  1
  I  I11  1  0.058148  0.791580  0.637732  1
