# generated using pymatgen
data_BeCoH6
_symmetry_space_group_name_H-M   'P 1'
_cell_length_a   3.86105780
_cell_length_b   2.47569239
_cell_length_c   8.01973870
_cell_angle_alpha   98.87772958
_cell_angle_beta   83.99760637
_cell_angle_gamma   89.65254379
_symmetry_Int_Tables_number   1
_chemical_formula_structural   BeCoH6
_chemical_formula_sum   'Be1 Co1 H6'
_cell_volume   75.30615202
_cell_formula_units_Z   1
loop_
 _symmetry_equiv_pos_site_id
 _symmetry_equiv_pos_as_xyz
  1  'x, y, z'
loop_
 _atom_site_type_symbol
 _atom_site_label
 _atom_site_symmetry_multiplicity
 _atom_site_fract_x
 _atom_site_fract_y
 _atom_site_fract_z
 _atom_site_occupancy
  Be  Be0  1  0.099726  0.235718  0.273371  1
  Co  Co1  1  0.599178  0.734824  0.273229  1
  H  H2  1  0.722779  0.296812  0.394517  1
  H  H3  1  0.475447  0.173846  0.151783  1
  H  H4  1  0.255835  0.798014  0.396370  1
  H  H5  1  0.943662  0.670401  0.149982  1
  H  H6  1  0.957851  0.022424  0.745585  1
  H  H7  1  0.932683  0.824795  0.807468  1
