# generated using pymatgen
data_Ho5Er5(Bi2Os)2
_symmetry_space_group_name_H-M   'P 1'
_cell_length_a   7.90741475
_cell_length_b   8.99716600
_cell_length_c   12.45991501
_cell_angle_alpha   90.00000000
_cell_angle_beta   90.04983658
_cell_angle_gamma   90.00000000
_symmetry_Int_Tables_number   1
_chemical_formula_structural   Ho5Er5(Bi2Os)2
_chemical_formula_sum   'Ho10 Er10 Bi8 Os4'
_cell_volume   886.45188472
_cell_formula_units_Z   2
loop_
 _symmetry_equiv_pos_site_id
 _symmetry_equiv_pos_as_xyz
  1  'x, y, z'
loop_
 _atom_site_type_symbol
 _atom_site_label
 _atom_site_symmetry_multiplicity
 _atom_site_fract_x
 _atom_site_fract_y
 _atom_site_fract_z
 _atom_site_occupancy
  Ho  Ho0  1  0.842324  0.250000  0.791746  1
  Ho  Ho1  1  0.157676  0.750000  0.208254  1
  Ho  Ho2  1  0.878949  0.750000  0.808267  1
  Ho  Ho3  1  0.121051  0.250000  0.191733  1
  Ho  Ho4  1  0.378804  0.250000  0.691707  1
  Ho  Ho5  1  0.621196  0.750000  0.308293  1
  Ho  Ho6  1  0.057724  0.750000  0.495936  1
  Ho  Ho7  1  0.942276  0.250000  0.504064  1
  Ho  Ho8  1  0.557546  0.250000  0.004015  1
  Ho  Ho9  1  0.442454  0.750000  0.995985  1
  Er  Er10  1  0.342829  0.750000  0.707489  1
  Er  Er11  1  0.657171  0.250000  0.292511  1
  Er  Er12  1  0.674165  0.541971  0.563931  1
  Er  Er13  1  0.325835  0.458029  0.436069  1
  Er  Er14  1  0.174179  0.458325  0.936112  1
  Er  Er15  1  0.325835  0.041971  0.436069  1
  Er  Er16  1  0.825821  0.541675  0.063888  1
  Er  Er17  1  0.674165  0.958029  0.563931  1
  Er  Er18  1  0.825821  0.958325  0.063888  1
  Er  Er19  1  0.174179  0.041675  0.936112  1
  Bi  Bi20  1  0.568954  0.507725  0.827869  1
  Bi  Bi21  1  0.431046  0.492275  0.172131  1
  Bi  Bi22  1  0.069650  0.492798  0.672068  1
  Bi  Bi23  1  0.431046  0.007725  0.172131  1
  Bi  Bi24  1  0.930350  0.507202  0.327932  1
  Bi  Bi25  1  0.568954  0.992275  0.827869  1
  Bi  Bi26  1  0.930350  0.992798  0.327932  1
  Bi  Bi27  1  0.069650  0.007202  0.672068  1
  Os  Os28  1  0.073730  0.750000  0.990919  1
  Os  Os29  1  0.926270  0.250000  0.009081  1
  Os  Os30  1  0.573904  0.250000  0.509148  1
  Os  Os31  1  0.426096  0.750000  0.490852  1
