# generated using pymatgen
data_Ce2HoZn3NiRh2
_symmetry_space_group_name_H-M   'P 1'
_cell_length_a   7.20318480
_cell_length_b   7.07184504
_cell_length_c   3.85442000
_cell_angle_alpha   90.00000000
_cell_angle_beta   90.00000000
_cell_angle_gamma   119.39864856
_symmetry_Int_Tables_number   1
_chemical_formula_structural   Ce2HoZn3NiRh2
_chemical_formula_sum   'Ce2 Ho1 Zn3 Ni1 Rh2'
_cell_volume   171.05936378
_cell_formula_units_Z   1
loop_
 _symmetry_equiv_pos_site_id
 _symmetry_equiv_pos_as_xyz
  1  'x, y, z'
loop_
 _atom_site_type_symbol
 _atom_site_label
 _atom_site_symmetry_multiplicity
 _atom_site_fract_x
 _atom_site_fract_y
 _atom_site_fract_z
 _atom_site_occupancy
  Ce  Ce0  1  0.587224  0.587176  0.500000  1
  Ce  Ce1  1  0.412776  0.999953  0.500000  1
  Ho  Ho2  1  0.000000  0.406028  0.500000  1
  Zn  Zn3  1  0.000000  0.754840  0.000000  1
  Zn  Zn4  1  0.227064  0.235169  0.000000  1
  Zn  Zn5  1  0.772936  0.008105  0.000000  1
  Ni  Ni6  1  0.000000  0.995596  0.500000  1
  Rh  Rh7  1  0.347198  0.680166  0.000000  1
  Rh  Rh8  1  0.652802  0.332967  0.000000  1
