# generated using pymatgen
data_Ac2Dy3Sn4
_symmetry_space_group_name_H-M   'P 1'
_cell_length_a   8.36987800
_cell_length_b   8.44744300
_cell_length_c   16.04241900
_cell_angle_alpha   90.00000000
_cell_angle_beta   90.00000000
_cell_angle_gamma   90.00000000
_symmetry_Int_Tables_number   1
_chemical_formula_structural   Ac2Dy3Sn4
_chemical_formula_sum   'Ac8 Dy12 Sn16'
_cell_volume   1134.26427298
_cell_formula_units_Z   4
loop_
 _symmetry_equiv_pos_site_id
 _symmetry_equiv_pos_as_xyz
  1  'x, y, z'
loop_
 _atom_site_type_symbol
 _atom_site_label
 _atom_site_symmetry_multiplicity
 _atom_site_fract_x
 _atom_site_fract_y
 _atom_site_fract_z
 _atom_site_occupancy
  Ac  Ac0  1  0.514039  0.322588  0.904207  1
  Ac  Ac1  1  0.014039  0.177412  0.595793  1
  Ac  Ac2  1  0.485961  0.677412  0.404207  1
  Ac  Ac3  1  0.985961  0.822588  0.095793  1
  Ac  Ac4  1  0.485961  0.677412  0.095793  1
  Ac  Ac5  1  0.985961  0.822588  0.404207  1
  Ac  Ac6  1  0.514039  0.322588  0.595793  1
  Ac  Ac7  1  0.014039  0.177412  0.904207  1
  Dy  Dy8  1  0.359327  0.837081  0.876098  1
  Dy  Dy9  1  0.859327  0.662919  0.623902  1
  Dy  Dy10  1  0.640673  0.162919  0.376098  1
  Dy  Dy11  1  0.140673  0.337081  0.123902  1
  Dy  Dy12  1  0.640673  0.162919  0.123902  1
  Dy  Dy13  1  0.140673  0.337081  0.376098  1
  Dy  Dy14  1  0.359327  0.837081  0.623902  1
  Dy  Dy15  1  0.859327  0.662919  0.876098  1
  Dy  Dy16  1  0.194115  0.504805  0.750000  1
  Dy  Dy17  1  0.694115  0.995195  0.750000  1
  Dy  Dy18  1  0.805885  0.495195  0.250000  1
  Dy  Dy19  1  0.305885  0.004805  0.250000  1
  Sn  Sn20  1  0.309343  0.044263  0.043841  1
  Sn  Sn21  1  0.809343  0.455737  0.456159  1
  Sn  Sn22  1  0.690657  0.955737  0.543841  1
  Sn  Sn23  1  0.190657  0.544263  0.956159  1
  Sn  Sn24  1  0.690657  0.955737  0.956159  1
  Sn  Sn25  1  0.190657  0.544263  0.543841  1
  Sn  Sn26  1  0.309343  0.044263  0.456159  1
  Sn  Sn27  1  0.809343  0.455737  0.043841  1
  Sn  Sn28  1  0.557814  0.630949  0.750000  1
  Sn  Sn29  1  0.057814  0.869051  0.750000  1
  Sn  Sn30  1  0.442186  0.369051  0.250000  1
  Sn  Sn31  1  0.942186  0.130949  0.250000  1
  Sn  Sn32  1  0.321939  0.135579  0.750000  1
  Sn  Sn33  1  0.821939  0.364421  0.750000  1
  Sn  Sn34  1  0.678061  0.864421  0.250000  1
  Sn  Sn35  1  0.178061  0.635579  0.250000  1
