# generated using pymatgen
data_Rb2ZnSiSe4
_symmetry_space_group_name_H-M   'P 1'
_cell_length_a   14.25496146
_cell_length_b   12.72519663
_cell_length_c   7.76939600
_cell_angle_alpha   84.45975895
_cell_angle_beta   62.68728342
_cell_angle_gamma   32.85295742
_symmetry_Int_Tables_number   1
_chemical_formula_structural   Rb2ZnSiSe4
_chemical_formula_sum   'Rb4 Zn2 Si2 Se8'
_cell_volume   543.75435118
_cell_formula_units_Z   2
loop_
 _symmetry_equiv_pos_site_id
 _symmetry_equiv_pos_as_xyz
  1  'x, y, z'
loop_
 _atom_site_type_symbol
 _atom_site_label
 _atom_site_symmetry_multiplicity
 _atom_site_fract_x
 _atom_site_fract_y
 _atom_site_fract_z
 _atom_site_occupancy
  Rb  Rb0  1  0.568601  0.568601  0.931399  1
  Rb  Rb1  1  0.931399  0.931399  0.568601  1
  Rb  Rb2  1  0.318601  0.318601  0.681399  1
  Rb  Rb3  1  0.681399  0.681399  0.318601  1
  Zn  Zn4  1  0.000000  0.000000  0.000000  1
  Zn  Zn5  1  0.250000  0.250000  0.250000  1
  Si  Si6  1  0.750000  0.750000  0.750000  1
  Si  Si7  1  0.500000  0.500000  0.500000  1
  Se  Se8  1  0.238090  0.868182  0.579964  1
  Se  Se9  1  0.313766  0.579964  0.868182  1
  Se  Se10  1  0.579964  0.313766  0.238090  1
  Se  Se11  1  0.868182  0.238090  0.313766  1
  Se  Se12  1  0.381818  0.011910  0.936234  1
  Se  Se13  1  0.936234  0.670036  0.381818  1
  Se  Se14  1  0.670036  0.936234  0.011910  1
  Se  Se15  1  0.011910  0.381818  0.670036  1
