# generated using pymatgen
data_Li2YU5(Co4P3)4
_symmetry_space_group_name_H-M   'P 1'
_cell_length_a   3.71419700
_cell_length_b   10.44435400
_cell_length_c   12.31546100
_cell_angle_alpha   90.00000000
_cell_angle_beta   90.00000000
_cell_angle_gamma   90.00000000
_symmetry_Int_Tables_number   1
_chemical_formula_structural   Li2YU5(Co4P3)4
_chemical_formula_sum   'Li2 Y1 U5 Co16 P12'
_cell_volume   477.74614513
_cell_formula_units_Z   1
loop_
 _symmetry_equiv_pos_site_id
 _symmetry_equiv_pos_as_xyz
  1  'x, y, z'
loop_
 _atom_site_type_symbol
 _atom_site_label
 _atom_site_symmetry_multiplicity
 _atom_site_fract_x
 _atom_site_fract_y
 _atom_site_fract_z
 _atom_site_occupancy
  Li  Li0  1  0.500000  0.500000  0.152689  1
  Li  Li1  1  0.000000  0.000000  0.848801  1
  Y  Y2  1  0.500000  0.000000  0.480322  1
  U  U3  1  0.000000  0.500000  0.523648  1
  U  U4  1  0.500000  0.820885  0.207434  1
  U  U5  1  0.500000  0.179115  0.207434  1
  U  U6  1  0.000000  0.680810  0.792829  1
  U  U7  1  0.000000  0.319190  0.792829  1
  Co  Co8  1  0.500000  0.500000  0.700757  1
  Co  Co9  1  0.000000  0.000000  0.289491  1
  Co  Co10  1  0.000000  0.500000  0.986017  1
  Co  Co11  1  0.500000  0.000000  0.013713  1
  Co  Co12  1  0.500000  0.331615  0.998612  1
  Co  Co13  1  0.500000  0.668385  0.998612  1
  Co  Co14  1  0.000000  0.169592  0.002088  1
  Co  Co15  1  0.000000  0.830408  0.002088  1
  Co  Co16  1  0.500000  0.299404  0.430966  1
  Co  Co17  1  0.500000  0.700596  0.430966  1
  Co  Co18  1  0.000000  0.201839  0.568484  1
  Co  Co19  1  0.000000  0.798161  0.568484  1
  Co  Co20  1  0.500000  0.873398  0.709162  1
  Co  Co21  1  0.500000  0.126602  0.709162  1
  Co  Co22  1  0.000000  0.625817  0.294171  1
  Co  Co23  1  0.000000  0.374183  0.294171  1
  P  P24  1  0.500000  0.500000  0.885767  1
  P  P25  1  0.000000  0.000000  0.110607  1
  P  P26  1  0.500000  0.500000  0.346224  1
  P  P27  1  0.000000  0.000000  0.655458  1
  P  P28  1  0.500000  0.308788  0.611962  1
  P  P29  1  0.500000  0.691212  0.611962  1
  P  P30  1  0.000000  0.186984  0.386287  1
  P  P31  1  0.000000  0.813016  0.386287  1
  P  P32  1  0.500000  0.843198  0.894151  1
  P  P33  1  0.500000  0.156802  0.894151  1
  P  P34  1  0.000000  0.655852  0.107107  1
  P  P35  1  0.000000  0.344148  0.107107  1
