# generated using pymatgen
data_SmAg6ClO8
_symmetry_space_group_name_H-M   'P 1'
_cell_length_a   7.13846026
_cell_length_b   7.13845988
_cell_length_c   7.13846000
_cell_angle_alpha   59.99999944
_cell_angle_beta   60.00000119
_cell_angle_gamma   59.99999904
_symmetry_Int_Tables_number   1
_chemical_formula_structural   SmAg6ClO8
_chemical_formula_sum   'Sm1 Ag6 Cl1 O8'
_cell_volume   257.21636726
_cell_formula_units_Z   1
loop_
 _symmetry_equiv_pos_site_id
 _symmetry_equiv_pos_as_xyz
  1  'x, y, z'
loop_
 _atom_site_type_symbol
 _atom_site_label
 _atom_site_symmetry_multiplicity
 _atom_site_fract_x
 _atom_site_fract_y
 _atom_site_fract_z
 _atom_site_occupancy
  Sm  Sm0  1  0.000000  0.000000  0.000000  1
  Ag  Ag1  1  0.000000  0.000000  0.500000  1
  Ag  Ag2  1  0.500000  0.000000  0.500000  1
  Ag  Ag3  1  0.000000  0.500000  0.500000  1
  Ag  Ag4  1  0.500000  0.500000  0.000000  1
  Ag  Ag5  1  0.000000  0.500000  0.000000  1
  Ag  Ag6  1  0.500000  0.000000  0.000000  1
  Cl  Cl7  1  0.500000  0.500000  0.500000  1
  O  O8  1  0.860444  0.860444  0.418669  1
  O  O9  1  0.860444  0.418669  0.860444  1
  O  O10  1  0.418669  0.860444  0.860444  1
  O  O11  1  0.860444  0.860444  0.860444  1
  O  O12  1  0.139556  0.139556  0.581331  1
  O  O13  1  0.139556  0.581331  0.139556  1
  O  O14  1  0.581331  0.139556  0.139556  1
  O  O15  1  0.139556  0.139556  0.139556  1
