# generated using pymatgen
data_Ba8Ho4Al3CoO20
_symmetry_space_group_name_H-M   'P 1'
_cell_length_a   6.08802380
_cell_length_b   7.79131296
_cell_length_c   12.61567484
_cell_angle_alpha   91.33003291
_cell_angle_beta   89.94232383
_cell_angle_gamma   90.01233660
_symmetry_Int_Tables_number   1
_chemical_formula_structural   Ba8Ho4Al3CoO20
_chemical_formula_sum   'Ba8 Ho4 Al3 Co1 O20'
_cell_volume   598.24658184
_cell_formula_units_Z   1
loop_
 _symmetry_equiv_pos_site_id
 _symmetry_equiv_pos_as_xyz
  1  'x, y, z'
loop_
 _atom_site_type_symbol
 _atom_site_label
 _atom_site_symmetry_multiplicity
 _atom_site_fract_x
 _atom_site_fract_y
 _atom_site_fract_z
 _atom_site_occupancy
  Ba  Ba0  1  0.756801  0.486811  0.354354  1
  Ba  Ba1  1  0.743330  0.987453  0.855056  1
  Ba  Ba2  1  0.242850  0.511291  0.645075  1
  Ba  Ba3  1  0.257645  0.010969  0.144304  1
  Ba  Ba4  1  0.754042  0.997090  0.376975  1
  Ba  Ba5  1  0.745355  0.496776  0.877708  1
  Ba  Ba6  1  0.246801  0.005063  0.620578  1
  Ba  Ba7  1  0.254367  0.504878  0.121370  1
  Ho  Ho8  1  0.748776  0.262158  0.627766  1
  Ho  Ho9  1  0.751620  0.761882  0.129056  1
  Ho  Ho10  1  0.251139  0.737457  0.372941  1
  Ho  Ho11  1  0.248453  0.236217  0.873277  1
  Al  Al12  1  0.740881  0.746572  0.582907  1
  Al  Al13  1  0.758862  0.245556  0.083233  1
  Al  Al14  1  0.258978  0.254133  0.416876  1
  Co  Co15  1  0.241718  0.753959  0.911559  1
  O  O16  1  0.757720  0.961542  0.636482  1
  O  O17  1  0.742543  0.460531  0.136824  1
  O  O18  1  0.242273  0.038865  0.363933  1
  O  O19  1  0.257784  0.528112  0.866255  1
  O  O20  1  0.738815  0.067145  0.168764  1
  O  O21  1  0.761512  0.568118  0.668384  1
  O  O22  1  0.262986  0.944134  0.829751  1
  O  O23  1  0.239441  0.433343  0.332205  1
  O  O24  1  0.536378  0.747656  0.268493  1
  O  O25  1  0.964462  0.248774  0.766836  1
  O  O26  1  0.464507  0.253605  0.732796  1
  O  O27  1  0.037543  0.751670  0.233213  1
  O  O28  1  0.539087  0.229822  0.987506  1
  O  O29  1  0.960684  0.731147  0.487044  1
  O  O30  1  0.468930  0.769532  0.015291  1
  O  O31  1  0.039050  0.269593  0.512925  1
  O  O32  1  0.017122  0.233527  0.014442  1
  O  O33  1  0.481484  0.734964  0.515084  1
  O  O34  1  0.969194  0.764750  0.984548  1
  O  O35  1  0.516866  0.264906  0.486188  1
