# generated using pymatgen
data_Tb2Th(CoSn)3
_symmetry_space_group_name_H-M   'P 1'
_cell_length_a   7.41846500
_cell_length_b   7.24791055
_cell_length_c   3.96040800
_cell_angle_alpha   90.00000000
_cell_angle_beta   90.00000000
_cell_angle_gamma   120.78152291
_symmetry_Int_Tables_number   1
_chemical_formula_structural   Tb2Th(CoSn)3
_chemical_formula_sum   'Tb2 Th1 Co3 Sn3'
_cell_volume   182.94609859
_cell_formula_units_Z   1
loop_
 _symmetry_equiv_pos_site_id
 _symmetry_equiv_pos_as_xyz
  1  'x, y, z'
loop_
 _atom_site_type_symbol
 _atom_site_label
 _atom_site_symmetry_multiplicity
 _atom_site_fract_x
 _atom_site_fract_y
 _atom_site_fract_z
 _atom_site_occupancy
  Tb  Tb0  1  0.998802  0.591337  0.500000  1
  Tb  Tb1  1  0.407465  0.408663  0.500000  1
  Th  Th2  1  0.583123  0.000000  0.500000  1
  Co  Co3  1  0.352839  0.687714  0.000000  1
  Co  Co4  1  0.993223  0.000000  0.500000  1
  Co  Co5  1  0.665126  0.312286  0.000000  1
  Sn  Sn6  1  0.747557  0.737281  0.000000  1
  Sn  Sn7  1  0.010276  0.262719  0.000000  1
  Sn  Sn8  1  0.241588  0.000000  0.000000  1
