# generated using pymatgen
data_La3Y13(HgPt)4
_symmetry_space_group_name_H-M   'P 1'
_cell_length_a   9.80653184
_cell_length_b   9.79770402
_cell_length_c   9.79767014
_cell_angle_alpha   59.82488030
_cell_angle_beta   59.98720933
_cell_angle_gamma   59.98895108
_symmetry_Int_Tables_number   1
_chemical_formula_structural   La3Y13(HgPt)4
_chemical_formula_sum   'La3 Y13 Hg4 Pt4'
_cell_volume   664.64759757
_cell_formula_units_Z   1
loop_
 _symmetry_equiv_pos_site_id
 _symmetry_equiv_pos_as_xyz
  1  'x, y, z'
loop_
 _atom_site_type_symbol
 _atom_site_label
 _atom_site_symmetry_multiplicity
 _atom_site_fract_x
 _atom_site_fract_y
 _atom_site_fract_z
 _atom_site_occupancy
  La  La0  1  0.351902  0.354143  0.354055  1
  La  La1  1  0.356419  0.356491  0.932354  1
  La  La2  1  0.356423  0.932320  0.356499  1
  Y  Y3  1  0.930577  0.357606  0.357573  1
  Y  Y4  1  0.811957  0.189301  0.189333  1
  Y  Y5  1  0.186204  0.814010  0.814025  1
  Y  Y6  1  0.187739  0.813336  0.187101  1
  Y  Y7  1  0.812602  0.188517  0.811393  1
  Y  Y8  1  0.187727  0.187114  0.813330  1
  Y  Y9  1  0.812591  0.811385  0.188530  1
  Y  Y10  1  0.935781  0.565926  0.565945  1
  Y  Y11  1  0.566243  0.934321  0.934313  1
  Y  Y12  1  0.566342  0.934404  0.567361  1
  Y  Y13  1  0.935471  0.565174  0.935880  1
  Y  Y14  1  0.566357  0.567367  0.934404  1
  Y  Y15  1  0.935481  0.935886  0.565192  1
  Hg  Hg16  1  0.593312  0.585013  0.585024  1
  Hg  Hg17  1  0.591580  0.584346  0.235139  1
  Hg  Hg18  1  0.591592  0.235127  0.584344  1
  Hg  Hg19  1  0.233839  0.587170  0.587173  1
  Pt  Pt20  1  0.139146  0.144943  0.144939  1
  Pt  Pt21  1  0.137204  0.142745  0.573086  1
  Pt  Pt22  1  0.137195  0.573096  0.142742  1
  Pt  Pt23  1  0.576316  0.140256  0.140263  1
