# generated using pymatgen
data_Tb3Er13Cd2(InPd2)2
_symmetry_space_group_name_H-M   'P 1'
_cell_length_a   9.65188218
_cell_length_b   9.64348942
_cell_length_c   9.65400100
_cell_angle_alpha   59.96394622
_cell_angle_beta   59.99274824
_cell_angle_gamma   60.01550856
_symmetry_Int_Tables_number   1
_chemical_formula_structural   Tb3Er13Cd2(InPd2)2
_chemical_formula_sum   'Tb3 Er13 Cd2 In2 Pd4'
_cell_volume   635.25360110
_cell_formula_units_Z   1
loop_
 _symmetry_equiv_pos_site_id
 _symmetry_equiv_pos_as_xyz
  1  'x, y, z'
loop_
 _atom_site_type_symbol
 _atom_site_label
 _atom_site_symmetry_multiplicity
 _atom_site_fract_x
 _atom_site_fract_y
 _atom_site_fract_z
 _atom_site_occupancy
  Tb  Tb0  1  0.353310  0.353476  0.353877  1
  Tb  Tb1  1  0.353310  0.353476  0.939335  1
  Tb  Tb2  1  0.353804  0.938068  0.354064  1
  Er  Er3  1  0.938344  0.354254  0.353700  1
  Er  Er4  1  0.810904  0.189560  0.189232  1
  Er  Er5  1  0.189600  0.810922  0.810703  1
  Er  Er6  1  0.189600  0.810922  0.188775  1
  Er  Er7  1  0.810904  0.189560  0.810305  1
  Er  Er8  1  0.188545  0.188012  0.811722  1
  Er  Er9  1  0.810167  0.809643  0.190095  1
  Er  Er10  1  0.935736  0.565871  0.565515  1
  Er  Er11  1  0.565986  0.935839  0.932471  1
  Er  Er12  1  0.565986  0.935839  0.565705  1
  Er  Er13  1  0.935736  0.565871  0.932879  1
  Er  Er14  1  0.566282  0.566413  0.933652  1
  Er  Er15  1  0.934870  0.935359  0.564885  1
  Cd  Cd16  1  0.583006  0.249884  0.583554  1
  Cd  Cd17  1  0.249787  0.582412  0.583900  1
  In  In18  1  0.583512  0.582334  0.583642  1
  In  In19  1  0.583512  0.582334  0.250510  1
  Pd  Pd20  1  0.142472  0.144110  0.144705  1
  Pd  Pd21  1  0.142472  0.144110  0.568713  1
  Pd  Pd22  1  0.142126  0.568818  0.144527  1
  Pd  Pd23  1  0.570026  0.142908  0.143533  1
