# generated using pymatgen
data_Zr6Nb5Ga9Sn2Os7
_symmetry_space_group_name_H-M   'P 1'
_cell_length_a   8.98458297
_cell_length_b   8.98458248
_cell_length_c   8.94564088
_cell_angle_alpha   59.89862969
_cell_angle_beta   59.89863514
_cell_angle_gamma   60.06693232
_symmetry_Int_Tables_number   1
_chemical_formula_structural   Zr6Nb5Ga9Sn2Os7
_chemical_formula_sum   'Zr6 Nb5 Ga9 Sn2 Os7'
_cell_volume   510.08634246
_cell_formula_units_Z   1
loop_
 _symmetry_equiv_pos_site_id
 _symmetry_equiv_pos_as_xyz
  1  'x, y, z'
loop_
 _atom_site_type_symbol
 _atom_site_label
 _atom_site_symmetry_multiplicity
 _atom_site_fract_x
 _atom_site_fract_y
 _atom_site_fract_z
 _atom_site_occupancy
  Zr  Zr0  1  0.685871  0.685871  0.315780  1
  Zr  Zr1  1  0.301887  0.702333  0.304658  1
  Zr  Zr2  1  0.702333  0.301887  0.304658  1
  Zr  Zr3  1  0.307193  0.307193  0.698740  1
  Zr  Zr4  1  0.688252  0.311828  0.690412  1
  Zr  Zr5  1  0.311828  0.688252  0.690412  1
  Nb  Nb6  1  0.877621  0.877621  0.372015  1
  Nb  Nb7  1  0.875879  0.374241  0.878587  1
  Nb  Nb8  1  0.374241  0.875879  0.878587  1
  Nb  Nb9  1  0.873989  0.873989  0.876612  1
  Nb  Nb10  1  0.127348  0.127348  0.618220  1
  Ga  Ga11  1  0.118612  0.118612  0.121877  1
  Ga  Ga12  1  0.654031  0.654031  0.036489  1
  Ga  Ga13  1  0.655222  0.035501  0.653581  1
  Ga  Ga14  1  0.035501  0.655222  0.653581  1
  Ga  Ga15  1  0.657404  0.657404  0.656274  1
  Ga  Ga16  1  0.339285  0.339285  0.974174  1
  Ga  Ga17  1  0.340514  0.968153  0.344243  1
  Ga  Ga18  1  0.968153  0.340514  0.344243  1
  Ga  Ga19  1  0.344729  0.344729  0.347261  1
  Sn  Sn20  1  0.118134  0.640702  0.121191  1
  Sn  Sn21  1  0.640702  0.118134  0.121191  1
  Os  Os22  1  0.012324  0.012324  0.974415  1
  Os  Os23  1  0.996796  0.996796  0.509636  1
  Os  Os24  1  0.494684  0.997667  0.509929  1
  Os  Os25  1  0.997667  0.494684  0.509929  1
  Os  Os26  1  0.502328  0.502328  0.998677  1
  Os  Os27  1  0.996270  0.501197  0.997312  1
  Os  Os28  1  0.501197  0.996270  0.997312  1
