# generated using pymatgen
data_Tb4YbEr2CoI12
_symmetry_space_group_name_H-M   'P 1'
_cell_length_a   9.68050845
_cell_length_b   9.77880913
_cell_length_c   9.78713067
_cell_angle_alpha   106.87885540
_cell_angle_beta   107.10676156
_cell_angle_gamma   106.70677158
_symmetry_Int_Tables_number   1
_chemical_formula_structural   Tb4YbEr2CoI12
_chemical_formula_sum   'Tb4 Yb1 Er2 Co1 I12'
_cell_volume   773.72829348
_cell_formula_units_Z   1
loop_
 _symmetry_equiv_pos_site_id
 _symmetry_equiv_pos_as_xyz
  1  'x, y, z'
loop_
 _atom_site_type_symbol
 _atom_site_label
 _atom_site_symmetry_multiplicity
 _atom_site_fract_x
 _atom_site_fract_y
 _atom_site_fract_z
 _atom_site_occupancy
  Tb  Tb0  1  0.284362  0.023883  0.093070  1
  Tb  Tb1  1  0.976305  0.904210  0.703165  1
  Tb  Tb2  1  0.903789  0.703064  0.975684  1
  Tb  Tb3  1  0.716232  0.977235  0.908410  1
  Yb  Yb4  1  0.499994  0.500156  0.500093  1
  Er  Er5  1  0.024020  0.096105  0.292983  1
  Er  Er6  1  0.094975  0.292947  0.024876  1
  Co  Co7  1  0.000295  0.000061  0.000226  1
  I  I8  1  0.149308  0.456535  0.378122  1
  I  I9  1  0.456530  0.379495  0.150796  1
  I  I10  1  0.378361  0.151224  0.457888  1
  I  I11  1  0.849315  0.541112  0.619965  1
  I  I12  1  0.540711  0.620816  0.848058  1
  I  I13  1  0.619208  0.848822  0.542284  1
  I  I14  1  0.680932  0.072256  0.224347  1
  I  I15  1  0.072672  0.225722  0.679838  1
  I  I16  1  0.225747  0.678643  0.072889  1
  I  I17  1  0.321804  0.928485  0.777525  1
  I  I18  1  0.928550  0.778673  0.321872  1
  I  I19  1  0.776892  0.320556  0.927911  1
