# generated using pymatgen
data_Tb2Dy3Er3(CdNi)2
_symmetry_space_group_name_H-M   'P 1'
_cell_length_a   9.51677979
_cell_length_b   9.51677980
_cell_length_c   9.51677900
_cell_angle_alpha   59.99999931
_cell_angle_beta   59.99999927
_cell_angle_gamma   59.99999755
_symmetry_Int_Tables_number   1
_chemical_formula_structural   Tb2Dy3Er3(CdNi)2
_chemical_formula_sum   'Tb4 Dy6 Er6 Cd4 Ni4'
_cell_volume   609.47376315
_cell_formula_units_Z   2
loop_
 _symmetry_equiv_pos_site_id
 _symmetry_equiv_pos_as_xyz
  1  'x, y, z'
loop_
 _atom_site_type_symbol
 _atom_site_label
 _atom_site_symmetry_multiplicity
 _atom_site_fract_x
 _atom_site_fract_y
 _atom_site_fract_z
 _atom_site_occupancy
  Tb  Tb0  1  0.599118  0.599118  0.599118  1
  Tb  Tb1  1  0.599118  0.599118  0.202649  1
  Tb  Tb2  1  0.599118  0.202649  0.599118  1
  Tb  Tb3  1  0.202649  0.599118  0.599118  1
  Dy  Dy4  1  0.186355  0.813645  0.813645  1
  Dy  Dy5  1  0.813645  0.186355  0.186355  1
  Dy  Dy6  1  0.813645  0.186355  0.813645  1
  Dy  Dy7  1  0.186355  0.813645  0.186355  1
  Dy  Dy8  1  0.813645  0.813645  0.186355  1
  Dy  Dy9  1  0.186355  0.186355  0.813645  1
  Er  Er10  1  0.062514  0.437486  0.437486  1
  Er  Er11  1  0.437486  0.062514  0.062514  1
  Er  Er12  1  0.437486  0.062514  0.437486  1
  Er  Er13  1  0.062514  0.437486  0.062514  1
  Er  Er14  1  0.437486  0.437486  0.062514  1
  Er  Er15  1  0.062514  0.062514  0.437486  1
  Cd  Cd16  1  0.831521  0.831521  0.831521  1
  Cd  Cd17  1  0.831521  0.831521  0.505436  1
  Cd  Cd18  1  0.831521  0.505436  0.831521  1
  Cd  Cd19  1  0.505436  0.831521  0.831521  1
  Ni  Ni20  1  0.391595  0.391595  0.391595  1
  Ni  Ni21  1  0.391595  0.391595  0.825215  1
  Ni  Ni22  1  0.391595  0.825215  0.391595  1
  Ni  Ni23  1  0.825215  0.391595  0.391595  1
