# generated using pymatgen
data_Ac3Mg3Ag2Ru
_symmetry_space_group_name_H-M   'P 1'
_cell_length_a   8.10202500
_cell_length_b   8.10202521
_cell_length_c   4.28230900
_cell_angle_alpha   90.00000000
_cell_angle_beta   90.00000000
_cell_angle_gamma   120.00000214
_symmetry_Int_Tables_number   1
_chemical_formula_structural   Ac3Mg3Ag2Ru
_chemical_formula_sum   'Ac3 Mg3 Ag2 Ru1'
_cell_volume   243.44216009
_cell_formula_units_Z   1
loop_
 _symmetry_equiv_pos_site_id
 _symmetry_equiv_pos_as_xyz
  1  'x, y, z'
loop_
 _atom_site_type_symbol
 _atom_site_label
 _atom_site_symmetry_multiplicity
 _atom_site_fract_x
 _atom_site_fract_y
 _atom_site_fract_z
 _atom_site_occupancy
  Ac  Ac0  1  0.569213  0.973320  0.000000  1
  Ac  Ac1  1  0.026680  0.595893  0.000000  1
  Ac  Ac2  1  0.404107  0.430787  0.000000  1
  Mg  Mg3  1  0.240817  0.997953  0.500000  1
  Mg  Mg4  1  0.002047  0.242863  0.500000  1
  Mg  Mg5  1  0.757137  0.759183  0.500000  1
  Ag  Ag6  1  0.666667  0.333333  0.500000  1
  Ag  Ag7  1  0.000000  0.000000  0.000000  1
  Ru  Ru8  1  0.333333  0.666667  0.500000  1
