# generated using pymatgen
data_Ho3LuC2Cl3
_symmetry_space_group_name_H-M   'P 1'
_cell_length_a   3.61355800
_cell_length_b   10.37594500
_cell_length_c   19.50441000
_cell_angle_alpha   90.00000000
_cell_angle_beta   90.00000000
_cell_angle_gamma   90.00000000
_symmetry_Int_Tables_number   1
_chemical_formula_structural   Ho3LuC2Cl3
_chemical_formula_sum   'Ho12 Lu4 C8 Cl12'
_cell_volume   731.29989060
_cell_formula_units_Z   4
loop_
 _symmetry_equiv_pos_site_id
 _symmetry_equiv_pos_as_xyz
  1  'x, y, z'
loop_
 _atom_site_type_symbol
 _atom_site_label
 _atom_site_symmetry_multiplicity
 _atom_site_fract_x
 _atom_site_fract_y
 _atom_site_fract_z
 _atom_site_occupancy
  Ho  Ho0  1  0.250000  0.139016  0.573421  1
  Ho  Ho1  1  0.250000  0.639016  0.926579  1
  Ho  Ho2  1  0.750000  0.860984  0.426579  1
  Ho  Ho3  1  0.750000  0.360984  0.073421  1
  Ho  Ho4  1  0.250000  0.636910  0.755733  1
  Ho  Ho5  1  0.250000  0.136910  0.744267  1
  Ho  Ho6  1  0.750000  0.363090  0.244267  1
  Ho  Ho7  1  0.750000  0.863090  0.255733  1
  Ho  Ho8  1  0.250000  0.101387  0.331411  1
  Ho  Ho9  1  0.250000  0.601387  0.168589  1
  Ho  Ho10  1  0.750000  0.898613  0.668589  1
  Ho  Ho11  1  0.750000  0.398613  0.831411  1
  Lu  Lu12  1  0.250000  0.127062  0.165748  1
  Lu  Lu13  1  0.250000  0.627062  0.334252  1
  Lu  Lu14  1  0.750000  0.872938  0.834252  1
  Lu  Lu15  1  0.750000  0.372938  0.665748  1
  C  C16  1  0.250000  0.863078  0.347594  1
  C  C17  1  0.250000  0.363078  0.152406  1
  C  C18  1  0.750000  0.136922  0.652406  1
  C  C19  1  0.750000  0.636922  0.847594  1
  C  C20  1  0.250000  0.386903  0.748746  1
  C  C21  1  0.250000  0.886903  0.751254  1
  C  C22  1  0.750000  0.613097  0.251254  1
  C  C23  1  0.750000  0.113097  0.248746  1
  Cl  Cl24  1  0.250000  0.376234  0.952523  1
  Cl  Cl25  1  0.250000  0.876234  0.547477  1
  Cl  Cl26  1  0.750000  0.623766  0.047477  1
  Cl  Cl27  1  0.750000  0.123766  0.452523  1
  Cl  Cl28  1  0.250000  0.889665  0.942541  1
  Cl  Cl29  1  0.250000  0.389665  0.557459  1
  Cl  Cl30  1  0.750000  0.110335  0.057459  1
  Cl  Cl31  1  0.750000  0.610335  0.442541  1
  Cl  Cl32  1  0.250000  0.363948  0.354953  1
  Cl  Cl33  1  0.250000  0.863948  0.145047  1
  Cl  Cl34  1  0.750000  0.636052  0.645047  1
  Cl  Cl35  1  0.750000  0.136052  0.854953  1
