# generated using pymatgen
data_Sm6Hf3Zr(Sn3O)2
_symmetry_space_group_name_H-M   'P 1'
_cell_length_a   8.86899200
_cell_length_b   8.86899254
_cell_length_c   6.09199200
_cell_angle_alpha   90.00000000
_cell_angle_beta   90.00000000
_cell_angle_gamma   119.99999799
_symmetry_Int_Tables_number   1
_chemical_formula_structural   Sm6Hf3Zr(Sn3O)2
_chemical_formula_sum   'Sm6 Hf3 Zr1 Sn6 O2'
_cell_volume   414.99084649
_cell_formula_units_Z   1
loop_
 _symmetry_equiv_pos_site_id
 _symmetry_equiv_pos_as_xyz
  1  'x, y, z'
loop_
 _atom_site_type_symbol
 _atom_site_label
 _atom_site_symmetry_multiplicity
 _atom_site_fract_x
 _atom_site_fract_y
 _atom_site_fract_z
 _atom_site_occupancy
  Sm  Sm0  1  0.000035  0.771269  0.750002  1
  Sm  Sm1  1  0.000035  0.228766  0.249998  1
  Sm  Sm2  1  0.228731  0.228766  0.750002  1
  Sm  Sm3  1  0.228731  0.999965  0.249998  1
  Sm  Sm4  1  0.771234  0.771269  0.249998  1
  Sm  Sm5  1  0.771234  0.999965  0.750002  1
  Hf  Hf6  1  0.333333  0.666667  0.000000  1
  Hf  Hf7  1  0.333333  0.666667  0.500000  1
  Hf  Hf8  1  0.666667  0.333333  0.000000  1
  Zr  Zr9  1  0.666667  0.333333  0.500000  1
  Sn  Sn10  1  0.000413  0.591866  0.249556  1
  Sn  Sn11  1  0.000413  0.408547  0.750444  1
  Sn  Sn12  1  0.408134  0.408547  0.249556  1
  Sn  Sn13  1  0.591453  0.591866  0.750444  1
  Sn  Sn14  1  0.408134  0.999587  0.750444  1
  Sn  Sn15  1  0.591453  0.999587  0.249556  1
  O  O16  1  0.000000  0.000000  0.000000  1
  O  O17  1  0.000000  0.000000  0.500000  1
