# generated using pymatgen
data_Er12Fe2I17
_symmetry_space_group_name_H-M   'P 1'
_cell_length_a   9.70278916
_cell_length_b   11.65075870
_cell_length_c   11.66526429
_cell_angle_alpha   93.52701582
_cell_angle_beta   104.74068057
_cell_angle_gamma   113.89435024
_symmetry_Int_Tables_number   1
_chemical_formula_structural   Er12Fe2I17
_chemical_formula_sum   'Er12 Fe2 I17'
_cell_volume   1145.61850439
_cell_formula_units_Z   1
loop_
 _symmetry_equiv_pos_site_id
 _symmetry_equiv_pos_as_xyz
  1  'x, y, z'
loop_
 _atom_site_type_symbol
 _atom_site_label
 _atom_site_symmetry_multiplicity
 _atom_site_fract_x
 _atom_site_fract_y
 _atom_site_fract_z
 _atom_site_occupancy
  Er  Er0  1  0.049810  0.499077  0.318438  1
  Er  Er1  1  0.993943  0.808550  0.590937  1
  Er  Er2  1  0.658456  0.241915  0.279476  1
  Er  Er3  1  0.006057  0.191450  0.409063  1
  Er  Er4  1  0.217276  0.671909  0.980166  1
  Er  Er5  1  0.252881  0.974646  0.887418  1
  Er  Er6  1  0.341544  0.758085  0.720524  1
  Er  Er7  1  0.950190  0.500923  0.681562  1
  Er  Er8  1  0.747119  0.025354  0.112582  1
  Er  Er9  1  0.137925  0.286160  0.154768  1
  Er  Er10  1  0.782724  0.328091  0.019834  1
  Er  Er11  1  0.862075  0.713840  0.845232  1
  Fe  Fe12  1  0.103935  0.738147  0.785657  1
  Fe  Fe13  1  0.896065  0.261853  0.214343  1
  I  I14  1  0.786350  0.528456  0.417960  1
  I  I15  1  0.648413  0.420594  0.764115  1
  I  I16  1  0.845486  0.897154  0.328234  1
  I  I17  1  0.326185  0.214000  0.367181  1
  I  I18  1  0.154514  0.102846  0.671766  1
  I  I19  1  0.584808  0.052809  0.843539  1
  I  I20  1  0.760601  0.190938  0.537435  1
  I  I21  1  0.551126  0.712502  0.953567  1
  I  I22  1  0.351587  0.579406  0.235885  1
  I  I23  1  0.213650  0.471544  0.582040  1
  I  I24  1  0.056290  0.368003  0.897779  1
  I  I25  1  0.448874  0.287498  0.046433  1
  I  I26  1  0.000000  0.000000  0.000000  1
  I  I27  1  0.239399  0.809062  0.462565  1
  I  I28  1  0.415192  0.947191  0.156461  1
  I  I29  1  0.673815  0.786000  0.632819  1
  I  I30  1  0.943710  0.631997  0.102221  1
