# generated using pymatgen
data_YbAgH6Ir
_symmetry_space_group_name_H-M   'P 1'
_cell_length_a   4.97267932
_cell_length_b   4.97267930
_cell_length_c   4.97267800
_cell_angle_alpha   60.00000866
_cell_angle_beta   60.00000880
_cell_angle_gamma   60.00000573
_symmetry_Int_Tables_number   1
_chemical_formula_structural   YbAgH6Ir
_chemical_formula_sum   'Yb1 Ag1 H6 Ir1'
_cell_volume   86.94734424
_cell_formula_units_Z   1
loop_
 _symmetry_equiv_pos_site_id
 _symmetry_equiv_pos_as_xyz
  1  'x, y, z'
loop_
 _atom_site_type_symbol
 _atom_site_label
 _atom_site_symmetry_multiplicity
 _atom_site_fract_x
 _atom_site_fract_y
 _atom_site_fract_z
 _atom_site_occupancy
  Yb  Yb0  1  0.750000  0.750000  0.750000  1
  Ag  Ag1  1  0.250000  0.250000  0.250000  1
  H  H2  1  0.760732  0.239268  0.239268  1
  H  H3  1  0.239268  0.760732  0.239268  1
  H  H4  1  0.760732  0.760732  0.239268  1
  H  H5  1  0.239268  0.760732  0.760732  1
  H  H6  1  0.760732  0.239268  0.760732  1
  H  H7  1  0.239268  0.239268  0.760732  1
  Ir  Ir8  1  0.000000  0.000000  0.000000  1
