# generated using pymatgen
data_Ho3Co8As6Ru
_symmetry_space_group_name_H-M   'P 1'
_cell_length_a   3.80841000
_cell_length_b   10.90410200
_cell_length_c   12.71116100
_cell_angle_alpha   90.00000000
_cell_angle_beta   90.00000000
_cell_angle_gamma   90.00000000
_symmetry_Int_Tables_number   1
_chemical_formula_structural   Ho3Co8As6Ru
_chemical_formula_sum   'Ho6 Co16 As12 Ru2'
_cell_volume   527.86008304
_cell_formula_units_Z   2
loop_
 _symmetry_equiv_pos_site_id
 _symmetry_equiv_pos_as_xyz
  1  'x, y, z'
loop_
 _atom_site_type_symbol
 _atom_site_label
 _atom_site_symmetry_multiplicity
 _atom_site_fract_x
 _atom_site_fract_y
 _atom_site_fract_z
 _atom_site_occupancy
  Ho  Ho0  1  0.000000  0.500000  0.525486  1
  Ho  Ho1  1  0.500000  0.000000  0.474514  1
  Ho  Ho2  1  0.500000  0.817225  0.207283  1
  Ho  Ho3  1  0.500000  0.182775  0.207283  1
  Ho  Ho4  1  0.000000  0.682775  0.792717  1
  Ho  Ho5  1  0.000000  0.317225  0.792717  1
  Co  Co6  1  0.500000  0.500000  0.702752  1
  Co  Co7  1  0.000000  0.000000  0.297248  1
  Co  Co8  1  0.000000  0.500000  0.985844  1
  Co  Co9  1  0.500000  0.000000  0.014156  1
  Co  Co10  1  0.500000  0.332803  0.992238  1
  Co  Co11  1  0.500000  0.667197  0.992238  1
  Co  Co12  1  0.000000  0.167197  0.007762  1
  Co  Co13  1  0.000000  0.832803  0.007762  1
  Co  Co14  1  0.500000  0.298164  0.430950  1
  Co  Co15  1  0.500000  0.701836  0.430950  1
  Co  Co16  1  0.000000  0.201836  0.569050  1
  Co  Co17  1  0.000000  0.798164  0.569050  1
  Co  Co18  1  0.500000  0.879886  0.707569  1
  Co  Co19  1  0.500000  0.120114  0.707569  1
  Co  Co20  1  0.000000  0.620114  0.292431  1
  Co  Co21  1  0.000000  0.379886  0.292431  1
  As  As22  1  0.500000  0.500000  0.880051  1
  As  As23  1  0.000000  0.000000  0.119949  1
  As  As24  1  0.500000  0.500000  0.351297  1
  As  As25  1  0.000000  0.000000  0.648703  1
  As  As26  1  0.500000  0.313241  0.616408  1
  As  As27  1  0.500000  0.686759  0.616408  1
  As  As28  1  0.000000  0.186759  0.383592  1
  As  As29  1  0.000000  0.813241  0.383592  1
  As  As30  1  0.500000  0.845780  0.891062  1
  As  As31  1  0.500000  0.154220  0.891062  1
  As  As32  1  0.000000  0.654220  0.108938  1
  As  As33  1  0.000000  0.345780  0.108938  1
  Ru  Ru34  1  0.500000  0.500000  0.156350  1
  Ru  Ru35  1  0.000000  0.000000  0.843650  1
