# generated using pymatgen
data_LaYEr8(Si3Pt)2
_symmetry_space_group_name_H-M   'P 1'
_cell_length_a   7.26712700
_cell_length_b   7.89187522
_cell_length_c   14.55007550
_cell_angle_alpha   89.94298592
_cell_angle_beta   90.00000000
_cell_angle_gamma   90.00000000
_symmetry_Int_Tables_number   1
_chemical_formula_structural   LaYEr8(Si3Pt)2
_chemical_formula_sum   'La2 Y2 Er16 Si12 Pt4'
_cell_volume   834.46474270
_cell_formula_units_Z   2
loop_
 _symmetry_equiv_pos_site_id
 _symmetry_equiv_pos_as_xyz
  1  'x, y, z'
loop_
 _atom_site_type_symbol
 _atom_site_label
 _atom_site_symmetry_multiplicity
 _atom_site_fract_x
 _atom_site_fract_y
 _atom_site_fract_z
 _atom_site_occupancy
  La  La0  1  0.511101  0.574842  0.337277  1
  La  La1  1  0.011101  0.425158  0.662723  1
  Y  Y2  1  0.514374  0.568074  0.659529  1
  Y  Y3  1  0.014374  0.431926  0.340471  1
  Er  Er4  1  0.813535  0.578161  0.877977  1
  Er  Er5  1  0.313535  0.421839  0.122023  1
  Er  Er6  1  0.183792  0.925896  0.376077  1
  Er  Er7  1  0.683792  0.074104  0.623923  1
  Er  Er8  1  0.184350  0.924424  0.625118  1
  Er  Er9  1  0.684350  0.075576  0.374882  1
  Er  Er10  1  0.816547  0.575793  0.122369  1
  Er  Er11  1  0.316547  0.424207  0.877631  1
  Er  Er12  1  0.664030  0.233654  0.999712  1
  Er  Er13  1  0.164030  0.766346  0.000288  1
  Er  Er14  1  0.338206  0.266070  0.499299  1
  Er  Er15  1  0.838206  0.733930  0.500701  1
  Er  Er16  1  0.485595  0.933383  0.843994  1
  Er  Er17  1  0.985595  0.066617  0.156006  1
  Er  Er18  1  0.482457  0.937013  0.153680  1
  Er  Er19  1  0.982457  0.062987  0.846320  1
  Si  Si20  1  0.651944  0.274150  0.791744  1
  Si  Si21  1  0.151944  0.725850  0.208256  1
  Si  Si22  1  0.346618  0.215643  0.285816  1
  Si  Si23  1  0.846618  0.784357  0.714184  1
  Si  Si24  1  0.355745  0.218151  0.713152  1
  Si  Si25  1  0.855745  0.781849  0.286848  1
  Si  Si26  1  0.652717  0.272719  0.207891  1
  Si  Si27  1  0.152717  0.727281  0.792109  1
  Si  Si28  1  0.770449  0.882515  0.000222  1
  Si  Si29  1  0.270449  0.117485  0.999778  1
  Si  Si30  1  0.228386  0.620684  0.502546  1
  Si  Si31  1  0.728386  0.379316  0.497454  1
  Pt  Pt32  1  0.519396  0.653304  0.001226  1
  Pt  Pt33  1  0.019396  0.346696  0.998774  1
  Pt  Pt34  1  0.480758  0.849660  0.502055  1
  Pt  Pt35  1  0.980758  0.150340  0.497945  1
