# generated using pymatgen
data_Sm2Er4MgCo17P12
_symmetry_space_group_name_H-M   'P 1'
_cell_length_a   3.72822200
_cell_length_b   10.59903200
_cell_length_c   12.26631500
_cell_angle_alpha   90.00000000
_cell_angle_beta   90.00000000
_cell_angle_gamma   90.00000000
_symmetry_Int_Tables_number   1
_chemical_formula_structural   Sm2Er4MgCo17P12
_chemical_formula_sum   'Sm2 Er4 Mg1 Co17 P12'
_cell_volume   484.71011355
_cell_formula_units_Z   1
loop_
 _symmetry_equiv_pos_site_id
 _symmetry_equiv_pos_as_xyz
  1  'x, y, z'
loop_
 _atom_site_type_symbol
 _atom_site_label
 _atom_site_symmetry_multiplicity
 _atom_site_fract_x
 _atom_site_fract_y
 _atom_site_fract_z
 _atom_site_occupancy
  Sm  Sm0  1  0.750000  0.250000  0.474697  1
  Sm  Sm1  1  0.250000  0.750000  0.522317  1
  Er  Er2  1  0.250000  0.927895  0.793269  1
  Er  Er3  1  0.250000  0.572105  0.793269  1
  Er  Er4  1  0.750000  0.067356  0.204735  1
  Er  Er5  1  0.750000  0.432644  0.204735  1
  Mg  Mg6  1  0.250000  0.250000  0.848391  1
  Co  Co7  1  0.750000  0.750000  0.160081  1
  Co  Co8  1  0.250000  0.250000  0.292673  1
  Co  Co9  1  0.750000  0.750000  0.706492  1
  Co  Co10  1  0.750000  0.250000  0.013598  1
  Co  Co11  1  0.250000  0.750000  0.988330  1
  Co  Co12  1  0.250000  0.421093  0.006902  1
  Co  Co13  1  0.250000  0.078907  0.006902  1
  Co  Co14  1  0.750000  0.586749  0.998368  1
  Co  Co15  1  0.750000  0.913251  0.998368  1
  Co  Co16  1  0.250000  0.454583  0.567989  1
  Co  Co17  1  0.250000  0.045417  0.567989  1
  Co  Co18  1  0.750000  0.547066  0.428445  1
  Co  Co19  1  0.750000  0.952934  0.428445  1
  Co  Co20  1  0.250000  0.870069  0.289558  1
  Co  Co21  1  0.250000  0.629931  0.289558  1
  Co  Co22  1  0.750000  0.126848  0.708902  1
  Co  Co23  1  0.750000  0.373152  0.708902  1
  P  P24  1  0.250000  0.250000  0.115695  1
  P  P25  1  0.750000  0.750000  0.884388  1
  P  P26  1  0.250000  0.250000  0.648875  1
  P  P27  1  0.750000  0.750000  0.342390  1
  P  P28  1  0.250000  0.441987  0.381269  1
  P  P29  1  0.250000  0.058013  0.381269  1
  P  P30  1  0.750000  0.558916  0.615530  1
  P  P31  1  0.750000  0.941084  0.615530  1
  P  P32  1  0.250000  0.901119  0.109552  1
  P  P33  1  0.250000  0.598881  0.109552  1
  P  P34  1  0.750000  0.086344  0.896520  1
  P  P35  1  0.750000  0.413656  0.896520  1
