# generated using pymatgen
data_Li3Y4AlIrPt3
_symmetry_space_group_name_H-M   'P 1'
_cell_length_a   4.04564200
_cell_length_b   7.03185255
_cell_length_c   8.36216816
_cell_angle_alpha   90.36917663
_cell_angle_beta   90.00000000
_cell_angle_gamma   90.00000000
_symmetry_Int_Tables_number   1
_chemical_formula_structural   Li3Y4AlIrPt3
_chemical_formula_sum   'Li3 Y4 Al1 Ir1 Pt3'
_cell_volume   237.88501530
_cell_formula_units_Z   1
loop_
 _symmetry_equiv_pos_site_id
 _symmetry_equiv_pos_as_xyz
  1  'x, y, z'
loop_
 _atom_site_type_symbol
 _atom_site_label
 _atom_site_symmetry_multiplicity
 _atom_site_fract_x
 _atom_site_fract_y
 _atom_site_fract_z
 _atom_site_occupancy
  Li  Li0  1  0.250000  0.133627  0.060664  1
  Li  Li1  1  0.250000  0.632278  0.438339  1
  Li  Li2  1  0.750000  0.873102  0.939593  1
  Y  Y3  1  0.250000  0.041671  0.679868  1
  Y  Y4  1  0.250000  0.541660  0.816963  1
  Y  Y5  1  0.750000  0.964217  0.318089  1
  Y  Y6  1  0.750000  0.454447  0.188176  1
  Al  Al7  1  0.750000  0.366442  0.556443  1
  Ir  Ir8  1  0.250000  0.254405  0.394577  1
  Pt  Pt9  1  0.250000  0.747714  0.121046  1
  Pt  Pt10  1  0.750000  0.736917  0.617238  1
  Pt  Pt11  1  0.750000  0.253519  0.869002  1
