# generated using pymatgen
data_La3Nd(ThSe3)4
_symmetry_space_group_name_H-M   'P 1'
_cell_length_a   11.49899800
_cell_length_b   4.16541100
_cell_length_c   11.28717726
_cell_angle_alpha   90.00000000
_cell_angle_beta   89.97194942
_cell_angle_gamma   90.00000000
_symmetry_Int_Tables_number   1
_chemical_formula_structural   La3Nd(ThSe3)4
_chemical_formula_sum   'La3 Nd1 Th4 Se12'
_cell_volume   540.63374721
_cell_formula_units_Z   1
loop_
 _symmetry_equiv_pos_site_id
 _symmetry_equiv_pos_as_xyz
  1  'x, y, z'
loop_
 _atom_site_type_symbol
 _atom_site_label
 _atom_site_symmetry_multiplicity
 _atom_site_fract_x
 _atom_site_fract_y
 _atom_site_fract_z
 _atom_site_occupancy
  La  La0  1  0.983608  0.250000  0.313969  1
  La  La1  1  0.306777  0.250000  0.508569  1
  La  La2  1  0.803694  0.250000  0.992535  1
  Nd  Nd3  1  0.482929  0.250000  0.185809  1
  Th  Th4  1  0.516946  0.750000  0.814478  1
  Th  Th5  1  0.016424  0.750000  0.685562  1
  Th  Th6  1  0.690929  0.750000  0.495886  1
  Th  Th7  1  0.191685  0.750000  0.002546  1
  Se  Se8  1  0.553430  0.250000  0.627957  1
  Se  Se9  1  0.052662  0.250000  0.871753  1
  Se  Se10  1  0.454541  0.750000  0.376136  1
  Se  Se11  1  0.953937  0.750000  0.120667  1
  Se  Se12  1  0.619588  0.750000  0.054044  1
  Se  Se13  1  0.122631  0.750000  0.447640  1
  Se  Se14  1  0.378194  0.250000  0.943569  1
  Se  Se15  1  0.876687  0.250000  0.558234  1
  Se  Se16  1  0.721411  0.250000  0.302617  1
  Se  Se17  1  0.223631  0.250000  0.196233  1
  Se  Se18  1  0.275199  0.750000  0.711870  1
  Se  Se19  1  0.775098  0.750000  0.789924  1
