# generated using pymatgen
data_NaTb4P12Ru9Rh10
_symmetry_space_group_name_H-M   'P 1'
_cell_length_a   3.94913500
_cell_length_b   12.62606541
_cell_length_c   12.57717307
_cell_angle_alpha   119.87241453
_cell_angle_beta   90.00000000
_cell_angle_gamma   90.00000000
_symmetry_Int_Tables_number   1
_chemical_formula_structural   NaTb4P12Ru9Rh10
_chemical_formula_sum   'Na1 Tb4 P12 Ru9 Rh10'
_cell_volume   543.80174165
_cell_formula_units_Z   1
loop_
 _symmetry_equiv_pos_site_id
 _symmetry_equiv_pos_as_xyz
  1  'x, y, z'
loop_
 _atom_site_type_symbol
 _atom_site_label
 _atom_site_symmetry_multiplicity
 _atom_site_fract_x
 _atom_site_fract_y
 _atom_site_fract_z
 _atom_site_occupancy
  Na  Na0  1  0.500000  0.999994  0.185568  1
  Tb  Tb1  1  0.500000  0.183059  0.000892  1
  Tb  Tb2  1  0.500000  0.816930  0.817825  1
  Tb  Tb3  1  0.000000  0.334418  0.667566  1
  Tb  Tb4  1  0.000000  0.665567  0.333132  1
  P  P5  1  0.000000  0.999994  0.818314  1
  P  P6  1  0.000000  0.816272  0.999692  1
  P  P7  1  0.000000  0.183733  0.183421  1
  P  P8  1  0.500000  0.308845  0.481032  1
  P  P9  1  0.500000  0.171317  0.688555  1
  P  P10  1  0.500000  0.517818  0.829902  1
  P  P11  1  0.500000  0.828659  0.517213  1
  P  P12  1  0.500000  0.482166  0.312075  1
  P  P13  1  0.500000  0.691142  0.172164  1
  P  P14  1  0.000000  0.999993  0.370617  1
  P  P15  1  0.000000  0.369641  0.999742  1
  P  P16  1  0.000000  0.630379  0.630122  1
  Ru  Ru17  1  0.500000  0.000007  0.714409  1
  Ru  Ru18  1  0.500000  0.714120  0.998157  1
  Ru  Ru19  1  0.500000  0.285898  0.284049  1
  Ru  Ru20  1  0.500000  0.125295  0.487579  1
  Ru  Ru21  1  0.500000  0.359996  0.873126  1
  Ru  Ru22  1  0.500000  0.510254  0.636584  1
  Ru  Ru23  1  0.500000  0.640024  0.513152  1
  Ru  Ru24  1  0.500000  0.489740  0.126324  1
  Ru  Ru25  1  0.500000  0.874693  0.362284  1
  Rh  Rh26  1  0.000000  0.999998  0.552005  1
  Rh  Rh27  1  0.000000  0.546931  0.993913  1
  Rh  Rh28  1  0.000000  0.453066  0.446973  1
  Rh  Rh29  1  0.000000  0.194899  0.378404  1
  Rh  Rh30  1  0.000000  0.182018  0.807982  1
  Rh  Rh31  1  0.000000  0.624466  0.815940  1
  Rh  Rh32  1  0.000000  0.817972  0.625948  1
  Rh  Rh33  1  0.000000  0.375524  0.191478  1
  Rh  Rh34  1  0.000000  0.805089  0.183506  1
  Rh  Rh35  1  0.000000  0.999983  0.000354  1
