# generated using pymatgen
data_Tm7LuTc3B24Os
_symmetry_space_group_name_H-M   'P 1'
_cell_length_a   3.63096700
_cell_length_b   9.08070340
_cell_length_c   11.44979202
_cell_angle_alpha   89.95367188
_cell_angle_beta   90.00000000
_cell_angle_gamma   90.00000000
_symmetry_Int_Tables_number   1
_chemical_formula_structural   Tm7LuTc3B24Os
_chemical_formula_sum   'Tm7 Lu1 Tc3 B24 Os1'
_cell_volume   377.51937760
_cell_formula_units_Z   1
loop_
 _symmetry_equiv_pos_site_id
 _symmetry_equiv_pos_as_xyz
  1  'x, y, z'
loop_
 _atom_site_type_symbol
 _atom_site_label
 _atom_site_symmetry_multiplicity
 _atom_site_fract_x
 _atom_site_fract_y
 _atom_site_fract_z
 _atom_site_occupancy
  Tm  Tm0  1  0.000000  0.323509  0.413752  1
  Tm  Tm1  1  0.000000  0.675513  0.584384  1
  Tm  Tm2  1  0.000000  0.822496  0.087403  1
  Tm  Tm3  1  0.000000  0.178391  0.914409  1
  Tm  Tm4  1  0.000000  0.942868  0.370371  1
  Tm  Tm5  1  0.000000  0.057885  0.629665  1
  Tm  Tm6  1  0.000000  0.443330  0.129661  1
  Lu  Lu7  1  0.000000  0.556688  0.869821  1
  Tc  Tc8  1  0.000000  0.638643  0.320457  1
  Tc  Tc9  1  0.000000  0.361675  0.680384  1
  Tc  Tc10  1  0.000000  0.138213  0.178336  1
  B  B11  1  0.500000  0.553027  0.433362  1
  B  B12  1  0.500000  0.446899  0.566609  1
  B  B13  1  0.500000  0.052938  0.066378  1
  B  B14  1  0.500000  0.946195  0.933244  1
  B  B15  1  0.500000  0.749442  0.419452  1
  B  B16  1  0.500000  0.250357  0.580640  1
  B  B17  1  0.500000  0.250037  0.080551  1
  B  B18  1  0.500000  0.750103  0.919076  1
  B  B19  1  0.500000  0.792531  0.265289  1
  B  B20  1  0.500000  0.207709  0.735398  1
  B  B21  1  0.500000  0.292469  0.234946  1
  B  B22  1  0.500000  0.707904  0.765104  1
  B  B23  1  0.500000  0.631062  0.184937  1
  B  B24  1  0.500000  0.369225  0.815832  1
  B  B25  1  0.500000  0.130619  0.314746  1
  B  B26  1  0.500000  0.868843  0.685052  1
  B  B27  1  0.500000  0.981202  0.211874  1
  B  B28  1  0.500000  0.017545  0.788053  1
  B  B29  1  0.500000  0.481434  0.287940  1
  B  B30  1  0.500000  0.518606  0.712277  1
  B  B31  1  0.500000  0.601516  0.027561  1
  B  B32  1  0.500000  0.400010  0.971648  1
  B  B33  1  0.500000  0.101306  0.471906  1
  B  B34  1  0.500000  0.898768  0.528478  1
  Os  Os35  1  0.000000  0.861041  0.821000  1
