# generated using pymatgen
data_TmLu(ScSb)3
_symmetry_space_group_name_H-M   'P 1'
_cell_length_a   7.72717700
_cell_length_b   8.90388600
_cell_length_c   11.47997500
_cell_angle_alpha   90.00000000
_cell_angle_beta   90.00000000
_cell_angle_gamma   90.00000000
_symmetry_Int_Tables_number   1
_chemical_formula_structural   TmLu(ScSb)3
_chemical_formula_sum   'Tm4 Lu4 Sc12 Sb12'
_cell_volume   789.84412765
_cell_formula_units_Z   4
loop_
 _symmetry_equiv_pos_site_id
 _symmetry_equiv_pos_as_xyz
  1  'x, y, z'
loop_
 _atom_site_type_symbol
 _atom_site_label
 _atom_site_symmetry_multiplicity
 _atom_site_fract_x
 _atom_site_fract_y
 _atom_site_fract_z
 _atom_site_occupancy
  Tm  Tm0  1  0.184479  0.750000  0.721173  1
  Tm  Tm1  1  0.684479  0.750000  0.778827  1
  Tm  Tm2  1  0.815521  0.250000  0.278827  1
  Tm  Tm3  1  0.315521  0.250000  0.221173  1
  Lu  Lu4  1  0.852067  0.750000  0.282993  1
  Lu  Lu5  1  0.352067  0.750000  0.217007  1
  Lu  Lu6  1  0.147933  0.250000  0.717007  1
  Lu  Lu7  1  0.647933  0.250000  0.782993  1
  Sc  Sc8  1  0.193949  0.562258  0.440138  1
  Sc  Sc9  1  0.693949  0.937742  0.059862  1
  Sc  Sc10  1  0.806051  0.062258  0.559862  1
  Sc  Sc11  1  0.306051  0.437742  0.940138  1
  Sc  Sc12  1  0.806051  0.437742  0.559862  1
  Sc  Sc13  1  0.306051  0.062258  0.940138  1
  Sc  Sc14  1  0.193949  0.937742  0.440138  1
  Sc  Sc15  1  0.693949  0.562258  0.059862  1
  Sc  Sc16  1  0.024373  0.750000  0.990398  1
  Sc  Sc17  1  0.524373  0.750000  0.509602  1
  Sc  Sc18  1  0.975627  0.250000  0.009602  1
  Sc  Sc19  1  0.475627  0.250000  0.490398  1
  Sb  Sb20  1  0.935301  0.495539  0.831736  1
  Sb  Sb21  1  0.435301  0.004461  0.668264  1
  Sb  Sb22  1  0.064699  0.995539  0.168264  1
  Sb  Sb23  1  0.564699  0.504461  0.331736  1
  Sb  Sb24  1  0.064699  0.504461  0.168264  1
  Sb  Sb25  1  0.564699  0.995539  0.331736  1
  Sb  Sb26  1  0.935301  0.004461  0.831736  1
  Sb  Sb27  1  0.435301  0.495539  0.668264  1
  Sb  Sb28  1  0.909073  0.750000  0.537975  1
  Sb  Sb29  1  0.409073  0.750000  0.962025  1
  Sb  Sb30  1  0.090927  0.250000  0.462025  1
  Sb  Sb31  1  0.590927  0.250000  0.037975  1
