# generated using pymatgen
data_Dy3(ErC2)5
_symmetry_space_group_name_H-M   'P 1'
_cell_length_a   3.65291000
_cell_length_b   6.53848566
_cell_length_c   11.84509873
_cell_angle_alpha   88.99936474
_cell_angle_beta   90.00000000
_cell_angle_gamma   90.00000000
_symmetry_Int_Tables_number   1
_chemical_formula_structural   Dy3(ErC2)5
_chemical_formula_sum   'Dy3 Er5 C10'
_cell_volume   282.87111244
_cell_formula_units_Z   1
loop_
 _symmetry_equiv_pos_site_id
 _symmetry_equiv_pos_as_xyz
  1  'x, y, z'
loop_
 _atom_site_type_symbol
 _atom_site_label
 _atom_site_symmetry_multiplicity
 _atom_site_fract_x
 _atom_site_fract_y
 _atom_site_fract_z
 _atom_site_occupancy
  Dy  Dy0  1  0.500000  0.609817  0.695918  1
  Dy  Dy1  1  0.500000  0.105374  0.802483  1
  Dy  Dy2  1  0.500000  0.895095  0.198202  1
  Er  Er3  1  0.500000  0.390364  0.304178  1
  Er  Er4  1  0.000000  0.242781  0.042411  1
  Er  Er5  1  0.000000  0.755724  0.957968  1
  Er  Er6  1  0.000000  0.258208  0.542475  1
  Er  Er7  1  0.000000  0.743438  0.456221  1
  C  C8  1  0.500000  0.998345  0.000598  1
  C  C9  1  0.500000  0.501180  0.498734  1
  C  C10  1  0.000000  0.138411  0.235057  1
  C  C11  1  0.000000  0.862721  0.765248  1
  C  C12  1  0.000000  0.358158  0.736842  1
  C  C13  1  0.000000  0.640861  0.262508  1
  C  C14  1  0.000000  0.111433  0.347489  1
  C  C15  1  0.000000  0.894728  0.653269  1
  C  C16  1  0.000000  0.417077  0.843995  1
  C  C17  1  0.000000  0.576286  0.156403  1
