# generated using pymatgen
data_CaLaPd2Pb
_symmetry_space_group_name_H-M   'P 1'
_cell_length_a   8.07408200
_cell_length_b   8.01632500
_cell_length_c   3.82995600
_cell_angle_alpha   90.00000000
_cell_angle_beta   90.00000000
_cell_angle_gamma   90.00000000
_symmetry_Int_Tables_number   1
_chemical_formula_structural   CaLaPd2Pb
_chemical_formula_sum   'Ca2 La2 Pd4 Pb2'
_cell_volume   247.89185456
_cell_formula_units_Z   2
loop_
 _symmetry_equiv_pos_site_id
 _symmetry_equiv_pos_as_xyz
  1  'x, y, z'
loop_
 _atom_site_type_symbol
 _atom_site_label
 _atom_site_symmetry_multiplicity
 _atom_site_fract_x
 _atom_site_fract_y
 _atom_site_fract_z
 _atom_site_occupancy
  Ca  Ca0  1  0.673146  0.173732  0.500000  1
  Ca  Ca1  1  0.173146  0.326268  0.500000  1
  La  La2  1  0.824396  0.673712  0.500000  1
  La  La3  1  0.324396  0.826288  0.500000  1
  Pd  Pd4  1  0.376551  0.116731  0.000000  1
  Pd  Pd5  1  0.125954  0.629047  0.000000  1
  Pd  Pd6  1  0.625954  0.870953  0.000000  1
  Pd  Pd7  1  0.876551  0.383269  0.000000  1
  Pb  Pb8  1  0.999953  0.011766  0.000000  1
  Pb  Pb9  1  0.499953  0.488234  0.000000  1
