# generated using pymatgen
data_Pr3Dy5(CdRu)2
_symmetry_space_group_name_H-M   'P 1'
_cell_length_a   9.75512296
_cell_length_b   9.75512347
_cell_length_c   9.75512300
_cell_angle_alpha   59.99999819
_cell_angle_beta   59.99999647
_cell_angle_gamma   60.00000133
_symmetry_Int_Tables_number   1
_chemical_formula_structural   Pr3Dy5(CdRu)2
_chemical_formula_sum   'Pr6 Dy10 Cd4 Ru4'
_cell_volume   656.42219511
_cell_formula_units_Z   2
loop_
 _symmetry_equiv_pos_site_id
 _symmetry_equiv_pos_as_xyz
  1  'x, y, z'
loop_
 _atom_site_type_symbol
 _atom_site_label
 _atom_site_symmetry_multiplicity
 _atom_site_fract_x
 _atom_site_fract_y
 _atom_site_fract_z
 _atom_site_occupancy
  Pr  Pr0  1  0.941302  0.558698  0.558698  1
  Pr  Pr1  1  0.558698  0.941302  0.941302  1
  Pr  Pr2  1  0.558698  0.941302  0.558698  1
  Pr  Pr3  1  0.941302  0.558698  0.941302  1
  Pr  Pr4  1  0.558698  0.558698  0.941302  1
  Pr  Pr5  1  0.941302  0.941302  0.558698  1
  Dy  Dy6  1  0.344500  0.344500  0.344500  1
  Dy  Dy7  1  0.344500  0.344500  0.966499  1
  Dy  Dy8  1  0.344500  0.966499  0.344500  1
  Dy  Dy9  1  0.966499  0.344500  0.344500  1
  Dy  Dy10  1  0.813391  0.186609  0.186609  1
  Dy  Dy11  1  0.186609  0.813391  0.813391  1
  Dy  Dy12  1  0.186609  0.813391  0.186609  1
  Dy  Dy13  1  0.813391  0.186609  0.813391  1
  Dy  Dy14  1  0.186609  0.186609  0.813391  1
  Dy  Dy15  1  0.813391  0.813391  0.186609  1
  Cd  Cd16  1  0.578625  0.578625  0.578625  1
  Cd  Cd17  1  0.578625  0.578625  0.264124  1
  Cd  Cd18  1  0.578625  0.264124  0.578625  1
  Cd  Cd19  1  0.264124  0.578625  0.578625  1
  Ru  Ru20  1  0.139095  0.139095  0.139095  1
  Ru  Ru21  1  0.139095  0.139095  0.582714  1
  Ru  Ru22  1  0.139095  0.582714  0.139095  1
  Ru  Ru23  1  0.582714  0.139095  0.139095  1
