# generated using pymatgen
data_Pr4ZrAl19Pt12
_symmetry_space_group_name_H-M   'P 1'
_cell_length_a   4.18967900
_cell_length_b   7.45042307
_cell_length_c   20.75582909
_cell_angle_alpha   89.59179921
_cell_angle_beta   90.00000000
_cell_angle_gamma   90.00000000
_symmetry_Int_Tables_number   1
_chemical_formula_structural   Pr4ZrAl19Pt12
_chemical_formula_sum   'Pr4 Zr1 Al19 Pt12'
_cell_volume   647.87429367
_cell_formula_units_Z   1
loop_
 _symmetry_equiv_pos_site_id
 _symmetry_equiv_pos_as_xyz
  1  'x, y, z'
loop_
 _atom_site_type_symbol
 _atom_site_label
 _atom_site_symmetry_multiplicity
 _atom_site_fract_x
 _atom_site_fract_y
 _atom_site_fract_z
 _atom_site_occupancy
  Pr  Pr0  1  0.250000  0.117185  0.641639  1
  Pr  Pr1  1  0.750000  0.878647  0.357706  1
  Pr  Pr2  1  0.250000  0.384051  0.137745  1
  Pr  Pr3  1  0.750000  0.618205  0.860158  1
  Zr  Zr4  1  0.750000  0.366013  0.384316  1
  Al  Al5  1  0.750000  0.886704  0.982476  1
  Al  Al6  1  0.750000  0.685081  0.199345  1
  Al  Al7  1  0.250000  0.871205  0.496850  1
  Al  Al8  1  0.250000  0.631332  0.991074  1
  Al  Al9  1  0.250000  0.311577  0.799254  1
  Al  Al10  1  0.750000  0.071454  0.207396  1
  Al  Al11  1  0.250000  0.640015  0.617354  1
  Al  Al12  1  0.250000  0.570610  0.291496  1
  Al  Al13  1  0.250000  0.181718  0.295984  1
  Al  Al14  1  0.750000  0.147153  0.884242  1
  Al  Al15  1  0.250000  0.923414  0.791837  1
  Al  Al16  1  0.750000  0.369246  0.007622  1
  Al  Al17  1  0.750000  0.628505  0.487036  1
  Al  Al18  1  0.750000  0.128277  0.510219  1
  Al  Al19  1  0.250000  0.114221  0.016833  1
  Al  Al20  1  0.250000  0.851788  0.114838  1
  Al  Al21  1  0.250000  0.386847  0.513870  1
  Al  Al22  1  0.750000  0.424361  0.708078  1
  Al  Al23  1  0.750000  0.812589  0.703693  1
  Pt  Pt24  1  0.750000  0.378791  0.256669  1
  Pt  Pt25  1  0.250000  0.878137  0.235874  1
  Pt  Pt26  1  0.250000  0.615719  0.737847  1
  Pt  Pt27  1  0.750000  0.117877  0.764222  1
  Pt  Pt28  1  0.250000  0.151107  0.428374  1
  Pt  Pt29  1  0.750000  0.418886  0.582981  1
  Pt  Pt30  1  0.750000  0.077385  0.083521  1
  Pt  Pt31  1  0.250000  0.923240  0.916195  1
  Pt  Pt32  1  0.750000  0.839067  0.577621  1
  Pt  Pt33  1  0.250000  0.337337  0.927864  1
  Pt  Pt34  1  0.750000  0.662885  0.071012  1
  Pt  Pt35  1  0.250000  0.599368  0.416759  1
