# generated using pymatgen
data_K6ErAlSb4
_symmetry_space_group_name_H-M   'P 1'
_cell_length_a   9.73678728
_cell_length_b   9.73678724
_cell_length_c   9.73678706
_cell_angle_alpha   128.08693819
_cell_angle_beta   69.63617706
_cell_angle_gamma   136.98068323
_symmetry_Int_Tables_number   1
_chemical_formula_structural   K6ErAlSb4
_chemical_formula_sum   'K6 Er1 Al1 Sb4'
_cell_volume   486.47527768
_cell_formula_units_Z   1
loop_
 _symmetry_equiv_pos_site_id
 _symmetry_equiv_pos_as_xyz
  1  'x, y, z'
loop_
 _atom_site_type_symbol
 _atom_site_label
 _atom_site_symmetry_multiplicity
 _atom_site_fract_x
 _atom_site_fract_y
 _atom_site_fract_z
 _atom_site_occupancy
  K  K0  1  0.807643  0.183051  0.005117  1
  K  K1  1  0.692358  0.697475  0.375407  1
  K  K2  1  0.750000  0.250000  0.500000  1
  K  K3  1  0.250000  0.750000  0.499999  1
  K  K4  1  0.322066  0.316950  0.624592  1
  K  K5  1  0.177934  0.802526  0.994883  1
  Er  Er6  1  0.250000  0.250000  0.000000  1
  Al  Al7  1  0.750000  0.750000  0.000000  1
  Sb  Sb8  1  0.418220  0.711521  0.092898  1
  Sb  Sb9  1  0.081779  0.174678  0.293300  1
  Sb  Sb10  1  0.881377  0.788478  0.706701  1
  Sb  Sb11  1  0.618622  0.325322  0.907101  1
