# generated using pymatgen
data_Y13HoEr2(CdPd)4
_symmetry_space_group_name_H-M   'P 1'
_cell_length_a   9.71721610
_cell_length_b   9.71929658
_cell_length_c   9.72298800
_cell_angle_alpha   59.98743540
_cell_angle_beta   59.98034912
_cell_angle_gamma   59.95909265
_symmetry_Int_Tables_number   1
_chemical_formula_structural   Y13HoEr2(CdPd)4
_chemical_formula_sum   'Y13 Ho1 Er2 Cd4 Pd4'
_cell_volume   648.96501399
_cell_formula_units_Z   1
loop_
 _symmetry_equiv_pos_site_id
 _symmetry_equiv_pos_as_xyz
  1  'x, y, z'
loop_
 _atom_site_type_symbol
 _atom_site_label
 _atom_site_symmetry_multiplicity
 _atom_site_fract_x
 _atom_site_fract_y
 _atom_site_fract_z
 _atom_site_occupancy
  Y  Y0  1  0.935432  0.355771  0.354399  1
  Y  Y1  1  0.810525  0.189369  0.189557  1
  Y  Y2  1  0.189461  0.810552  0.810337  1
  Y  Y3  1  0.189461  0.810552  0.189650  1
  Y  Y4  1  0.810525  0.189369  0.810549  1
  Y  Y5  1  0.190311  0.190310  0.809690  1
  Y  Y6  1  0.811404  0.811661  0.188468  1
  Y  Y7  1  0.934448  0.565268  0.566120  1
  Y  Y8  1  0.565099  0.934424  0.934470  1
  Y  Y9  1  0.565099  0.934424  0.566007  1
  Y  Y10  1  0.934448  0.565268  0.934163  1
  Y  Y11  1  0.565423  0.565476  0.934551  1
  Y  Y12  1  0.934398  0.934095  0.565754  1
  Ho  Ho13  1  0.355385  0.936748  0.353933  1
  Er  Er14  1  0.353345  0.353337  0.352646  1
  Er  Er15  1  0.353345  0.353337  0.940673  1
  Cd  Cd16  1  0.581868  0.582097  0.583155  1
  Cd  Cd17  1  0.581868  0.582097  0.252881  1
  Cd  Cd18  1  0.581604  0.252994  0.582701  1
  Cd  Cd19  1  0.253003  0.581747  0.582625  1
  Pd  Pd20  1  0.146713  0.145455  0.144061  1
  Pd  Pd21  1  0.146713  0.145455  0.563769  1
  Pd  Pd22  1  0.147388  0.563457  0.144578  1
  Pd  Pd23  1  0.562735  0.146738  0.145264  1
