# generated using pymatgen
data_Y4VTcOs6
_symmetry_space_group_name_H-M   'P 1'
_cell_length_a   5.23124066
_cell_length_b   5.23124103
_cell_length_c   8.94643900
_cell_angle_alpha   90.00000000
_cell_angle_beta   90.00000000
_cell_angle_gamma   116.92855186
_symmetry_Int_Tables_number   1
_chemical_formula_structural   Y4VTcOs6
_chemical_formula_sum   'Y4 V1 Tc1 Os6'
_cell_volume   218.28105147
_cell_formula_units_Z   1
loop_
 _symmetry_equiv_pos_site_id
 _symmetry_equiv_pos_as_xyz
  1  'x, y, z'
loop_
 _atom_site_type_symbol
 _atom_site_label
 _atom_site_symmetry_multiplicity
 _atom_site_fract_x
 _atom_site_fract_y
 _atom_site_fract_z
 _atom_site_occupancy
  Y  Y0  1  0.330375  0.669625  0.436436  1
  Y  Y1  1  0.668609  0.331391  0.564521  1
  Y  Y2  1  0.668609  0.331391  0.935479  1
  Y  Y3  1  0.330375  0.669625  0.063564  1
  V  V4  1  0.835597  0.164403  0.250000  1
  Tc  Tc5  1  0.170107  0.829893  0.750000  1
  Os  Os6  1  0.997234  0.002766  0.498911  1
  Os  Os7  1  0.997234  0.002766  0.001089  1
  Os  Os8  1  0.823418  0.650949  0.250000  1
  Os  Os9  1  0.349051  0.176582  0.250000  1
  Os  Os10  1  0.172841  0.343451  0.750000  1
  Os  Os11  1  0.656549  0.827159  0.750000  1
