# generated using pymatgen
data_LuZr3VRe7
_symmetry_space_group_name_H-M   'P 1'
_cell_length_a   5.33591500
_cell_length_b   5.33591768
_cell_length_c   8.62203000
_cell_angle_alpha   89.99997920
_cell_angle_beta   89.99999824
_cell_angle_gamma   120.00005918
_symmetry_Int_Tables_number   1
_chemical_formula_structural   LuZr3VRe7
_chemical_formula_sum   'Lu1 Zr3 V1 Re7'
_cell_volume   212.59738882
_cell_formula_units_Z   1
loop_
 _symmetry_equiv_pos_site_id
 _symmetry_equiv_pos_as_xyz
  1  'x, y, z'
loop_
 _atom_site_type_symbol
 _atom_site_label
 _atom_site_symmetry_multiplicity
 _atom_site_fract_x
 _atom_site_fract_y
 _atom_site_fract_z
 _atom_site_occupancy
  Lu  Lu0  1  0.666669  0.333331  0.940170  1
  Zr  Zr1  1  0.666669  0.333331  0.564838  1
  Zr  Zr2  1  0.333328  0.666669  0.435412  1
  Zr  Zr3  1  0.333330  0.666668  0.060100  1
  V  V4  1  0.000000  0.000003  0.498247  1
  Re  Re5  1  0.000000  0.000001  0.001285  1
  Re  Re6  1  0.169505  0.338978  0.745432  1
  Re  Re7  1  0.169509  0.830494  0.745432  1
  Re  Re8  1  0.661024  0.830495  0.745434  1
  Re  Re9  1  0.830189  0.660414  0.254551  1
  Re  Re10  1  0.830188  0.169807  0.254552  1
  Re  Re11  1  0.339588  0.169808  0.254549  1
