# generated using pymatgen
data_Lu8Re2B24MoIr
_symmetry_space_group_name_H-M   'P 1'
_cell_length_a   3.61067500
_cell_length_b   9.08091447
_cell_length_c   11.44176540
_cell_angle_alpha   90.11614874
_cell_angle_beta   90.00000000
_cell_angle_gamma   90.00000000
_symmetry_Int_Tables_number   1
_chemical_formula_structural   Lu8Re2B24MoIr
_chemical_formula_sum   'Lu8 Re2 B24 Mo1 Ir1'
_cell_volume   375.15447468
_cell_formula_units_Z   1
loop_
 _symmetry_equiv_pos_site_id
 _symmetry_equiv_pos_as_xyz
  1  'x, y, z'
loop_
 _atom_site_type_symbol
 _atom_site_label
 _atom_site_symmetry_multiplicity
 _atom_site_fract_x
 _atom_site_fract_y
 _atom_site_fract_z
 _atom_site_occupancy
  Lu  Lu0  1  0.000000  0.318980  0.408762  1
  Lu  Lu1  1  0.000000  0.683325  0.585935  1
  Lu  Lu2  1  0.000000  0.823532  0.086387  1
  Lu  Lu3  1  0.000000  0.173669  0.919135  1
  Lu  Lu4  1  0.000000  0.945862  0.371732  1
  Lu  Lu5  1  0.000000  0.056021  0.629196  1
  Lu  Lu6  1  0.000000  0.442347  0.127162  1
  Lu  Lu7  1  0.000000  0.558667  0.871930  1
  Re  Re8  1  0.000000  0.138454  0.178616  1
  Re  Re9  1  0.000000  0.861763  0.819681  1
  B  B10  1  0.500000  0.550808  0.436182  1
  B  B11  1  0.500000  0.445945  0.566249  1
  B  B12  1  0.500000  0.052551  0.066535  1
  B  B13  1  0.500000  0.946959  0.933915  1
  B  B14  1  0.500000  0.752684  0.421948  1
  B  B15  1  0.500000  0.250010  0.579332  1
  B  B16  1  0.500000  0.249110  0.080110  1
  B  B17  1  0.500000  0.749962  0.919505  1
  B  B18  1  0.500000  0.795087  0.264323  1
  B  B19  1  0.500000  0.207649  0.735604  1
  B  B20  1  0.500000  0.292218  0.233842  1
  B  B21  1  0.500000  0.707087  0.764338  1
  B  B22  1  0.500000  0.630582  0.183047  1
  B  B23  1  0.500000  0.368219  0.816853  1
  B  B24  1  0.500000  0.130937  0.314678  1
  B  B25  1  0.500000  0.869589  0.684161  1
  B  B26  1  0.500000  0.981560  0.212616  1
  B  B27  1  0.500000  0.018933  0.787923  1
  B  B28  1  0.500000  0.477111  0.287082  1
  B  B29  1  0.500000  0.518095  0.712459  1
  B  B30  1  0.500000  0.601821  0.027276  1
  B  B31  1  0.500000  0.397359  0.970580  1
  B  B32  1  0.500000  0.103991  0.472061  1
  B  B33  1  0.500000  0.900281  0.528887  1
  Mo  Mo34  1  0.000000  0.637454  0.322438  1
  Ir  Ir35  1  0.000000  0.361377  0.679518  1
