# generated using pymatgen
data_Ho8ReTc2B24Rh
_symmetry_space_group_name_H-M   'P 1'
_cell_length_a   3.67037200
_cell_length_b   9.14084511
_cell_length_c   11.51850426
_cell_angle_alpha   89.88478870
_cell_angle_beta   90.00000000
_cell_angle_gamma   90.00000000
_symmetry_Int_Tables_number   1
_chemical_formula_structural   Ho8ReTc2B24Rh
_chemical_formula_sum   'Ho8 Re1 Tc2 B24 Rh1'
_cell_volume   386.44851487
_cell_formula_units_Z   1
loop_
 _symmetry_equiv_pos_site_id
 _symmetry_equiv_pos_as_xyz
  1  'x, y, z'
loop_
 _atom_site_type_symbol
 _atom_site_label
 _atom_site_symmetry_multiplicity
 _atom_site_fract_x
 _atom_site_fract_y
 _atom_site_fract_z
 _atom_site_occupancy
  Ho  Ho0  1  0.000000  0.327297  0.418763  1
  Ho  Ho1  1  0.000000  0.677010  0.587062  1
  Ho  Ho2  1  0.000000  0.818660  0.084137  1
  Ho  Ho3  1  0.000000  0.178320  0.909014  1
  Ho  Ho4  1  0.000000  0.940378  0.370759  1
  Ho  Ho5  1  0.000000  0.057562  0.628375  1
  Ho  Ho6  1  0.000000  0.443638  0.130532  1
  Ho  Ho7  1  0.000000  0.555476  0.870528  1
  Re  Re8  1  0.000000  0.862806  0.822286  1
  Tc  Tc9  1  0.000000  0.638447  0.319951  1
  Tc  Tc10  1  0.000000  0.361588  0.679134  1
  B  B11  1  0.500000  0.553486  0.433440  1
  B  B12  1  0.500000  0.447050  0.567264  1
  B  B13  1  0.500000  0.054038  0.066332  1
  B  B14  1  0.500000  0.946700  0.933677  1
  B  B15  1  0.500000  0.748859  0.418778  1
  B  B16  1  0.500000  0.251860  0.581133  1
  B  B17  1  0.500000  0.249218  0.079894  1
  B  B18  1  0.500000  0.750308  0.919111  1
  B  B19  1  0.500000  0.791596  0.264586  1
  B  B20  1  0.500000  0.208336  0.734347  1
  B  B21  1  0.500000  0.291139  0.235313  1
  B  B22  1  0.500000  0.708337  0.765502  1
  B  B23  1  0.500000  0.630861  0.185062  1
  B  B24  1  0.500000  0.368350  0.814630  1
  B  B25  1  0.500000  0.131717  0.316059  1
  B  B26  1  0.500000  0.869361  0.685529  1
  B  B27  1  0.500000  0.983027  0.211997  1
  B  B28  1  0.500000  0.018495  0.787739  1
  B  B29  1  0.500000  0.482975  0.288290  1
  B  B30  1  0.500000  0.517261  0.712652  1
  B  B31  1  0.500000  0.601911  0.028880  1
  B  B32  1  0.500000  0.395133  0.971854  1
  B  B33  1  0.500000  0.103887  0.470567  1
  B  B34  1  0.500000  0.897124  0.527994  1
  Rh  Rh35  1  0.000000  0.137790  0.178832  1
