# generated using pymatgen
data_Pr(Ga2Pd)2
_symmetry_space_group_name_H-M   'P 1'
_cell_length_a   4.40227600
_cell_length_b   6.69756300
_cell_length_c   17.57560400
_cell_angle_alpha   90.00000000
_cell_angle_beta   90.00000000
_cell_angle_gamma   90.00000000
_symmetry_Int_Tables_number   1
_chemical_formula_structural   Pr(Ga2Pd)2
_chemical_formula_sum   'Pr4 Ga16 Pd8'
_cell_volume   518.20826265
_cell_formula_units_Z   4
loop_
 _symmetry_equiv_pos_site_id
 _symmetry_equiv_pos_as_xyz
  1  'x, y, z'
loop_
 _atom_site_type_symbol
 _atom_site_label
 _atom_site_symmetry_multiplicity
 _atom_site_fract_x
 _atom_site_fract_y
 _atom_site_fract_z
 _atom_site_occupancy
  Pr  Pr0  1  0.250000  0.512465  0.862408  1
  Pr  Pr1  1  0.750000  0.012465  0.637592  1
  Pr  Pr2  1  0.750000  0.487535  0.137592  1
  Pr  Pr3  1  0.250000  0.987535  0.362408  1
  Ga  Ga4  1  0.750000  0.272419  0.307686  1
  Ga  Ga5  1  0.750000  0.489244  0.572465  1
  Ga  Ga6  1  0.750000  0.673581  0.315846  1
  Ga  Ga7  1  0.250000  0.989244  0.927535  1
  Ga  Ga8  1  0.750000  0.325051  0.962664  1
  Ga  Ga9  1  0.250000  0.772419  0.192314  1
  Ga  Ga10  1  0.250000  0.674949  0.037336  1
  Ga  Ga11  1  0.250000  0.825051  0.537336  1
  Ga  Ga12  1  0.750000  0.227581  0.807686  1
  Ga  Ga13  1  0.250000  0.510756  0.427535  1
  Ga  Ga14  1  0.250000  0.173581  0.184154  1
  Ga  Ga15  1  0.750000  0.826419  0.815846  1
  Ga  Ga16  1  0.250000  0.727581  0.692314  1
  Ga  Ga17  1  0.750000  0.010756  0.072465  1
  Ga  Ga18  1  0.250000  0.326419  0.684154  1
  Ga  Ga19  1  0.750000  0.174949  0.462664  1
  Pd  Pd20  1  0.250000  0.254414  0.535645  1
  Pd  Pd21  1  0.750000  0.531847  0.717204  1
  Pd  Pd22  1  0.750000  0.745586  0.464355  1
  Pd  Pd23  1  0.250000  0.245586  0.035645  1
  Pd  Pd24  1  0.750000  0.754414  0.964355  1
  Pd  Pd25  1  0.250000  0.468153  0.282796  1
  Pd  Pd26  1  0.750000  0.968153  0.217204  1
  Pd  Pd27  1  0.250000  0.031847  0.782796  1
