# generated using pymatgen
data_Zr10GaCoSb6
_symmetry_space_group_name_H-M   'P 1'
_cell_length_a   5.86018000
_cell_length_b   8.65505382
_cell_length_c   8.65505300
_cell_angle_alpha   119.99999306
_cell_angle_beta   90.00000000
_cell_angle_gamma   90.00000000
_symmetry_Int_Tables_number   1
_chemical_formula_structural   Zr10GaCoSb6
_chemical_formula_sum   'Zr10 Ga1 Co1 Sb6'
_cell_volume   380.17287075
_cell_formula_units_Z   1
loop_
 _symmetry_equiv_pos_site_id
 _symmetry_equiv_pos_as_xyz
  1  'x, y, z'
loop_
 _atom_site_type_symbol
 _atom_site_label
 _atom_site_symmetry_multiplicity
 _atom_site_fract_x
 _atom_site_fract_y
 _atom_site_fract_z
 _atom_site_occupancy
  Zr  Zr0  1  0.738100  0.741073  0.741073  1
  Zr  Zr1  1  0.261900  0.258927  0.258927  1
  Zr  Zr2  1  0.738100  0.000000  0.258927  1
  Zr  Zr3  1  0.261900  0.000000  0.741073  1
  Zr  Zr4  1  0.738100  0.258927  0.000000  1
  Zr  Zr5  1  0.261900  0.741073  0.000000  1
  Zr  Zr6  1  0.000000  0.666667  0.333333  1
  Zr  Zr7  1  0.000000  0.333333  0.666667  1
  Zr  Zr8  1  0.500000  0.333333  0.666667  1
  Zr  Zr9  1  0.500000  0.666667  0.333333  1
  Ga  Ga10  1  0.000000  0.000000  0.000000  1
  Co  Co11  1  0.500000  0.000000  0.000000  1
  Sb  Sb12  1  0.751613  0.389484  0.389484  1
  Sb  Sb13  1  0.248387  0.610516  0.610516  1
  Sb  Sb14  1  0.751613  0.000000  0.610516  1
  Sb  Sb15  1  0.248387  0.000000  0.389484  1
  Sb  Sb16  1  0.751613  0.610516  0.000000  1
  Sb  Sb17  1  0.248387  0.389484  0.000000  1
