# generated using pymatgen
data_Tb2Er6Cd2OsPt
_symmetry_space_group_name_H-M   'P 1'
_cell_length_a   9.60753834
_cell_length_b   9.60432106
_cell_length_c   9.65954854
_cell_angle_alpha   59.83167452
_cell_angle_beta   59.79868164
_cell_angle_gamma   59.67468910
_symmetry_Int_Tables_number   1
_chemical_formula_structural   Tb2Er6Cd2OsPt
_chemical_formula_sum   'Tb4 Er12 Cd4 Os2 Pt2'
_cell_volume   626.94364857
_cell_formula_units_Z   2
loop_
 _symmetry_equiv_pos_site_id
 _symmetry_equiv_pos_as_xyz
  1  'x, y, z'
loop_
 _atom_site_type_symbol
 _atom_site_label
 _atom_site_symmetry_multiplicity
 _atom_site_fract_x
 _atom_site_fract_y
 _atom_site_fract_z
 _atom_site_occupancy
  Tb  Tb0  1  0.556420  0.938478  0.566439  1
  Tb  Tb1  1  0.938478  0.556420  0.938664  1
  Tb  Tb2  1  0.563830  0.563830  0.936170  1
  Tb  Tb3  1  0.940133  0.940133  0.559867  1
  Er  Er4  1  0.349861  0.349690  0.351196  1
  Er  Er5  1  0.349690  0.349861  0.949254  1
  Er  Er6  1  0.346316  0.954628  0.349474  1
  Er  Er7  1  0.954628  0.346316  0.349581  1
  Er  Er8  1  0.815162  0.187118  0.190053  1
  Er  Er9  1  0.187118  0.815162  0.807667  1
  Er  Er10  1  0.187349  0.815056  0.190196  1
  Er  Er11  1  0.815056  0.187349  0.807399  1
  Er  Er12  1  0.187850  0.187850  0.812150  1
  Er  Er13  1  0.808869  0.808869  0.191131  1
  Er  Er14  1  0.939513  0.555214  0.565613  1
  Er  Er15  1  0.555214  0.939513  0.939660  1
  Cd  Cd16  1  0.580503  0.579644  0.580963  1
  Cd  Cd17  1  0.579644  0.580503  0.258890  1
  Cd  Cd18  1  0.580627  0.256249  0.581827  1
  Cd  Cd19  1  0.256249  0.580627  0.581297  1
  Os  Os20  1  0.145053  0.144023  0.137264  1
  Os  Os21  1  0.144023  0.145053  0.573661  1
  Pt  Pt22  1  0.143905  0.574510  0.141181  1
  Pt  Pt23  1  0.574510  0.143905  0.140406  1
