# generated using pymatgen
data_Tl3Bi5O14
_symmetry_space_group_name_H-M   'P 1'
_cell_length_a   6.62382463
_cell_length_b   6.73571649
_cell_length_c   7.79428300
_cell_angle_alpha   106.67046470
_cell_angle_beta   89.49173068
_cell_angle_gamma   98.92373835
_symmetry_Int_Tables_number   1
_chemical_formula_structural   Tl3Bi5O14
_chemical_formula_sum   'Tl3 Bi5 O14'
_cell_volume   328.86983701
_cell_formula_units_Z   1
loop_
 _symmetry_equiv_pos_site_id
 _symmetry_equiv_pos_as_xyz
  1  'x, y, z'
loop_
 _atom_site_type_symbol
 _atom_site_label
 _atom_site_symmetry_multiplicity
 _atom_site_fract_x
 _atom_site_fract_y
 _atom_site_fract_z
 _atom_site_occupancy
  Tl  Tl0  1  0.466495  0.998514  0.252220  1
  Tl  Tl1  1  0.533503  0.993099  0.748353  1
  Tl  Tl2  1  0.261457  0.536404  0.886495  1
  Bi  Bi3  1  0.004233  0.003671  0.501232  1
  Bi  Bi4  1  0.002411  0.000601  0.999899  1
  Bi  Bi5  1  0.742143  0.468811  0.112925  1
  Bi  Bi6  1  0.730760  0.465644  0.614318  1
  Bi  Bi7  1  0.258343  0.518919  0.389883  1
  O  O8  1  0.444556  0.652088  0.162850  1
  O  O9  1  0.551892  0.337006  0.821067  1
  O  O10  1  0.299399  0.920619  0.951315  1
  O  O11  1  0.703658  0.072592  0.053700  1
  O  O12  1  0.296400  0.909642  0.507254  1
  O  O13  1  0.709771  0.091692  0.491480  1
  O  O14  1  0.528854  0.349282  0.351192  1
  O  O15  1  0.459665  0.644528  0.661353  1
  O  O16  1  0.922680  0.669383  0.956619  1
  O  O17  1  0.076268  0.334655  0.041858  1
  O  O18  1  0.098624  0.340439  0.621879  1
  O  O19  1  0.904761  0.678229  0.371347  1
  O  O20  1  0.885690  0.919906  0.729964  1
  O  O21  1  0.118434  0.094277  0.272794  1
