# generated using pymatgen
data_K3BaUSe5
_symmetry_space_group_name_H-M   'P 1'
_cell_length_a   7.96503313
_cell_length_b   12.04233320
_cell_length_c   8.00080164
_cell_angle_alpha   101.48357634
_cell_angle_beta   101.72831403
_cell_angle_gamma   109.50361789
_symmetry_Int_Tables_number   1
_chemical_formula_structural   K3BaUSe5
_chemical_formula_sum   'K6 Ba2 U2 Se10'
_cell_volume   678.00642804
_cell_formula_units_Z   2
loop_
 _symmetry_equiv_pos_site_id
 _symmetry_equiv_pos_as_xyz
  1  'x, y, z'
loop_
 _atom_site_type_symbol
 _atom_site_label
 _atom_site_symmetry_multiplicity
 _atom_site_fract_x
 _atom_site_fract_y
 _atom_site_fract_z
 _atom_site_occupancy
  K  K0  1  0.989827  0.492972  0.992761  1
  K  K1  1  0.807394  0.303091  0.420752  1
  K  K2  1  0.007263  0.004005  0.504377  1
  K  K3  1  0.200283  0.695846  0.586407  1
  K  K4  1  0.396881  0.397836  0.702134  1
  K  K5  1  0.580918  0.099594  0.792722  1
  Ba  Ba6  1  0.417621  0.907120  0.210075  1
  Ba  Ba7  1  0.601946  0.595209  0.296644  1
  U  U8  1  0.192396  0.199377  0.100452  1
  U  U9  1  0.806253  0.804765  0.897119  1
  Se  Se10  1  0.534130  0.322460  0.063483  1
  Se  Se11  1  0.830743  0.032558  0.112218  1
  Se  Se12  1  0.985336  0.757597  0.198800  1
  Se  Se13  1  0.193137  0.410827  0.311307  1
  Se  Se14  1  0.374247  0.153662  0.398714  1
  Se  Se15  1  0.621984  0.842252  0.584882  1
  Se  Se16  1  0.813686  0.597330  0.687423  1
  Se  Se17  1  0.016552  0.238345  0.802587  1
  Se  Se18  1  0.161015  0.961457  0.888148  1
  Se  Se19  1  0.468394  0.683697  0.948994  1
