# generated using pymatgen
data_Lu8B24Rh3W
_symmetry_space_group_name_H-M   'P 1'
_cell_length_a   3.59467100
_cell_length_b   9.08014185
_cell_length_c   11.43364804
_cell_angle_alpha   89.77786314
_cell_angle_beta   90.00000000
_cell_angle_gamma   90.00000000
_symmetry_Int_Tables_number   1
_chemical_formula_structural   Lu8B24Rh3W
_chemical_formula_sum   'Lu8 B24 Rh3 W1'
_cell_volume   373.19286887
_cell_formula_units_Z   1
loop_
 _symmetry_equiv_pos_site_id
 _symmetry_equiv_pos_as_xyz
  1  'x, y, z'
loop_
 _atom_site_type_symbol
 _atom_site_label
 _atom_site_symmetry_multiplicity
 _atom_site_fract_x
 _atom_site_fract_y
 _atom_site_fract_z
 _atom_site_occupancy
  Lu  Lu0  1  0.000000  0.322664  0.413431  1
  Lu  Lu1  1  0.000000  0.680155  0.583325  1
  Lu  Lu2  1  0.000000  0.817472  0.089260  1
  Lu  Lu3  1  0.000000  0.177731  0.914945  1
  Lu  Lu4  1  0.000000  0.945553  0.374510  1
  Lu  Lu5  1  0.000000  0.057559  0.628536  1
  Lu  Lu6  1  0.000000  0.444263  0.125291  1
  Lu  Lu7  1  0.000000  0.555801  0.870957  1
  B  B8  1  0.500000  0.551309  0.436332  1
  B  B9  1  0.500000  0.446586  0.566359  1
  B  B10  1  0.500000  0.052517  0.065402  1
  B  B11  1  0.500000  0.944913  0.935518  1
  B  B12  1  0.500000  0.752781  0.422501  1
  B  B13  1  0.500000  0.250790  0.579998  1
  B  B14  1  0.500000  0.249097  0.078166  1
  B  B15  1  0.500000  0.749108  0.921089  1
  B  B16  1  0.500000  0.796700  0.263198  1
  B  B17  1  0.500000  0.205625  0.737423  1
  B  B18  1  0.500000  0.292133  0.234274  1
  B  B19  1  0.500000  0.707069  0.763065  1
  B  B20  1  0.500000  0.631393  0.181625  1
  B  B21  1  0.500000  0.367163  0.816563  1
  B  B22  1  0.500000  0.132725  0.317080  1
  B  B23  1  0.500000  0.869176  0.683527  1
  B  B24  1  0.500000  0.982634  0.212600  1
  B  B25  1  0.500000  0.018313  0.788365  1
  B  B26  1  0.500000  0.478066  0.285799  1
  B  B27  1  0.500000  0.518886  0.712191  1
  B  B28  1  0.500000  0.604529  0.026531  1
  B  B29  1  0.500000  0.393499  0.969717  1
  B  B30  1  0.500000  0.107265  0.472131  1
  B  B31  1  0.500000  0.897500  0.530615  1
  Rh  Rh32  1  0.000000  0.361453  0.679023  1
  Rh  Rh33  1  0.000000  0.138826  0.178578  1
  Rh  Rh34  1  0.000000  0.860661  0.821332  1
  W  W35  1  0.000000  0.638087  0.320740  1
