# generated using pymatgen
data_La2Tb3DyRh18
_symmetry_space_group_name_H-M   'P 1'
_cell_length_a   5.31408100
_cell_length_b   5.31407976
_cell_length_c   17.57578100
_cell_angle_alpha   90.00000000
_cell_angle_beta   90.00000000
_cell_angle_gamma   120.00000150
_symmetry_Int_Tables_number   1
_chemical_formula_structural   La2Tb3DyRh18
_chemical_formula_sum   'La2 Tb3 Dy1 Rh18'
_cell_volume   429.83472315
_cell_formula_units_Z   1
loop_
 _symmetry_equiv_pos_site_id
 _symmetry_equiv_pos_as_xyz
  1  'x, y, z'
loop_
 _atom_site_type_symbol
 _atom_site_label
 _atom_site_symmetry_multiplicity
 _atom_site_fract_x
 _atom_site_fract_y
 _atom_site_fract_z
 _atom_site_occupancy
  La  La0  1  0.333333  0.666667  0.750076  1
  La  La1  1  0.666667  0.333333  0.250102  1
  Tb  Tb2  1  0.333333  0.666667  0.541610  1
  Tb  Tb3  1  0.666667  0.333333  0.041427  1
  Tb  Tb4  1  0.666667  0.333333  0.458414  1
  Dy  Dy5  1  0.333333  0.666667  0.958355  1
  Rh  Rh6  1  0.167540  0.335082  0.124507  1
  Rh  Rh7  1  0.832664  0.665328  0.624519  1
  Rh  Rh8  1  0.664918  0.832460  0.124507  1
  Rh  Rh9  1  0.167540  0.832460  0.124507  1
  Rh  Rh10  1  0.832664  0.167336  0.624519  1
  Rh  Rh11  1  0.334672  0.167336  0.624519  1
  Rh  Rh12  1  0.832530  0.665060  0.875411  1
  Rh  Rh13  1  0.832530  0.167470  0.875411  1
  Rh  Rh14  1  0.334940  0.167470  0.875411  1
  Rh  Rh15  1  0.665148  0.832574  0.375599  1
  Rh  Rh16  1  0.167426  0.832574  0.375599  1
  Rh  Rh17  1  0.167426  0.334852  0.375599  1
  Rh  Rh18  1  0.000000  0.000000  0.249990  1
  Rh  Rh19  1  0.000000  0.000000  0.749903  1
  Rh  Rh20  1  0.333333  0.666667  0.250044  1
  Rh  Rh21  1  0.666667  0.333333  0.749953  1
  Rh  Rh22  1  0.000000  0.000000  0.999983  1
  Rh  Rh23  1  0.000000  0.000000  0.500038  1
