# generated using pymatgen
data_Ca(Tc2Ge)2
_symmetry_space_group_name_H-M   'P 1'
_cell_length_a   7.56262870
_cell_length_b   7.56262840
_cell_length_c   4.11382900
_cell_angle_alpha   90.00000000
_cell_angle_beta   90.00000000
_cell_angle_gamma   148.14832822
_symmetry_Int_Tables_number   1
_chemical_formula_structural   Ca(Tc2Ge)2
_chemical_formula_sum   'Ca1 Tc4 Ge2'
_cell_volume   124.16437766
_cell_formula_units_Z   1
loop_
 _symmetry_equiv_pos_site_id
 _symmetry_equiv_pos_as_xyz
  1  'x, y, z'
loop_
 _atom_site_type_symbol
 _atom_site_label
 _atom_site_symmetry_multiplicity
 _atom_site_fract_x
 _atom_site_fract_y
 _atom_site_fract_z
 _atom_site_occupancy
  Ca  Ca0  1  0.000000  0.000000  0.000000  1
  Tc  Tc1  1  0.806543  0.193457  0.500000  1
  Tc  Tc2  1  0.193457  0.806543  0.500000  1
  Tc  Tc3  1  0.699440  0.300560  0.000000  1
  Tc  Tc4  1  0.300560  0.699440  0.000000  1
  Ge  Ge5  1  0.588884  0.411116  0.500000  1
  Ge  Ge6  1  0.411116  0.588884  0.500000  1
