# generated using pymatgen
data_Ac2Al3Ag14
_symmetry_space_group_name_H-M   'P 1'
_cell_length_a   7.31066409
_cell_length_b   7.31066377
_cell_length_c   7.31066318
_cell_angle_alpha   83.04149100
_cell_angle_beta   83.04149383
_cell_angle_gamma   83.04149172
_symmetry_Int_Tables_number   1
_chemical_formula_structural   Ac2Al3Ag14
_chemical_formula_sum   'Ac2 Al3 Ag14'
_cell_volume   382.73514007
_cell_formula_units_Z   1
loop_
 _symmetry_equiv_pos_site_id
 _symmetry_equiv_pos_as_xyz
  1  'x, y, z'
loop_
 _atom_site_type_symbol
 _atom_site_label
 _atom_site_symmetry_multiplicity
 _atom_site_fract_x
 _atom_site_fract_y
 _atom_site_fract_z
 _atom_site_occupancy
  Ac  Ac0  1  0.654240  0.654240  0.654240  1
  Ac  Ac1  1  0.345760  0.345760  0.345760  1
  Al  Al2  1  0.000000  0.000000  0.500000  1
  Al  Al3  1  0.000000  0.500000  0.000000  1
  Al  Al4  1  0.500000  0.000000  0.000000  1
  Ag  Ag5  1  0.344336  0.344336  0.857787  1
  Ag  Ag6  1  0.857787  0.344336  0.344336  1
  Ag  Ag7  1  0.101015  0.101015  0.101015  1
  Ag  Ag8  1  0.898985  0.898985  0.898985  1
  Ag  Ag9  1  0.295747  0.704253  0.000000  1
  Ag  Ag10  1  0.704253  0.000000  0.295747  1
  Ag  Ag11  1  0.000000  0.295747  0.704253  1
  Ag  Ag12  1  0.704253  0.295747  0.000000  1
  Ag  Ag13  1  0.295747  0.000000  0.704253  1
  Ag  Ag14  1  0.000000  0.704253  0.295747  1
  Ag  Ag15  1  0.142213  0.655664  0.655664  1
  Ag  Ag16  1  0.655664  0.655664  0.142213  1
  Ag  Ag17  1  0.655664  0.142213  0.655664  1
  Ag  Ag18  1  0.344336  0.857787  0.344336  1
