# generated using pymatgen
data_Ca4LaRu
_symmetry_space_group_name_H-M   'P 1'
_cell_length_a   6.79874700
_cell_length_b   7.51542300
_cell_length_c   16.44078600
_cell_angle_alpha   90.00000000
_cell_angle_beta   90.00000000
_cell_angle_gamma   90.00000000
_symmetry_Int_Tables_number   1
_chemical_formula_structural   Ca4LaRu
_chemical_formula_sum   'Ca16 La4 Ru4'
_cell_volume   840.04951644
_cell_formula_units_Z   4
loop_
 _symmetry_equiv_pos_site_id
 _symmetry_equiv_pos_as_xyz
  1  'x, y, z'
loop_
 _atom_site_type_symbol
 _atom_site_label
 _atom_site_symmetry_multiplicity
 _atom_site_fract_x
 _atom_site_fract_y
 _atom_site_fract_z
 _atom_site_occupancy
  Ca  Ca0  1  0.351176  0.308984  0.059842  1
  Ca  Ca1  1  0.648824  0.691016  0.940158  1
  Ca  Ca2  1  0.851176  0.191016  0.940158  1
  Ca  Ca3  1  0.648824  0.691016  0.559842  1
  Ca  Ca4  1  0.148824  0.808984  0.059842  1
  Ca  Ca5  1  0.351176  0.308984  0.440158  1
  Ca  Ca6  1  0.148824  0.808984  0.440158  1
  Ca  Ca7  1  0.851176  0.191016  0.559842  1
  Ca  Ca8  1  0.324851  0.038404  0.645903  1
  Ca  Ca9  1  0.675149  0.961596  0.354097  1
  Ca  Ca10  1  0.824851  0.461596  0.354097  1
  Ca  Ca11  1  0.675149  0.961596  0.145903  1
  Ca  Ca12  1  0.175149  0.538404  0.645903  1
  Ca  Ca13  1  0.324851  0.038404  0.854097  1
  Ca  Ca14  1  0.175149  0.538404  0.854097  1
  Ca  Ca15  1  0.824851  0.461596  0.145903  1
  La  La16  1  0.156973  0.079377  0.250000  1
  La  La17  1  0.843027  0.920623  0.750000  1
  La  La18  1  0.656973  0.420623  0.750000  1
  La  La19  1  0.343027  0.579377  0.250000  1
  Ru  Ru20  1  0.493925  0.275174  0.250000  1
  Ru  Ru21  1  0.506075  0.724826  0.750000  1
  Ru  Ru22  1  0.993925  0.224826  0.750000  1
  Ru  Ru23  1  0.006075  0.775174  0.250000  1
